#------------------------------------------------------------------------------
#$Date: 2016-08-07 11:00:38 +0300 (Sun, 07 Aug 2016) $
#$Revision: 185131 $
#$URL: file:///home/coder/svn-repositories/cod/cif/1/54/29/1542966.cif $
#------------------------------------------------------------------------------
#
# This file is available in the Crystallography Open Database (COD),
# http://www.crystallography.net/
#
# All data on this site have been placed in the public domain by the
# contributors.
#
data_1542966
loop_
_publ_author_name
'Huang, Manna'
'Yu, Ruina'
'Xu, Ke'
'Ye, Shuxian'
'Kuang, Shi'
'Zhu, Xinhai'
'Wan, Yiqian'
_publ_section_title
;
 An arch-bridge-type fluorophore for bridging the gap between
 aggregation-caused quenching (ACQ) and aggregation-induced emission (AIE)
;
_journal_issue                   7
_journal_name_full               'Chem. Sci.'
_journal_page_first              4485
_journal_paper_doi               10.1039/C6SC01254J
_journal_volume                  7
_journal_year                    2016
_chemical_formula_sum            'C23 H17 Cl N2 O S2'
_chemical_formula_weight         436.97
_chemical_name_common            DF1
_chemical_name_systematic
-(8-(2-chlorophenyl)-6-isopropylthiazolo[5,4-b]thieno[3,2-e]pyridin-2-yl)phenol
_space_group_crystal_system      orthorhombic
_space_group_IT_number           61
_space_group_name_Hall           '-P 2ac 2ab'
_space_group_name_H-M_alt        'P b c a'
_symmetry_space_group_name_Hall  '-P 2ac 2ab'
_symmetry_space_group_name_H-M   'P b c a'
_atom_sites_solution_hydrogens   mixed
_audit_creation_method           SHELXL-2014/7
_audit_update_record
;
2015-11-08 deposited with the CCDC.
2016-03-29 downloaded from the CCDC.
;
_cell_angle_alpha                90
_cell_angle_beta                 90
_cell_angle_gamma                90
_cell_formula_units_Z            8
_cell_length_a                   9.1702(4)
_cell_length_b                   18.4101(9)
_cell_length_c                   24.3386(11)
_cell_measurement_reflns_used    6402
_cell_measurement_temperature    293(2)
_cell_measurement_theta_max      29.0980
_cell_measurement_theta_min      2.7600
_cell_volume                     4108.9(3)
_computing_cell_refinement       'Bruker FRAMBO'
_computing_data_collection       'Bruker FRAMBO'
_computing_data_reduction        'Bruker SAINT'
_computing_molecular_graphics    'Bruker SHELXTL'
_computing_publication_material  'Bruker SHELXTL'
_computing_structure_refinement  'SHELXL-2014/7 (Sheldrick, 2014)'
_computing_structure_solution    'Bruker SHELXTL'
_diffrn_ambient_temperature      293(2)
_diffrn_detector_area_resol_mean 10.5058
_diffrn_measured_fraction_theta_full 0.999
_diffrn_measured_fraction_theta_max 0.889
_diffrn_measurement_device_type  'multiwire proportional'
_diffrn_measurement_method       'phi and omega scans'
_diffrn_radiation_type           MoK\a
_diffrn_radiation_wavelength     0.71073
_diffrn_reflns_av_R_equivalents  0.0339
_diffrn_reflns_av_unetI/netI     0.0365
_diffrn_reflns_Laue_measured_fraction_full 0.999
_diffrn_reflns_Laue_measured_fraction_max 0.889
_diffrn_reflns_limit_h_max       11
_diffrn_reflns_limit_h_min       -12
_diffrn_reflns_limit_k_max       24
_diffrn_reflns_limit_k_min       -23
_diffrn_reflns_limit_l_max       31
_diffrn_reflns_limit_l_min       -30
_diffrn_reflns_number            17973
_diffrn_reflns_point_group_measured_fraction_full 0.999
_diffrn_reflns_point_group_measured_fraction_max 0.889
_diffrn_reflns_theta_full        25.242
_diffrn_reflns_theta_max         29.495
_diffrn_reflns_theta_min         2.775
_diffrn_source                   'Enhance (Mo) X-ray Source'
_exptl_absorpt_coefficient_mu    0.407
_exptl_absorpt_correction_T_max  1.00000
_exptl_absorpt_correction_T_min  0.90900
_exptl_absorpt_correction_type   multi-scan
_exptl_absorpt_process_details
; 
'Wed Jan 14 09:10:31 2015' 
;
_exptl_crystal_colour            colorless
_exptl_crystal_density_diffrn    1.413
_exptl_crystal_description       block
_exptl_crystal_F_000             1808
_exptl_crystal_recrystallization_method
'Re-crystallisation from solvent: CHCl3/hexane'
_exptl_crystal_size_max          0.1
_exptl_crystal_size_mid          0.1
_exptl_crystal_size_min          0.1
_refine_diff_density_max         1.201
_refine_diff_density_min         -0.911
_refine_diff_density_rms         0.082
_refine_ls_extinction_method     none
_refine_ls_goodness_of_fit_ref   1.029
_refine_ls_hydrogen_treatment    mixed
_refine_ls_matrix_type           full
_refine_ls_number_parameters     274
_refine_ls_number_reflns         5086
_refine_ls_number_restraints     6
_refine_ls_restrained_S_all      1.029
_refine_ls_R_factor_all          0.0833
_refine_ls_R_factor_gt           0.0627
_refine_ls_shift/su_max          0.001
_refine_ls_shift/su_mean         0.000
_refine_ls_structure_factor_coef Fsqd
_refine_ls_weighting_details
'w=1/[\s^2^(Fo^2^)+(0.0854P)^2^+7.4822P] where P=(Fo^2^+2Fc^2^)/3'
_refine_ls_weighting_scheme      calc
_refine_ls_wR_factor_gt          0.1646
_refine_ls_wR_factor_ref         0.1821
_reflns_Friedel_coverage         0.000
_reflns_number_gt                3919
_reflns_number_total             5086
_reflns_threshold_expression     'I > 2\s(I)'
_cod_data_source_file            c6sc01254j2.cif
_cod_data_source_block           A
_cod_depositor_comments
'Adding full bibliography for 1542965--1542969.cif.'
_cod_database_code               1542966
_shelx_shelxl_version_number     2014/7
_shelx_space_group_comment
; 
The symmetry employed for this shelxl refinement is uniquely defined 
by the following loop, which should always be used as a source of 
symmetry information in preference to the above space-group names. 
They are only intended as comments. 
;
_shelx_res_file
; 
  
    A.res created by SHELXL-2014/7 
  
  
TITL 01141A in Pbca 
CELL 0.71073   9.1702  18.4101  24.3386  90.000  90.000  90.000 
ZERR    8.00   0.0004   0.0009   0.0011   0.000   0.000   0.000 
LATT 1 
SYMM 0.5-X, -Y, 0.5+Z 
SYMM -X, 0.5+Y, 0.5-Z 
SYMM 0.5+X, 0.5-Y, -Z 
SFAC C  H  N  O  S  Cl 
UNIT 184 136 16 8 16 8 
L.S. 20 
BOND $H 
CONF 
HTAB 
ACTA 
FMAP 2 
PLAN -1 
  
EADP C25 C25' C26 C26' 
SADI C22 C25 C22 C26' C22' C25' C22' C26' 
EADP C22 C22' 
  
HTAB O9 N2 
EQIV $1 x-1/2, -y+1/2, -z+1 
HTAB C17 N1_$1 
  
WGHT    0.085400    7.482200 
FVAR       3.19055   0.64447 
S1    5    0.462641    0.079536    0.649910    11.00000    0.03577    0.04889 = 
         0.02067    0.00765   -0.00109   -0.00737 
CL1   6    0.488914    0.303128    0.506504    11.00000    0.05105    0.03195 = 
         0.04826   -0.00646    0.00150    0.00293 
N1    3    0.634439    0.037435    0.566522    11.00000    0.02769    0.02569 = 
         0.02850    0.00346   -0.00588   -0.00502 
S2    5    0.814002    0.001434    0.482518    11.00000    0.02359    0.02962 = 
         0.03764   -0.00254   -0.00451    0.00476 
N2    3    0.665191    0.094289    0.424752    11.00000    0.02317    0.02557 = 
         0.02613   -0.00356    0.00254    0.00014 
C3    1    0.525023    0.079402    0.582537    11.00000    0.02529    0.02760 = 
         0.02333    0.00215   -0.00335   -0.00682 
C4    1    0.483889    0.135983    0.493656    11.00000    0.02320    0.02511 = 
         0.02114    0.00046    0.00032   -0.00063 
C5    1    0.446770    0.129604    0.549438    11.00000    0.02320    0.03044 = 
         0.02049    0.00033   -0.00024   -0.00444 
C6    1    0.669880    0.046288    0.514242    11.00000    0.02166    0.02146 = 
         0.02895    0.00004   -0.00373   -0.00171 
C7    1    0.602006    0.093674    0.476299    11.00000    0.02238    0.02226 = 
         0.02509   -0.00117    0.00050   -0.00271 
C8    1    0.777621    0.050462    0.422426    11.00000    0.02348    0.02695 = 
         0.02995   -0.00656   -0.00146   -0.00341 
O9    4    0.714180    0.120815    0.320241    11.00000    0.06417    0.05805 = 
         0.03589    0.00867    0.01790    0.02543 
H9O   2    0.670821    0.121917    0.347411    11.00000    0.05902 
C10   1    0.870551    0.043316    0.374462    11.00000    0.02481    0.04056 = 
         0.03301   -0.01452    0.00019   -0.00180 
C11   1    0.333032    0.146733    0.634565    11.00000    0.02611    0.06649 = 
         0.02291   -0.00013    0.00175   -0.00004 
C12   1    0.336257    0.166068    0.581094    11.00000    0.02582    0.04962 = 
         0.02589    0.00009   -0.00035    0.00384 
AFIX  43 
H12A  2    0.272634    0.199985    0.566020    11.00000   -1.20000 
AFIX   0 
C13   1    0.398597    0.180720    0.454398    11.00000    0.03006    0.03337 = 
         0.02160    0.00278    0.00545    0.00926 
C14   1    0.835685    0.079606    0.325539    11.00000    0.03814    0.03957 = 
         0.03738   -0.00945    0.00841   -0.00098 
C15   1    0.320404    0.144923    0.412200    11.00000    0.03661    0.04289 = 
         0.02882    0.00443    0.00152    0.01217 
AFIX  43 
H15A  2    0.328058    0.094795    0.408457    11.00000   -1.20000 
AFIX   0 
C16   1    0.388812    0.255552    0.457307    11.00000    0.03866    0.03774 = 
         0.02766   -0.00111    0.00569    0.00996 
C17   1    0.301731    0.294345    0.420782    11.00000    0.06103    0.03751 = 
         0.04088    0.00260    0.00445    0.02334 
AFIX  43 
H17A  2    0.296304    0.344672    0.423369    11.00000   -1.20000 
AFIX   0 
C18   1    0.232629    0.183775    0.376433    11.00000    0.05537    0.05421 = 
         0.02941   -0.00410   -0.00889    0.01854 
AFIX  43 
H18A  2    0.179770    0.159562    0.349451    11.00000   -1.20000 
AFIX   0 
C19   1    0.926707    0.073004    0.279762    11.00000    0.04889    0.06118 = 
         0.03345   -0.01006    0.01162   -0.00221 
AFIX  43 
H19A  2    0.903381    0.096723    0.247189    11.00000   -1.20000 
AFIX   0 
C20   1    0.223479    0.258354    0.380768    11.00000    0.06655    0.05437 = 
         0.03360    0.00553   -0.00495    0.03045 
AFIX  43 
H20A  2    0.164522    0.284372    0.356699    11.00000   -1.20000 
AFIX   0 
C21   1    1.087687   -0.005401    0.331180    11.00000    0.02933    0.10656 = 
         0.04357   -0.02997   -0.00365    0.01597 
AFIX  43 
H21A  2    1.171582   -0.033686    0.332956    11.00000   -1.20000 
AFIX   0 
C23   1    1.051610    0.031088    0.283032    11.00000    0.03468    0.08463 = 
         0.04390   -0.02946    0.01164   -0.00449 
AFIX  43 
H23A  2    1.112364    0.027254    0.252574    11.00000   -1.20000 
AFIX   0 
C24   1    0.997849    0.000872    0.376064    11.00000    0.02953    0.08023 = 
         0.03944   -0.02226   -0.00372    0.01459 
AFIX  43 
H24A  2    1.021805   -0.023540    0.408276    11.00000   -1.20000 
AFIX   0 
PART   1 
C22   1    0.240949    0.176462    0.681319    21.00000    0.04550    0.13680 = 
         0.02138    0.00066    0.00962    0.02257 
AFIX  13 
H22A  2    0.295432    0.219100    0.693956    21.00000   -1.20000 
AFIX   0 
C25   1    0.104160    0.207074    0.659593    21.00000    0.05487    0.08651 = 
         0.03326   -0.00263    0.00831    0.02162 
AFIX 137 
H25A  2    0.047858    0.226906    0.689271    21.00000   -1.50000 
H25B  2    0.049278    0.169485    0.641710    21.00000   -1.50000 
H25C  2    0.126213    0.244776    0.633642    21.00000   -1.50000 
AFIX   0 
C26   1    0.228635    0.132474    0.729068    21.00000    0.05487    0.08651 = 
         0.03326   -0.00263    0.00831    0.02162 
AFIX 137 
H26A  2    0.169317    0.156861    0.755827    21.00000   -1.50000 
H26B  2    0.323863    0.123914    0.744119    21.00000   -1.50000 
H26C  2    0.184404    0.086929    0.719518    21.00000   -1.50000 
AFIX   0 
PART   2 
C22'  1    0.242261    0.180666    0.677635   -21.00000    0.04550    0.13680 = 
         0.02138    0.00066    0.00962    0.02257 
AFIX  13 
H22B  2    0.197722    0.222826    0.659671   -21.00000   -1.20000 
AFIX   0 
C25'  1    0.120261    0.140148    0.699988   -21.00000    0.05487    0.08651 = 
         0.03326   -0.00263    0.00831    0.02162 
AFIX 137 
H25D  2    0.087602    0.162859    0.733293   -21.00000   -1.50000 
H25E  2    0.150396    0.091258    0.707686   -21.00000   -1.50000 
H25F  2    0.042041    0.139511    0.673777   -21.00000   -1.50000 
AFIX   0 
C26'  1    0.324239    0.211113    0.723779   -21.00000    0.05487    0.08651 = 
         0.03326   -0.00263    0.00831    0.02162 
AFIX 137 
H26D  2    0.257495    0.229190    0.750916   -21.00000   -1.50000 
H26E  2    0.384737    0.250127    0.710921   -21.00000   -1.50000 
H26F  2    0.384276    0.173998    0.739778   -21.00000   -1.50000 
PART   0 
  
AFIX   0 
HKLF 4 
  
REM  01141A in Pbca 
REM R1 =  0.0627 for    3919 Fo > 4sig(Fo)  and  0.0833 for all    5086 data 
REM    274 parameters refined using      6 restraints 
  
END 
  
WGHT      0.0853      7.4888 
  
REM Instructions for potential hydrogen bonds 
HTAB O9 N2 
HTAB C17 N1_$1 
  
REM Highest difference peak  1.201,  deepest hole -0.911,  1-sigma level  0.082 
Q1    1   0.3126  0.1818  0.7303  11.00000  0.05    1.05 
;
_shelx_res_checksum              19914
_shelx_hkl_file
; 
   0   0   3 776.660 95.0849   3 
   0   0   4 1671.82 130.491   4 
   0   0   5 205.695 90.2409   4 
   0   0   6 363358. 4683.21   4 
   0   0   7 887.003 180.443   4 
   0   0  -7 47.5953 94.0923   3 
   0   0   8 45911.4 1075.35   4 
   0   0  -8 47130.7 1010.11   3 
   0   0  -9 123.047 80.6278   3 
   0   0   9 11.2411 81.3799   4 
   0   0  10 6948.04 426.011   4 
   0   0 -10 7228.77 392.685   3 
   0   0 -11 526.750 158.008   3 
   0   0  11 532.851 195.473   4 
   0   0  12 257425. 4014.26   4 
   0   0 -12 258633. 3830.35   3 
   0   0 -13 1906.88 288.653   3 
   0   0  13 2968.63 409.822   4 
   0   0  14 233153. 3928.61   4 
   0   0 -14 241034. 3710.10   3 
   0   0 -15 1595.48 257.917   3 
   0   0  15 1815.60 315.434   4 
   0   0  16 6341.64 519.958   4 
   0   0  17 61.1821 121.909   4 
   0   0  18 75.0379 156.368   4 
   0   0  19 437.249 239.104   4 
   0   0 -19 270.143 184.526   3 
   0   0  20 54326.5 1838.51   4 
   0   0 -20 56327.4 1655.80   3 
   0   0  21 436.323 245.067   4 
   0   0 -21 355.901 159.921   3 
   0   0 -22 6199.82 549.694   3 
   0   0  22 5829.25 610.968   4 
   0   0  23 217.902 212.645   4 
   0   0 -23-58.4541 187.772   3 
   0   0  24 4162.58 561.114   4 
   0   0  25 745.807 326.628   4 
   0   0  26 9006.86 848.905   4 
   0   0  27-268.676 229.498   4 
   0   0  28 1263.03 398.090   4 
   0   0  29 1434.06 410.449   4 
   0   1   3 42.7227 31.2440   3 
   0   1   4-17.1199 49.1588   4 
   0   1   4 38.4483 47.4993   3 
   0  -1   5 12.6514 54.1727   4 
   0   1   5 131.437 72.1585   4 
   0   1   5 43.8287 63.6376   3 
   0  -1   6 212.436 106.114   4 
   0   1  -6 262.949 71.1039   3 
   0   1   6 327.842 99.7401   3 
   0   1   6 313.474 95.5303   4 
   0   1  -7 18.1004 47.3137   3 
   0  -1   7 60.8155 66.4952   4 
   0   1   7 5.99114 67.2561   4 
   0   1   7 11.4757 64.4844   3 
   0   1  -8 54.2966 50.0150   3 
   0  -1   8 26.5991 59.6168   4 
   0   1   8 43.5687 65.2301   4 
   0   1   9 159.426 79.8258   4 
   0  -1   9 57.0593 63.2261   4 
   0  -1  -9 26.1602 54.3309   3 
   0   1  -9-25.3819 49.5182   3 
   0   1  10 92.5053 79.6861   4 
   0  -1  10 123.604 83.3333   4 
   0   1 -10 49.8266 66.0114   3 
   0  -1 -10 100.830 76.0082   3 
   0  -1  11 237.340 135.060   4 
   0  -1 -11 229.241 110.527   3 
   0   1 -11 198.597 94.2664   3 
   0   1  11 158.489 105.487   4 
   0  -1 -12 167.128 123.763   3 
   0  -1  12 149.984 125.128   4 
   0   1 -12 180.328 129.656   3 
   0   1  12 255.029 138.058   4 
   0   1 -13 343.381 109.728   3 
   0  -1  13 162.614 121.651   4 
   0   1  13 58.0225 133.880   4 
   0  -1 -13 295.904 133.097   3 
   0  -1  14 138.776 164.201   4 
   0  -1 -14 250.022 158.152   3 
   0   1 -14 414.835 142.818   3 
   0   1  14 450.578 195.494   4 
   0  -1  15 78.8847 139.238   4 
   0   1  15 187.595 128.770   4 
   0   1 -15 29.8129 93.4271   3 
   0  -1  16 139.359 106.543   4 
   0   1  16-4.51747 110.703   4 
   0   1 -16 67.1747 98.7471   3 
   0   1  17 28.1080 156.355   4 
   0   1 -17 111.416 107.876   3 
   0  -1  17 38.7799 142.485   4 
   0  -1  18-142.416 161.321   4 
   0  -1 -18-139.015 161.913   3 
   0   1  18 14.4875 162.809   4 
   0   1  19 172.931 221.890   4 
   0  -1  19 178.995 219.103   4 
   0  -1 -19 337.500 194.024   3 
   0  -1 -20 903.662 273.109   3 
   0   1  20 468.982 299.111   4 
   0  -1  20 1116.82 390.250   4 
   0   1  21 18.2886 176.406   4 
   0   1 -21-72.7884 169.234   3 
   0  -1  21 269.434 252.432   4 
   0  -1 -21-91.5371 161.584   3 
   0   1  22-46.9590 162.027   4 
   0  -1 -22 206.360 137.145   3 
   0   1 -22 343.221 170.819   3 
   0  -1  22 556.989 280.898   4 
   0   1  23 298.410 247.843   4 
   0   1 -23-84.9278 151.546   3 
   0  -1  23 186.212 234.770   4 
   0   1 -24 198.403 171.895   3 
   0  -1  24 453.479 287.540   4 
   0   1  24 112.353 192.354   4 
   0  -1  25 224.988 265.311   4 
   0   1  25 183.796 274.920   4 
   0  -1  26 164.232 244.612   4 
   0   1  26 249.585 301.995   4 
   0  -1  27-104.830 240.523   4 
   0   1  27 317.849 253.312   4 
   0  -1  28 415.257 288.726   4 
   0   1  28-98.1392 228.477   4 
   0  -1  29-265.994 277.938   4 
   0  -1  30 1646.45 600.216   4 
   0  -2   2 5349.23 196.665   1 
   0  -2  -3 9714.06 264.961   4 
   0   2   3 9754.25 342.345   3 
   0  -2  -4 282.597 55.5221   4 
   0   2   4 393.117 95.3680   3 
   0  -2  -5 66097.2 1007.92   5 
   0   2   5 67872.5 1144.32   4 
   0   2   5 65764.1 1246.06   3 
   0  -2   5 67405.2 1014.55   5 
   0  -2  -5 65319.6 1119.71   4 
   0   2  -6 14860.9 370.734   3 
   0  -2  -6 15538.9 478.943   4 
   0  -2  -6 15035.7 363.872   5 
   0  -2   6 15594.4 367.852   5 
   0  -2   6 14633.1 510.245   4 
   0   2   6 14193.8 523.425   3 
   0   2   6 14908.0 482.544   4 
   0   2  -7 6775.49 260.105   3 
   0  -2   7 6200.00 345.386   4 
   0  -2   7 7053.34 231.129   5 
   0  -2  -7 6475.77 222.853   5 
   0   2   7 6862.60 340.701   4 
   0   2   7 6718.35 365.907   3 
   0  -2  -8 102.074 36.6895   5 
   0   2   8 70.0778 77.0421   3 
   0  -2   8 211.142 47.0852   5 
   0   2  -8 60.7798 44.0159   3 
   0  -2   8 93.4602 71.9862   4 
   0   2   8 134.210 73.7051   4 
   0  -2   9 19656.8 420.914   5 
   0   2  -9 19827.9 555.977   3 
   0  -2   9 19257.0 702.962   4 
   0   2   9 20293.3 723.125   3 
   0   2   9 19982.4 685.011   4 
   0  -2 -10 4446.04 345.861   3 
   0  -2  10 3414.35 318.277   4 
   0   2  10 3789.56 328.573   4 
   0   2 -10 3427.45 238.707   3 
   0   2  11 169598. 2876.17   4 
   0  -2 -11 179312. 2926.47   3 
   0  -2  11 171041. 2941.14   4 
   0   2 -11 174905. 2600.74   3 
   0  -2  12 13338.7 678.854   4 
   0   2 -12 13376.3 527.505   3 
   0   2  12 13116.3 656.429   4 
   0  -2 -12 13557.9 653.026   3 
   0  -2 -13 83801.5 1869.48   3 
   0   2 -13 84571.4 1630.63   3 
   0  -2  13 84697.0 1939.82   4 
   0   2  13 81818.1 1866.57   4 
   0   2 -14 25681.2 811.834   3 
   0  -2  14 24007.6 991.682   4 
   0   2  14 24227.7 958.294   4 
   0   2 -15 13555.0 603.123   3 
   0  -2  15 12614.7 731.867   4 
   0   2  15 14734.2 766.740   4 
   0   2  16 26118.7 1070.93   4 
   0  -2  16 26531.6 1107.44   4 
   0   2 -16 26652.5 894.013   3 
   0   2 -17 12280.3 613.178   3 
   0   2  17 11988.7 745.485   4 
   0  -2  17 11129.8 730.290   4 
   0  -2 -17 11396.7 687.309   3 
   0  -2 -18 18904.9 917.779   3 
   0   2 -18 18488.1 788.301   3 
   0   2  18 16879.1 924.704   4 
   0  -2  18 18450.7 979.094   4 
   0   2  19 55429.8 1776.92   4 
   0  -2  19 57103.1 1847.55   4 
   0  -2 -19 58258.6 1740.37   3 
   0  -2 -20 38302.6 1411.85   3 
   0   2  20 34496.6 1419.36   4 
   0  -2  20 36096.5 1487.78   4 
   0   2  21 11802.9 847.317   4 
   0  -2  21 11829.1 877.967   4 
   0  -2  22 54666.9 1955.03   4 
   0   2  22 51239.5 1870.05   4 
   0   2 -22 55695.6 1607.08   3 
   0   2 -23 1388.90 289.665   3 
   0   2  23 1450.50 381.415   4 
   0  -2  23 1535.35 392.416   4 
   0   2 -24 45839.5 1514.07   3 
   0   2  24 39893.2 1715.80   4 
   0  -2  24 42800.9 1802.82   4 
   0   2  25 26758.1 1421.63   4 
   0  -2  25 25621.4 1421.05   4 
   0  -2  26 18199.2 1223.50   4 
   0   2  26 18033.4 1195.85   4 
   0   2  27 562.958 280.301   4 
   0  -2  27 680.468 304.611   4 
   0  -2  28 1152.62 381.174   4 
   0  -2  29 689.284 368.449   4 
   0  -2  30 7231.85 867.971   4 
   0  -3   0 112.238 43.7187   2 
   0  -3   1 108.692 41.2198   3 
   0   3   1 178.246 65.9324   3 
   0   3   2 115.034 62.0517   3 
   0  -3   2 88.2765 60.0312   1 
   0  -3  -3 70.3836 36.5602   4 
   0   3   3-45.0159 69.7301   3 
   0   3   4-37.7630 85.1634   3 
   0   3   4 99.3415 63.6257   4 
   0  -3  -4 113.341 49.7039   4 
   0   3   5 122.022 92.0203   3 
   0  -3  -5 166.190 66.8173   5 
   0  -3  -5 85.5686 47.6114   4 
   0   3   5 182.990 72.4667   4 
   0  -3  -6 5.53369 47.3196   5 
   0  -3  -6-22.1257 51.8013   4 
   0   3   6 19.9074 55.6508   4 
   0   3   6 28.3132 72.5540   3 
   0  -3   6 3.49932 47.3408   5 
   0  -3  -7 34.9951 59.1756   4 
   0  -3   7 166.108 60.4535   5 
   0   3   7 124.031 73.9432   3 
   0   3   7 149.710 71.8730   4 
   0  -3   7-22.0103 86.8306   4 
   0  -3  -7 44.8934 42.0390   5 
   0  -3   8 74.6607 103.791   4 
   0   3   8-11.2899 93.9394   3 
   0  -3  -8 104.673 49.7097   5 
   0   3   8 71.4132 67.8354   4 
   0  -3   8 50.7866 45.5591   5 
   0   3  -8 114.688 53.4782   3 
   0   3   9 181.813 104.250   3 
   0  -3   9 184.885 113.010   4 
   0   3   9 306.859 108.850   4 
   0  -3  -9 87.7837 50.8792   5 
   0  -3   9 98.5636 54.3494   5 
   0   3  -9 133.851 55.3350   3 
   0  -3  10 58.2996 54.3525   5 
   0   3  10-22.0111 91.4009   4 
   0  -3  10-40.8583 119.522   4 
   0  -3 -10 45.7688 46.0117   5 
   0   3  10-131.678 131.879   3 
   0   3 -10 46.9464 48.9459   3 
   0  -3  11 208.112 64.8082   5 
   0  -3  11 119.494 100.916   4 
   0   3 -11 144.739 72.0000   3 
   0  -3 -11-49.9661 128.096   3 
   0   3 -12 74.3642 71.2400   3 
   0  -3  12-76.5543 124.044   4 
   0  -3 -12-77.9786 113.501   3 
   0   3  13 175.787 104.380   4 
   0  -3  13-75.0661 124.831   4 
   0   3 -13 41.0587 64.1358   3 
   0   3  14 125.504 131.229   4 
   0   3 -14 80.4445 66.7854   3 
   0  -3  14-5.07981 111.980   4 
   0   3  15 29.0700 98.4322   4 
   0  -3  15 101.436 99.7195   4 
   0   3 -15 98.5330 73.2440   3 
   0   3 -16-87.1963 87.8187   3 
   0   3  16-27.3906 118.548   4 
   0  -3 -16-153.845 148.574   3 
   0  -3  16-51.2723 139.630   4 
   0   3  17 46.3613 132.186   4 
   0  -3 -17-276.122 200.511   3 
   0  -3  17-73.6369 165.416   4 
   0   3 -17 57.3315 79.4608   3 
   0   3  18-0.56406 153.107   4 
   0   3 -18-80.6463 127.485   3 
   0  -3  18-138.914 164.376   4 
   0  -3 -18-311.068 233.899   3 
   0   3  19 605.734 267.900   4 
   0  -3 -19 213.357 200.465   3 
   0  -3  19 646.077 279.233   4 
   0   3 -19 431.134 167.338   3 
   0   3  20 630.793 276.931   4 
   0  -3  20 164.511 220.205   4 
   0   3  21 347.170 313.740   4 
   0  -3  21 748.139 326.348   4 
   0   3  22 1038.48 392.212   4 
   0  -3  22 1090.13 388.086   4 
   0  -3  23-90.5383 166.858   4 
   0   3 -23-92.2101 137.850   3 
   0  -3  24 443.194 255.747   4 
   0   3  24 167.468 207.525   4 
   0  -3  25 361.467 232.433   4 
   0   3  25 35.8178 209.212   4 
   0  -3  26 530.369 291.139   4 
   0   3  26 276.151 246.647   4 
   0  -3  27 208.744 245.466   4 
   0  -3  28 100.771 215.814   4 
   0  -3  29-53.5651 248.874   4 
   0  -3  30 58.6679 251.278   4 
   0   4   0 1035.15 117.650   3 
   0  -4   0 1115.85 137.170   2 
   0  -4   0 1186.36 119.134   3 
   0  -4  -1 211240. 2928.08   2 
   0   4   1 207617. 2842.09   3 
   0  -4   1 211174. 2698.16   3 
   0   4  -1 207074. 2700.42   3 
   0  -4  -1 209864. 2838.38   3 
   0   4  -2 105872. 1462.81   3 
   0  -4   2 105271. 1667.48   1 
   0   4   2 104138. 1704.48   3 
   0  -4   2 107990. 1459.83   3 
   0  -4   3 70561.8 1241.84   1 
   0   4   3 70187.7 1320.56   3 
   0  -4  -3 70315.4 1008.43   4 
   0   4  -3 72071.1 996.687   3 
   0  -4   3 69650.6 1000.80   3 
   0   4  -4 67884.3 1245.42   1 
   0  -4  -4 69995.5 1067.42   4 
   0   4   4 70344.0 1370.96   3 
   0  -4   4 71321.5 1241.70   1 
   0  -4  -5 26521.2 587.234   4 
   0   4  -5 26360.3 688.311   1 
   0   4   5 25224.1 772.577   3 
   0  -4  -5 26218.8 675.275   5 
   0   4   6 31439.2 721.493   4 
   0   4   6 32071.9 926.115   3 
   0  -4  -6 31531.3 755.819   5 
   0  -4  -6 32393.7 721.499   4 
   0  -4   6 31777.0 764.324   5 
   0   4  -6 31172.6 785.868   1 
   0  -4   7 26835.0 690.267   5 
   0  -4  -7 28937.4 710.603   4 
   0  -4  -7 26076.2 681.302   5 
   0   4   7 27055.3 711.199   4 
   0   4   7 27769.6 876.847   3 
   0   4   8 145184. 2277.79   4 
   0  -4   8 144957. 2166.89   5 
   0   4   8 141924. 2526.30   3 
   0  -4  -8 144216. 2152.59   5 
   0  -4   8 145290. 2412.31   4 
   0   4   9 189275. 3127.41   3 
   0  -4   9 187212. 2661.94   5 
   0   4   9 185583. 2853.78   4 
   0   4  -9 188445. 2457.05   3 
   0  -4   9 182135. 2993.12   4 
   0  -4  -9 189261. 2652.62   5 
   0   4  10 16838.6 754.937   3 
   0  -4 -10 18125.2 542.558   5 
   0   4 -10 19053.7 487.526   3 
   0  -4  10 18505.1 740.259   4 
   0  -4  10 18465.0 548.605   5 
   0   4  10 19157.6 699.231   4 
   0   4  11 708.784 157.330   4 
   0   4 -11 641.575 97.6519   3 
   0   4  11 739.051 187.548   3 
   0  -4  11 788.250 178.271   4 
   0  -4 -11 756.304 108.056   5 
   0  -4  11 717.032 110.659   5 
   0  -4 -12 49490.1 981.641   5 
   0  -4  12 50129.3 995.808   5 
   0   4  12 49400.5 1303.93   4 
   0   4 -12 51041.0 1011.99   3 
   0  -4  12 49078.9 1387.45   4 
   0   4  13 241.779 119.330   4 
   0  -4  13 84.7089 111.273   4 
   0   4  14 1253.20 232.658   4 
   0  -4  14 1293.94 251.970   4 
   0   4 -14 1197.95 154.640   3 
   0   4  15 20393.0 897.489   4 
   0  -4 -15 20638.2 952.321   3 
   0  -4  15 20370.0 951.680   4 
   0   4 -15 22108.9 697.634   3 
   0   4  16 3186.45 368.657   4 
   0   4 -16 2966.41 258.670   3 
   0  -4 -16 2505.59 342.466   3 
   0  -4  16 3285.68 405.740   4 
   0   4  17-126.295 169.079   4 
   0  -4  17 94.9302 146.009   4 
   0  -4 -17-181.753 195.792   3 
   0   4 -17-166.871 110.520   3 
   0   4 -18 10185.5 519.706   3 
   0  -4 -18 10208.8 722.158   3 
   0  -4  18 10199.8 732.524   4 
   0   4  18 9665.18 682.585   4 
   0   4 -19 15098.5 671.256   3 
   0  -4  19 15232.9 923.317   4 
   0   4  19 13453.3 836.264   4 
   0   4 -20 19211.2 790.454   3 
   0   4  20 17449.3 1002.27   4 
   0   4  21 113635. 2825.68   4 
   0   4 -21 117933. 2321.04   3 
   0  -4  21 116484. 2957.66   4 
   0   4  22 42040.9 1658.86   4 
   0  -4  22 43271.1 1749.27   4 
   0   4  23 22309.4 1219.05   4 
   0  -4  23 23647.3 1302.76   4 
   0  -4  24 287.404 275.537   4 
   0   4  24 266.071 210.313   4 
   0  -4  25 141.337 237.842   4 
   0  -4  26 6457.89 754.028   4 
   0  -4  27 19011.5 1293.11   4 
   0  -4  28 6712.13 804.528   4 
   0  -4  29 6394.76 802.822   4 
   0  -4  30 148.798 258.803   4 
   0  -5   0 80.5471 86.0274   2 
   0  -5   0 177.835 62.0726   3 
   0   5   0 151.672 67.5443   3 
   0   5   1-8.14490 73.5037   3 
   0   5  -1 90.1958 61.2964   3 
   0  -5   1 165.127 73.2323   3 
   0  -5  -1 118.816 111.767   2 
   0  -5  -1-76.5717 78.2513   3 
   0   5  -2 78.6115 59.3332   3 
   0  -5   2 14.9592 48.2016   3 
   0  -5   2 42.4092 67.2752   1 
   0  -5  -2-26.8141 71.5745   3 
   0   5   2-18.6045 81.4122   3 
   0  -5  -2 40.6862 78.6679   2 
   0   5   3 192.289 88.4423   2 
   0   5   3 271.579 107.010   3 
   0  -5   3 248.675 55.6350   3 
   0  -5   3 158.918 84.4934   1 
   0   5  -3 154.230 49.7053   3 
   0   5  -4 159.777 37.4519   3 
   0  -5   4 107.829 77.1702   1 
   0  -5  -4 151.734 41.9268   4 
   0   5  -4 66.8347 69.5723   1 
   0   5   4 190.449 117.840   3 
   0   5   4 144.739 94.1291   2 
   0  -5   5-9.63397 71.3452   5 
   0   5  -5-10.5591 68.8473   1 
   0  -5  -5-28.5902 48.7550   4 
   0   5   5-9.47485 75.6942   3 
   0  -5  -5 26.3298 73.2641   5 
   0   5  -5 61.0795 27.5990   3 
   0   5   6-20.5004 109.901   3 
   0  -5  -6 48.9172 65.2405   5 
   0  -5   6-82.7941 92.3260   5 
   0   5  -6 56.2607 69.5106   1 
   0  -5  -6 48.5874 39.5491   4 
   0   5   7-50.7779 117.689   3 
   0  -5  -7 58.0361 52.7316   4 
   0  -5   7 104.940 78.6996   5 
   0   5  -7 60.8821 101.908   1 
   0  -5  -7 122.976 87.0273   5 
   0   5  -8 7.41015 93.2049   1 
   0  -5  -8 15.5461 85.4348   5 
   0   5   8-1.79033 108.924   3 
   0  -5   8 41.7634 77.4869   5 
   0  -5  -8 99.9256 89.4943   4 
   0   5   9-55.2293 74.4764   4 
   0   5   9 44.7463 104.062   3 
   0  -5   9 31.5658 81.2184   5 
   0  -5   9 137.377 126.470   4 
   0   5  -9-14.1744 28.7573   3 
   0  -5  -9-24.5795 72.2931   5 
   0  -5 -10 4.07779 81.8769   5 
   0  -5  10 7.17088 60.1617   5 
   0  -5  10 117.427 118.686   4 
   0   5  10 11.4650 133.750   3 
   0   5 -10 22.6276 40.7434   3 
   0   5  10 118.276 83.4534   4 
   0  -5  11 241.340 131.411   4 
   0   5  11 64.8441 118.396   3 
   0  -5  11 132.462 92.4466   5 
   0  -5 -11 148.652 78.6790   5 
   0   5 -11 90.4963 48.7110   3 
   0   5  11 30.9090 95.0108   4 
   0  -5  12 231.550 125.334   4 
   0  -5 -12 98.7033 75.9148   5 
   0   5  12 32.6000 87.1693   4 
   0   5 -12 105.151 56.6740   3 
   0  -5  12 184.455 84.1717   5 
   0  -5 -13-241.505 142.723   3 
   0  -5  13 58.4207 121.788   4 
   0   5  13 78.8039 124.828   4 
   0   5 -13-10.8474 47.7411   3 
   0  -5  13-22.3098 66.7268   5 
   0  -5 -13 16.8300 66.6045   5 
   0  -5  14-38.3466 123.275   4 
   0   5  14 119.791 134.371   4 
   0   5 -14 70.2929 64.7027   3 
   0  -5  14-33.7931 73.5256   5 
   0  -5 -14 104.590 115.503   3 
   0  -5 -15-127.933 182.842   3 
   0   5 -15 24.2292 69.3210   3 
   0  -5  15 210.015 156.135   4 
   0   5  15 175.687 123.265   4 
   0  -5  16 128.251 125.885   4 
   0   5 -16-89.2258 89.2738   3 
   0   5  16 70.1158 123.773   4 
   0  -5 -16-186.313 180.180   3 
   0  -5 -17-118.698 192.748   3 
   0   5 -17 0.24971 83.4637   3 
   0  -5  17-64.0875 144.390   4 
   0   5  17-165.180 159.300   4 
   0   5  18 191.428 170.896   4 
   0   5 -18-85.9760 90.4183   3 
   0  -5  18-125.030 181.282   4 
   0  -5  19-93.3219 177.427   4 
   0   5 -19-128.302 117.268   3 
   0   5  19-262.266 242.085   4 
   0   5  20 498.015 239.957   4 
   0  -5  20 148.195 213.720   4 
   0   5 -20 86.9109 118.447   3 
   0   5  21 276.836 288.194   4 
   0   5 -21 186.720 159.780   3 
   0  -5  21 531.152 317.931   4 
   0   5 -22 49.6658 108.677   3 
   0  -5  22 384.552 266.424   4 
   0  -5  23-66.6035 158.062   4 
   0  -5  24 81.1988 160.900   4 
   0  -5  25-183.343 233.112   4 
   0  -5  26 482.147 328.199   4 
   0  -5  27 244.139 304.033   4 
   0  -5  28 468.601 351.359   4 
   0  -5  29-292.463 269.045   4 
   0  -6   0 29588.4 863.793   2 
   0   6   0 30131.8 763.196   3 
   0  -6   0 30418.1 756.001   3 
   0   6   1 10418.1 449.075   3 
   0  -6   1 11019.8 406.410   3 
   0   6  -1 10583.2 398.381   3 
   0  -6  -1 11837.9 467.516   3 
   0  -6  -1 11060.1 507.123   2 
   0  -6   2 174748. 2430.56   3 
   0   6   2 177252. 2705.19   3 
   0  -6  -2 176088. 2787.20   2 
   0  -6  -2 179711. 2696.19   3 
   0   6  -2 174206. 2435.88   3 
   0   6   2 171440. 2806.97   2 
   0   6  -3 27941.5 608.308   3 
   0   6   3 26963.5 823.868   3 
   0  -6   3 28193.6 613.186   3 
   0  -6   3 27755.4 795.547   1 
   0  -6  -3 27546.7 821.864   3 
   0   6   3 26682.7 852.875   2 
   0  -6  -4 122364. 1657.01   4 
   0   6   4 120140. 2185.83   2 
   0  -6   4 123827. 2072.05   1 
   0  -6   4 120245. 2119.06   5 
   0  -6   4 121284. 1703.48   3 
   0   6   4 121900. 2175.15   3 
   0   6  -4 123797. 1701.66   3 
   0  -6   5 9072.12 461.889   5 
   0   6   5 9046.15 499.375   3 
   0  -6   5 10042.3 456.639   1 
   0   6   5 9345.91 503.668   2 
   0   6  -5 9668.83 277.079   3 
   0  -6  -5 9696.67 314.449   4 
   0  -6  -5 9627.25 473.642   5 
   0  -6   6 32520.8 921.037   5 
   0  -6  -6 33126.0 918.356   5 
   0   6   6 32659.9 1022.21   3 
   0   6  -6 32658.4 908.675   1 
   0  -6  -6 34428.3 717.556   4 
   0   6  -6 32898.9 559.720   3 
   0  -6  -7 31973.9 736.539   4 
   0  -6  -7 30199.8 874.501   5 
   0   6  -7 30816.8 894.068   1 
   0  -6   7 30108.2 878.986   5 
   0   6   7 29828.0 1009.43   3 
   0  -6  -8 67697.6 1277.33   4 
   0   6   8 67457.2 1664.94   3 
   0  -6  -8 67149.8 1418.25   5 
   0   6  -8 67360.1 1467.36   1 
   0  -6   8 67258.7 1426.07   5 
   0  -6   9 80705.6 1604.96   5 
   0  -6  -9 81650.1 1602.88   5 
   0   6  -9 80959.1 1675.65   1 
   0  -6   9 81889.7 1722.59   4 
   0   6   9 80974.0 1902.12   3 
   0  -6 -10 105810. 1895.86   5 
   0   6  10 108369. 2299.82   3 
   0  -6  10 104491. 1897.57   5 
   0   6 -10 100047. 1386.25   3 
   0   6 -10 107932. 2014.74   1 
   0  -6  10 105759. 2098.30   4 
   0  -6  11 69215.7 1450.74   5 
   0   6 -11 69278.6 1041.81   3 
   0   6 -11 69644.6 1567.51   1 
   0  -6 -11 70760.1 1451.69   5 
   0  -6  11 71295.5 1692.60   4 
   0   6  11 69717.3 1819.91   3 
   0  -6  12 1147.22 224.816   4 
   0  -6 -12 1110.09 172.782   5 
   0   6 -12 1127.47 101.688   3 
   0   6  12 1223.84 255.909   3 
   0  -6  12 1053.89 171.958   5 
   0  -6  13 58475.3 1616.15   4 
   0  -6  13 61162.4 1313.54   5 
   0  -6 -13 57755.4 1280.08   5 
   0   6 -13 59269.8 1012.01   3 
   0   6 -14 4664.87 240.747   3 
   0  -6  14 4610.16 448.898   4 
   0  -6 -14 5169.02 487.139   3 
   0  -6  14 4432.11 315.838   5 
   0  -6 -14 4829.59 322.961   5 
   0  -6  15 5362.84 346.249   5 
   0  -6 -15 5458.01 513.285   3 
   0   6 -15 5987.30 290.398   3 
   0  -6  15 5796.52 517.401   4 
   0   6 -16 62583.6 1194.90   3 
   0  -6  16 59317.3 1802.11   4 
   0   6 -17 1469.85 166.060   3 
   0  -6  17 1273.25 310.729   4 
   0   6 -18 5326.19 321.925   3 
   0  -6  18 4890.40 516.045   4 
   0  -6  19-183.178 205.352   4 
   0   6 -19-26.1038 88.3373   3 
   0  -6  20 10193.2 784.090   4 
   0   6 -20 9566.36 472.725   3 
   0  -6  21 389.330 233.091   4 
   0   6 -21 626.394 155.255   3 
   0  -6  22 3591.50 502.741   4 
   0  -6  23 1303.95 318.287   4 
   0  -6  24 9196.58 835.950   4 
   0  -6  25 14426.9 1083.68   4 
   0  -6  26 24897.6 1466.73   4 
   0  -6  27 3831.06 637.122   4 
   0  -6  28 13241.2 1117.94   4 
   0  -6  29 286.626 299.055   4 
   0  -7   0 367.918 85.8773   3 
   0  -7   0 309.746 112.917   2 
   0   7   0 402.103 101.327   3 
   0   7  -1-12.1975 58.0799   3 
   0  -7  -1 3.35057 60.7960   3 
   0  -7   1 54.7234 71.2826   3 
   0   7   1-20.2881 78.4271   3 
   0  -7  -1 41.3068 89.4179   2 
   0  -7  -2 159.490 105.635   2 
   0   7   2-24.6586 77.7567   3 
   0  -7   2 302.110 84.3845   3 
   0   7   2 136.900 82.9016   2 
   0  -7  -2 74.5844 77.3604   3 
   0   7  -2 117.415 58.2840   3 
   0  -7   3-8.65115 96.9339   5 
   0  -7   3 1.95250 82.6178   1 
   0   7  -3 8.27560 46.3385   3 
   0   7   3 41.4189 81.0607   3 
   0  -7  -3-98.9602 104.342   3 
   0  -7   4 16.3941 83.2105   5 
   0   7   4 156.809 97.9619   3 
   0  -7  -4 61.0445 40.5456   4 
   0   7   4-68.1324 110.252   2 
   0  -7  -4-128.380 111.071   3 
   0  -7   4 2.22597 77.1754   1 
   0  -7   4 24.5865 47.3329   3 
   0   7  -4-43.8409 47.1820   3 
   0  -7  -5 72.2759 43.9406   4 
   0  -7  -5-66.7163 102.508   3 
   0   7  -5 77.3727 44.6862   3 
   0   7   5 3.12633 98.1562   3 
   0  -7   5 147.999 92.0237   5 
   0   7   5 15.8272 104.144   2 
   0  -7  -5 161.404 96.1249   5 
   0  -7   5 10.2422 81.7677   1 
   0   7  -6 16.2588 37.5087   3 
   0  -7  -6 92.0068 52.0895   4 
   0  -7  -6 20.6319 87.4893   5 
   0  -7   6 94.6252 103.030   1 
   0   7   6-5.25788 97.3752   3 
   0   7   6-1.48832 98.5488   2 
   0  -7   6 159.156 103.953   5 
   0  -7   7-8.69420 103.049   5 
   0  -7  -7 177.367 113.067   5 
   0   7  -7 70.8118 93.4676   1 
   0  -7  -7 58.6149 64.7387   4 
   0   7  -7 4.98416 25.6681   3 
   0   7   7 113.347 140.621   3 
   0   7  -8 237.644 122.318   1 
   0  -7   8 161.620 103.623   5 
   0   7   8 372.887 152.157   3 
   0  -7  -8 241.429 84.7561   4 
   0  -7  -8 173.822 107.420   5 
   0   7   9 114.918 141.945   3 
   0  -7  -9 167.232 89.4316   5 
   0   7  -9 190.415 113.125   1 
   0  -7   9-125.964 127.003   4 
   0  -7   9 247.296 120.028   5 
   0  -7  10 65.3785 94.4225   5 
   0  -7 -10 185.968 124.362   5 
   0   7 -10 121.708 94.0264   1 
   0  -7  10 148.146 112.091   4 
   0   7  10 107.203 139.262   3 
   0  -7 -11 100.629 94.4539   5 
   0   7 -11 7.13490 108.120   1 
   0  -7  11-114.083 93.8822   5 
   0   7  11 115.822 141.902   3 
   0  -7  11 52.6028 102.310   4 
   0  -7  12 18.5808 107.158   4 
   0   7 -12 25.7520 111.157   1 
   0  -7 -12-72.6745 92.0889   5 
   0  -7  12-16.4451 85.4524   5 
   0   7  12-8.64634 118.508   3 
   0   7 -13 202.637 160.003   1 
   0  -7 -13 189.805 130.129   5 
   0   7 -13 95.8884 40.7190   3 
   0  -7  13 339.070 200.585   4 
   0  -7 -13 151.165 147.639   3 
   0  -7  13 82.1122 121.022   5 
   0  -7 -14 107.129 115.133   5 
   0  -7  14 76.5572 169.916   4 
   0   7 -14 29.3016 33.2000   3 
   0   7 -14 117.678 137.340   1 
   0  -7 -14 495.259 231.388   3 
   0  -7  14 86.8205 109.752   5 
   0  -7 -15 122.791 106.870   5 
   0   7 -15 74.5367 46.2982   3 
   0  -7  15 113.518 94.7721   5 
   0  -7  15 174.004 162.395   4 
   0  -7 -15 265.581 169.071   3 
   0  -7  16 97.9730 156.315   4 
   0   7 -16 101.162 56.6633   3 
   0  -7  16 118.222 106.669   5 
   0  -7  17-18.5339 154.055   4 
   0   7 -17-26.0268 52.7402   3 
   0  -7  18-376.791 219.835   4 
   0   7 -18 9.65227 52.4499   3 
   0   7 -19 203.347 98.8652   3 
   0  -7  19 302.567 224.328   4 
   0   7 -20 62.6087 70.2613   3 
   0  -7  20-131.985 179.996   4 
   0  -7  21 150.899 180.438   4 
   0   7 -21-46.2530 61.8054   3 
   0  -7  22-73.2833 216.469   4 
   0  -7  23-826.359 346.396   4 
   0  -7  24-382.138 279.220   4 
   0  -7  25 164.166 282.653   4 
   0  -7  26 745.297 379.820   4 
   0  -7  27 803.274 363.211   4 
   0  -7  28 999.443 473.895   4 
   0  -7  29-677.447 360.009   4 
   0  -8   0 21591.8 838.069   2 
   0  -8   0 21569.9 708.235   3 
   0   8   0 21637.7 719.099   3 
   0  -8  -1 12662.3 553.806   3 
   0   8  -1 12083.6 502.143   3 
   0  -8  -1 12975.1 632.510   2 
   0  -8   1 12355.4 620.015   2 
   0   8   1 13328.4 577.652   3 
   0  -8   1 13400.9 515.826   3 
   0  -8   2 296.831 89.3350   3 
   0  -8  -2 419.222 123.397   3 
   0   8  -2 343.627 93.3621   3 
   0   8   2 241.997 127.438   3 
   0  -8  -2 118.775 99.1286   2 
   0  -8   3-114.819 99.9484   1 
   0  -8   3 78.1710 55.3673   3 
   0  -8  -3 77.2121 87.4826   3 
   0  -8   3 174.526 123.868   5 
   0  -8  -3-43.1161 96.6400   2 
   0   8   3 208.152 115.296   3 
   0   8   3 126.365 113.966   2 
   0   8  -3-22.5694 58.1171   3 
   0  -8   4 18358.1 767.074   5 
   0  -8  -4 19528.9 776.644   3 
   0  -8   4 18287.1 725.287   1 
   0   8  -4 19378.4 557.786   3 
   0   8   4 20286.7 836.695   2 
   0  -8  -4 18535.9 408.080   4 
   0   8   4 19031.0 776.764   3 
   0  -8   4 18889.8 541.089   3 
   0   8   5 73714.9 1769.26   2 
   0  -8   5 77397.1 1254.22   3 
   0  -8  -5 73519.3 1681.97   5 
   0   8  -5 73537.6 1237.97   3 
   0  -8  -5 74222.3 1141.36   4 
   0  -8   5 75578.8 1631.40   1 
   0  -8   5 73758.4 1683.09   5 
   0  -8  -5 74385.2 1718.99   3 
   0   8   5 72373.2 1732.30   3 
   0  -8   6 6905.67 464.611   5 
   0   8   6 6238.25 472.999   2 
   0  -8   6 7254.03 449.843   1 
   0   8   6 6259.17 479.367   3 
   0  -8  -6 7726.13 518.200   3 
   0  -8  -6 6894.32 456.845   5 
   0   8  -6 6521.13 263.827   3 
   0  -8  -6 7185.92 278.775   4 
   0   8   7 33481.4 1163.09   2 
   0  -8  -7 34894.0 761.864   4 
   0   8   7 33755.9 1171.71   3 
   0  -8  -7 33959.9 1067.95   5 
   0  -8   7 34125.4 1071.51   5 
   0   8  -7 33720.4 631.560   3 
   0  -8  -8 161.136 69.3519   4 
   0  -8   8 58.6539 106.501   5 
   0   8  -8 104.854 102.571   1 
   0   8  -8 136.382 36.5493   3 
   0   8   8 87.5458 119.522   3 
   0  -8  -8 137.346 88.1507   5 
   0  -8   9 6470.02 446.407   5 
   0  -8   9 6603.95 442.616   4 
   0   8   9 6986.67 538.578   3 
   0  -8  -9 6792.46 454.039   5 
   0   8  -9 6201.72 444.711   1 
   0  -8  10 1559.28 221.213   4 
   0   8 -10 1567.45 231.127   1 
   0   8  10 1625.36 279.134   3 
   0  -8 -10 1506.99 225.637   5 
   0  -8  10 1707.95 228.504   5 
   0   8 -11 4276.35 387.349   1 
   0   8  11 4867.09 475.171   3 
   0  -8  11 4763.52 409.885   4 
   0  -8  11 4140.25 366.234   5 
   0  -8 -11 4345.33 371.761   5 
   0  -8 -12 50179.8 1330.69   5 
   0   8 -12 51316.1 1420.25   1 
   0   8  12 48196.4 1616.54   3 
   0  -8  12 49759.1 1459.83   4 
   0  -8  12 50734.8 1345.21   5 
   0   8 -13 20433.2 878.787   1 
   0  -8  13 18963.9 788.963   5 
   0  -8  13 19886.5 918.266   4 
   0  -8 -13 22641.3 1066.49   3 
   0  -8 -13 19654.9 792.880   5 
   0  -8 -14 111717. 2187.13   5 
   0  -8  14 112856. 2205.71   5 
   0  -8  14 114134. 2519.11   4 
   0  -8  15 7626.11 594.377   4 
   0  -8  15 7024.54 464.474   5 
   0  -8 -15 7018.22 459.768   5 
   0  -8  16 752.875 179.511   5 
   0  -8  16 212.770 172.612   4 
   0  -8  17 35758.8 1403.72   4 
   0   8 -17 31123.4 565.210   3 
   0   8 -18 170.253 56.1919   3 
   0  -8  18 405.971 232.174   4 
   0   8 -19 31208.2 639.280   3 
   0  -8  19 32018.2 1414.50   4 
   0   8 -19 32414.4 1249.40   1 
   0  -8  20 6925.52 681.780   4 
   0   8 -20 6936.17 580.916   1 
   0   8 -20 6823.36 279.198   3 
   0  -8  21 215.255 203.839   4 
   0  -8  22 2280.18 435.339   4 
   0  -8  23 2748.44 471.834   4 
   0  -8  24 1220.82 385.424   4 
   0  -8  25 1559.59 431.207   4 
   0  -8  26 23577.4 1461.47   4 
   0  -8  27 10355.1 1011.33   4 
   0  -8  28 8994.88 943.174   4 
   0   9   0 140.073 105.317   3 
   0  -9   0 89.9201 100.353   2 
   0  -9   0 156.894 94.3464   3 
   0  -9  -1 85.9438 101.879   2 
   0   9   1 105.412 109.781   3 
   0  -9   1 65.7397 66.6311   3 
   0  -9  -1 132.962 102.341   3 
   0   9  -1-63.6128 82.0246   3 
   0  -9   1 175.325 119.954   2 
   0   9  -2-16.7756 61.8606   3 
   0   9   2 137.401 110.461   3 
   0  -9  -2 41.9314 113.487   2 
   0  -9  -2-0.32803 89.5543   3 
   0  -9   2-104.007 75.0315   3 
   0  -9  -3 253.150 122.657   3 
   0   9  -3 299.754 84.5157   3 
   0  -9  -3 527.874 154.714   2 
   0  -9   3 76.5418 142.345   5 
   0   9   3 272.161 132.072   3 
   0   9   3 413.815 131.328   2 
   0  -9   3 312.184 86.6844   3 
   0  -9   3 320.173 111.508   1 
   0  -9  -4 175.019 90.4837   3 
   0   9   4-1.72850 128.145   2 
   0  -9   4 204.827 104.879   1 
   0  -9  -4 72.6297 29.7901   4 
   0  -9   4 33.0913 93.5538   5 
   0   9  -4 124.886 63.4103   3 
   0   9   4 126.658 118.412   3 
   0  -9   4 65.5791 66.7063   3 
   0  -9   5 154.706 147.004   5 
   0  -9  -5-56.5732 117.986   3 
   0   9  -5 39.7039 56.9543   3 
   0  -9  -5 46.3634 35.3325   4 
   0  -9   5 35.8631 89.1443   1 
   0   9   5 138.966 136.706   3 
   0   9   5-51.0521 118.295   2 
   0  -9   5 58.0447 60.8974   3 
   0  -9   6 154.750 111.298   1 
   0  -9  -6 21.2539 41.7302   4 
   0  -9   6 116.189 172.283   5 
   0  -9  -6-29.2696 104.295   3 
   0   9  -6-20.0108 45.0193   3 
   0   9   6 328.592 175.717   3 
   0   9   6 140.968 105.833   2 
   0   9   7 149.356 150.958   3 
   0   9   7 121.764 137.220   2 
   0  -9  -7 198.030 125.299   3 
   0  -9  -7 45.8277 46.2007   4 
   0  -9   7 23.0272 104.804   1 
   0   9  -7 40.4226 39.9745   3 
   0  -9   7 227.084 130.268   5 
   0  -9  -8 204.290 105.801   3 
   0   9   8-22.2998 146.693   2 
   0  -9   8 101.488 123.634   5 
   0   9   8 241.577 173.208   3 
   0  -9   8 92.5996 102.854   4 
   0   9  -8 140.995 46.3563   3 
   0   9   9-145.811 210.000   2 
   0  -9   9-37.2618 88.0638   4 
   0   9   9 77.7384 143.997   3 
   0  -9   9 60.1214 109.023   5 
   0  -9  10-35.8777 124.596   5 
   0   9  10-127.610 172.726   3 
   0   9 -10-146.716 144.601   1 
   0  -9  10-118.888 150.798   4 
   0   9  11 103.450 137.090   3 
   0  -9  11 37.1690 103.191   5 
   0  -9 -11-90.8736 162.904   3 
   0  -9  11-11.4030 112.445   4 
   0   9 -11-198.201 191.165   1 
   0   9 -12-131.891 173.174   1 
   0  -9  12-104.518 152.106   4 
   0  -9  12 41.2989 110.243   5 
   0   9  12 368.331 181.321   3 
   0  -9 -12-251.434 198.797   3 
   0  -9  13 486.511 175.496   5 
   0  -9  13 196.891 173.567   4 
   0  -9  14 174.038 111.623   5 
   0  -9  14-63.3125 151.987   4 
   0  -9  15 43.7375 146.829   4 
   0  -9  15 37.3743 119.813   5 
   0  -9  16 52.0758 170.440   4 
   0  -9  16-89.3296 154.351   5 
   0  -9  17 72.2045 170.151   4 
   0  -9  17-74.4896 122.384   5 
   0   9 -18 96.2258 177.970   1 
   0  -9  18-82.0333 180.759   4 
   0   9 -19-45.5589 174.379   1 
   0  -9  19 67.3764 162.849   4 
   0   9 -20-36.0321 206.283   1 
   0  -9  20 33.8904 180.915   4 
   0   9 -21-78.6084 162.669   1 
   0  -9  21-55.4381 222.827   4 
   0  -9  22-265.718 274.515   4 
   0   9 -22 272.691 204.701   1 
   0  -9  23 391.960 264.198   4 
   0   9 -23-21.7090 158.579   1 
   0  -9  24-38.4352 197.020   4 
   0   9 -24 97.0251 176.082   1 
   0  -9  25 297.320 263.878   4 
   0   9 -25 22.6780 191.884   1 
   0  -9  26 1231.90 391.759   4 
   0   9 -26 763.394 278.996   1 
   0  -9  27 680.362 394.129   4 
   0  -9  28 7.01892 270.794   4 
   0 -10   0 110139. 2382.99   2 
   0  10   0 108853. 2104.57   3 
   0 -10   0 110535. 2084.70   3 
   0  10   1 4403.18 381.417   3 
   0 -10   1 4305.63 332.620   3 
   0 -10  -1 3303.72 362.321   2 
   0  10  -1 4227.46 356.352   3 
   0 -10  -1 4131.29 352.088   3 
   0 -10   1 3703.39 385.518   2 
   0  10  -2 56845.6 1318.60   3 
   0  10   2 59523.8 1514.61   3 
   0 -10  -2 58080.9 1465.67   3 
   0 -10  -2 57451.3 1601.70   2 
   0 -10   2 57832.1 1302.39   3 
   0 -10  -3 3798.93 388.698   2 
   0 -10   3 3811.69 286.837   3 
   0  10  -3 4512.44 324.164   3 
   0  10   3 4110.32 389.432   3 
   0 -10  -3 4234.27 372.615   3 
   0 -10   3 4517.12 428.033   5 
   0 -10   3 4416.26 391.942   1 
   0  10   4 87196.3 2075.82   2 
   0 -10  -4 79905.4 1160.13   4 
   0 -10   4 84434.7 2005.17   5 
   0  10   4 83018.0 1959.72   3 
   0 -10   4 86358.4 1564.38   3 
   0 -10   4 89949.5 1967.60   1 
   0 -10  -4 89346.4 1969.72   3 
   0  10  -4 87318.9 1584.18   3 
   0 -10  -5 95600.4 2104.23   3 
   0  10   5 94748.8 2204.33   2 
   0 -10   5 95414.6 2045.25   1 
   0  10  -5 90839.3 1597.86   3 
   0 -10   5 91707.0 2101.45   5 
   0 -10  -5 86614.6 1283.02   4 
   0 -10   5 92500.5 1593.25   3 
   0  10   5 92490.5 2122.91   3 
   0  10  -6 196038. 2736.38   3 
   0 -10  -6 190670. 2533.69   4 
   0 -10   6 193224. 2730.25   3 
   0  10   6 190703. 3502.58   3 
   0 -10   6 191171. 3429.68   5 
   0 -10   6 197075. 3339.00   1 
   0  10   6 198268. 3613.58   2 
   0 -10  -6 196962. 3493.16   3 
   0 -10   7 1071.44 227.251   1 
   0  10   7 1309.29 303.931   2 
   0 -10   7 1461.49 214.716   4 
   0  10   7 1116.80 284.896   3 
   0  10  -7 1475.87 153.941   3 
   0 -10   7 1388.86 272.969   5 
   0 -10  -7 1841.83 334.401   3 
   0  10   8 28635.4 1173.84   2 
   0 -10   8 29659.2 1106.82   5 
   0  10  -8 29361.5 626.953   3 
   0 -10   8 30560.6 973.448   4 
   0 -10  -8 31588.4 1204.51   3 
   0  10   8 28592.9 1180.57   3 
   0  10   9 518.755 193.219   3 
   0  10  -9 566.219 67.8550   3 
   0 -10   9 858.523 175.923   4 
   0  10   9 424.634 172.281   2 
   0 -10  -9 303.032 163.913   3 
   0 -10   9 754.883 199.949   5 
   0 -10  10 20470.1 853.506   4 
   0  10  10 19733.7 1015.56   3 
   0 -10  10 20992.1 921.033   5 
   0  10  10 21051.4 1036.31   2 
   0 -10 -10 21985.1 1045.36   3 
   0 -10  11 8671.38 578.603   4 
   0  10  11 8708.15 703.185   3 
   0 -10  11 7412.23 543.552   5 
   0 -10 -11 8421.48 663.566   3 
   0  10  11 7967.24 654.778   2 
   0 -10  12 57499.2 1617.21   5 
   0  10  12 61136.7 1935.29   3 
   0 -10  12 59619.7 1653.89   4 
   0 -10  13 9642.02 660.319   4 
   0 -10  13 10305.9 633.887   5 
   0 -10  14 545.863 198.773   4 
   0 -10  14 573.544 188.713   5 
   0 -10  15 39710.0 1448.55   4 
   0 -10  15 39356.9 1292.65   5 
   0 -10  16 176.301 136.936   5 
   0 -10  16 391.001 191.892   4 
   0 -10  17 5159.70 536.288   4 
   0 -10  17 5677.94 466.745   5 
   0  10 -17 6271.06 541.726   1 
   0 -10  18 444.857 224.098   4 
   0  10 -18 453.019 206.198   1 
   0 -10  19 18253.5 1075.30   4 
   0  10 -19 18823.6 991.216   1 
   0 -10  20 1091.33 318.863   4 
   0  10 -20 954.634 255.570   1 
   0 -10  21 727.176 262.894   4 
   0  10 -21 833.230 228.909   1 
   0  10 -22 10290.1 771.668   1 
   0 -10  22 10114.8 870.335   4 
   0 -10  23 1372.51 346.219   4 
   0  10 -23 912.458 230.240   1 
   0  10 -24 4302.92 527.410   1 
   0 -10  24 4584.15 633.725   4 
   0 -10  25 6851.32 782.724   4 
   0  10 -25 7149.99 679.383   1 
   0 -10  26-82.0917 213.228   4 
   0 -10  27-514.572 300.737   4 
   0 -11   0 105.777 103.575   3 
   0  11   0-8.75179 86.2492   3 
   0 -11   0 103.452 154.144   2 
   0  11  -1 10.8461 84.0152   3 
   0 -11   1-35.1394 128.171   2 
   0 -11  -1-86.4928 121.055   2 
   0 -11  -1 0.37358 97.9379   3 
   0 -11   1 93.5854 98.7241   3 
   0  11   1 4.69668 100.413   3 
   0  11  -2-21.3035 91.4686   3 
   0 -11   2 26.3126 87.8873   3 
   0 -11   2-99.2829 126.636   2 
   0  11   2 170.394 148.967   3 
   0 -11  -2 205.731 167.474   2 
   0 -11  -2-86.0184 99.9814   3 
   0 -11  -3 2.11392 105.936   3 
   0  11  -3-48.9309 82.9094   3 
   0 -11   3-49.2161 140.744   1 
   0 -11   3 90.7460 149.865   5 
   0 -11   3 40.8797 96.5047   3 
   0 -11  -3 119.154 118.117   2 
   0  11   3 87.3387 109.237   3 
   0 -11  -4-104.447 168.597   5 
   0 -11  -4 105.532 124.556   3 
   0  11   4-203.448 164.387   3 
   0 -11   4 2.00893 131.083   5 
   0 -11   4 35.1156 128.587   1 
   0 -11   4 53.5862 72.4477   3 
   0  11  -4 17.2590 74.9987   3 
   0  11   5-86.4895 150.589   2 
   0 -11  -5 10.5058 130.281   5 
   0  11   5-13.4909 161.440   3 
   0 -11   5 173.690 95.3453   3 
   0 -11   5 301.491 176.229   1 
   0  11  -5 68.5836 72.6990   3 
   0 -11  -5 80.7453 35.6354   4 
   0 -11  -5-56.7799 140.676   3 
   0 -11   5 40.2089 178.020   5 
   0  11   6 18.9073 119.850   2 
   0  11  -6 216.397 84.2885   3 
   0  11   6-37.9263 129.556   3 
   0 -11  -6 275.555 152.766   5 
   0 -11  -6-31.0312 154.871   3 
   0 -11   6 149.684 77.6835   3 
   0 -11   6 61.3030 82.5393   4 
   0 -11   6 289.806 147.880   1 
   0 -11   6-214.615 165.919   5 
   0 -11   7 21.1789 109.615   5 
   0  11  -7 18.0572 56.4238   3 
   0 -11   7 5.34051 83.6339   4 
   0 -11  -7-128.626 114.896   3 
   0  11   7 85.8502 178.671   2 
   0  11   7-56.3466 127.361   3 
   0 -11  -7-59.2642 128.695   5 
   0 -11   7-169.630 121.282   1 
   0 -11   8-71.9487 94.6772   4 
   0 -11   8-173.417 162.675   5 
   0  11   8-48.7466 146.500   3 
   0 -11  -8-152.103 179.559   3 
   0  11  -8-12.5986 40.9104   3 
   0  11   8 64.8489 163.522   2 
   0 -11  -8-178.844 142.964   5 
   0  11   9 79.2149 151.509   2 
   0 -11   9-20.5229 117.947   4 
   0  11   9-149.815 164.906   3 
   0 -11  -9-74.9854 166.199   5 
   0 -11  -9-115.324 163.093   3 
   0 -11   9-241.732 179.267   5 
   0 -11  10-3.30625 102.790   4 
   0 -11  10-45.8431 149.389   5 
   0 -11 -10-43.3184 150.126   5 
   0  11  10-206.608 227.843   2 
   0  11  10-122.867 199.416   3 
   0  11  11-250.146 279.112   2 
   0 -11  11-203.660 184.459   5 
   0 -11 -11-3.02750 138.254   5 
   0  11  11-272.662 245.377   3 
   0 -11  11 16.9428 142.801   4 
   0 -11  12-34.2965 178.669   5 
   0 -11  12-183.085 165.422   4 
   0  11  12-330.715 249.222   3 
   0  11  12-166.678 227.095   2 
   0 -11 -12-71.6367 145.966   5 
   0 -11 -13 119.526 153.961   5 
   0 -11  13-33.8122 180.844   5 
   0 -11  13 21.2423 134.694   4 
   0  11  13-314.526 292.621   2 
   0 -11  14 156.847 153.819   4 
   0 -11 -14 12.6066 173.469   5 
   0 -11  14-109.183 160.011   5 
   0 -11  15-37.9532 136.201   5 
   0 -11 -15-6.04254 147.768   5 
   0 -11  15-294.104 206.115   4 
   0 -11  16-170.571 208.854   4 
   0 -11  16 56.3603 154.875   5 
   0 -11 -16 68.9968 132.663   5 
   0  11 -16 189.693 173.878   1 
   0 -11  17-309.382 240.034   4 
   0  11 -17-156.251 152.627   1 
   0 -11  17-57.4923 132.409   5 
   0 -11 -17-140.480 152.520   5 
   0  11 -18 350.089 210.790   1 
   0 -11  18-141.307 217.810   4 
   0 -11  19 11.3281 181.211   4 
   0  11 -19-32.0905 160.722   1 
   0 -11  20 589.302 303.378   4 
   0  11 -20-198.758 199.195   1 
   0 -11  21-233.063 249.010   4 
   0  11 -21-6.74713 165.489   1 
   0  11 -22-38.4068 152.791   1 
   0 -11  22 3.58267 202.742   4 
   0  11 -23-218.307 218.580   1 
   0 -11  23-92.6253 196.994   4 
   0 -11  24 39.8038 236.497   4 
   0  11 -24 8.97393 264.458   1 
   0 -11  25-123.854 246.491   4 
   0 -11  26-269.034 303.014   4 
   0 -11  27-250.484 295.624   4 
   0  12   0 28385.1 1013.82   3 
   0 -12   0 27987.3 986.877   3 
   0 -12   0 27292.9 1165.42   2 
   0 -12  -1 13028.8 784.518   2 
   0 -12  -1 13228.0 684.441   3 
   0  12   1 13338.8 703.451   3 
   0 -12   1 13646.0 812.620   2 
   0 -12   1 11194.2 732.948   5 
   0  12  -1 13172.5 657.038   3 
   0 -12   1 13317.7 640.209   3 
   0 -12  -2 838.355 205.986   3 
   0  12  -2 408.772 139.937   3 
   0 -12   2 432.443 118.792   3 
   0 -12   2 340.477 199.999   5 
   0 -12   2 540.983 199.989   2 
   0 -12  -2 373.777 158.752   2 
   0  12   2 742.221 215.066   3 
   0 -12  -3 15326.6 776.177   3 
   0 -12   3 15634.1 655.159   3 
   0 -12   3 16183.1 842.299   1 
   0 -12  -3 15326.1 862.894   5 
   0  12  -3 14819.7 659.394   3 
   0 -12   3 14870.6 867.271   2 
   0 -12  -3 15197.3 858.362   2 
   0  12   3 15221.6 800.235   3 
   0 -12   3 15027.5 848.565   5 
   0 -12  -4 22272.7 1030.99   5 
   0 -12   4 23005.4 1008.05   1 
   0 -12  -4 24032.4 1003.19   3 
   0  12   4 22203.2 993.734   3 
   0  12  -4 22097.3 778.939   3 
   0 -12   4 22316.5 1040.60   5 
   0 -12   4 22300.7 764.158   3 
   0 -12   5 1007.32 247.794   5 
   0  12  -5 1408.82 198.670   3 
   0 -12  -5 1518.37 269.340   3 
   0  12   5 1050.16 255.811   2 
   0 -12   5 1380.50 185.386   4 
   0 -12   5 1263.07 174.700   3 
   0 -12  -5 1116.88 243.278   5 
   0  12   5 772.548 194.704   3 
   0 -12   5 1398.75 265.353   1 
   0  12  -6 7126.21 386.665   3 
   0  12   6 7135.75 591.426   3 
   0 -12   6 8269.21 454.147   4 
   0 -12   6 7799.46 609.886   5 
   0 -12  -6 7987.68 597.797   3 
   0  12   6 6631.95 594.909   2 
   0 -12   6 7776.61 394.629   3 
   0 -12   6 8244.83 591.601   1 
   0 -12  -6 6863.63 574.745   5 
   0 -12  -7 6448.53 554.635   3 
   0 -12   7 7391.56 554.748   1 
   0 -12   7 6682.31 433.155   4 
   0  12  -7 7078.03 357.770   3 
   0 -12   7 6740.84 572.506   5 
   0  12   7 6694.27 590.017   3 
   0 -12  -7 6465.55 559.193   5 
   0  12   7 5798.13 563.456   2 
   0 -12   8 1800.45 328.831   5 
   0 -12  -8 2079.38 346.620   3 
   0 -12   8 1273.83 267.626   1 
   0  12   8 1775.25 351.946   2 
   0  12   8 1331.75 303.933   3 
   0 -12  -8 1573.34 301.176   5 
   0 -12   8 1415.20 226.981   4 
   0  12  -8 1491.76 152.540   3 
   0 -12  -9 43707.7 1493.75   5 
   0  12   9 44205.1 1615.42   3 
   0 -12   9 45097.4 1520.92   5 
   0  12   9 45942.6 1654.29   2 
   0 -12   9 43405.5 1285.37   4 
   0 -12 -10 18172.7 938.200   5 
   0 -12  10 18196.0 826.863   4 
   0  12  10 18976.6 1054.41   2 
   0 -12  10 19028.5 966.689   5 
   0  12  10 19042.9 1062.87   3 
   0  12  11 18834.3 1059.52   2 
   0  12  11 19230.1 1085.81   3 
   0 -12  11 18732.9 951.409   5 
   0 -12 -11 18368.2 942.101   5 
   0 -12  11 20054.7 888.335   4 
   0 -12  12 2087.30 331.612   5 
   0  12  12 2114.39 379.133   2 
   0 -12 -12 2455.66 358.359   5 
   0 -12  12 2758.51 348.362   4 
   0 -12 -13 2056.86 330.920   5 
   0  12  13 2213.52 401.723   2 
   0 -12  13 2411.07 349.092   4 
   0 -12  13 2476.35 376.861   5 
   0 -12  14 3803.43 434.290   4 
   0 -12  14 3870.78 428.743   5 
   0 -12 -14 4471.92 470.039   5 
   0  12  14 3803.90 519.323   2 
   0 -12  15 9.65362 144.204   5 
   0 -12  15 375.080 206.615   4 
   0  12  15-63.2697 237.670   2 
   0 -12 -15-119.906 154.526   5 
   0 -12 -16 47219.4 1553.99   5 
   0 -12  16 45765.2 1545.30   5 
   0 -12  16 48531.2 1676.14   4 
   0 -12  17 6146.56 614.729   4 
   0 -12 -17 6240.37 549.388   5 
   0  12 -17 6206.12 588.719   1 
   0 -12  17 6726.17 580.130   5 
   0  12 -18 27991.9 1237.52   1 
   0 -12  18 26682.5 1294.87   4 
   0 -12  18 26984.6 1148.49   5 
   0  12 -19 156.464 181.587   1 
   0 -12  19 135.488 161.885   4 
   0 -12  20 843.531 270.647   4 
   0  12 -20 915.238 268.334   1 
   0 -12  21 1324.18 353.262   4 
   0  12 -21 501.542 209.623   1 
   0  12 -22 9171.70 749.217   1 
   0 -12  22 8256.07 799.416   4 
   0 -12  23 654.958 300.859   4 
   0  12 -23 1159.38 278.301   1 
   0 -12  24 4191.54 596.971   4 
   0 -12  25-106.375 261.961   4 
   0 -12  26 453.189 306.871   4 
   0 -12  27 224.184 260.764   4 
   0 -13   0 578.821 184.585   3 
   0  13   0 99.0874 121.936   3 
   0 -13   0 254.912 61.4187   4 
   0 -13   0 94.7465 170.110   5 
   0 -13   0 213.626 133.478   2 
   0 -13  -1 21.9537 166.651   2 
   0 -13   1 108.692 185.996   5 
   0 -13  -1 177.986 168.507   5 
   0 -13  -1 18.7432 25.2615   4 
   0  13   1 97.5226 145.308   3 
   0 -13   1 237.921 120.927   3 
   0 -13   1 248.441 169.580   2 
   0 -13  -1 83.3328 101.763   3 
   0  13  -1 58.5073 102.217   3 
   0 -13   1 53.7443 55.1643   4 
   0 -13  -2 34.9987 117.211   5 
   0 -13   2 348.705 180.801   2 
   0 -13   2-93.9771 131.440   1 
   0 -13  -2 74.2518 117.088   3 
   0 -13   2-189.793 195.716   5 
   0  13   2 4.96518 110.367   3 
   0  13  -2-125.541 104.067   3 
   0 -13  -2-1.83889 147.800   2 
   0 -13   2-149.925 132.908   3 
   0 -13   2 44.4332 52.5711   4 
   0 -13  -3 85.1239 186.812   5 
   0 -13   3 1.70689 103.643   3 
   0 -13   3 98.5052 63.1513   4 
   0 -13   3 34.4994 138.233   5 
   0 -13   3-218.790 188.953   1 
   0  13   3 3.14703 135.950   3 
   0  13  -3-37.6929 117.792   3 
   0 -13  -3-20.4000 113.038   2 
   0 -13  -3 1.49088 123.366   3 
   0 -13   3 45.2025 103.738   2 
   0 -13  -4 77.5011 129.856   3 
   0 -13  -4-83.0104 178.723   5 
   0 -13   4 0.60629 201.842   5 
   0  13   4 37.3862 132.443   3 
   0 -13   4-127.597 154.538   1 
   0  13  -4 54.2513 86.5473   3 
   0 -13   4-49.5313 87.1446   4 
   0 -13   4 10.7748 100.339   3 
   0 -13   5 6.70116 94.8843   3 
   0 -13  -5-138.652 146.444   3 
   0 -13   5 371.006 193.870   1 
   0 -13  -5 55.1981 189.137   5 
   0 -13   5-200.445 158.452   5 
   0  13  -5 4.20095 77.5666   3 
   0  13   5-97.7742 160.961   3 
   0 -13   5-19.4369 69.7013   4 
   0 -13   6 161.832 211.400   5 
   0  13   6-1.21276 168.788   3 
   0 -13   6 37.7765 87.3907   3 
   0 -13  -6-49.0997 183.698   3 
   0 -13  -6-188.660 236.375   5 
   0  13  -6-3.23030 93.3121   3 
   0 -13   6 402.495 180.692   1 
   0 -13   6 52.5014 90.7255   4 
   0  13   6-150.062 196.146   2 
   0  13  -7 161.762 105.616   3 
   0  13   7 130.157 175.524   3 
   0  13   7 211.557 169.919   2 
   0 -13  -7-46.1733 185.216   5 
   0 -13   7 118.991 108.733   4 
   0 -13   7-157.162 154.899   5 
   0 -13  -8 65.7418 179.188   5 
   0 -13   8-154.539 184.385   5 
   0 -13   8-33.4989 103.347   4 
   0 -13   8 35.2557 133.834   1 
   0  13   8-259.530 224.910   3 
   0  13   8-125.164 210.540   2 
   0 -13   9 167.930 132.156   4 
   0 -13  -9 120.068 177.094   5 
   0  13   9 80.8518 174.497   3 
   0 -13   9-92.9022 178.633   5 
   0  13   9-48.0382 219.943   2 
   0 -13  10-29.2097 126.185   4 
   0 -13 -10 15.8842 167.077   5 
   0 -13  10-198.619 191.813   5 
   0  13  10-86.7772 157.740   3 
   0  13  10-226.373 266.125   2 
   0 -13  11-39.7097 140.050   4 
   0  13  11-175.979 231.219   3 
   0 -13  11-252.596 202.741   5 
   0 -13 -11-214.459 199.749   5 
   0  13  11-117.886 220.622   2 
   0 -13  12-254.806 205.388   5 
   0  13  12 88.2021 185.663   2 
   0 -13 -12 11.6289 189.489   5 
   0 -13  12 48.6146 128.912   4 
   0 -13  13-75.2384 157.073   5 
   0 -13  13 58.0899 160.329   4 
   0 -13 -13-53.2691 172.202   5 
   0  13  13-63.6508 195.923   2 
   0 -13 -14-47.8284 170.750   5 
   0 -13  14 18.7462 172.407   4 
   0 -13  14-373.667 258.875   5 
   0  13  14-59.7262 239.655   2 
   0 -13  15-4.37107 201.300   4 
   0 -13  15-80.4692 159.210   5 
   0 -13 -15 277.847 221.448   5 
   0  13  15-134.422 303.320   2 
   0  13  16 71.2701 229.882   2 
   0 -13 -16-40.2862 168.492   5 
   0 -13  16-99.4097 185.328   4 
   0 -13  16-99.3881 189.989   5 
   0 -13  17 115.960 157.410   4 
   0 -13  17-124.501 152.561   5 
   0 -13 -17 304.225 196.539   5 
   0 -13  18 173.669 208.596   5 
   0  13  18-56.7339 258.279   2 
   0 -13  18 155.476 219.915   4 
   0 -13  19 240.571 227.543   4 
   0 -13  20-237.002 263.815   4 
   0  13 -21-365.027 245.376   1 
   0 -13  21-225.619 244.873   4 
   0  13 -22 66.3072 177.701   1 
   0 -13  22-381.277 278.836   4 
   0 -13  23-232.578 281.658   4 
   0 -13  24-79.6874 222.108   4 
   0 -13  25-117.988 250.532   4 
   0 -13  26-41.8962 213.975   4 
   0 -14   0 37907.3 1245.17   3 
   0 -14   0 35776.7 1451.09   5 
   0 -14   0 35795.5 685.161   4 
   0  14   0 37169.3 1274.88   3 
   0 -14  -1 9204.82 723.970   5 
   0 -14   1 10128.8 605.666   3 
   0  14  -1 9496.02 615.584   3 
   0 -14  -1 9700.96 642.391   3 
   0 -14   1 9937.49 761.887   5 
   0  14   1 9137.98 632.302   3 
   0 -14   1 9763.27 351.936   4 
   0 -14   2 846.302 183.023   3 
   0 -14   2 988.044 137.653   4 
   0  14  -2 1193.13 224.068   3 
   0  14   2 1443.27 301.086   3 
   0 -14   2 844.413 244.838   5 
   0 -14  -2 859.038 238.956   3 
   0 -14   2 1061.70 262.258   1 
   0 -14  -2 1252.01 280.797   5 
   0 -14   3 4993.11 297.903   4 
   0 -14   3 4673.62 512.576   5 
   0 -14  -3 4545.11 510.928   5 
   0  14   3 4659.51 461.332   3 
   0 -14   3 4893.17 500.266   1 
   0 -14   3 4732.23 395.225   3 
   0  14  -3 5006.57 410.798   3 
   0 -14  -3 5008.05 479.099   3 
   0  14   4 1337.22 294.215   3 
   0 -14  -4 1435.41 280.720   3 
   0 -14  -4 1680.87 349.083   5 
   0  14  -4 1221.57 206.713   3 
   0 -14   4 1295.08 270.939   1 
   0 -14   4 1293.66 310.578   5 
   0 -14   4 1249.07 218.995   3 
   0 -14   4 1337.92 185.130   4 
   0  14   5 28823.5 1247.20   3 
   0 -14  -5 27671.0 1270.90   5 
   0  14  -5 26204.9 901.284   3 
   0 -14   5 29131.0 1237.65   1 
   0 -14  -5 28031.8 1210.52   3 
   0 -14   5 27596.0 912.334   3 
   0 -14   5 28192.5 1275.11   5 
   0 -14   5 28742.7 861.053   4 
   0 -14   6 48236.6 1200.25   3 
   0 -14   6 48052.8 1221.64   4 
   0  14   6 46813.8 1670.58   3 
   0 -14  -6 48731.3 1714.89   5 
   0 -14   6 48355.4 1626.90   1 
   0  14  -6 45702.3 1190.65   3 
   0 -14   6 45923.8 1667.62   5 
   0  14   7 1004.10 335.094   2 
   0 -14   7 1688.52 328.323   1 
   0 -14   7 1390.10 235.479   4 
   0 -14  -7 1938.12 393.988   5 
   0  14   7 1399.60 355.059   3 
   0 -14   7 1687.41 372.652   5 
   0 -14  -8 20706.5 1091.94   5 
   0  14   8 20943.4 1133.35   3 
   0 -14   8 20443.9 1022.40   1 
   0  14   8 22349.4 1201.18   2 
   0 -14   8 21498.8 1114.53   5 
   0 -14   8 21164.1 840.542   4 
   0 -14   9 2821.14 320.921   4 
   0  14   9 2781.12 437.466   2 
   0  14   9 2359.44 416.900   3 
   0 -14   9 2755.88 413.321   5 
   0 -14  -9 2793.07 413.694   5 
   0 -14  10 1636.82 266.666   4 
   0 -14 -10 1353.03 284.982   5 
   0 -14  10 1186.07 289.996   5 
   0  14  10 1668.60 349.945   3 
   0  14  10 1222.84 341.233   2 
   0 -14  11 572.430 228.488   5 
   0 -14  11 640.631 203.404   4 
   0 -14 -11 314.482 202.191   5 
   0  14  11 519.033 258.161   2 
   0  14  12 30294.2 1472.38   2 
   0 -14  12 28029.3 1290.89   5 
   0 -14 -12 27337.7 1264.38   5 
   0 -14  12 28983.9 1164.43   4 
   0  14  13 1149.34 405.759   2 
   0 -14  13 513.467 293.388   5 
   0 -14  13 216.703 202.523   4 
   0 -14 -13 444.853 253.285   5 
   0 -14  14 12988.8 864.554   5 
   0 -14  14 13677.6 836.262   4 
   0  14  14 13576.6 1007.44   2 
   0 -14 -14 13191.9 873.388   5 
   0 -14  15 3476.43 459.548   5 
   0 -14  15 3391.77 436.601   4 
   0  14  15 2551.73 459.185   2 
   0 -14 -15 3345.33 434.031   5 
   0 -14 -16 18317.6 1026.51   5 
   0 -14  16 18485.6 1030.37   4 
   0 -14  16 18907.5 1049.04   5 
   0  14  16 18290.8 1220.03   2 
   0  14  17 658.235 332.775   2 
   0 -14 -17 786.012 276.517   5 
   0 -14  17 1010.04 290.058   5 
   0 -14  17 848.806 290.747   4 
   0  14  18 5843.33 722.079   2 
   0 -14  18 6306.21 640.543   4 
   0 -14  18 4994.51 552.412   5 
   0  14  19 80.0426 260.135   2 
   0 -14  19 133.578 223.605   4 
   0 -14  20 847.005 286.349   4 
   0  14  20 563.636 274.123   2 
   0  14  21 1501.09 420.872   2 
   0 -14  21 2247.12 410.484   4 
   0  14  22-120.349 288.022   2 
   0 -14  22 60.8359 256.123   4 
   0 -14  23 154.454 190.543   4 
   0 -14  24 3592.43 579.261   4 
   0 -14  25 750.133 293.082   4 
   0 -14  26 2421.38 504.275   4 
   0 -15   0 90.1223 37.7026   4 
   0  15   0 260.398 161.263   3 
   0 -15   0 419.035 211.759   5 
   0 -15   0-112.904 158.502   3 
   0  15   1 27.2835 131.696   3 
   0  15  -1-55.5907 179.195   3 
   0 -15   1 45.2299 161.651   5 
   0 -15   1-305.307 196.408   3 
   0 -15  -1-176.475 178.519   5 
   0 -15  -1 21.1292 128.966   3 
   0 -15   1 14.8532 43.6526   4 
   0 -15  -2 101.314 163.078   3 
   0  15  -2 164.569 135.647   3 
   0 -15   2 334.870 199.531   5 
   0 -15  -2-190.132 233.908   5 
   0 -15   2 54.0774 134.196   3 
   0  15   2 63.8042 142.287   3 
   0 -15   2 132.686 69.4592   4 
   0  15   3 196.975 190.699   3 
   0 -15   3 55.2379 68.8202   4 
   0 -15   3 69.7949 194.077   5 
   0 -15  -3-223.959 251.946   5 
   0 -15  -3 170.638 141.173   3 
   0 -15   3-174.918 137.441   3 
   0  15  -3-173.697 136.064   3 
   0 -15   3-247.227 166.800   1 
   0 -15   4-224.144 240.448   5 
   0  15   4 224.436 188.091   3 
   0  15  -4 45.4268 97.5209   3 
   0 -15  -4 147.312 183.741   5 
   0 -15   4 23.7412 76.1774   4 
   0 -15   4 466.113 233.366   1 
   0 -15   4 219.987 163.456   3 
   0  15   5-63.7881 140.588   3 
   0 -15   5-41.8972 193.388   5 
   0 -15   5-82.9015 138.073   3 
   0  15  -5-46.9725 96.1943   3 
   0 -15   5-10.4866 79.7182   4 
   0 -15  -5 72.6558 189.205   5 
   0 -15   5-3.92434 140.610   1 
   0 -15   6 183.347 191.538   1 
   0 -15   6 203.474 99.1949   3 
   0 -15   6 1.92144 101.097   4 
   0 -15  -6 346.319 234.013   5 
   0 -15   6-61.5419 201.386   5 
   0  15   6-27.1163 179.420   3 
   0  15   7-15.2631 208.327   3 
   0 -15   7-39.1808 162.701   5 
   0 -15   7-40.0712 147.146   1 
   0 -15  -7-126.911 177.870   5 
   0 -15   7-23.4545 114.377   4 
   0 -15   8 55.8756 105.504   4 
   0 -15  -8-288.402 222.486   5 
   0 -15   8 59.3127 165.564   1 
   0  15   8-15.1803 207.689   3 
   0  15   8-126.878 210.297   2 
   0 -15   8-48.0217 183.378   5 
   0 -15   9-102.243 172.170   5 
   0 -15  -9-161.968 197.890   5 
   0 -15   9 17.8911 116.565   4 
   0  15   9-442.407 289.653   2 
   0 -15  10 112.659 174.217   5 
   0 -15  10 85.0394 109.929   4 
   0 -15 -10-59.4341 190.504   5 
   0  15  10-224.871 283.068   2 
   0 -15  11 86.7967 134.979   4 
   0 -15 -11 113.243 181.823   5 
   0  15  11-40.7549 240.245   2 
   0 -15  11 404.603 214.777   5 
   0  15  12 196.177 215.151   2 
   0 -15  12 347.794 196.547   4 
   0 -15 -12 61.7727 224.851   5 
   0 -15  12 501.515 249.272   5 
   0 -15  13 54.4544 166.651   4 
   0 -15 -13 148.629 175.200   5 
   0  15  13-423.961 302.546   2 
   0 -15  13 41.3433 189.463   5 
   0 -15  14 41.5836 154.534   4 
   0 -15  14-174.905 222.127   5 
   0 -15 -14-143.495 187.974   5 
   0  15  14-325.426 304.519   2 
   0 -15  15-6.69033 177.777   5 
   0  15  15-469.137 336.068   2 
   0 -15 -15 48.8745 165.703   5 
   0 -15  15-16.9985 147.720   4 
   0 -15  16 63.2239 185.206   4 
   0 -15 -16 319.944 246.796   5 
   0 -15  16 186.708 183.785   5 
   0  15  16 76.9636 236.350   2 
   0 -15 -17 39.6094 166.171   5 
   0 -15  17-125.345 221.260   4 
   0 -15  17 308.552 227.653   5 
   0  15  17 5.16051 212.019   2 
   0  15  18 54.3157 222.325   2 
   0 -15  18-31.2758 165.256   4 
   0 -15  18-19.8658 174.209   5 
   0  15  19-117.740 219.285   2 
   0 -15  19 96.8201 223.136   4 
   0  15  20 275.614 212.712   2 
   0 -15  20-62.8706 247.992   4 
   0  15  21 125.357 226.784   2 
   0 -15  21 452.839 248.410   4 
   0  15  22 66.4232 300.659   2 
   0 -15  22-208.921 203.899   4 
   0  15  23-78.1413 310.091   2 
   0 -15  23-97.6678 237.766   4 
   0 -15  24 215.165 209.617   4 
   0  15  24-337.581 322.398   2 
   0 -15  25-147.602 275.588   4 
   0  15  25 243.805 388.935   2 
   0 -16   0 34565.1 1282.52   3 
   0 -16   0 34228.4 1525.40   5 
   0  16   0 34164.0 1303.33   3 
   0 -16   1 9004.53 792.934   5 
   0 -16  -1 9771.38 824.973   5 
   0 -16   1 9049.29 325.053   4 
   0 -16  -1 9717.15 681.853   3 
   0  16   1 9914.26 708.670   3 
   0  16  -1 9632.10 657.827   3 
   0 -16   1 9293.34 644.662   3 
   0 -16   2 25110.3 1028.64   3 
   0 -16   2 25154.1 653.902   4 
   0 -16  -2 26082.4 1147.76   3 
   0 -16  -2 26915.5 1327.06   5 
   0 -16   2 24011.0 1282.34   5 
   0  16  -2 25611.5 1065.85   3 
   0  16   2 25582.6 1172.29   3 
   0  16   3 5173.53 551.000   3 
   0 -16   3 4866.42 586.951   5 
   0 -16  -3 5489.99 624.218   5 
   0 -16   3 4878.90 295.869   4 
   0 -16   3 4447.43 416.082   3 
   0 -16   4 40873.6 1005.33   4 
   0 -16   4 39343.2 1642.58   5 
   0  16   4 37869.6 1519.78   3 
   0 -16  -4 37161.5 1611.21   5 
   0 -16   4 40064.8 1249.24   3 
   0 -16   5 22989.3 894.834   3 
   0 -16   5 23234.5 785.472   4 
   0 -16   5 22658.9 1247.93   5 
   0 -16  -5 25054.4 1299.66   5 
   0  16   5 23287.8 1206.98   3 
   0 -16   6 51333.0 1348.63   3 
   0 -16   6 51808.5 1912.68   5 
   0 -16   6 53119.8 1316.53   4 
   0  16   6 52552.0 1876.77   3 
   0 -16  -6 49140.8 1859.34   5 
   0 -16   7 4149.71 375.516   4 
   0 -16   7 4449.15 565.070   5 
   0 -16  -7 5512.23 636.913   5 
   0 -16  -8 26044.0 1326.91   5 
   0 -16   8 25561.9 1324.70   5 
   0 -16   8 26119.0 964.707   4 
   0 -16   9 130.894 163.585   4 
   0  16   9-321.592 237.898   2 
   0 -16   9-66.3503 196.303   5 
   0 -16  10 8538.63 588.310   4 
   0 -16  10 8124.86 738.376   5 
   0  16  10 7640.20 765.600   2 
   0 -16 -10 9072.43 803.002   5 
   0 -16  11 33906.3 1240.71   4 
   0  16  11 32346.9 1599.57   2 
   0 -16  11 32528.9 1507.09   5 
   0 -16 -11 33041.9 1496.97   5 
   0 -16  12 1148.20 356.877   5 
   0  16  12 1169.57 423.666   2 
   0 -16 -12 1572.87 393.773   5 
   0 -16  12 1625.89 329.958   4 
   0  16  13 19117.5 1260.84   2 
   0 -16  13 19102.1 976.165   4 
   0 -16 -13 18728.3 1124.77   5 
   0 -16  13 19260.3 1146.88   5 
   0 -16  14 2543.58 430.014   5 
   0  16  14 3139.44 543.098   2 
   0 -16 -14 2961.73 471.137   5 
   0 -16  14 3002.40 412.645   4 
   0 -16 -15-101.196 189.307   5 
   0 -16  15 53.9649 184.848   5 
   0 -16  15-82.8504 228.385   4 
   0  16  15-102.069 268.033   2 
   0 -16 -16 7415.88 707.432   5 
   0 -16  16 6381.14 668.246   5 
   0 -16  16 7646.70 675.792   4 
   0  16  16 6769.08 801.724   2 
   0 -16 -17 6507.10 673.287   5 
   0 -16  17 5307.91 616.787   5 
   0  16  17 5628.35 751.145   2 
   0 -16  17 5624.09 608.092   4 
   0 -16  18 8209.66 758.014   5 
   0  16  18 7321.15 870.347   2 
   0 -16  18 7270.19 713.167   4 
   0  16  19 21459.1 1467.91   2 
   0 -16  19 21250.9 1232.78   4 
   0  16  20 1368.20 449.141   2 
   0 -16  20 1493.18 389.240   4 
   0  16  21 2499.23 541.352   2 
   0 -16  21 1796.89 419.468   4 
   0 -16  22 7387.40 777.326   4 
   0  16  22 8298.87 943.150   2 
   0 -16  23 3513.78 587.994   4 
   0  16  23 3907.91 672.618   2 
   0 -16  24 1125.72 417.972   4 
   0  16  24 1148.27 448.737   2 
   0 -17   0 218.618 153.518   3 
   0 -17   0 420.641 268.362   5 
   0 -17  -1 57.9216 218.708   5 
   0 -17   1 139.448 199.839   5 
   0 -17   1-62.2734 133.601   3 
   0 -17  -2 85.6351 235.854   5 
   0 -17   2 158.965 144.797   3 
   0 -17   2 68.9442 263.183   5 
   0 -17   2 118.301 70.7286   4 
   0 -17   3 259.599 155.709   3 
   0 -17   3-287.057 278.195   5 
   0 -17   3 65.1132 69.9466   4 
   0 -17  -3-14.2895 234.524   5 
   0 -17   4 364.496 281.881   5 
   0 -17   4 168.730 105.353   4 
   0 -17  -4 439.942 278.155   5 
   0 -17   4 115.875 139.949   3 
   0 -17   5 61.7087 189.863   5 
   0 -17   5-68.8858 103.017   3 
   0 -17  -5-306.503 286.050   5 
   0 -17   5 89.1192 82.2468   4 
   0 -17   6-58.5054 127.366   3 
   0 -17   6-136.394 219.692   5 
   0 -17  -6 129.657 174.785   5 
   0 -17   6 102.924 111.847   4 
   0 -17   7 68.5051 94.1682   4 
   0 -17   7-106.858 154.997   5 
   0 -17  -7-30.3532 202.222   5 
   0 -17  -8-42.2517 214.699   5 
   0 -17   8-287.420 242.694   5 
   0 -17   8 48.3347 104.923   4 
   0 -17   9 26.4542 188.104   5 
   0 -17  -9-352.925 256.552   5 
   0 -17   9 122.649 136.344   4 
   0  17  10-234.832 236.633   2 
   0 -17  10 355.166 261.636   5 
   0 -17 -10 233.909 213.127   5 
   0 -17  10 345.921 173.716   4 
   0 -17 -11 229.517 226.498   5 
   0 -17  11 300.565 183.085   4 
   0  17  11 87.5672 200.002   2 
   0 -17  11 6.00712 235.006   5 
   0  17  12-157.177 271.679   2 
   0 -17  12-115.629 169.170   4 
   0 -17 -12 213.683 201.671   5 
   0 -17  12-317.201 281.148   5 
   0 -17 -13 19.6260 185.382   5 
   0  17  13-207.696 287.280   2 
   0 -17  13 234.059 218.442   5 
   0 -17  13 66.4540 134.534   4 
   0 -17 -14-151.083 192.012   5 
   0 -17  14-104.424 201.748   4 
   0 -17  14-259.439 242.299   5 
   0  17  14 43.4543 231.576   2 
   0 -17 -15-160.152 250.191   5 
   0  17  15-441.280 308.953   2 
   0 -17  15 148.628 182.944   5 
   0 -17  15 55.2669 186.799   4 
   0 -17 -16-538.995 263.298   5 
   0 -17  16-368.285 249.693   5 
   0  17  16-380.681 367.572   2 
   0 -17  16 10.1630 191.509   4 
   0 -17  17-147.015 239.464   4 
   0 -17  17-58.6675 189.983   5 
   0  17  17-310.054 295.654   2 
   0  17  18-63.6403 229.897   2 
   0 -17  18-170.185 231.298   4 
   0  17  19 25.9244 304.834   2 
   0 -17  19 294.167 275.395   4 
   0  17  20 563.745 353.126   2 
   0 -17  20-165.788 222.210   4 
   0 -17  21 677.167 354.436   4 
   0  17  21-221.351 285.790   2 
   0 -17  22 568.950 340.820   4 
   0  17  22-257.450 377.911   2 
   0 -17  23 514.946 304.283   4 
   0 -17  24 7.72302 229.607   4 
   0 -18   0 32210.3 1587.00   5 
   0 -18   1 194.331 205.372   3 
   0 -18  -1 382.804 291.820   5 
   0 -18   1 265.341 290.516   5 
   0 -18   2 14.4818 252.897   5 
   0 -18   2 109.292 169.694   3 
   0 -18  -2-118.405 264.306   5 
   0 -18  -3 2596.09 459.839   5 
   0 -18   3 2834.05 214.739   4 
   0 -18   3 2727.59 467.906   5 
   0 -18   3 3177.13 387.969   3 
   0 -18   4 507.311 231.306   5 
   0 -18   4 368.841 105.987   4 
   0 -18  -4 93.2044 205.796   5 
   0 -18   4 287.473 150.989   3 
   0 -18  -5 201.215 237.723   5 
   0 -18   5 173.369 93.2419   4 
   0 -18   5 63.6422 222.191   5 
   0 -18   5 49.7727 113.194   3 
   0 -18   6 3313.06 510.868   5 
   0 -18  -6 3928.38 566.144   5 
   0 -18   6 4083.66 333.723   4 
   0 -18  -7 978.561 321.023   5 
   0 -18   7 1624.58 238.562   4 
   0 -18   7 1455.75 367.237   5 
   0 -18  -8 294.833 207.946   5 
   0 -18   8 428.437 149.827   4 
   0 -18   9 258.761 130.273   4 
   0 -18   9 214.047 203.496   5 
   0 -18  -9 281.541 192.118   5 
   0 -18  10 773.330 203.540   4 
   0 -18 -10 762.176 283.143   5 
   0 -18  10 560.909 265.793   5 
   0 -18  11 12.0258 206.064   5 
   0 -18 -11-194.046 267.680   5 
   0 -18  11 88.6782 138.652   4 
   0 -18  12 5117.03 498.221   4 
   0  18  12 5003.06 691.605   2 
   0 -18  12 5170.64 656.065   5 
   0 -18 -12 5080.84 636.081   5 
   0 -18 -13 458.430 322.833   5 
   0  18  13 366.837 324.262   2 
   0 -18  13 409.026 287.472   5 
   0 -18  13 397.199 207.941   4 
   0 -18  14 11823.4 799.923   4 
   0  18  14 10670.9 1004.75   2 
   0 -18  14 12006.0 966.366   5 
   0 -18 -14 11578.1 947.767   5 
   0 -18 -15 975.512 318.723   5 
   0 -18  15 224.937 270.310   5 
   0 -18  15 888.945 252.654   4 
   0  18  15 414.075 250.712   2 
   0 -18  16 569.006 221.764   4 
   0 -18 -16 236.567 218.227   5 
   0  18  16 440.747 241.833   2 
   0 -18  16 38.2110 272.587   5 
   0 -18  17-104.947 187.340   5 
   0 -18  17 187.710 208.029   4 
   0  18  17 391.925 352.119   2 
   0  18  18 6632.92 859.047   2 
   0 -18  18 8154.68 751.167   4 
   0  18  19 1406.07 488.047   2 
   0 -18  19 1449.59 371.610   4 
   0 -18  20 13431.3 1029.24   4 
   0  18  20 13698.4 1248.06   2 
   0  18  21 338.251 297.365   2 
   0 -18  21 740.169 315.615   4 
   0 -18  22 5919.69 725.574   4 
   0 -18  23 318.342 315.731   4 
   0 -19   0 116.645 262.856   5 
   0 -19  -1-156.472 219.072   5 
   0 -19   1-158.520 300.307   5 
   0 -19   2 62.2909 266.227   5 
   0 -19  -2 414.072 320.153   5 
   0 -19   3-149.081 183.965   5 
   0 -19  -3 272.273 238.704   5 
   0 -19   4-64.4014 197.699   5 
   0 -19  -4 58.3841 259.111   5 
   0 -19   5-349.933 277.185   5 
   0 -19  -5-218.142 270.085   5 
   0 -19   6-507.284 296.002   5 
   0 -19  -6-71.1716 199.922   5 
   0 -19  -7-250.807 304.020   5 
   0 -19   7-259.124 274.217   5 
   0 -19   8 148.724 151.400   4 
   0 -19  -8-2.93190 221.962   5 
   0 -19   8 52.1334 201.368   5 
   0 -19  -9-24.5033 251.607   5 
   0 -19   9 200.128 152.525   4 
   0 -19   9-328.428 283.844   5 
   0 -19  10-150.541 242.881   5 
   0 -19  10 90.3980 117.583   4 
   0 -19 -10 395.240 306.850   5 
   0 -19  11-214.346 306.650   5 
   0 -19  11 133.444 141.137   4 
   0 -19 -11 184.649 248.548   5 
   0 -19  12-341.340 285.597   5 
   0 -19  12 34.5834 129.663   4 
   0 -19 -12-288.729 237.093   5 
   0 -19  13-254.965 261.606   5 
   0 -19  13-172.790 170.656   4 
   0 -19 -13-278.045 292.333   5 
   0 -19 -14-432.163 313.970   5 
   0 -19  14 172.319 239.297   5 
   0  19  14-150.679 261.601   2 
   0 -19  14-167.003 156.118   4 
   0 -19  15-76.1304 254.152   5 
   0 -19  15 5.63106 166.402   4 
   0 -19 -15 491.752 302.957   5 
   0  19  15-69.9991 280.963   2 
   0 -19  16-175.262 199.089   5 
   0  19  16-243.664 339.412   2 
   0 -19  16-172.120 164.374   4 
   0 -19  17 240.570 174.640   4 
   0  19  17-190.588 292.126   2 
   0 -19  18-98.7965 205.016   4 
   0  19  18 290.435 278.667   2 
   0 -19  19 257.509 223.607   4 
   0  19  19 5.45947 292.031   2 
   0 -19  20-94.3030 249.448   4 
   0  19  20-456.608 388.753   2 
   0 -19  21-12.7713 232.294   4 
   0 -19  22-109.432 277.806   4 
   0 -20   0 28811.8 1597.04   5 
   0 -20   1 2108.38 536.680   5 
   0 -20  -1 1710.04 483.200   5 
   0 -20  -2 62927.9 2416.52   5 
   0 -20   2 60949.6 2379.40   5 
   0 -20  -3 1404.39 482.754   5 
   0 -20   3 989.255 430.408   5 
   0 -20  -4 29505.8 1620.61   5 
   0 -20   4 28349.6 1596.52   5 
   0 -20   5 714.328 330.143   5 
   0 -20  -5 1018.77 373.141   5 
   0 -20  -6 7491.09 806.859   5 
   0 -20   6 7906.14 848.036   5 
   0 -20  -7 1259.27 427.676   5 
   0 -20   7 1786.75 456.465   5 
   0 -20  -8 20481.4 1339.04   5 
   0 -20   8 20724.3 1358.20   5 
   0 -20  -9 980.280 375.683   5 
   0 -20   9 1567.26 483.254   5 
   0 -20 -10 27327.9 1558.02   5 
   0 -20  10 25314.9 1513.58   5 
   0 -20  11 1074.65 407.396   5 
   0 -20 -11 1145.17 410.851   5 
   0 -20 -12 9924.88 937.727   5 
   0 -20  12 7372.81 828.780   5 
   0 -20 -13 1245.50 401.899   5 
   0 -20  13 1460.67 402.490   5 
   0 -20 -14 2950.14 548.351   5 
   0 -20  14 2177.75 469.262   5 
   0 -20 -15-347.418 295.525   5 
   0 -20  15 367.706 279.953   5 
   0  20  15-132.252 254.532   2 
   0 -20  16 2533.41 506.495   5 
   0  20  16 3747.24 659.626   2 
   0  20  17 1492.57 428.240   2 
   0  20  18 1561.61 531.407   2 
   0 -21   0 617.716 341.442   5 
   0 -21   1 291.143 296.426   5 
   0 -21  -1-70.2347 212.920   5 
   0 -21  -2 265.360 349.500   5 
   0 -21   2 713.306 358.503   5 
   0 -21   3 8.93915 294.079   5 
   0 -21  -3 917.939 389.143   5 
   0 -21   4 1157.97 419.461   5 
   0 -21  -4 64.8187 287.140   5 
   0 -21   5 138.016 258.590   5 
   0 -21  -5 107.371 202.344   5 
   0 -21  -6 230.623 231.907   5 
   0 -21   6 73.0650 199.124   5 
   0 -21   7-348.035 303.240   5 
   0 -21  -7-14.5569 252.628   5 
   0 -21   8 350.743 280.383   5 
   0 -21  -8 126.684 256.820   5 
   0 -21  -9 250.812 220.208   5 
   0 -21   9 174.087 295.439   5 
   0 -21 -10 508.730 335.126   5 
   0 -21  10-325.877 329.929   5 
   0 -21  11 368.616 304.270   5 
   0 -21 -11-673.816 353.029   5 
   0 -21 -12-163.168 258.962   5 
   0 -21  12-336.446 329.854   5 
   0 -21 -13 381.668 266.629   5 
   0 -21  13-489.298 344.877   5 
   0 -21 -14 87.2038 261.081   5 
   0 -21  14-334.976 294.505   5 
   0 -21  15-44.3184 252.352   5 
   0 -22   0 25024.1 1588.13   5 
   0 -22  -1 2241.73 576.291   5 
   0 -22   1 1524.74 507.830   5 
   0 -22  -2 17824.6 1347.40   5 
   0 -22   2 15779.1 1265.68   5 
   0 -22   3 10722.2 1059.36   5 
   0 -22  -3 11397.6 1081.10   5 
   0 -22   4 4819.35 731.571   5 
   0 -22  -4 4590.99 702.065   5 
   0 -22   5 2820.04 549.960   5 
   0 -22  -5 2897.35 565.666   5 
   0 -22   6 1322.41 409.335   5 
   0 -22  -6 971.729 392.763   5 
   0 -22   7 184.138 244.883   5 
   0 -22  -7-9.58296 205.296   5 
   0 -22  -8 613.947 379.481   5 
   0 -22   8 1043.13 359.895   5 
   0 -22  -9 373.128 350.468   5 
   0 -22   9-109.918 342.802   5 
   0 -22 -10 210.893 254.031   5 
   0 -22  10-73.8451 283.813   5 
   0 -22 -11 2428.67 547.167   5 
   0 -22  11 2356.89 496.775   5 
   0 -22  12 168.103 250.102   5 
   0 -22 -12 305.092 274.253   5 
   0 -22  13 681.064 349.413   5 
   0 -22 -13-119.171 250.265   5 
   0 -22  14 800.179 417.236   5 
   0 -23   0 1712.25 530.329   5 
   0 -23  -1 1016.03 423.235   5 
   0 -23   1 135.963 345.046   5 
   0 -23  -2 621.059 353.434   5 
   0 -23   2 1628.14 471.119   5 
   0 -23  -3 372.992 313.099   5 
   0 -23   3-450.088 259.689   5 
   0 -23  -4 305.662 296.546   5 
   0 -23  -5 151.649 297.697   5 
   1   0   2 194741. 2494.22   3 
   1   0   3 51.3487 42.3079   3 
   1   0   4 317510. 3964.64   3 
   1   0   5 151.189 69.6768   3 
  -1   0  -6 153381. 2181.64   3 
   1   0   6 149121. 2178.83   3 
   1   0   7 226.884 75.7157   3 
  -1   0   7 38.0069 56.6926   4 
  -1   0  -7 92.9329 53.7911   3 
   1   0   8 76442.8 1404.91   3 
  -1   0   8 78186.9 1552.01   4 
  -1   0  -8 78009.7 1405.34   3 
  -1   0  -9 65.7963 70.2531   3 
  -1   0   9 207.150 146.436   4 
   1   0   9 59.1769 81.4324   3 
  -1   0  10 1403.41 200.263   4 
   1   0  10 1384.68 185.315   3 
  -1   0 -10 1538.42 180.372   3 
  -1   0 -11 102.301 90.6709   3 
  -1   0  11-92.0732 126.296   4 
   1   0  11 147.299 96.8881   3 
   1   0  12 15122.4 624.676   3 
  -1   0 -12 13213.3 575.861   3 
   1   0 -12 13092.7 609.909   3 
  -1   0  12 13316.8 667.701   4 
  -1   0 -13 218.727 146.251   3 
   1   0  13 3.84028 87.4043   3 
   1   0 -13 1.06166 121.353   3 
  -1   0  13 260.717 180.216   4 
   1   0  13 228.829 157.924   4 
  -1   0  14 76618.0 1900.38   4 
   1   0 -14 81743.2 1809.46   3 
   1   0  14 75116.9 1856.44   4 
  -1   0 -14 80759.8 1714.13   3 
   1   0  14 75930.4 1705.90   3 
  -1   0 -15 275.511 194.380   3 
   1   0  15 252.005 189.956   4 
  -1   0  15 654.303 282.422   4 
  -1   0  16 32573.8 1243.55   4 
  -1   0 -16 34839.2 1108.25   3 
   1   0  16 32157.9 1222.16   4 
   1   0  17 628.704 257.940   4 
  -1   0  17 1006.61 314.332   4 
  -1   0  18 55629.4 1739.34   4 
   1   0  18 54216.6 1705.92   4 
   1   0  19 322.527 204.789   4 
  -1   0  19 631.771 251.651   4 
   1   0 -19 517.987 205.254   3 
   1   0  20-6.66555 191.814   4 
  -1   0  20 36.1866 171.181   4 
  -1   0 -20 66.0685 156.877   3 
   1   0 -20-105.397 168.548   3 
  -1   0 -21 219.907 189.629   3 
  -1   0  21 605.346 321.864   4 
   1   0 -21 183.692 204.920   3 
   1   0  21 399.531 300.718   4 
   1   0 -22 983.242 246.445   3 
   1   0  22 1177.48 280.490   4 
  -1   0 -22 1197.34 266.720   3 
  -1   0  22 1564.64 345.981   4 
   1   0  23 266.535 305.844   4 
  -1   0 -23 200.198 179.699   3 
   1   0  24 4910.74 603.989   4 
   1   0  25 432.440 251.363   4 
   1   0  26 11694.9 958.649   4 
   1   0  27 392.777 307.498   4 
   1   0  28 114.600 208.946   4 
   1   0  29 134.599 197.392   4 
   1   0  30 449.243 294.089   4 
   1   1   2 25662.6 568.250   3 
   1   1   3 58353.6 1017.02   3 
   1  -1   3 57792.6 886.912   3 
   1   1   4 22434.1 578.638   3 
   1  -1   4 22753.0 471.330   3 
   1   1   5 139845. 2120.70   3 
  -1   1  -5 146243. 1959.24   3 
   1  -1   5 144994. 1955.93   3 
   1   1   6 20506.5 608.596   3 
  -1  -1   6 21693.9 646.950   4 
  -1   1  -6 21738.6 521.183   3 
   1  -1   6 21643.2 520.577   3 
   1  -1   7 1733.03 149.753   3 
  -1  -1   7 2228.35 215.780   4 
   1   1   7 2123.50 191.673   3 
  -1   1  -7 1756.24 149.091   3 
   1  -1   8 357.555 82.0620   3 
   1   1   8 239.563 91.2788   3 
  -1  -1   8 312.770 154.882   4 
  -1  -1  -8 272.776 91.5194   3 
  -1   1  -8 374.894 84.3516   3 
   1  -1   9 204646. 2925.34   3 
  -1   1  -9 207984. 2917.27   3 
  -1  -1   9 204046. 3221.24   4 
  -1  -1  -9 210967. 3109.76   3 
   1   1   9 210128. 3127.06   3 
  -1   1  10 17791.6 721.485   4 
   1   1 -10 17337.1 395.480   5 
  -1  -1 -10 18425.9 670.978   3 
  -1   1 -10 18178.1 586.564   3 
   1  -1  10 17791.6 592.657   3 
   1   1  10 18515.3 681.952   3 
  -1  -1  10 19281.2 750.514   4 
   1  -1 -10 18116.9 700.146   3 
   1   1  11 1552.39 110.697   5 
   1  -1 -11 1567.91 217.728   3 
  -1  -1 -11 1943.65 236.066   3 
  -1   1 -11 1671.65 185.379   3 
   1   1 -11 1498.79 98.4046   5 
   1  -1  11 1459.28 177.369   3 
  -1   1  11 1731.25 249.778   4 
   1   1  11 1527.58 209.475   3 
  -1   1  12 16096.3 732.372   4 
  -1  -1  12 17663.5 771.592   4 
   1   1  12 16045.6 367.107   5 
   1  -1  12 14997.9 590.760   3 
   1  -1 -12 15610.8 704.338   4 
  -1  -1 -12 17642.4 693.286   3 
  -1   1 -12 16009.9 596.067   3 
   1   1  12 16097.9 707.088   4 
   1  -1 -12 17297.4 725.133   3 
   1   1  12 16530.3 695.964   3 
   1   1 -12 14831.3 327.825   5 
  -1  -1 -13 51893.4 1312.22   3 
   1  -1  13 47724.7 1185.54   3 
  -1   1 -13 49270.2 1175.91   3 
   1   1  13 48070.6 1357.16   4 
  -1  -1  13 47420.7 1384.72   4 
   1  -1 -13 48876.8 1367.15   4 
   1  -1 -13 47723.2 1329.54   3 
   1   1 -13 48649.6 1257.63   3 
  -1   1  13 46473.3 1368.02   4 
   1   1  13 46927.2 1287.08   3 
  -1  -1  14 9805.25 631.487   4 
  -1  -1 -14 10585.3 574.289   3 
   1  -1 -14 9686.66 594.343   4 
  -1   1 -14 10002.5 513.554   3 
   1   1  14 9437.89 561.565   3 
   1   1  14 10072.8 610.448   4 
   1  -1  14 9889.58 622.665   4 
   1   1 -14 9540.33 530.841   3 
  -1   1  14 9677.11 614.590   4 
   1   1  15 3107.82 337.533   3 
   1   1  15 3052.08 375.316   4 
  -1  -1  15 3653.36 418.440   4 
  -1   1 -15 2910.30 291.291   3 
   1   1 -15 2788.56 298.981   3 
  -1   1  15 2592.92 348.533   4 
   1  -1  15 3566.14 391.163   4 
  -1   1  16 26538.8 1112.66   4 
   1  -1  16 24073.7 1061.50   4 
   1   1  16 26089.2 1073.98   4 
  -1   1 -16 26872.6 923.827   3 
  -1  -1  16 26169.5 1115.67   4 
  -1   1  17 50057.6 1601.66   4 
   1  -1  17 49489.4 1587.96   4 
  -1   1 -17 51675.0 1365.34   3 
  -1  -1  17 50231.6 1621.83   4 
   1   1  17 48839.5 1563.29   4 
   1  -1 -18 4312.77 462.753   3 
   1  -1  18 4400.17 511.197   4 
   1   1  18 4705.82 524.465   4 
  -1   1  18 5407.33 550.047   4 
  -1  -1  18 5040.11 534.039   4 
  -1  -1  19 779.507 269.670   4 
  -1  -1 -19 332.314 159.421   3 
   1   1  19 712.979 236.723   4 
   1  -1  19 784.626 256.948   4 
   1  -1 -19 648.003 199.612   3 
  -1   1  19 484.422 195.815   4 
  -1   1  20 7449.97 668.113   4 
   1   1  20 6618.49 605.184   4 
  -1  -1  20 6937.13 655.935   4 
  -1  -1 -20 7000.32 563.789   3 
   1  -1 -20 7285.21 598.506   3 
   1  -1  20 6881.20 642.118   4 
   1   1 -20 6862.17 554.631   3 
  -1   1 -21 30975.2 1165.01   3 
   1   1 -21 31819.3 1237.09   3 
  -1  -1  21 30056.4 1390.11   4 
   1  -1  21 32999.3 1443.09   4 
  -1  -1 -21 33500.5 1291.71   3 
   1  -1 -21 34132.2 1352.62   3 
   1   1  21 28421.2 1328.11   4 
   1   1  22 9537.96 788.019   4 
  -1  -1 -22 11531.5 760.052   3 
  -1  -1  22 10080.4 824.167   4 
  -1   1 -22 10470.9 682.258   3 
   1   1 -22 10321.0 701.968   3 
   1  -1  22 10638.4 833.420   4 
  -1  -1  23 21007.2 1217.25   4 
   1   1 -23 23039.4 1094.68   3 
   1   1  23 24106.6 1273.27   4 
   1  -1  23 21493.0 1219.05   4 
  -1   1 -23 23475.9 1051.61   3 
   1   1  24 3009.68 483.982   4 
  -1   1 -24 3230.24 414.622   3 
   1  -1  24 3105.65 485.709   4 
  -1  -1  24 3646.78 538.090   4 
   1  -1  25 962.868 351.960   4 
   1   1  25 619.172 291.579   4 
   1   1  26 78.0233 230.187   4 
   1  -1  26 331.261 221.878   4 
   1  -1  27 11473.1 997.775   4 
   1   1  27 12863.2 1031.80   4 
   1  -1  28 5024.64 694.637   4 
   1   1  28 5794.87 723.886   4 
   1  -1  29 1247.18 375.213   4 
   1   1  29 1171.50 365.027   4 
   1  -1  30 552.737 332.668   4 
   1   1  30-156.588 271.022   4 
   1   1  31 5484.29 745.041   4 
   1  -2   0-7.12903 32.0712   1 
   1  -2   0 4.26424 31.8576   2 
   1  -2   1 5221.44 252.438   1 
   1   2   1 5648.51 252.384   3 
   1   2   2 146266. 2090.41   3 
   1   2   3 44916.1 912.838   3 
   1   2   4 220971. 3032.82   3 
   1  -2   4 217042. 2662.87   3 
   1   2   5 29446.6 751.802   3 
  -1   2  -5 26786.3 506.705   3 
   1  -2   5 27084.6 503.452   3 
  -1  -2   5 29914.2 734.933   4 
   1  -2  -6 7266.30 345.326   4 
   1  -2   6 6755.28 231.886   3 
   1   2   6 5261.55 316.078   3 
  -1   2  -6 6952.63 235.856   3 
  -1  -2   6 5240.90 313.187   4 
  -1   2  -7 9012.48 298.331   3 
   1  -2  -7 8687.67 406.546   4 
  -1  -2   7 8291.46 420.130   4 
   1  -2   7 8933.86 299.294   3 
   1   2   7 8495.47 424.111   3 
   1   2  -7 8554.75 306.951   5 
   1  -2  -8 18420.8 645.210   4 
  -1  -2   8 21226.8 716.627   4 
   1   2   8 20718.9 510.121   5 
   1   2   8 19995.9 693.323   3 
   1  -2   8 19057.6 498.013   3 
  -1   2  -8 18192.9 488.886   3 
   1   2  -8 20256.4 492.348   5 
  -1  -2   9 21136.5 767.438   4 
   1  -2   9 21169.3 567.169   3 
  -1   2  -9 22211.3 570.655   3 
   1   2   9 21442.8 748.997   3 
   1   2   9 20856.7 520.973   5 
   1  -2  -9 22054.1 744.656   4 
  -1  -2  -9 21578.4 737.164   3 
   1   2  -9 20736.4 503.501   5 
  -1   2 -10 109135. 1730.33   3 
   1   2  10 111094. 1603.18   5 
   1  -2  10 103172. 1726.86   3 
  -1  -2 -10 110869. 2048.10   3 
   1   2 -10 108926. 1576.48   5 
   1   2  10 106805. 2051.91   3 
   1  -2 -10 108867. 2043.31   4 
  -1  -2  10 109263. 2109.97   4 
  -1  -2 -11 79728.4 1690.02   3 
   1   2  11 76539.9 1695.39   3 
   1  -2 -11 78309.4 1744.25   3 
   1   2  11 78452.6 1222.67   5 
   1   2  11 75887.1 1646.48   4 
   1  -2 -11 80101.0 1705.16   4 
  -1  -2  11 79878.3 1766.48   4 
   1   2 -11 75826.7 1191.14   5 
  -1   2 -11 76417.9 1406.13   3 
   1  -2  11 78247.0 1422.32   3 
   1   2  12 31975.0 1045.93   3 
   1   2  12 33183.2 1038.16   4 
  -1  -2  12 33917.7 1118.09   4 
   1   2  12 32134.0 650.925   5 
   1  -2 -12 30206.4 1042.84   3 
   1  -2 -12 32570.3 1047.05   4 
  -1   2 -12 31374.6 834.377   3 
  -1  -2 -12 33240.1 1044.65   3 
   1   2  13 710.998 183.951   3 
  -1   2 -13 922.017 147.656   3 
   1  -2 -13 944.831 191.880   4 
  -1  -2 -13 721.892 174.160   3 
  -1  -2  13 739.291 201.747   4 
   1   2  13 509.307 164.955   4 
   1  -2 -14 1529.09 240.220   4 
   1  -2 -14 1373.19 90.7401   5 
   1   2  14 1325.26 220.596   3 
  -1  -2  14 1357.95 259.857   4 
   1   2  14 1150.84 226.600   4 
   1   2 -14 1704.51 225.376   3 
  -1   2 -14 1519.52 197.423   3 
  -1   2 -15 1216.81 193.352   3 
   1  -2  15 1418.22 262.960   4 
  -1   2  15 1207.72 246.393   4 
   1  -2  15 970.412 79.1065   5 
   1   2  15 1341.14 242.471   4 
   1   2  15 934.588 183.503   3 
  -1  -2  15 1516.27 293.630   4 
   1   2 -15 1235.69 203.548   3 
   1   2  16 19567.7 909.287   4 
  -1   2 -16 17565.7 700.481   3 
  -1  -2  16 18901.1 934.391   4 
   1  -2  16 17012.3 884.413   4 
   1   2 -16 19096.5 793.467   3 
   1   2  16 18914.5 889.508   3 
   1  -2  17 7036.32 594.373   4 
  -1   2 -17 6752.90 446.119   3 
   1   2  17 6712.59 559.744   4 
   1   2 -17 6569.18 486.438   3 
  -1  -2  17 6366.23 576.154   4 
  -1  -2 -17 5735.30 499.834   3 
   1  -2 -17 8198.74 602.075   3 
  -1   2 -18 10586.3 579.898   3 
   1   2  18 11428.5 747.686   4 
   1  -2  18 9784.62 713.955   4 
   1  -2 -18 10496.5 708.599   3 
  -1  -2  18 11774.7 786.163   4 
  -1  -2 -18 11600.1 715.627   3 
   1  -2 -19 7017.87 588.489   3 
   1  -2  19 7033.78 618.058   4 
  -1   2 -19 6538.69 465.812   3 
  -1  -2 -19 7788.92 600.517   3 
  -1  -2  19 7337.59 643.196   4 
   1   2  19 7368.80 623.239   4 
   1   2  20 262.294 202.602   4 
  -1  -2 -20 334.228 200.271   3 
   1  -2  20 299.229 198.179   4 
  -1  -2  20 790.333 307.860   4 
   1  -2 -20 263.180 174.294   3 
   1   2 -21 22394.4 998.035   3 
  -1  -2 -21 21676.5 1062.80   3 
   1   2  21 21291.1 1126.78   4 
   1  -2  21 21175.5 1160.81   4 
  -1  -2  21 21598.7 1172.56   4 
   1   2  22 1358.78 351.494   4 
  -1  -2  22 664.675 293.203   4 
   1   2 -22 818.445 219.398   3 
   1  -2  22 846.861 262.934   4 
  -1   2 -23 1749.73 293.551   3 
   1  -2  23 2746.66 478.816   4 
   1   2 -23 2145.15 342.440   3 
  -1  -2  23 2279.91 454.469   4 
   1   2  23 1807.64 392.013   4 
   1   2  24 549.128 256.923   4 
   1  -2  24 517.943 255.961   4 
  -1  -2  24-43.0620 230.155   4 
   1   2  25 952.781 322.070   4 
   1  -2  25 486.065 241.523   4 
  -1  -2  25 461.195 280.416   4 
   1   2  26 4916.24 633.226   4 
   1  -2  26 3942.00 598.993   4 
   1   2  27 1279.90 384.892   4 
   1  -2  27 1008.62 311.230   4 
   1  -2  28 4066.41 606.182   4 
   1   2  28 4618.81 646.040   4 
   1  -2  29 2061.28 474.760   4 
   1   2  29 2963.27 523.979   4 
   1   2  30 45.6589 239.325   4 
   1  -2  30-74.5378 240.226   4 
   1   2  31 313.007 251.720   4 
   1  -3   0 3.73348 48.0506   2 
   1  -3   0-38.3844 53.2308   1 
   1   3   0 61.1757 66.8066   3 
   1   3  -1 97077.4 1552.35   5 
   1  -3  -1 95510.4 1581.70   2 
   1   3  -1 97996.4 1489.07   3 
   1   3   1 98119.6 1562.14   5 
   1  -3   1 93723.0 1584.29   1 
  -1  -3  -1 94893.8 1384.20   2 
   1   3   1 96286.0 1545.19   3 
   1   3  -2 428532. 5400.43   5 
   1   3  -2 435049. 5298.13   3 
   1  -3   2 428302. 5469.36   1 
   1   3   2 432603. 5227.24   2 
   1   3   2 435377. 5443.49   3 
   1   3   2 433851. 5410.79   5 
   1   3   3 72168.2 1246.58   5 
   1   3  -3 69198.0 1229.03   5 
   1   3   3 68661.9 1293.52   3 
   1   3  -4 17082.4 513.384   5 
   1   3   4 18069.6 525.170   5 
   1   3   4 16959.0 573.288   3 
  -1  -3   4 17803.7 517.547   4 
  -1  -3   5 17368.4 545.883   4 
   1   3   5 17249.9 600.160   3 
   1   3  -5 17096.9 384.067   1 
   1   3  -5 17670.0 515.249   5 
   1   3   5 18061.2 522.665   5 
   1   3  -6 3329.46 213.680   5 
   1   3   6 2984.17 248.130   3 
   1   3   6 3555.44 223.741   5 
  -1  -3   6 3411.61 249.633   4 
   1  -3  -6 3411.74 238.397   4 
   1   3  -7 23429.3 608.153   5 
   1   3   7 23675.8 770.270   3 
   1  -3   7 23989.5 466.129   3 
  -1   3  -7 24071.5 467.497   3 
  -1  -3   7 23962.0 743.343   4 
   1  -3  -7 24377.4 706.984   4 
   1   3   7 23486.8 614.614   5 
   1   3  -8 29026.9 690.474   5 
  -1   3  -8 30451.9 589.384   3 
   1   3   8 29437.1 905.388   3 
  -1  -3   8 29173.2 878.629   4 
   1  -3   8 29977.4 588.614   3 
   1   3   8 28746.3 698.425   5 
  -1   3  -9 370.445 68.9479   3 
   1   3  -9 183.813 69.9395   5 
  -1  -3   9 400.802 157.717   4 
   1  -3  -9 285.519 98.5152   4 
   1   3   9 232.153 136.862   3 
   1   3   9 149.796 54.7696   5 
   1  -3   9 387.199 70.7938   3 
   1  -3 -10 3024.74 290.139   4 
   1   3  10 3082.16 323.109   3 
  -1  -3 -10 2675.17 300.776   3 
   1   3  10 2918.93 207.087   5 
   1   3 -10 2939.03 199.842   5 
   1   3  10 2720.28 268.955   4 
  -1   3 -10 2798.28 186.768   3 
  -1  -3  10 3436.44 329.871   4 
  -1  -3 -11 54559.3 1382.88   3 
   1   3  11 49270.0 1252.35   4 
   1   3  11 50877.8 1370.69   3 
  -1  -3  11 52901.2 1388.86   4 
  -1   3 -11 51649.6 1002.16   3 
   1   3  11 50588.0 983.010   5 
   1  -3 -11 49951.9 1290.49   4 
  -1   3 -12 192565. 2708.30   3 
   1  -3 -12 191684. 3174.52   4 
  -1  -3 -12 187255. 3232.75   3 
  -1  -3  12 187839. 3275.99   4 
   1   3  12 189121. 3258.68   3 
   1   3  12 182897. 3107.08   4 
  -1   3 -13 31864.2 813.068   3 
  -1  -3  13 34953.1 1185.06   4 
   1  -3 -13 31336.4 1061.94   4 
   1   3  13 32981.2 1064.54   4 
   1   3  13 32869.5 1134.98   3 
   1   3  14 169.064 163.553   4 
  -1  -3  14 421.582 210.907   4 
   1   3  14 28.2986 165.063   3 
  -1   3 -14 111.072 85.0621   3 
   1   3 -14 36.3659 75.5866   3 
   1  -3 -14 31.1790 42.3669   5 
   1  -3 -14 106.226 105.978   4 
   1  -3  15 11764.6 368.732   5 
  -1  -3  15 13002.7 752.807   4 
   1   3  15 13007.4 714.334   4 
   1   3 -15 13297.4 609.518   3 
   1  -3  15 12473.8 725.341   4 
   1   3  15 13356.7 747.274   3 
  -1   3 -15 13255.4 541.978   3 
   1  -3 -15 12295.6 688.307   4 
   1  -3 -15 12061.4 349.237   5 
   1  -3 -16 153.969 47.3757   5 
   1  -3 -16 488.898 202.541   3 
  -1   3 -16 187.412 102.721   3 
   1   3 -16 163.366 125.264   3 
   1   3  16 58.7901 169.460   3 
   1   3  16 449.439 187.950   4 
  -1  -3  16 625.326 245.669   4 
   1  -3  16 143.363 50.2499   5 
  -1  -3 -16 361.915 183.859   3 
   1  -3  16 413.001 242.135   4 
  -1   3 -17 1872.98 240.064   3 
  -1  -3 -17 1378.60 278.489   3 
   1   3  17 1890.35 318.308   3 
   1  -3  17 1789.42 333.668   4 
   1   3 -17 1905.62 282.207   3 
   1   3  17 2221.38 345.356   4 
  -1  -3  17 2148.63 371.178   4 
   1  -3 -17 2075.95 348.624   3 
   1  -3  18 55584.9 1791.64   4 
   1   3 -18 56550.7 1491.49   3 
  -1  -3  18 57216.7 1822.25   4 
   1  -3 -18 59024.6 1796.77   3 
  -1  -3 -18 58264.9 1723.46   3 
   1   3  18 55968.1 1717.86   4 
  -1   3 -18 56320.7 1376.22   3 
   1  -3  19 9920.68 768.275   4 
   1  -3 -19 10186.7 725.636   3 
  -1  -3  19 8842.70 728.809   4 
   1   3  19 8327.95 665.221   4 
  -1   3 -19 9393.99 539.253   3 
  -1  -3 -19 8654.63 664.643   3 
  -1   3 -20 5424.20 421.272   3 
   1  -3  20 4785.88 539.698   4 
   1   3  20 5035.22 543.590   4 
  -1  -3  20 5675.81 596.787   4 
   1   3  21 5627.46 592.717   4 
  -1  -3  21 5518.61 608.452   4 
   1  -3  21 5008.56 597.310   4 
  -1  -3  22-103.172 195.664   4 
   1   3 -22-33.8761 165.065   3 
   1   3  22 202.580 179.086   4 
   1  -3  22 189.952 240.614   4 
  -1  -3  23 7168.72 708.636   4 
   1   3 -23 7420.36 576.897   3 
   1  -3  23 8079.07 775.456   4 
   1   3  23 7359.36 698.835   4 
   1   3  24 2254.37 431.396   4 
  -1  -3  24 1921.00 406.031   4 
   1  -3  24 2297.87 430.923   4 
  -1  -3  25 887.792 288.523   4 
   1  -3  25 125.105 225.144   4 
   1   3  25 760.560 305.726   4 
   1  -3  26 2735.86 519.309   4 
   1   3  26 3873.54 555.583   4 
  -1  -3  26 2408.34 474.857   4 
   1  -3  27 6410.27 757.340   4 
   1   3  27 4462.20 629.061   4 
   1  -3  28 9256.66 926.801   4 
   1   3  28 11878.7 1009.04   4 
   1  -3  29 4694.71 702.101   4 
   1   3  29 4327.69 647.467   4 
   1   3  30 451.566 316.047   4 
   1  -3  30 79.1589 238.982   4 
   1   3  31 1728.46 450.792   4 
   1   4   0 188.392 128.579   3 
  -1  -4   0 173.142 87.3557   3 
   1   4  -1 550809. 6770.95   3 
   1   4   1 561749. 6921.85   5 
   1   4   1 548658. 6862.09   3 
   1  -4   1 566147. 6980.88   1 
   1   4  -1 546867. 6509.23   4 
  -1  -4  -1 554356. 6733.23   2 
   1   4  -1 553229. 6909.88   5 
   1  -4  -1 574304. 6986.80   2 
  -1  -4   1 553161. 6775.38   3 
   1   4  -2 232714. 3106.84   3 
   1  -4   2 227851. 3305.76   1 
   1   4   2 234020. 3274.79   3 
   1   4   2 235210. 3271.69   5 
   1   4  -2 231300. 3258.04   5 
   1   4  -2 238025. 2979.82   4 
   1   4   2 233603. 3129.29   2 
   1   4  -3 27086.7 632.255   3 
   1   4   3 26710.5 752.117   3 
   1   4  -3 27683.3 621.862   4 
  -1  -4   3 27697.5 626.338   4 
   1  -4   3 30363.6 794.082   1 
   1   4  -3 26842.2 728.026   5 
   1   4   3 26910.2 670.188   2 
   1   4   3 26921.0 729.945   5 
  -1  -4   4 48380.8 826.495   1 
   1   4  -4 47141.0 1024.08   5 
   1   4   4 47718.6 1103.78   3 
   1   4   4 49230.1 1047.98   5 
  -1  -4   4 48005.8 958.876   4 
   1   4  -4 48973.3 961.129   4 
  -1  -4   5 110.023 76.2349   4 
   1   4   5 170.539 77.0756   5 
   1   4   5 187.940 92.4457   3 
   1   4  -5 212.227 88.7148   5 
   1   4  -6 2733.42 216.726   5 
   1   4   6 2940.55 228.017   5 
   1   4  -6 2677.28 169.171   1 
  -1  -4   6 2986.92 242.373   4 
   1   4   6 2460.46 244.024   3 
   1   4   7 21533.1 636.750   5 
   1   4  -7 20994.3 625.557   5 
   1  -4  -7 21435.5 657.365   4 
   1   4   7 21232.8 764.064   3 
   1   4  -7 20480.7 527.563   1 
  -1  -4   7 20868.2 700.489   4 
   1   4  -8 90.0871 57.7736   5 
   1   4   8 77.4257 82.4365   3 
   1   4   8-17.9667 64.5458   4 
   1   4   8 169.632 78.1967   5 
   1  -4  -8 31.0164 76.0970   4 
   1  -4  -9 7143.46 405.398   4 
   1   4  -9 6821.32 339.923   5 
   1   4   9 6969.14 459.976   3 
  -1   4  -9 6353.86 213.902   3 
   1   4   9 6956.78 347.377   5 
  -1  -4   9 7660.53 451.054   4 
   1   4   9 7143.84 382.088   4 
   1   4  10 59652.6 1346.28   4 
  -1   4 -10 65240.0 1014.00   3 
   1   4  10 62224.5 1570.45   3 
  -1  -4  10 62034.2 1497.38   4 
   1   4  10 61437.1 1234.65   5 
  -1  -4  11 7636.74 501.743   4 
   1   4  11 6978.67 495.315   3 
  -1   4 -11 6130.55 255.188   3 
   1   4  11 6858.16 428.540   4 
   1  -4 -11 5758.87 402.913   4 
   1   4  12 27291.2 1044.10   3 
   1  -4 -12 33295.7 1040.34   4 
  -1   4 -12 32383.1 699.211   3 
   1   4  12 28266.1 948.828   4 
  -1  -4  12 28521.9 1036.38   4 
  -1  -4  13 2718.31 350.632   4 
   1  -4 -13 2471.97 288.048   4 
  -1   4 -13 1859.93 167.230   3 
   1   4  13 2197.14 283.670   4 
   1   4  13 2516.59 337.224   3 
   1   4  14 32713.1 1112.18   4 
  -1   4 -14 37182.2 849.741   3 
  -1  -4  14 34264.7 1220.09   4 
   1   4  14 33408.3 1224.30   3 
   1  -4 -14 33515.4 1221.59   3 
   1  -4 -14 36726.4 1175.89   4 
   1  -4 -14 35597.9 805.177   5 
   1   4  15 2503.59 316.815   4 
   1  -4 -15 1917.78 163.335   5 
  -1   4 -15 2112.55 208.391   3 
  -1  -4  15 2545.79 346.723   4 
   1   4  15 1982.54 326.917   3 
   1  -4  15 2391.50 341.844   4 
   1   4 -15 2148.18 242.087   3 
   1  -4 -15 2795.45 384.592   3 
   1  -4  15 1965.03 172.983   5 
   1  -4 -15 2304.13 309.803   4 
  -1  -4 -15 2873.47 359.783   3 
   1   4 -16 30183.6 952.929   3 
  -1   4 -16 32420.0 861.779   3 
   1  -4  16 30534.6 723.510   5 
  -1  -4  16 31080.8 1237.03   4 
   1  -4 -16 32629.9 1267.09   3 
  -1  -4 -16 31499.2 1207.08   3 
   1  -4  16 30996.8 1230.21   4 
   1   4  16 30300.9 1138.43   4 
   1  -4 -16 31535.5 700.218   5 
   1   4  16 29632.0 1218.78   3 
   1  -4 -17 9466.43 688.019   3 
   1  -4 -17 8960.91 319.620   5 
  -1   4 -17 9540.01 461.041   3 
  -1  -4 -17 11325.8 733.962   3 
   1  -4  17 9216.96 677.106   4 
   1   4  17 9516.49 683.936   3 
  -1  -4  17 10107.0 720.295   4 
   1  -4  17 9265.78 346.736   5 
   1   4 -17 9774.60 537.110   3 
   1   4  17 9737.01 658.762   4 
  -1   4 -18 655.652 147.316   3 
   1  -4  18 514.810 198.351   4 
   1   4  18 292.859 214.490   4 
   1   4 -18 784.178 211.054   3 
   1  -4 -18 552.398 235.328   3 
  -1  -4 -18 726.485 230.116   3 
  -1   4 -19 30519.3 930.531   3 
   1  -4  19 30379.2 1333.73   4 
   1   4 -19 30124.3 1032.87   3 
   1   4  19 29815.5 1251.49   4 
  -1  -4  19 27875.1 1288.02   4 
  -1   4 -20 10737.0 558.281   3 
   1  -4  20 10957.3 815.208   4 
   1   4  20 10704.1 763.892   4 
  -1  -4  20 10053.3 797.624   4 
  -1   4 -21 12120.6 604.061   3 
   1  -4  21 10406.6 823.650   4 
  -1  -4  21 11247.4 851.677   4 
   1   4  21 11522.6 811.960   4 
  -1   4 -22 11513.9 601.881   3 
   1  -4  22 10229.8 837.622   4 
  -1  -4  22 10256.4 846.759   4 
   1   4  22 10466.9 802.555   4 
   1   4  23 8789.62 753.549   4 
   1  -4  23 8142.61 764.833   4 
   1   4 -23 7735.20 571.128   3 
  -1  -4  23 8590.90 804.927   4 
  -1  -4  24 228.934 204.076   4 
   1  -4  24 203.198 220.181   4 
   1   4  24 338.306 187.394   4 
   1   4  25-24.8829 186.002   4 
   1  -4  25 265.891 179.987   4 
  -1  -4  25 99.4864 220.519   4 
   1  -4  26 4348.70 612.519   4 
  -1  -4  26 3180.25 512.199   4 
   1   4  26 2767.12 466.988   4 
   1   4  27 893.494 331.881   4 
   1  -4  27 774.306 307.266   4 
  -1  -4  27-173.610 274.696   4 
   1   4  28 827.138 326.771   4 
   1  -4  28 841.953 409.756   4 
   1   4  29 600.693 309.963   4 
   1  -4  29 380.550 313.939   4 
   1   4  30 2355.43 439.572   4 
  -1  -5   0 117.628 120.516   3 
   1   5   0 1041.35 185.851   3 
   1   5  -1 987274. 11765.6   3 
  -1  -5  -1 993850. 11870.2   3 
  -1  -5   1 990282. 11772.9   3 
   1  -5  -1 988725. 12035.9   2 
   1   5   1 998451. 11979.6   5 
   1   5   1 978969. 11881.0   3 
   1  -5  -1 991983. 11807.6   3 
   1  -5   1 999336. 12032.9   2 
   1  -5   1 999999. 12022.6   1 
   1   5  -1 984140. 11411.1   4 
  -1  -5  -1 974736. 11801.9   2 
   1   5  -1 985907. 11962.4   5 
   1  -5   1 995903. 11633.9   3 
  -1  -5  -2 130827. 2040.15   2 
   1   5   2 135209. 2188.62   5 
   1  -5  -2 125972. 2092.43   3 
   1   5   2 131913. 2054.26   2 
   1   5  -2 134187. 1997.07   3 
   1   5  -2 138189. 2196.81   5 
   1  -5   2 125888. 1828.06   3 
  -1  -5   2 133488. 1998.00   3 
   1  -5   2 122955. 2166.31   1 
   1  -5  -2 124661. 2203.67   2 
   1   5  -2 135170. 1823.17   4 
   1   5   2 130733. 2151.43   3 
   1  -5  -3 12499.3 514.900   3 
  -1  -5   3 12977.7 404.750   4 
   1   5  -3 12632.9 431.857   3 
   1   5   3 13651.1 538.070   5 
   1   5   3 13018.2 488.155   2 
   1  -5   3 11932.2 326.011   3 
   1   5  -3 13115.5 405.780   4 
   1   5   3 13142.3 537.015   3 
  -1  -5   3 13648.8 540.106   5 
   1  -5   3 12049.6 520.891   1 
   1   5  -3 13414.6 533.226   5 
   1   5  -4 32317.2 865.916   5 
   1  -5   4 31530.7 535.547   3 
  -1  -5   4 31849.1 861.195   5 
   1   5   4 31829.3 833.615   2 
   1   5   4 31107.7 562.494   4 
  -1  -5   4 32219.5 747.296   4 
   1   5  -4 31351.5 716.336   3 
   1   5   4 31836.7 864.828   5 
   1  -5   4 31430.3 887.605   1 
  -1  -5   4 31911.7 699.738   1 
   1   5   4 31420.1 910.185   3 
   1   5  -5 85582.0 1409.07   3 
   1   5  -5 85439.9 1618.15   5 
  -1  -5   5 88978.5 1537.75   4 
  -1  -5   5 87179.7 1619.98   5 
  -1  -5   5 87199.6 1384.14   1 
   1   5   5 87185.7 1627.69   5 
  -1  -5  -5 84766.4 1606.92   5 
   1   5   5 87735.0 1301.85   4 
   1   5   5 86497.4 1745.03   3 
   1   5  -6 75.6130 92.6509   5 
   1   5   6 176.930 103.710   4 
   1   5   6 384.889 132.748   5 
  -1  -5   6 297.214 133.466   5 
  -1   5  -6 276.037 123.784   1 
   1   5   6 212.769 148.441   3 
   1   5   7 371807. 4726.72   4 
   1   5  -7 369861. 4708.86   1 
   1  -5  -7 367725. 4882.33   4 
  -1   5  -7 364801. 5147.12   1 
   1   5   7 369317. 5249.67   3 
  -1  -5   7 378158. 5028.35   4 
   1   5   7 372218. 4981.45   5 
   1   5  -7 370001. 4960.44   5 
   1  -5  -8 6889.06 377.555   4 
   1   5   8 7268.94 368.927   4 
   1   5   8 6858.67 459.149   3 
   1   5  -8 7428.04 337.720   1 
   1   5   8 7271.38 387.642   5 
   1  -5  -9 23171.7 749.616   4 
   1   5  -9 20891.0 615.609   1 
  -1  -5   9 22144.4 795.750   4 
   1   5   9 20558.5 663.602   4 
   1   5   9 21041.4 858.797   3 
   1   5  10 3151.16 271.709   4 
  -1  -5  10 3615.25 338.266   4 
   1   5  10 3073.20 341.664   3 
  -1   5 -11 42830.6 705.436   3 
   1  -5 -11 47094.0 1211.18   4 
   1   5  11 45278.5 1376.83   3 
   1   5  11 45485.6 1152.59   4 
  -1  -5  11 45691.1 1294.39   4 
   1  -5 -12 11905.7 596.394   4 
   1   5  12 10064.0 546.028   4 
  -1   5 -12 10957.6 319.006   3 
  -1  -5  12 11147.2 651.794   4 
   1   5  12 10523.8 658.365   3 
  -1   5 -13 105091. 1531.44   3 
   1  -5 -13 110395. 2161.79   4 
   1   5  13 111449. 2429.75   3 
   1   5  13 110853. 2136.18   4 
  -1  -5  13 110910. 2322.66   4 
  -1  -5 -14 19401.8 918.811   3 
   1  -5 -14 17484.6 593.484   5 
   1   5  14 18547.9 923.306   3 
   1   5  14 17355.8 784.267   4 
   1  -5 -14 18643.7 814.620   4 
  -1  -5  14 18702.5 896.364   4 
   1  -5 -14 18803.4 932.499   3 
  -1   5 -14 16660.1 490.943   3 
   1   5  15 17237.3 811.274   4 
   1  -5  15 16589.2 582.453   5 
   1  -5 -15 16087.4 556.987   5 
  -1  -5  15 18835.5 929.478   4 
  -1  -5 -15 19345.9 932.923   3 
   1  -5 -15 17028.6 810.569   4 
   1   5 -15 17379.6 652.485   3 
   1   5  15 17177.5 908.508   3 
  -1   5 -15 17197.6 519.597   3 
   1  -5 -15 17131.7 911.763   3 
  -1   5 -16 23075.6 642.888   3 
   1  -5 -16 23048.1 660.930   5 
   1  -5  16 23778.1 1068.63   4 
   1   5  16 20337.4 926.571   4 
   1   5  16 20675.9 1030.28   3 
  -1  -5  16 22089.3 1044.72   4 
   1  -5 -16 24969.0 1118.61   3 
  -1  -5 -16 20423.1 1007.97   3 
   1   5 -16 20946.9 750.199   3 
   1  -5  16 22437.4 666.799   5 
   1   5 -17 2658.42 271.896   3 
   1  -5  17 2362.65 371.139   4 
  -1  -5  17 3344.08 429.713   4 
   1  -5  17 2465.35 207.958   5 
   1  -5 -17 2497.97 202.100   5 
  -1  -5 -17 3741.64 447.243   3 
  -1   5 -17 2354.92 201.833   3 
   1   5  17 2528.36 367.059   3 
   1   5  17 2780.43 366.189   4 
   1  -5  18 531.496 256.493   4 
  -1  -5  18 330.619 197.989   4 
   1   5 -18 219.352 109.118   3 
   1  -5  18 225.205 82.4977   5 
   1   5  18 65.4183 140.584   4 
   1   5  18 39.1418 178.987   3 
  -1   5 -18 363.924 104.167   3 
  -1   5 -19 5079.65 336.834   3 
   1   5  19 4723.96 501.564   4 
   1   5 -19 4458.89 373.156   3 
   1  -5  19 4885.93 532.363   4 
  -1  -5  19 4886.03 557.404   4 
   1  -5  20 3751.57 523.592   4 
  -1  -5  20 4656.79 552.939   4 
   1   5 -20 4674.06 395.515   3 
  -1   5 -20 3950.40 316.285   3 
   1   5  20 5248.46 532.095   4 
  -1  -5  21 264.135 201.494   4 
   1   5  21 481.083 226.708   4 
  -1   5 -21 197.834 93.9005   3 
   1  -5  21-98.3502 231.541   4 
  -1  -5  22 1353.44 364.440   4 
  -1   5 -22 1407.14 201.579   3 
   1   5  22 1070.39 278.887   4 
   1  -5  22 1575.83 347.105   4 
   1   5  23 3826.90 509.264   4 
   1  -5  23 3482.74 515.401   4 
  -1  -5  23 4150.16 579.195   4 
  -1  -5  24 65.4446 198.340   4 
   1   5  24-125.869 220.587   4 
   1  -5  24-51.4011 183.902   4 
   1  -5  25 3760.95 571.776   4 
  -1  -5  25 3117.38 537.746   4 
   1   5  25 3059.79 466.115   4 
   1  -5  26 2695.69 516.486   4 
   1   5  26 2818.69 485.129   4 
  -1  -5  26 2957.54 566.542   4 
   1   5  27 1235.23 330.315   4 
  -1  -5  27 1100.02 362.783   4 
   1  -5  27 1402.22 353.689   4 
   1  -5  28 5317.08 715.309   4 
   1   5  28 5905.49 707.553   4 
   1  -5  29 4776.15 725.349   4 
   1   6   0 313.815 149.108   5 
   1   6   0 370.774 135.135   3 
  -1  -6   0-23.0046 69.9183   3 
  -1  -6   0 106.911 86.9330   2 
   1  -6   0 17.3294 108.740   3 
   1  -6   0 22.4028 98.1047   2 
   1  -6  -1 128497. 2044.95   3 
   1   6   1 122584. 2171.62   5 
   1  -6   1 123394. 2231.35   2 
  -1  -6   1 124894. 2007.46   3 
   1  -6   1 127281. 1906.57   3 
   1   6  -1 119975. 1989.41   3 
  -1  -6  -1 121929. 2067.60   3 
   1  -6   1 127144. 2226.90   1 
   1   6  -1 118821. 2153.97   5 
   1   6   1 119858. 2075.43   3 
  -1  -6  -1 120394. 2058.46   2 
   1  -6  -1 123190. 2222.96   2 
   1  -6  -2 19752.8 742.298   2 
   1  -6  -2 20330.0 677.123   3 
  -1  -6  -2 21332.2 704.370   3 
  -1  -6  -2 19812.1 650.318   2 
   1   6  -2 20622.4 613.047   3 
   1   6  -2 20082.4 717.323   5 
   1  -6   2 18913.5 711.712   1 
   1   6   2 20528.7 700.769   3 
   1  -6   2 19563.1 523.318   3 
  -1  -6   2 19747.4 603.636   3 
   1   6   2 21278.8 736.705   5 
  -1  -6   3 53165.0 1239.73   5 
   1  -6  -3 52048.3 1218.25   3 
  -1  -6   3 53166.5 972.517   4 
   1  -6   3 53022.6 1275.97   1 
   1   6   3 53810.5 1258.31   5 
   1  -6   3 51582.5 909.140   3 
   1   6  -3 51871.5 1051.88   3 
   1   6   3 50628.6 1171.91   2 
   1   6  -3 50690.6 1226.83   5 
   1   6   3 51852.8 1241.70   3 
   1   6   4 17427.5 350.023   4 
  -1  -6   4 18235.1 539.855   4 
   1   6   4 18571.2 683.350   5 
   1  -6   4 15988.0 651.732   1 
   1   6   4 18007.2 641.654   2 
   1   6   4 17031.4 685.872   3 
  -1  -6   4 16776.8 649.648   5 
   1  -6   4 16076.0 386.265   3 
   1   6  -4 17565.4 530.247   3 
  -1  -6   4 17339.8 540.354   1 
   1  -6  -4 16865.5 661.342   3 
   1   6  -4 16522.4 645.261   5 
  -1  -6   5 73475.9 1371.88   4 
   1   6  -5 73709.9 1288.50   3 
   1   6  -5 70558.0 1516.96   5 
   1   6   5 72104.2 1512.83   2 
  -1  -6   5 72693.9 1521.95   5 
   1   6   5 74483.1 1107.78   4 
  -1  -6  -5 71248.6 1512.62   5 
   1   6   5 72972.6 1620.07   3 
   1   6   5 75358.2 1556.29   5 
  -1  -6   5 75155.4 1326.43   1 
  -1   6  -5 69687.0 1582.75   1 
  -1  -6  -6 1256.56 203.308   5 
  -1  -6   6 1700.13 196.044   4 
   1   6   6 1453.12 134.578   4 
   1   6  -6 1470.75 145.152   3 
   1   6   6 1278.92 206.578   3 
   1   6   6 1337.26 192.193   5 
  -1   6  -6 994.078 187.568   1 
  -1  -6   6 1599.45 219.255   5 
   1   6  -7 6364.09 295.062   3 
   1  -6  -7 6153.59 336.915   4 
  -1  -6  -7 6087.61 380.410   5 
  -1   6  -7 6147.37 431.006   1 
  -1  -6   7 4979.15 352.310   5 
   1   6   7 5626.75 424.968   3 
  -1  -6   7 6183.53 383.123   4 
   1   6   7 6326.63 292.569   4 
   1   6   8 17432.1 778.023   3 
   1   6   8 15819.1 521.770   4 
   1  -6  -8 16060.1 582.799   4 
  -1  -6   8 16726.7 664.947   4 
  -1   6  -8 16371.7 721.431   1 
  -1  -6   8 15520.6 622.366   5 
   1   6  -8 16170.4 545.969   1 
   1   6   9 14864.2 749.399   3 
   1   6  -9 15302.8 548.507   1 
   1  -6  -9 16435.3 615.851   4 
  -1   6  -9 15650.9 713.340   1 
  -1  -6   9 15655.8 672.886   4 
   1   6   9 14853.3 547.651   4 
  -1  -6  10 79610.7 1757.05   4 
   1   6  10 78146.9 1527.55   4 
  -1   6 -10 71587.7 1733.59   1 
   1   6 -10 79750.7 1495.57   1 
   1   6  10 77744.0 1901.36   3 
   1  -6 -10 72985.1 1566.22   4 
   1   6  11 207.633 185.423   3 
   1   6  11 374.961 143.029   4 
   1   6 -11 137.726 86.4414   1 
   1  -6 -11 378.165 146.101   4 
   1  -6 -12 49900.9 1324.35   4 
   1   6 -12 52194.7 1216.09   1 
   1   6  12 53061.4 1315.00   4 
  -1  -6  12 54642.3 1498.95   4 
   1   6  12 55647.3 1632.48   3 
   1  -6 -13 26157.9 938.089   4 
   1   6  13 24627.9 1086.57   3 
  -1  -6 -13 25513.0 1082.65   3 
   1   6  13 24865.1 894.214   4 
  -1  -6  13 24732.7 1014.27   4 
  -1  -6 -14 2219.38 352.192   3 
   1   6  14 1944.34 267.031   4 
   1  -6 -14 1836.90 322.104   3 
   1  -6 -14 1812.20 266.186   4 
  -1   6 -14 1663.06 109.636   3 
   1  -6 -14 1395.45 183.392   5 
   1   6  14 2299.00 348.129   3 
  -1  -6  14 2641.89 353.864   4 
   1  -6  15 15729.6 608.795   5 
  -1  -6  15 15105.8 835.350   4 
   1  -6 -15 16187.8 774.879   4 
   1  -6 -15 16030.5 901.293   3 
  -1  -6 -15 15881.1 876.862   3 
  -1   6 -15 14828.2 400.506   3 
   1   6  15 15451.8 888.337   3 
   1   6  15 14759.5 741.190   4 
   1  -6 -15 15848.7 599.946   5 
  -1  -6  16 6505.44 565.793   4 
   1   6 -16 6789.97 395.853   3 
   1  -6 -16 6344.43 369.412   5 
  -1   6 -16 5990.69 264.353   3 
  -1  -6 -16 7210.87 606.359   3 
   1  -6  16 5774.80 537.054   4 
   1   6  16 6415.49 500.890   4 
   1  -6  16 6046.51 373.442   5 
   1   6  16 6378.06 579.563   3 
   1   6 -17 2057.38 234.575   3 
   1  -6  17 2741.35 407.294   4 
  -1  -6  17 1865.40 362.914   4 
   1   6  17 1913.03 352.951   3 
   1  -6  17 2071.34 226.292   5 
   1   6  17 2048.35 321.276   4 
   1  -6 -17 2137.61 219.644   5 
  -1   6 -17 1896.72 161.701   3 
  -1   6 -18 13288.6 463.814   3 
  -1  -6  18 15844.7 952.319   4 
   1   6 -18 15632.8 643.482   3 
   1   6  18 15167.3 939.320   3 
   1  -6  18 12535.0 851.126   4 
   1  -6 -18 13503.9 523.348   5 
   1  -6  18 13175.2 533.918   5 
   1   6  18 15285.0 841.695   4 
   1   6 -19 817.646 183.126   3 
   1   6  19 773.606 214.057   4 
  -1   6 -19 1148.77 151.023   3 
   1  -6  19 1118.40 159.605   5 
   1  -6  19 318.006 221.476   4 
  -1  -6  19 809.772 283.447   4 
   1   6  20 2234.11 365.590   4 
  -1   6 -20 1926.48 191.966   3 
   1   6 -20 2766.12 296.252   3 
   1  -6  20 1877.11 359.843   4 
  -1  -6  20 2249.75 385.678   4 
   1  -6  21 752.850 275.035   4 
   1   6 -21 347.709 124.185   3 
  -1   6 -21 532.401 116.909   3 
  -1  -6  21 562.552 290.977   4 
   1   6  21 209.440 193.093   4 
  -1  -6  22 6352.13 665.778   4 
   1  -6  22 5816.24 646.547   4 
   1   6  22 6495.40 627.840   4 
   1   6  23 786.130 318.114   4 
  -1  -6  23 228.556 247.089   4 
   1  -6  23 525.803 336.574   4 
   1   6  24 2952.16 456.488   4 
   1  -6  24 1921.14 422.321   4 
  -1  -6  25 2172.34 467.232   4 
   1   6  25 2306.34 439.636   4 
   1  -6  25 1413.65 362.597   4 
   1  -6  26 1727.91 411.820   4 
   1   6  26 1178.64 309.476   4 
  -1  -6  26 1861.69 385.598   4 
   1  -6  27 330.828 236.291   4 
  -1  -6  27 584.642 255.226   4 
   1  -6  28-371.827 308.088   4 
   1  -6  29 236.137 328.687   4 
   1   7   0 91.9591 75.9382   5 
   1  -7   0-21.4323 67.9519   3 
  -1  -7   0-63.6609 70.9029   2 
   1  -7   0 155.111 111.912   2 
   1   7   0-2.03346 78.0340   3 
  -1  -7   0 76.8504 67.0729   3 
   1  -7   1 644.938 157.929   2 
  -1  -7  -1 1161.11 178.273   2 
   1   7  -1 1000.32 154.549   3 
   1  -7   1 665.942 113.737   3 
   1  -7  -1 484.734 147.527   2 
  -1  -7  -1 1092.56 156.886   3 
   1   7   1 1219.78 195.308   5 
   1   7   1 534.768 127.344   3 
   1  -7  -1 663.813 127.904   3 
   1  -7   1 336.445 107.178   1 
  -1  -7   1 1291.21 159.285   3 
   1  -7  -2 8679.23 515.281   2 
   1   7   2 8485.07 467.378   3 
  -1  -7   2 8052.16 399.948   3 
  -1  -7  -2 8383.02 444.334   2 
  -1  -7  -2 8070.81 447.490   3 
   1   7  -2 8404.39 400.366   3 
   1  -7   2 8686.62 500.174   1 
   1  -7  -2 8985.79 456.631   3 
   1  -7   2 8775.97 359.642   3 
  -1  -7   2 8055.16 292.965   4 
   1   7   3 114407. 2158.22   3 
  -1  -7   3 113695. 2165.59   5 
  -1  -7   3 113975. 1747.27   4 
   1  -7   3 121699. 2248.96   1 
  -1  -7   3 113988. 1905.60   3 
   1  -7   3 121083. 1755.65   3 
   1   7  -3 112432. 1900.00   3 
  -1  -7  -3 118364. 2157.19   3 
   1   7   3 113116. 2088.82   2 
   1  -7  -3 121990. 2156.77   3 
  -1  -7  -4 22177.5 801.671   3 
   1   7  -4 21146.0 622.912   3 
  -1  -7   4 21166.0 665.225   1 
   1  -7   4 18211.4 745.617   1 
  -1  -7   4 21659.0 790.820   5 
  -1  -7   4 22276.9 613.776   4 
   1   7   4 22083.0 773.059   2 
   1  -7  -4 18602.6 739.773   3 
   1  -7   4 18465.4 471.115   3 
   1   7   4 20249.8 793.112   3 
  -1  -7   5 44381.6 1199.97   5 
   1   7   5 42997.4 1239.53   3 
   1  -7  -5 50119.0 1301.00   3 
   1  -7   5 47139.4 763.697   3 
   1   7  -5 44951.2 960.395   3 
  -1  -7  -5 43136.4 1187.58   5 
  -1  -7   5 45682.9 1020.50   4 
   1  -7   5 48058.9 1254.25   1 
   1   7   5 43671.6 1171.55   2 
  -1  -7   5 44713.1 1036.58   1 
  -1   7  -5 48315.4 1296.89   1 
   1   7   6 28138.4 928.052   2 
   1   7   6 28428.7 590.744   4 
  -1   7  -6 25219.1 929.457   1 
  -1  -7   6 28032.6 919.698   5 
   1   7  -6 27755.3 700.503   3 
  -1  -7  -6 27681.5 914.935   5 
  -1  -7   6 28996.2 814.110   4 
   1   7   6 28285.5 994.879   3 
  -1  -7   6 28128.3 771.086   1 
  -1  -7  -7 4658.77 363.409   5 
   1   7  -7 4771.46 264.323   3 
  -1   7  -7 4949.68 407.852   1 
   1   7   7 5128.77 423.169   3 
  -1  -7   7 4469.84 359.129   5 
  -1  -7   7 5445.89 356.891   4 
   1   7   7 5268.04 255.397   4 
   1   7   8 4187.78 254.449   4 
  -1   7  -8 4474.74 389.801   1 
   1   7   8 3807.44 379.081   3 
  -1  -7   8 4132.75 332.949   4 
   1   7  -8 3947.40 235.117   3 
  -1  -7   8 4034.02 334.915   5 
   1  -7  -8 4557.26 301.805   4 
  -1  -7  -8 4159.10 344.673   5 
  -1  -7   9 34680.3 1050.86   4 
   1  -7  -9 34646.7 937.278   4 
   1   7  -9 34068.3 778.687   3 
  -1  -7   9 33608.2 1014.12   5 
   1   7  -9 33888.4 902.873   1 
   1   7   9 34738.9 858.018   4 
  -1   7  -9 33146.8 1124.20   1 
   1   7   9 33616.4 1196.04   3 
   1  -7 -10 24213.8 802.374   4 
  -1  -7  10 25295.1 914.844   4 
   1   7  10 24044.0 748.468   4 
   1   7 -10 23126.2 750.496   1 
   1   7  10 23407.7 1006.78   3 
  -1   7 -10 23021.3 947.477   1 
   1   7  11 24302.8 796.257   4 
   1   7  11 25303.7 1071.51   3 
  -1  -7  11 25626.6 960.760   4 
   1  -7 -11 24660.8 845.170   4 
   1   7 -11 25850.0 808.073   1 
  -1  -7  12 13263.8 717.294   4 
   1   7  12 13251.8 794.279   3 
   1   7  12 13826.4 620.044   4 
   1  -7 -12 14254.9 647.111   4 
   1   7 -12 13675.5 597.098   1 
  -1  -7 -13 93.0001 131.175   3 
   1  -7 -13-30.6507 116.593   5 
  -1  -7  13-9.45851 128.839   4 
   1  -7 -13 399.894 172.280   3 
   1   7  13 219.023 127.576   4 
   1   7 -13 257.901 98.9681   1 
   1   7  13 267.546 199.860   3 
   1  -7 -13 30.7622 90.7862   4 
   1   7 -14 2173.89 251.449   1 
   1  -7 -14 2021.81 332.158   3 
   1  -7 -14 1960.73 228.494   5 
   1   7  14 1721.20 323.152   3 
  -1  -7 -14 2285.42 351.061   3 
   1  -7  14 1961.01 231.311   5 
   1  -7 -14 2123.36 268.981   4 
   1   7  14 1900.75 259.964   4 
  -1  -7  14 2109.87 307.612   4 
  -1  -7  15 6686.51 565.047   4 
   1   7  15 7405.84 636.719   3 
   1  -7 -15 6720.29 421.407   5 
   1   7 -15 6736.98 448.617   1 
   1   7  15 7116.24 506.104   4 
   1  -7  15 7069.78 444.435   5 
   1  -7 -15 7374.39 518.579   4 
   1   7 -16 24010.2 724.611   3 
  -1  -7  16 23174.0 1096.86   4 
   1   7 -16 23310.1 883.561   1 
   1  -7  16 21363.8 786.652   5 
   1   7  16 22653.9 1155.21   3 
   1   7  16 23956.2 981.793   4 
   1  -7  16 21888.7 1077.04   4 
   1  -7 -16 22160.3 784.945   5 
   1  -7 -17 57204.8 1337.31   5 
   1  -7  17 56654.1 1358.09   5 
   1   7  17 58276.3 1949.91   3 
   1   7  17 59272.6 1670.24   4 
   1  -7  17 59666.1 1856.05   4 
  -1  -7  17 61293.8 1885.23   4 
   1   7 -17 59751.6 1294.16   3 
   1   7 -18 45295.8 1101.57   3 
   1  -7  18 44703.1 1149.22   5 
   1   7  18 43018.9 1682.59   3 
   1  -7 -18 45036.7 1119.23   5 
   1  -7  18 42370.8 1601.30   4 
   1   7  18 44479.4 1461.55   4 
  -1  -7  18 47742.5 1677.70   4 
   1  -7 -19 5923.40 369.226   5 
  -1  -7  19 5196.26 565.709   4 
  -1   7 -19 4801.19 223.801   3 
   1   7  19 5725.09 539.602   4 
   1   7 -19 6680.81 406.227   3 
   1  -7  19 5555.08 372.058   5 
   1  -7  19 5958.00 615.157   4 
   1  -7  20 4495.56 321.952   5 
   1   7 -20 5613.07 377.698   3 
   1  -7  20 4185.74 528.211   4 
  -1   7 -20 4647.89 234.871   3 
  -1  -7  20 4850.78 569.358   4 
   1   7  20 4404.41 489.244   4 
   1  -7  21 5224.76 601.682   4 
  -1  -7  21 6387.84 655.252   4 
   1   7 -21 5676.79 389.890   3 
   1   7  21 6169.76 582.046   4 
   1  -7  22 1364.87 397.285   4 
  -1  -7  22 1178.50 378.320   4 
   1   7  22 1276.22 363.934   4 
  -1  -7  23 38216.9 1730.35   4 
   1  -7  23 40156.0 1761.94   4 
   1   7  23 39021.0 1599.36   4 
   1   7  24 3502.18 498.186   4 
   1  -7  24 3222.57 536.182   4 
  -1  -7  24 2919.11 529.528   4 
  -1  -7  25 965.700 365.021   4 
   1  -7  25 1423.55 373.664   4 
  -1  -7  26 175.163 259.362   4 
   1  -7  26 238.976 237.413   4 
  -1  -7  27 802.596 294.510   4 
   1  -7  27 661.570 294.581   4 
  -1  -7  28-186.772 262.811   4 
   1  -7  28-151.315 216.260   4 
   1  -8   0 22.8371 70.2392   3 
   1   8   0-33.6578 88.6022   3 
  -1  -8   0 39.1874 74.0964   2 
  -1  -8   0-82.3943 82.1421   3 
   1  -8   0-20.2330 77.9451   2 
  -1  -8  -1 24614.9 831.318   3 
   1   8  -1 23947.5 781.276   3 
  -1  -8   1 25073.8 793.608   3 
   1  -8   1 27414.8 966.847   1 
   1  -8   1 26349.1 971.871   2 
   1   8   1 24405.1 834.006   3 
   1  -8  -1 26513.5 968.366   2 
  -1  -8  -1 25163.3 866.304   2 
   1  -8  -1 27369.2 831.274   3 
   1  -8   1 26172.1 747.459   3 
   1   8  -2 740.517 146.690   3 
   1  -8  -2 328.814 114.458   3 
  -1  -8   2 564.504 134.220   3 
  -1  -8  -2 429.158 110.566   2 
   1  -8  -2 375.303 129.031   2 
  -1  -8  -2 211.995 119.422   3 
   1   8   2 520.219 130.189   3 
  -1  -8   2 597.964 87.6450   4 
   1  -8   2 356.865 136.475   1 
   1  -8   2 506.907 104.452   3 
  -1  -8   3 6024.78 436.714   5 
   1  -8   3 5777.35 436.097   1 
   1  -8  -3 5601.81 397.275   3 
   1   8   3 5239.86 387.229   2 
  -1  -8   3 5974.65 278.314   4 
   1   8  -3 5453.71 330.501   3 
   1  -8   3 5976.14 294.276   3 
   1   8   3 5489.72 408.439   3 
  -1  -8   3 5888.33 345.106   3 
  -1  -8  -3 6303.24 429.008   3 
  -1  -8  -3 5831.65 405.404   2 
  -1  -8   4 8618.79 377.822   4 
   1   8   4 8458.38 524.124   3 
   1  -8   4 8448.61 527.380   1 
  -1  -8   4 9030.83 533.286   5 
  -1  -8  -4 8526.88 516.703   3 
   1   8  -4 8939.96 413.062   3 
   1  -8   4 7989.53 321.947   3 
  -1  -8   4 8899.66 455.219   1 
   1   8   4 8542.46 502.200   2 
   1  -8  -4 7790.84 484.550   3 
   1   8  -5 5445.42 314.140   3 
  -1  -8   5 4643.91 388.364   5 
   1  -8   5 4775.55 216.036   3 
  -1  -8   5 5366.70 318.569   4 
   1   8   5 4896.74 417.909   3 
   1   8   5 5244.07 404.149   2 
  -1  -8  -5 4755.34 395.862   5 
   1  -8   5 4984.26 403.771   1 
  -1  -8   5 5198.96 344.083   1 
  -1  -8  -5 5327.91 416.894   3 
   1  -8  -5 5268.27 412.249   3 
  -1  -8   6 33258.3 917.157   1 
   1  -8  -6 33290.3 1111.96   3 
  -1  -8   6 35814.5 925.496   4 
   1   8  -6 33619.2 815.955   3 
   1  -8   6 31411.9 581.608   3 
  -1  -8  -6 35006.1 1089.46   5 
   1   8   6 33979.2 1078.98   2 
   1   8   6 33614.0 1143.42   3 
  -1   8  -6 33163.6 1115.39   1 
  -1  -8   6 33993.7 1073.96   5 
  -1  -8  -7 17917.7 764.229   5 
   1  -8  -7 16786.7 797.883   3 
   1   8  -7 18851.9 569.230   3 
   1   8   7 18211.0 847.880   3 
  -1   8  -7 16455.7 778.452   1 
  -1  -8   7 19215.7 663.048   1 
  -1   8   7 17124.8 852.669   2 
   1   8   7 20225.6 827.908   2 
  -1  -8   7 19051.2 692.904   4 
  -1  -8   7 19560.6 795.436   5 
   1   8   8 32377.8 1176.68   3 
  -1   8  -8 35787.7 1177.46   1 
  -1  -8   8 32835.8 987.514   4 
   1  -8  -8 35741.7 904.617   4 
   1   8  -8 31918.7 771.248   3 
  -1  -8  -8 31080.6 1042.07   5 
  -1  -8   8 32161.4 1057.85   5 
   1   8   8 31847.6 1100.90   2 
   1   8  -9 43.6548 58.2134   3 
  -1  -8  -9 274.678 149.702   5 
  -1  -8   9 255.063 153.351   5 
   1  -8  -9 149.090 104.247   4 
   1   8   9 51.6752 101.826   3 
  -1  -8   9 396.417 152.846   4 
   1   8  10 42021.8 1005.93   4 
   1  -8 -10 43960.3 1112.86   4 
   1   8 -10 41371.1 886.969   3 
  -1  -8  10 42867.6 1240.03   4 
   1   8  10 43417.4 1438.87   3 
  -1  -8  10 41376.5 1211.11   5 
   1   8  11 9283.56 462.017   4 
   1   8  11 10304.0 706.411   3 
   1   8 -11 8901.75 370.711   3 
   1  -8 -11 10139.4 519.035   4 
   1   8 -11 9139.50 485.782   1 
  -1  -8  11 9500.79 586.500   4 
   1   8  12 25721.9 1148.76   3 
   1   8 -12 26189.1 873.092   1 
  -1  -8 -12 26951.4 1147.99   3 
  -1  -8  12 24106.1 981.580   4 
   1  -8 -12 27122.2 907.406   4 
   1   8 -12 24947.6 652.833   3 
   1   8  12 24227.2 821.907   4 
   1  -8 -13 183.229 104.603   4 
   1  -8 -13 16.8090 146.398   3 
  -1  -8  13 167.263 136.683   4 
   1   8 -13 376.471 123.730   1 
   1   8  13 235.554 181.282   3 
   1   8  13 450.479 144.714   4 
   1  -8 -13 112.102 108.990   5 
  -1  -8 -13 72.4813 163.094   3 
   1   8  14 3254.60 442.451   3 
   1  -8  14 3541.13 338.470   5 
  -1  -8  14 3654.81 412.148   4 
   1   8 -14 3420.90 324.411   1 
   1  -8 -14 3822.34 334.611   5 
   1  -8 -14 4628.64 390.239   4 
   1   8  14 3625.76 340.916   4 
   1  -8  15 422.655 145.912   5 
   1   8 -15 222.648 124.798   1 
   1   8  15 242.788 143.625   4 
   1   8  15 118.282 184.830   3 
  -1  -8  15 796.038 235.313   4 
   1  -8 -15 429.974 146.579   4 
  -1   8 -15 323.308 154.557   1 
   1  -8 -15 381.239 138.578   5 
   1   8  16 13951.7 729.215   4 
   1   8  16 13432.6 913.971   3 
   1   8 -16 13766.6 685.829   1 
   1   8 -16 13268.0 497.269   3 
  -1  -8  16 13662.8 842.144   4 
   1  -8 -16 16306.1 707.844   5 
   1  -8  16 14803.0 870.941   4 
   1  -8  16 16298.2 715.039   5 
  -1   8 -16 15790.7 868.278   1 
   1  -8  17 927.411 198.836   5 
   1  -8  17 396.569 199.740   4 
   1   8 -17 763.397 134.121   3 
  -1   8 -17 488.738 217.001   1 
   1  -8 -17 987.241 195.759   5 
   1   8  17 28.2886 226.973   3 
  -1  -8  17 837.401 275.074   4 
   1   8  17 643.889 197.194   4 
   1   8 -17 458.351 147.479   1 
  -1  -8  18 20745.1 1104.81   4 
   1  -8  18 21518.6 822.140   5 
  -1   8 -18 21218.6 1055.59   1 
   1   8  18 19880.4 951.426   4 
   1   8  18 18647.7 1118.54   3 
   1   8 -18 20846.3 668.355   3 
   1  -8 -18 20810.0 792.487   5 
   1  -8  18 22196.7 1143.18   4 
   1   8 -19 16023.1 588.086   3 
   1   8  19 14246.3 832.780   4 
   1  -8  19 14349.7 941.688   4 
   1  -8  19 14628.4 664.988   5 
   1  -8 -19 14436.1 643.625   5 
  -1  -8  19 16000.6 996.085   4 
  -1  -8  20 5984.76 619.700   4 
   1  -8  20 6018.61 412.656   5 
   1  -8  20 5405.99 602.039   4 
   1   8  20 5235.02 515.944   4 
   1   8 -20 5467.98 343.828   3 
  -1  -8  21 470.105 255.502   4 
   1  -8  21 225.682 215.395   4 
   1   8 -22 9112.74 642.034   1 
  -1  -8  22 9327.46 832.206   4 
   1  -8  22 9963.41 853.719   4 
   1   8 -23 11396.8 743.714   1 
  -1  -8  23 12613.5 987.369   4 
   1  -8  23 10611.4 919.760   4 
   1   8 -24 4806.31 508.480   1 
   1  -8  24 5147.65 645.198   4 
  -1  -8  24 4261.19 621.507   4 
   1  -8  25 301.801 253.458   4 
   1   8 -25 283.392 157.402   1 
  -1  -8  25 174.759 242.007   4 
  -1  -8  26 592.734 258.925   4 
   1  -8  26 507.690 275.319   4 
  -1  -8  27-446.500 342.343   4 
   1  -8  27-139.219 274.236   4 
  -1  -8  28 222.865 272.003   4 
   1  -8  28 241.979 297.743   4 
   1  -9   0-32.6463 70.5417   3 
  -1  -9   0 117.659 112.217   3 
  -1  -9   0 170.493 142.538   2 
   1  -9   0 178.322 152.072   2 
   1   9   0 246.025 113.619   3 
  -1  -9  -1 47786.8 1251.05   3 
  -1  -9  -1 45047.7 1276.82   2 
   1   9   1 43583.6 1225.19   3 
  -1  -9   1 44173.7 1279.94   2 
   1   9  -1 46133.1 1183.47   3 
   1  -9   1 46853.3 1113.28   3 
   1  -9  -1 46113.8 1183.78   3 
   1  -9   1 46657.6 1410.46   2 
   1  -9  -1 44644.5 1376.48   2 
   1  -9   1 46559.7 1371.14   1 
  -1  -9   1 47264.7 1188.78   3 
   1  -9  -2 12411.4 597.195   3 
   1  -9  -2 11834.7 679.184   2 
   1   9  -2 14626.0 603.262   3 
  -1  -9   2 14697.9 416.775   4 
  -1  -9  -2 13646.3 660.743   2 
  -1  -9   2 14296.9 593.716   3 
  -1  -9  -2 13749.6 655.367   3 
   1  -9   2 13060.1 708.519   2 
   1  -9   2 12493.5 504.237   3 
   1   9   2 13850.0 661.591   3 
   1  -9   2 12954.2 687.165   1 
   1   9   3 4664.11 400.656   3 
  -1  -9  -3 4915.04 397.445   2 
  -1  -9   3 4920.63 422.834   5 
   1   9  -3 5076.49 335.560   3 
  -1  -9   3 4748.15 258.058   4 
  -1  -9  -3 5085.14 406.426   3 
   1  -9   3 4778.80 286.402   3 
   1  -9   3 4745.88 417.505   1 
  -1  -9   3 4846.05 329.992   3 
   1  -9  -3 4858.39 382.131   3 
   1   9   4 33907.3 1142.35   3 
  -1  -9   4 35468.7 841.345   4 
   1  -9   4 37064.2 1198.60   1 
  -1  -9   4 33723.0 1141.81   5 
  -1  -9   4 33806.3 1010.32   1 
   1  -9   4 37100.9 817.868   3 
   1   9  -4 34797.1 925.924   3 
   1   9   4 34320.8 1113.70   2 
  -1  -9  -4 36422.2 1152.18   3 
   1  -9  -4 39133.4 1166.89   3 
  -1  -9   4 35768.4 938.042   3 
  -1   9   5 264.614 173.442   2 
  -1  -9   5 761.472 134.045   4 
   1   9   5 523.823 179.625   3 
   1  -9  -5 571.828 169.742   3 
   1   9  -5 635.246 123.078   3 
  -1  -9   5 450.045 159.694   5 
   1   9   5 430.009 158.524   2 
  -1  -9   5 382.976 129.494   1 
   1  -9   5 589.174 96.9294   3 
  -1  -9  -5 501.365 165.574   3 
   1  -9   5 549.466 176.411   1 
  -1  -9   6 10651.0 530.665   1 
   1  -9   6 11488.7 638.403   1 
   1  -9  -6 10465.1 623.986   3 
   1   9   6 10513.8 615.159   2 
  -1  -9   6 10380.7 617.199   5 
  -1  -9  -6 12131.4 676.382   3 
   1   9  -6 10767.9 451.658   3 
  -1  -9   6 10295.9 481.560   4 
   1  -9   6 10029.3 321.978   3 
  -1   9   6 9843.39 653.504   2 
   1   9   6 10991.0 661.864   3 
   1   9  -7 18819.9 589.926   3 
  -1  -9   7 18900.4 836.037   5 
   1  -9  -7 18984.8 872.448   3 
   1   9   7 18172.8 884.417   3 
  -1  -9  -7 19979.2 891.487   3 
  -1  -9   7 18133.5 693.018   1 
  -1  -9   7 18329.0 689.328   4 
   1   9   7 17671.6 823.664   2 
   1  -9   7 16855.3 363.320   3 
  -1   9   7 18525.3 907.253   2 
   1  -9  -8 20067.7 647.892   4 
   1   9   8 15627.5 786.627   2 
  -1  -9   8 17331.8 802.227   5 
   1   9   8 16003.1 840.860   3 
   1   9  -8 16766.4 544.598   3 
  -1  -9   8 16299.7 684.948   4 
   1  -9  -8 20402.2 927.814   3 
  -1   9   8 19187.0 947.295   2 
   1  -9  -9 464.621 169.044   3 
  -1  -9   9 956.614 212.854   5 
   1  -9  -9 473.455 124.376   4 
   1   9   9 136.013 160.524   2 
  -1  -9   9 652.301 174.360   4 
  -1   9   9 157.822 199.866   2 
   1   9  -9 323.799 65.8108   3 
   1   9   9 605.889 201.478   3 
  -1  -9  10 190.118 130.681   4 
   1   9  10-160.353 169.314   3 
   1  -9 -10 361.459 242.605   3 
   1   9 -10 195.449 63.3686   3 
   1  -9 -10 134.818 93.5015   4 
  -1  -9  10 277.038 161.463   5 
  -1  -9  11 1791.51 276.365   5 
  -1  -9 -11 2110.85 327.461   3 
   1  -9 -11 2192.60 244.499   4 
  -1  -9  11 1847.56 271.095   4 
   1   9  11 2044.95 341.149   3 
   1   9 -11 2149.70 174.309   3 
   1  -9 -11 2196.14 350.609   3 
   1   9  12 89.3884 180.925   3 
  -1  -9  12 14.1886 116.462   4 
   1  -9 -12 66.8219 101.699   4 
   1   9 -12 75.5989 61.7345   3 
  -1  -9 -12 297.381 175.135   3 
   1  -9 -12-121.287 121.980   3 
   1   9 -13 2505.76 280.976   1 
   1  -9 -13 3336.12 323.503   4 
   1   9  13 2293.24 370.332   3 
   1  -9  13 2511.53 319.521   5 
  -1  -9  13 2825.14 361.642   4 
   1   9 -13 2635.62 195.310   3 
   1   9 -14 61750.3 1148.69   3 
   1  -9  14 61947.6 1624.39   5 
   1   9 -14 64293.3 1580.28   1 
  -1  -9  14 62537.1 1788.21   4 
   1   9  14 64207.0 2033.72   3 
  -1   9 -14 63715.2 1843.29   1 
   1  -9 -14 63300.9 1586.58   4 
   1  -9  15 312.986 151.848   5 
  -1  -9  15 455.492 230.249   4 
  -1   9 -15 375.034 204.213   1 
   1   9  15 243.004 220.867   3 
   1   9 -15 202.271 72.1838   3 
   1  -9  15 434.728 236.007   4 
   1   9 -15 48.3973 126.822   1 
   1  -9 -15 623.404 187.534   4 
  -1  -9  16 15329.0 894.212   4 
   1   9 -16 14728.0 485.699   3 
   1   9 -16 14334.1 479.214   3 
   1   9  16 15034.0 988.270   3 
   1   9 -16 14658.4 729.585   1 
  -1   9 -16 16915.3 932.502   1 
   1  -9  16 16176.6 761.066   5 
   1  -9  16 17087.6 946.562   4 
   1   9  17 993.816 293.227   3 
  -1   9 -17 1592.08 280.295   1 
   1   9 -17 1234.22 138.910   3 
   1  -9  17 1137.36 267.857   4 
  -1  -9  17 1383.17 321.682   4 
   1  -9  17 1158.03 216.402   5 
   1  -9  18 3711.09 368.254   5 
   1   9  18 3937.94 534.968   3 
   1  -9  18 3231.26 447.619   4 
   1   9 -18 4258.72 259.896   3 
  -1   9 -18 3410.34 434.027   1 
  -1  -9  18 4106.41 505.156   4 
   1  -9  19 337.951 126.806   5 
   1   9 -19 332.897 81.8881   3 
  -1   9 -19-120.422 231.550   1 
   1  -9  19 209.036 160.424   4 
  -1  -9  19 150.614 167.339   4 
   1  -9  20 1125.98 314.231   4 
   1  -9  20 539.891 173.455   5 
  -1   9 -20 540.927 196.988   1 
  -1  -9  20 1326.52 328.232   4 
  -1   9 -21-245.779 241.131   1 
   1  -9  21-27.7065 95.1526   5 
   1  -9  21 69.0573 236.494   4 
  -1  -9  22 21206.4 1256.92   4 
  -1   9 -22 21284.7 1186.44   1 
   1   9 -22 21453.4 1015.89   1 
   1  -9  22 21224.9 1261.05   4 
  -1   9 -23 986.667 307.212   1 
  -1  -9  23 1105.97 366.619   4 
   1   9 -23 974.406 242.851   1 
   1  -9  23 1313.02 389.680   4 
  -1  -9  24 396.700 258.489   4 
   1  -9  24-74.2593 170.159   4 
  -1   9 -24 368.817 192.204   1 
   1   9 -24 517.738 225.086   1 
   1  -9  25 271.536 268.827   4 
  -1   9 -25-33.2249 184.642   1 
  -1  -9  25 492.662 236.699   4 
  -1  -9  26 774.124 319.915   4 
  -1   9 -26 1132.36 343.764   1 
   1  -9  26 1037.57 339.696   4 
   1  -9  27 535.298 322.221   4 
  -1   9 -27 757.351 330.485   1 
  -1  -9  27 552.542 288.925   4 
  -1  -9  28 19844.4 1391.22   4 
   1  -9  28 21702.7 1457.91   4 
  -1 -10   0 244.306 97.8866   3 
   1  10   0 10.3461 105.537   3 
  -1 -10   0 87.5138 109.087   2 
   1 -10   0 20.0311 119.710   2 
   1 -10   0-75.6579 102.712   3 
   1 -10  -1 30775.2 980.455   3 
  -1 -10   1 30231.1 956.779   3 
   1 -10   1 32417.2 1168.76   1 
  -1 -10   1 28878.3 1061.28   2 
   1 -10   1 30611.6 903.657   3 
   1  10   1 29481.3 1011.90   3 
  -1 -10  -1 28099.1 1039.73   2 
   1 -10   1 30442.0 1168.49   2 
  -1 -10  -1 30193.5 1008.93   3 
   1  10  -1 28900.0 955.649   3 
   1 -10  -1 29686.8 1150.70   2 
   1 -10  -2 3654.14 329.129   3 
  -1 -10  -2 3157.12 331.819   2 
   1 -10   2 3625.77 278.770   3 
  -1 -10  -2 2466.77 290.437   3 
   1 -10   2 3295.97 378.718   2 
   1 -10   2 3372.87 372.308   1 
   1  10   2 2834.39 309.877   3 
   1 -10  -2 3202.73 378.543   2 
   1  10  -2 3039.53 283.072   3 
  -1 -10   2 3076.03 287.932   3 
   1  10   3 5697.14 449.367   3 
   1 -10  -3 4611.01 442.454   2 
  -1 -10   3 6121.32 387.856   3 
  -1 -10  -3 5897.40 461.097   2 
   1  10  -3 5639.05 377.395   3 
  -1 -10   3 6000.76 495.349   5 
   1 -10   3 3797.67 276.601   3 
  -1  10   3 3306.36 388.972   2 
  -1 -10   3 5746.37 288.233   4 
  -1 -10  -3 5600.60 432.849   3 
   1 -10  -3 4465.01 387.743   3 
   1 -10   3 3961.95 404.159   1 
   1 -10   4 16804.6 548.999   3 
  -1 -10   4 13718.6 741.104   5 
  -1 -10   4 13784.4 580.523   3 
  -1 -10   4 13455.9 655.177   1 
   1 -10   4 16109.9 808.823   1 
  -1  10   4 15835.2 845.405   2 
   1  10  -4 14145.2 587.688   3 
  -1 -10   4 13982.1 502.373   4 
   1  10   4 13399.3 718.466   3 
   1 -10  -4 16437.8 772.497   3 
  -1 -10  -4 15037.0 746.452   3 
   1  10   5 4939.37 446.727   2 
  -1 -10   5 4356.59 436.299   5 
  -1  10   5 4399.32 467.719   2 
   1 -10   5 4671.51 444.606   1 
   1 -10  -5 4900.91 438.540   3 
   1 -10   5 4074.96 251.340   3 
   1  10  -5 5075.48 342.474   3 
  -1 -10   5 4814.78 383.909   1 
  -1 -10   5 5238.29 325.577   4 
  -1 -10  -5 5226.83 454.641   3 
   1  10   5 5487.99 478.373   3 
  -1 -10   6 62536.0 1506.75   1 
   1 -10   6 64532.3 1108.92   3 
   1 -10  -6 67396.3 1746.49   3 
  -1 -10   6 63229.5 1364.74   4 
  -1  10   6 62751.6 1842.66   2 
  -1 -10   6 61617.0 1687.12   5 
   1  10   6 62758.3 1713.39   2 
   1  10  -6 62408.7 1309.82   3 
  -1 -10  -6 64823.5 1738.55   3 
   1  10   6 62005.5 1744.93   3 
   1 -10   6 66256.9 1736.82   1 
   1 -10   7 5262.94 218.977   3 
  -1 -10  -7 6090.85 518.488   3 
   1  10   7 5815.69 522.381   3 
  -1 -10   7 6308.29 402.301   4 
   1  10  -7 5442.21 325.924   3 
   1  10   7 5197.89 459.959   2 
   1 -10  -7 6061.62 333.825   4 
   1 -10  -7 7003.56 555.220   3 
  -1 -10   7 5793.79 487.877   5 
  -1  10   7 5896.35 534.268   2 
  -1 -10   7 5470.19 396.021   1 
   1 -10  -8 42167.9 998.592   4 
  -1 -10   8 40618.9 1325.02   5 
  -1 -10   8 40705.0 1140.35   4 
   1 -10  -8 43654.1 1444.68   3 
  -1  10   8 41170.6 1479.12   2 
   1  10  -8 40083.7 946.684   3 
  -1 -10  -8 43053.1 1436.65   3 
   1  10   8 41667.2 1373.19   2 
   1  10   8 38361.0 1404.42   3 
  -1 -10   9 8078.15 503.427   4 
   1  10   9 7358.51 564.106   2 
   1 -10  -9 7882.60 609.358   3 
   1  10   9 7100.88 600.570   3 
   1  10  -9 7483.94 358.345   3 
  -1 -10  -9 8338.70 625.822   3 
   1 -10  -9 7104.02 396.882   4 
  -1  10   9 7030.93 609.045   2 
  -1 -10   9 8145.62 574.917   5 
  -1 -10  10 15990.7 744.251   4 
   1 -10 -10 16625.6 635.667   4 
  -1 -10  10 15839.5 797.635   5 
   1  10  10 15119.9 836.721   2 
  -1 -10 -10 17323.8 920.319   3 
   1  10  10 14746.2 877.450   3 
   1  10 -10 15339.5 506.114   3 
  -1  10  10 16459.6 946.021   2 
   1 -10 -11 222.881 116.897   4 
   1  10  11 462.598 238.852   3 
   1  10 -11 258.331 78.3125   3 
   1  10  11 321.256 197.462   2 
  -1 -10  11 207.286 165.028   5 
  -1  10  11 25.0549 178.628   2 
  -1 -10  11 584.130 203.391   4 
  -1 -10  12 39045.5 1297.98   4 
   1 -10  12 41554.6 1333.59   5 
   1  10  12 37113.8 1506.92   3 
   1  10 -12 37468.3 819.245   3 
  -1 -10  12 37313.0 1268.79   5 
   1 -10 -12 42293.2 1143.82   4 
   1  10 -13 2497.48 177.448   3 
  -1  10 -13 3229.69 405.777   1 
   1  10  13 2690.68 432.086   3 
   1 -10 -13 2917.69 301.660   4 
  -1 -10  13 2694.63 367.221   4 
   1 -10  13 3565.15 384.104   5 
  -1 -10  14 41702.7 1438.21   4 
  -1  10 -14 40981.6 1479.53   1 
   1  10  14 40053.9 1625.36   3 
   1  10 -14 39003.1 803.424   3 
   1 -10  14 39516.2 1315.75   5 
   1 -10 -14 40056.3 1209.36   4 
  -1 -10  15 1808.86 347.424   4 
   1  10 -15 1344.57 127.913   3 
   1  10 -15 1151.14 222.169   1 
   1 -10  15 1756.34 317.314   4 
  -1  10 -15 1016.62 233.274   1 
   1  10  15 948.790 304.824   3 
   1 -10  15 1379.22 256.831   5 
   1 -10  16 8698.06 591.365   5 
   1  10 -16 8611.85 318.076   3 
   1  10 -16 8480.54 319.397   3 
  -1 -10  16 8351.32 671.497   4 
   1  10  16 8751.72 781.141   3 
   1 -10  16 9202.21 704.751   4 
  -1  10 -16 8872.57 684.763   1 
  -1 -10  17 1428.30 332.326   4 
   1  10 -17 1219.42 119.425   3 
  -1  10 -17 1514.63 287.387   1 
   1 -10  17 2079.13 304.201   5 
   1  10  17 1172.63 323.332   3 
   1  10 -17 1216.35 120.572   3 
   1  10 -18 8990.24 319.629   3 
  -1 -10  18 9231.38 741.733   4 
  -1  10 -18 10694.7 785.330   1 
   1  10  18 10080.9 874.286   3 
   1 -10  18 10902.1 653.454   5 
   1  10 -18 9124.63 319.445   3 
   1 -10  18 10439.6 801.196   4 
   1  10 -19 1141.39 109.303   3 
   1 -10  19 1403.31 365.554   4 
  -1 -10  19 1057.87 304.794   4 
   1 -10  19 1456.28 258.489   5 
  -1  10 -19 701.251 244.543   1 
  -1  10 -20 17311.6 1035.94   1 
   1 -10  20 18188.4 835.805   5 
   1 -10  20 17236.5 1074.32   4 
  -1 -10  20 17964.1 1100.31   4 
  -1 -10  21 255.663 279.544   4 
   1 -10  21 239.725 248.590   4 
   1 -10  21 10.3473 125.598   5 
  -1  10 -21-216.025 197.113   1 
  -1 -10  22 12888.7 970.890   4 
  -1  10 -22 12265.3 904.523   1 
   1  10 -22 12549.0 773.655   1 
   1 -10  22 12343.0 961.263   4 
  -1 -10  23 626.759 297.428   4 
  -1  10 -23 524.687 282.442   1 
   1  10 -23 79.6632 184.903   1 
   1 -10  23 653.100 246.931   4 
  -1 -10  24 1032.26 357.814   4 
   1 -10  24 864.256 310.190   4 
  -1  10 -24 928.907 304.935   1 
   1 -10  25 288.714 278.040   4 
  -1 -10  25 984.442 355.742   4 
  -1  10 -25 789.304 288.751   1 
  -1 -10  26-346.372 316.194   4 
  -1  10 -26 81.3346 193.690   1 
   1 -10  26 238.174 244.552   4 
   1 -10  27 624.091 365.019   4 
  -1 -10  27 1373.64 408.271   4 
  -1 -11   0-3.36027 130.914   2 
   1 -11   0-43.2531 97.0270   3 
  -1 -11   0-25.0104 104.762   3 
   1  11   0 230.244 160.311   3 
   1 -11   0-42.9279 188.492   2 
  -1 -11   1 16445.8 722.639   3 
   1 -11   1 14964.8 828.196   1 
   1  11   1 16368.7 767.173   3 
  -1 -11   1 17029.0 843.513   2 
   1 -11  -1 14883.5 833.126   2 
  -1 -11  -1 16854.9 826.931   2 
   1 -11   1 15526.4 859.945   2 
   1 -11   1 14023.3 628.868   3 
  -1 -11  -1 17292.9 770.089   3 
   1 -11  -1 15461.8 709.647   3 
   1  11  -1 16767.5 742.390   3 
   1  11   2 29240.8 1089.31   3 
  -1 -11   2 30143.7 1140.93   2 
   1 -11  -2 32374.6 1254.95   2 
  -1 -11  -2 30995.8 1085.29   3 
  -1 -11   2 30411.6 983.785   3 
   1 -11   2 32387.8 1268.40   2 
   1 -11  -2 33208.4 1092.00   3 
   1 -11   2 30819.4 1198.54   1 
   1 -11   2 32098.4 934.423   3 
   1  11  -2 29599.2 981.585   3 
  -1 -11  -2 29850.9 1114.77   2 
  -1 -11  -3 57117.7 1624.98   2 
   1 -11   3 59751.0 1712.77   1 
   1 -11  -3 61305.1 1596.07   3 
   1 -11  -3 62082.4 1803.11   2 
   1 -11   3 58649.5 1299.53   3 
  -1 -11   3 62073.1 1729.82   5 
  -1 -11   3 59620.5 1420.65   3 
  -1 -11  -3 60987.0 1624.18   3 
   1 -11   3 60143.2 1785.22   2 
   1  11  -3 57079.6 1405.64   3 
  -1 -11   3 59356.7 1113.92   4 
   1  11   3 58150.1 1617.62   3 
  -1 -11   4 26224.0 854.038   3 
   1 -11  -4 25175.9 1006.24   3 
  -1 -11  -4 25885.8 1089.69   5 
  -1 -11   4 25020.2 1065.21   5 
   1  11  -4 25889.1 858.072   3 
  -1 -11  -4 26665.5 1042.86   3 
   1  11   4 24996.8 1044.57   3 
   1 -11   4 26219.4 1086.57   1 
   1 -11   4 24409.6 738.936   3 
  -1  11   4 22965.2 1088.87   2 
  -1 -11   4 25828.4 969.683   1 
  -1 -11   4 25918.4 710.487   4 
  -1 -11   5 45509.2 1075.79   4 
   1 -11   5 47634.2 1499.05   1 
   1 -11   5 45589.2 1007.23   3 
  -1 -11  -5 45195.3 1468.35   5 
   1  11  -5 46350.2 1162.94   3 
  -1 -11  -5 46973.3 1463.48   3 
   1  11   5 43964.6 1431.41   2 
   1 -11  -5 50899.1 1495.18   3 
  -1  11   5 46219.7 1584.96   2 
  -1 -11   5 45019.6 1473.18   5 
   1  11   5 45128.4 1483.83   3 
  -1 -11   5 44058.4 1317.38   1 
  -1 -11   6 28217.2 855.698   4 
   1 -11   6 29744.3 714.809   3 
   1 -11  -6 31087.3 1181.87   3 
  -1 -11   6 27275.2 1119.71   5 
  -1 -11  -6 29334.7 1153.61   3 
   1  11   6 27648.2 1122.24   2 
   1 -11   6 29678.7 1155.19   1 
  -1  11   6 31577.3 1296.27   2 
  -1 -11  -6 29576.1 1158.96   5 
   1  11  -6 27611.7 847.039   3 
   1  11   6 27963.5 1168.71   3 
  -1 -11   6 29252.6 1021.51   1 
   1  11   7 17834.3 937.136   3 
  -1 -11   7 18489.6 907.486   5 
   1 -11   7 18735.8 898.720   1 
  -1  11   7 17662.5 975.853   2 
  -1 -11  -7 18473.9 915.052   5 
  -1 -11   7 17330.5 766.190   1 
  -1 -11   7 18746.8 714.189   4 
   1  11   7 17860.2 908.330   2 
   1 -11  -7 19088.9 941.869   3 
   1 -11  -7 19128.0 601.943   4 
   1  11  -7 18644.8 648.099   3 
   1 -11   7 18056.6 482.625   3 
  -1 -11  -7 20016.7 961.779   3 
   1  11   8-88.8215 159.388   2 
  -1 -11  -8 65.8547 173.255   3 
  -1 -11  -8-73.0040 166.831   5 
   1 -11  -8-109.224 133.289   3 
  -1 -11   8 214.743 144.135   4 
  -1 -11   8 198.165 185.374   5 
  -1 -11   8 167.086 129.065   1 
  -1  11   8-165.701 182.644   2 
   1  11  -8 75.6965 88.2319   3 
   1 -11  -8 47.1879 75.4269   4 
   1  11   8 171.951 188.068   3 
   1 -11  -9 35091.2 939.108   4 
  -1 -11  -9 37056.2 1396.37   3 
   1 -11  -9 38982.8 1417.28   3 
  -1 -11  -9 36885.6 1308.59   5 
   1  11   9 35463.9 1334.86   2 
   1  11  -9 35342.5 865.968   3 
  -1 -11   9 36128.9 1299.66   5 
   1  11   9 33351.8 1374.32   3 
  -1 -11   9 34526.5 1104.62   4 
  -1  11   9 35184.2 1430.15   2 
  -1 -11  10 15676.4 840.727   5 
  -1 -11  10 15284.9 749.726   4 
   1 -11 -10 14620.8 810.527   5 
   1  11  10 15935.3 896.088   2 
  -1 -11 -10 15746.8 833.179   5 
   1 -11 -10 14525.5 592.845   4 
   1  11 -10 14753.8 511.352   3 
  -1  11  10 13683.2 900.809   2 
   1  11  10 15993.4 954.490   3 
   1  11  11 32546.4 1397.08   3 
   1 -11  11 28212.7 1147.92   5 
   1 -11 -11 27918.3 892.173   4 
  -1 -11 -11 32105.5 1203.41   5 
  -1  11 -11 30657.3 1248.40   1 
  -1  11  11 26479.4 1289.98   2 
  -1 -11  11 29880.7 1179.65   5 
   1  11  11 31620.5 1296.63   2 
   1  11 -11 29940.2 727.293   3 
   1 -11 -11 26916.1 1124.89   5 
  -1 -11  11 30574.9 1105.04   4 
   1 -11 -12 18730.0 913.220   5 
   1  11  12 20586.5 1127.94   3 
  -1 -11  12 19428.9 899.288   4 
  -1 -11  12 18081.3 906.606   5 
   1 -11 -12 18811.5 730.051   4 
   1 -11  12 18621.2 925.466   5 
  -1  11 -12 18253.4 974.457   1 
   1  11 -12 18990.8 536.136   3 
   1  11  12 18193.1 1003.78   2 
  -1  11  12 18345.2 1081.25   2 
  -1 -11  13 220.542 157.079   4 
   1 -11 -13-54.9117 165.966   5 
   1  11  13 134.712 201.219   3 
  -1  11  13-177.491 282.640   2 
   1 -11 -13 144.318 120.488   4 
   1 -11  13 87.0138 142.487   5 
  -1  11 -13-188.556 225.047   1 
   1  11 -13-35.7939 50.3727   3 
   1  11  13-63.1396 241.775   2 
   1 -11 -14 6669.08 476.947   4 
   1  11  14 6832.24 689.088   3 
   1 -11  14 6846.34 568.943   5 
   1 -11 -14 6556.21 544.154   5 
  -1  11 -14 6352.55 594.497   1 
   1  11 -14 5924.87 252.291   3 
  -1 -11  14 6113.15 561.366   4 
   1 -11 -15 13070.3 752.260   5 
  -1 -11  15 12396.9 800.008   4 
  -1  11 -15 12767.4 836.438   1 
   1 -11  15 12979.3 757.972   5 
   1 -11  15 12377.0 794.015   4 
   1  11  15 11400.7 884.181   3 
  -1  11 -16 898.429 316.566   1 
   1 -11 -16 1711.38 297.089   5 
   1 -11  16 1148.99 274.197   5 
   1 -11  16 1684.02 365.382   4 
  -1 -11  16 1419.70 335.272   4 
   1  11  16 2053.93 417.352   3 
   1 -11 -17 45750.1 1457.28   5 
  -1 -11  17 45660.5 1662.99   4 
  -1  11 -17 43101.6 1647.75   1 
   1 -11  17 46298.1 1697.56   4 
   1  11  17 42714.9 1843.17   3 
   1 -11  17 45182.6 1474.21   5 
   1 -11 -18 9575.29 635.876   5 
   1 -11  18 9765.25 777.645   4 
   1  11  18 7887.67 795.294   3 
   1 -11  18 8436.18 618.945   5 
  -1  11 -18 8308.69 730.592   1 
  -1 -11  18 8042.93 708.642   4 
  -1 -11  19 1616.01 348.404   4 
   1 -11  19 1624.28 290.986   5 
  -1  11 -19 922.820 263.479   1 
   1 -11  19 1050.64 302.511   4 
   1 -11 -19 1662.12 296.338   5 
   1 -11  20 5217.19 613.528   4 
  -1  11 -20 3890.23 516.961   1 
   1 -11 -20 4043.67 420.717   5 
  -1 -11  20 4534.30 570.842   4 
   1 -11  20 4839.59 468.525   5 
   1  11 -21-282.553 192.826   1 
  -1 -11  21 306.963 221.644   4 
   1 -11  21-74.3334 122.911   5 
   1 -11  21 49.9781 173.967   4 
  -1  11 -21-461.391 293.732   1 
   1  11 -22 1343.07 285.528   1 
   1 -11  22 1719.88 410.598   4 
  -1  11 -22 963.701 313.120   1 
  -1 -11  22 1280.35 366.004   4 
   1 -11  23 4736.78 635.171   4 
  -1  11 -23 5429.32 625.043   1 
  -1 -11  23 5063.23 658.658   4 
  -1  11 -24 8380.53 779.913   1 
   1 -11  24 7840.55 817.266   4 
  -1 -11  24 8597.14 850.454   4 
  -1  11 -25 982.834 325.100   1 
  -1 -11  25 1802.77 446.884   4 
   1 -11  25 1723.76 428.112   4 
  -1  11 -26 5857.17 699.879   1 
   1 -11  26 4659.36 672.397   4 
  -1 -11  26 5180.80 731.319   4 
  -1 -11  27 3843.25 634.506   4 
   1 -11  27 3968.74 623.915   4 
  -1 -12   0 99.7144 116.300   2 
   1  12   0 71.7597 107.778   3 
   1 -12   0 42.0605 134.159   2 
   1 -12   0 59.7387 98.8822   3 
  -1 -12   0-92.1937 123.644   3 
  -1 -12   1 1316.68 216.717   3 
  -1 -12   1 1209.70 278.466   5 
   1  12   1 1061.39 210.560   3 
  -1 -12   1 1211.02 247.400   2 
  -1 -12  -1 1382.08 242.184   3 
   1 -12  -1 1266.88 211.258   3 
   1 -12   1 1210.52 197.639   3 
   1 -12   1 1132.81 250.777   1 
   1  12  -1 1125.72 208.793   3 
   1 -12   1 1467.55 284.131   2 
   1 -12  -1 1046.80 243.431   2 
  -1 -12  -1 924.906 203.672   2 
  -1 -12   2 1730.06 248.198   3 
   1 -12  -2 1120.23 249.652   2 
  -1 -12  -2 1815.24 286.165   3 
  -1 -12  -2 1663.92 287.636   2 
   1 -12   2 1169.73 187.505   3 
  -1 -12   2 1933.86 304.869   2 
   1 -12   2 1383.02 281.295   1 
   1 -12  -2 1009.01 210.668   3 
  -1 -12   2 2122.14 351.979   5 
   1 -12   2 1144.92 278.462   2 
   1  12  -2 1554.07 246.613   3 
   1  12   2 1820.26 291.708   3 
  -1 -12  -2 1522.58 305.215   5 
   1 -12   3 1332.87 194.088   3 
  -1 -12  -3 1594.76 293.672   5 
   1  12   3 1664.29 294.905   3 
  -1 -12   3 1816.06 328.268   5 
   1 -12  -3 1533.70 302.865   2 
   1 -12   3 1446.55 273.355   1 
  -1 -12  -3 1875.55 302.714   2 
   1  12  -3 1616.11 240.383   3 
  -1 -12  -3 1584.52 267.559   3 
   1 -12  -3 1595.00 253.723   3 
   1 -12   3 1513.35 315.742   2 
  -1 -12   3 1697.39 246.776   3 
   1 -12   4 19053.8 673.046   3 
   1 -12  -4 19015.2 894.814   3 
  -1 -12   4 18300.3 737.655   3 
  -1 -12  -4 19124.6 909.793   3 
  -1 -12   4 18560.0 859.269   1 
  -1 -12  -4 18202.2 942.770   5 
  -1 -12   4 18311.3 590.392   4 
  -1 -12   4 18582.6 962.679   5 
   1 -12   4 18843.7 965.379   1 
   1  12  -4 18265.9 747.693   3 
   1 -12   4 19415.7 1026.98   2 
   1  12   4 18211.9 914.802   3 
   1 -12   5 113.511 185.123   1 
   1  12  -5 64.1354 121.531   3 
  -1  12   5 82.1768 171.190   2 
   1 -12   5 72.8403 84.8733   3 
  -1 -12  -5 253.365 191.439   5 
   1  12   5-171.347 144.009   3 
   1 -12  -5 81.4731 123.056   3 
  -1 -12  -5 214.131 167.590   3 
  -1 -12   5 444.171 255.228   5 
  -1 -12   5 215.689 111.543   4 
  -1 -12   5 34.3713 119.363   1 
   1 -12   6 18696.3 945.807   1 
   1  12   6 18719.2 966.211   3 
  -1 -12  -6 19580.9 978.279   5 
  -1 -12  -6 20162.2 973.901   3 
  -1 -12   6 18923.3 691.503   4 
  -1 -12   6 19565.2 985.494   5 
   1  12  -6 18815.0 707.642   3 
   1  12   6 18102.5 940.564   2 
  -1  12   6 18577.5 1029.88   2 
   1 -12  -6 20773.3 981.024   3 
  -1 -12   6 19260.6 865.338   1 
   1 -12   6 18520.4 584.465   3 
   1  12  -7 440.421 138.948   3 
  -1 -12  -7 519.997 212.113   5 
   1 -12  -7 401.521 104.964   4 
  -1 -12   7 381.673 147.941   4 
  -1 -12   7 67.0158 141.224   1 
   1 -12   7 719.831 237.535   1 
   1  12   7 273.750 147.844   3 
  -1 -12  -7 328.736 204.867   3 
  -1 -12   7 868.092 265.685   5 
   1  12   7 0.57302 180.878   2 
   1 -12   7 475.475 97.7481   3 
   1 -12  -7 399.732 174.879   3 
  -1  12   7 295.263 201.622   2 
  -1 -12   8 7607.05 474.393   4 
   1 -12  -8 6044.57 548.268   5 
  -1 -12   8 8294.47 545.261   1 
  -1 -12   8 7276.04 588.436   5 
   1 -12  -8 6201.13 348.303   4 
   1  12  -8 7643.64 409.244   3 
   1  12   8 6719.88 588.060   2 
  -1 -12  -8 7561.70 607.981   5 
  -1  12   8 5660.53 596.997   2 
   1 -12  -8 6286.98 568.463   3 
   1  12   8 7256.96 630.166   3 
   1  12   9 253.567 191.014   2 
   1  12   9 617.735 235.797   3 
   1 -12  -9 491.161 183.601   5 
  -1 -12  -9 793.300 250.492   5 
   1 -12   9 341.244 180.273   5 
  -1 -12   9 1107.62 268.890   5 
  -1 -12   9 693.251 191.636   4 
   1 -12  -9 574.455 118.890   4 
  -1  12   9 302.663 192.321   2 
   1  12  -9 488.912 104.659   3 
  -1 -12 -10 2253.74 345.441   5 
   1 -12 -10 1711.89 204.831   4 
   1  12  10 2288.25 405.556   3 
  -1 -12  10 1676.19 328.048   5 
  -1 -12  10 2196.81 295.272   4 
   1 -12 -10 1307.24 267.284   5 
   1  12  10 1652.13 331.140   2 
   1 -12  10 1864.15 327.348   5 
   1  12 -10 2282.97 204.562   3 
  -1  12  10 1397.91 312.427   2 
   1  12  11 1734.51 322.434   2 
  -1 -12  11 2088.90 338.179   5 
  -1 -12 -11 2272.48 340.559   5 
   1  12  11 2484.70 409.701   3 
  -1  12  11 2570.28 400.727   2 
   1 -12 -11 2440.69 247.599   4 
   1  12 -11 2137.66 183.857   3 
   1 -12  11 2522.79 353.424   5 
  -1 -12  11 2389.46 319.423   4 
   1 -12 -11 2472.18 360.032   5 
  -1 -12  12 7252.66 606.688   5 
   1 -12  12 7237.11 602.896   5 
  -1  12  12 6806.09 673.577   2 
   1  12  12 8140.60 732.631   3 
   1 -12 -12 6604.64 567.486   5 
   1  12  12 6936.55 639.160   2 
  -1 -12  12 7678.33 567.408   4 
  -1 -12 -12 8129.11 629.001   5 
   1  12 -12 7329.75 318.725   3 
   1 -12 -12 7433.06 449.771   4 
   1  12  13 6110.09 608.974   2 
   1  12 -13 6208.39 265.610   3 
  -1  12  13 6704.85 695.394   2 
  -1 -12  13 7632.41 597.298   4 
   1 -12 -13 6401.23 564.398   5 
   1 -12  13 6370.54 577.004   5 
   1 -12 -13 6411.83 436.584   4 
   1  12  13 6528.37 686.625   3 
   1 -12  14 47360.0 1590.11   5 
   1 -12  14 47798.6 1621.29   4 
   1  12  14 51288.0 1845.40   2 
   1 -12 -14 47316.9 1575.66   5 
  -1  12  14 48342.1 1902.40   2 
  -1  12 -14 51506.1 1757.79   1 
  -1 -12  14 52728.4 1652.41   4 
   1  12  14 50847.0 1947.60   3 
   1  12 -14 48860.3 821.596   3 
  -1  12  15 852.231 374.674   2 
   1  12  15 1606.96 462.665   3 
   1 -12 -15 720.599 242.544   5 
   1 -12  15 1297.43 345.013   4 
   1  12  15 913.192 350.123   2 
  -1 -12  15 1227.46 328.647   4 
  -1  12 -15 267.477 239.690   1 
   1 -12  15 427.755 253.518   5 
   1  12  16 59587.7 2175.32   3 
  -1 -12  16 59659.4 1872.49   4 
  -1  12 -16 53589.7 1859.84   1 
   1 -12 -16 54191.5 1687.01   5 
   1 -12  16 54972.1 1838.38   4 
   1 -12  16 52502.1 1687.09   5 
   1  12  17 5024.35 662.076   3 
  -1 -12  17 4140.61 514.754   4 
   1 -12 -17 3959.74 458.892   5 
  -1  12 -17 4681.43 562.830   1 
   1 -12  17 5118.55 513.205   5 
   1 -12  17 3840.15 519.433   4 
   1 -12 -18 11883.3 747.058   5 
   1  12  18 10899.1 956.216   3 
  -1  12 -18 11441.6 847.272   1 
   1 -12  18 11823.2 759.370   5 
   1 -12  18 10694.1 826.212   4 
  -1 -12  18 11148.0 830.863   4 
  -1 -12  19 1176.66 330.047   4 
   1 -12  19 1119.00 290.747   4 
   1 -12 -19 1250.52 252.040   5 
  -1  12 -19 1163.56 314.990   1 
   1 -12  19 1358.10 282.621   5 
  -1 -12  20 8321.58 765.612   4 
  -1  12 -20 7193.86 691.596   1 
   1 -12  20 7905.07 618.296   5 
   1 -12 -20 9086.99 645.830   5 
   1 -12  20 8115.06 764.360   4 
   1 -12  21 282.977 278.147   4 
   1 -12 -21 590.989 201.817   5 
  -1 -12  21 242.687 211.278   4 
   1 -12  21 73.9989 155.541   5 
  -1  12 -21-244.375 256.475   1 
  -1  12 -22 5345.28 623.230   1 
   1 -12  22 5561.21 667.230   4 
  -1 -12  22 5709.62 678.883   4 
   1 -12  23 851.029 262.523   4 
  -1  12 -23 576.758 212.846   1 
  -1 -12  23 1166.92 355.087   4 
   1 -12  24 462.356 264.375   4 
  -1  12 -24 134.950 205.675   1 
  -1 -12  25 1205.88 393.229   4 
  -1  12 -25 589.837 244.846   1 
   1 -12  25 899.111 339.962   4 
  -1 -12  26 931.623 337.003   4 
   1 -12  26 1034.76 322.178   4 
  -1 -12  27 45.7025 293.865   4 
  -1 -13   0 66.6246 118.260   3 
   1  13   0 369.169 173.378   3 
   1 -13   0 58.8728 149.638   2 
  -1 -13   0 127.924 133.498   2 
  -1 -13   0 254.626 205.808   5 
   1 -13   0 249.858 147.844   3 
  -1 -13  -1 16601.8 940.786   5 
  -1 -13   1 17277.0 949.648   5 
   1 -13  -1 17987.9 824.011   3 
   1  13   1 16331.0 835.722   3 
   1 -13  -1 17469.9 987.252   2 
   1 -13   1 17657.5 968.185   1 
   1 -13   1 17216.0 760.354   3 
  -1 -13   1 16157.6 904.754   2 
   1 -13   1 16991.8 988.573   2 
   1  13  -1 15910.8 781.717   3 
  -1 -13   1 16776.7 787.681   3 
  -1 -13  -1 16815.2 908.657   2 
  -1 -13  -1 16752.7 823.422   3 
   1  13  -2 694.781 186.921   3 
   1 -13   2 562.586 150.200   3 
  -1 -13   2 142.993 128.147   2 
   1 -13  -2 908.731 256.781   2 
  -1 -13   2 643.669 231.822   5 
   1  13   2 178.883 154.375   3 
  -1 -13  -2 416.034 152.388   3 
   1 -13  -2 442.613 156.580   3 
   1 -13   2 301.174 166.754   1 
  -1 -13  -2 593.205 225.210   5 
  -1 -13  -2 381.874 165.143   2 
  -1 -13   2 362.585 153.195   3 
   1  13  -3 2063.67 277.489   3 
  -1 -13   3 1925.72 347.975   5 
   1  13   3 1374.53 297.983   3 
  -1 -13  -3 2012.31 336.652   2 
  -1 -13   3 1795.69 285.891   3 
   1 -13  -3 1874.91 301.323   3 
   1 -13  -3 1584.65 307.394   2 
  -1 -13  -3 1727.97 292.849   3 
  -1 -13   3 1494.66 301.130   2 
   1 -13   3 2331.54 354.310   1 
   1 -13   3 1696.01 225.254   3 
  -1 -13  -3 1711.00 372.444   5 
   1  13   4 15560.9 879.634   3 
  -1 -13   4 16797.6 562.754   4 
  -1 -13   4 16731.8 944.553   5 
   1 -13   4 16761.0 661.944   3 
  -1 -13  -4 16583.9 932.391   5 
  -1 -13   4 16997.1 733.314   3 
   1 -13  -4 18058.1 896.374   3 
  -1 -13   4 15728.2 830.802   1 
  -1 -13  -4 16555.5 875.733   3 
   1 -13   4 17417.1 965.296   1 
   1  13  -4 16328.5 730.983   3 
  -1 -13   5 228.091 145.974   1 
  -1 -13  -5 466.144 236.136   5 
  -1 -13   5 192.559 212.139   5 
   1 -13   5 65.2579 86.8732   3 
   1 -13  -5 397.010 183.330   3 
  -1 -13   5 220.225 98.1408   4 
   1  13  -5 177.140 127.325   3 
  -1 -13  -5 242.977 159.613   3 
  -1 -13   5 160.713 140.338   3 
   1 -13   5 274.435 193.145   1 
   1  13   5 214.973 171.237   3 
  -1 -13   6 12665.5 733.861   1 
  -1 -13   6 12548.9 558.733   4 
  -1 -13  -6 12312.4 789.000   3 
   1  13  -6 12274.6 596.056   3 
  -1  13   6 13034.8 884.530   2 
   1  13   6 12707.5 835.502   3 
   1 -13   6 11649.3 785.254   1 
   1 -13   6 12256.6 494.579   3 
  -1 -13   6 12244.7 812.100   5 
  -1 -13  -6 13490.2 844.556   5 
   1 -13  -6 12346.1 811.774   5 
   1 -13  -6 13518.2 819.104   3 
  -1 -13   7 36833.3 1269.52   1 
   1 -13   7 37574.7 1459.44   5 
   1 -13   7 37153.1 868.849   3 
   1 -13  -7 39599.3 897.212   4 
   1 -13  -7 35840.2 1416.69   5 
   1 -13   7 38675.9 1435.53   1 
  -1 -13   7 35765.5 1412.82   5 
   1  13   7 38866.7 1510.63   3 
  -1 -13  -7 38112.1 1446.19   5 
  -1  13   7 37659.7 1551.61   2 
  -1 -13   7 36919.5 1067.39   4 
   1  13  -7 37797.4 1050.64   3 
   1  13   7 37701.3 1447.69   2 
  -1 -13   8 7169.64 475.429   4 
   1  13   8 6537.08 630.003   3 
  -1 -13  -8 6222.59 601.653   5 
   1  13  -8 7521.59 423.476   3 
   1 -13   8 5909.31 578.130   5 
   1 -13  -8 6197.21 572.189   5 
   1  13   8 7424.96 646.254   2 
  -1 -13   8 6914.47 621.202   5 
  -1 -13   8 6526.90 516.498   1 
   1 -13  -8 6539.15 347.704   4 
  -1  13   8 6320.66 658.338   2 
  -1 -13  -9 9585.74 712.700   5 
   1 -13  -9 9906.37 446.202   4 
   1  13   9 9942.52 758.476   2 
   1  13   9 9925.62 781.508   3 
   1 -13   9 9892.27 729.117   5 
  -1  13   9 9654.17 799.434   2 
   1  13  -9 9956.47 466.643   3 
  -1 -13   9 9087.44 706.347   5 
  -1 -13   9 9454.86 567.285   4 
   1 -13  -9 9607.87 718.928   5 
   1  13 -10 6490.60 358.237   3 
   1 -13 -10 7237.18 631.306   5 
  -1 -13  10 6651.28 502.109   4 
  -1 -13 -10 5932.07 576.189   5 
   1 -13  10 6987.41 613.620   5 
  -1 -13  10 6867.42 621.333   5 
   1  13  10 6149.94 615.445   2 
  -1  13  10 6774.43 685.919   2 
   1 -13 -10 6787.64 386.714   4 
   1  13  10 7242.04 684.327   3 
   1  13  11 4169.44 505.297   2 
  -1  13  11 3631.21 505.551   2 
  -1 -13  11 5449.14 549.643   5 
   1 -13 -11 4292.82 488.869   5 
  -1 -13 -11 4985.76 527.895   5 
   1 -13 -11 4546.96 330.487   4 
   1  13  11 5429.36 627.679   3 
   1  13 -11 5073.59 291.251   3 
  -1 -13  11 5652.56 482.275   4 
   1 -13  11 4343.93 497.194   5 
   1  13  12 118.726 234.770   2 
   1  13 -12 372.735 92.3961   3 
  -1 -13  12 554.171 235.364   4 
   1 -13 -12 907.100 298.427   5 
  -1 -13 -12 606.045 268.484   5 
  -1  13  12 204.809 235.223   2 
   1 -13 -12 618.319 178.882   4 
  -1 -13  12 449.757 255.420   5 
   1  13  12 1114.80 401.717   3 
   1 -13  12 491.736 242.683   5 
  -1 -13  13 61198.7 1761.85   4 
   1 -13  13 60527.3 1787.51   4 
   1  13  13 58651.4 2106.46   3 
   1 -13  13 58747.8 1868.78   5 
   1 -13 -13 60587.1 1854.55   5 
  -1  13  13 58357.5 2113.87   2 
  -1 -13  13 59212.4 1844.03   5 
   1  13 -13 55267.8 995.051   3 
   1  13  13 61532.4 2044.24   2 
   1  13  14 2145.00 460.212   3 
  -1  13  14 2323.96 480.079   2 
   1 -13 -14 1944.40 344.362   5 
   1  13  14 2302.67 445.833   2 
   1 -13  14 2004.99 363.311   5 
   1 -13  14 2117.70 374.963   4 
  -1 -13  14 2460.56 381.530   4 
   1 -13  15 10911.2 773.438   5 
  -1 -13  15 11746.4 820.096   4 
   1 -13  15 12477.3 814.979   4 
   1 -13 -15 10387.9 742.304   5 
   1  13  15 11309.9 938.347   3 
  -1  13  15 11571.5 955.984   2 
   1  13  15 11818.5 906.274   2 
  -1 -13  16 924.131 285.378   4 
   1  13  16 781.721 306.430   2 
  -1  13  16 703.028 322.548   2 
   1 -13 -16 406.880 230.478   5 
   1 -13  16 1281.62 311.595   5 
   1  13  16 1310.13 383.335   3 
   1 -13  16 410.740 229.399   4 
   1  13  17 7572.51 753.011   2 
  -1 -13  17 7079.27 649.449   4 
   1  13  17 7453.89 803.442   3 
   1 -13 -17 7268.44 624.986   5 
   1 -13  17 6818.18 640.025   4 
   1 -13  17 7665.39 641.771   5 
  -1  13  17 6745.67 764.916   2 
  -1  13 -17 7743.25 700.217   1 
   1 -13 -18 446.191 202.030   5 
  -1 -13  18 665.939 250.979   4 
   1  13  18 75.9818 196.863   2 
   1 -13  18 545.102 234.994   4 
  -1  13  18 120.924 271.298   2 
   1 -13  18 326.682 208.778   5 
  -1  13 -18-259.467 267.983   1 
  -1 -13  19 4749.13 584.387   4 
   1 -13  19 3760.24 456.034   5 
  -1  13 -19 3579.12 499.595   1 
   1 -13 -19 4309.48 475.312   5 
   1 -13  19 3562.57 498.080   4 
  -1 -13  20 558.244 283.261   4 
   1 -13  20 319.949 236.319   4 
   1 -13 -20 480.516 207.265   5 
  -1  13 -20 350.088 251.605   1 
   1 -13  20 575.539 226.400   5 
  -1 -13  21 10040.7 874.308   4 
   1 -13 -21 10757.3 732.181   5 
   1 -13  21 10999.3 906.840   4 
   1 -13  21 9710.04 714.847   5 
  -1  13 -21 9719.21 847.290   1 
  -1  13 -22-5.16818 220.004   1 
   1 -13  22 208.575 224.634   4 
  -1 -13  22 237.781 268.557   4 
  -1  13 -23 20.4240 191.259   1 
  -1 -13  23 39.1224 201.956   4 
   1 -13  23 8.89650 231.206   4 
  -1  13 -24 1449.63 369.470   1 
   1 -13  24 1632.32 425.924   4 
  -1 -13  24 1656.43 422.738   4 
  -1 -13  25 6151.73 773.833   4 
   1 -13  25 5668.37 732.651   4 
   1 -13  26 64.2845 236.556   4 
  -1 -13  26 71.4876 264.981   4 
   1  14   0-126.791 143.277   3 
   1 -14   0-48.3168 112.165   3 
  -1 -14   0 42.4638 163.135   2 
  -1 -14   0 33.0994 133.551   3 
  -1 -14   0 209.492 226.780   5 
   1  14   1 152.370 141.203   3 
  -1 -14   1 474.348 232.199   2 
  -1 -14  -1 567.943 213.422   2 
   1  14  -1 386.833 146.444   3 
   1 -14   1 308.258 130.521   3 
  -1 -14  -1 803.953 223.585   3 
   1 -14  -1 580.828 203.233   3 
  -1 -14  -1 874.541 300.259   5 
  -1 -14   1 560.734 222.587   5 
  -1 -14   1 515.450 190.502   3 
   1 -14  -2 5370.48 482.732   3 
  -1 -14   2 5635.26 462.251   3 
  -1 -14  -2 4960.16 516.754   2 
   1 -14  -2 5066.82 538.898   5 
  -1 -14  -2 5793.10 592.020   5 
   1 -14   2 5314.36 415.780   3 
   1  14  -2 5670.16 472.747   3 
  -1 -14   2 5170.33 531.568   2 
   1  14   2 4967.16 484.457   3 
  -1 -14   2 5398.93 562.390   5 
  -1 -14  -2 6039.31 525.859   3 
   1  14   3 2430.53 353.622   3 
  -1 -14  -3 3044.87 444.182   5 
   1  14  -3 2403.15 309.229   3 
   1 -14   3 1558.33 356.618   1 
  -1 -14  -3 2377.17 375.401   2 
   1 -14  -3 1188.05 306.943   5 
   1 -14  -3 1361.24 262.507   3 
  -1 -14   3 2555.97 407.614   5 
  -1 -14   3 2982.96 338.373   3 
  -1 -14   3 2706.48 405.248   2 
   1 -14   3 1499.12 225.619   3 
   1 -14   3 1685.71 345.791   5 
  -1 -14  -3 2146.09 316.326   3 
   1  14  -4 826.548 204.983   3 
  -1 -14  -4 932.991 267.934   5 
  -1 -14   4 556.926 168.175   3 
   1  14   4 736.450 244.123   3 
   1 -14  -4 697.319 208.169   3 
   1 -14   4 1144.21 282.867   1 
   1 -14   4 495.959 145.331   3 
  -1 -14  -4 593.671 185.158   3 
  -1 -14   4 357.767 133.232   1 
   1 -14   4 746.831 261.797   5 
  -1 -14   4 1019.57 300.079   5 
   1 -14  -4 597.777 224.207   5 
   1  14  -5 506.145 150.903   3 
   1  14   5 360.033 186.909   3 
   1 -14  -5 200.774 166.953   5 
  -1 -14   5 724.948 189.785   3 
  -1 -14  -5 358.231 222.713   5 
  -1 -14   5 354.150 184.408   1 
   1 -14   5 66.9555 92.1734   3 
   1 -14  -5 44.8115 143.243   3 
   1 -14   5 258.520 187.683   5 
  -1 -14   5 590.336 135.976   4 
  -1 -14   5 223.319 213.333   5 
   1 -14   5 272.468 207.059   1 
  -1 -14   6 7894.95 444.184   4 
   1  14  -6 8275.13 503.456   3 
   1  14   6 8026.46 680.333   3 
   1 -14  -6 9497.61 381.220   4 
  -1 -14  -6 7759.78 672.399   5 
   1 -14  -6 8661.29 698.713   5 
  -1 -14   6 7503.81 664.601   5 
   1 -14   6 9671.84 465.353   3 
  -1  14   6 9207.94 783.455   2 
   1 -14   6 9679.44 725.751   1 
  -1 -14   6 7309.79 586.410   1 
   1 -14   6 9508.89 748.606   5 
   1  14   7-112.910 167.753   3 
   1 -14   7 110.182 76.5318   3 
   1  14  -7 137.894 93.7659   3 
  -1 -14   7-6.49179 92.6772   4 
  -1  14   7-246.253 283.812   2 
   1 -14  -7 76.0709 190.591   5 
   1 -14  -7 68.7520 70.3434   4 
   1 -14   7-120.640 186.057   5 
   1 -14   7 170.186 216.110   1 
  -1 -14   7 29.7256 176.870   5 
  -1 -14   7 194.171 178.132   1 
  -1 -14  -7 284.794 215.371   5 
   1  14  -8 33528.2 1000.63   3 
  -1 -14   8 36449.2 1311.61   1 
   1 -14  -8 33510.8 1427.09   5 
  -1 -14   8 34823.7 1450.02   5 
   1 -14   8 37418.8 1496.82   5 
   1  14   8 34992.6 1504.32   3 
   1 -14   8 37203.7 1445.82   1 
   1 -14  -8 36708.6 866.142   4 
  -1 -14  -8 37320.3 1490.98   5 
   1  14   8 33221.9 1429.77   2 
  -1 -14   8 36090.7 1102.56   4 
  -1  14   8 34442.2 1558.34   2 
  -1 -14  -9 785.225 303.422   5 
   1  14  -9 351.528 147.037   3 
  -1 -14   9 857.798 324.667   5 
   1  14   9-173.220 218.592   2 
   1 -14   9 335.925 292.939   5 
   1  14   9 916.240 363.196   3 
  -1 -14   9 491.522 203.054   4 
  -1  14   9-17.9627 211.200   2 
   1 -14  -9 479.672 257.198   5 
   1 -14  -9 206.793 108.852   4 
  -1 -14   9 1110.48 267.158   1 
   1  14 -10 45033.6 1076.16   3 
  -1 -14 -10 46905.8 1678.87   5 
   1 -14  10 46805.1 1703.08   5 
  -1 -14  10 45048.5 1366.10   4 
   1  14  10 43908.4 1772.99   3 
  -1 -14  10 44458.6 1654.64   5 
   1 -14 -10 47964.6 1103.77   4 
   1  14  10 46075.3 1738.62   2 
   1 -14 -10 45172.5 1669.17   5 
  -1  14  10 49059.7 1908.05   2 
   1 -14 -11 5068.66 543.727   5 
  -1 -14 -11 6225.68 606.520   5 
   1  14  11 5410.93 651.064   3 
   1  14  11 5646.70 611.259   2 
  -1  14  11 5143.90 638.259   2 
  -1 -14  11 5504.60 586.146   5 
   1  14 -11 5240.13 309.841   3 
  -1 -14  11 5632.40 478.428   4 
   1 -14  11 4896.52 550.394   5 
   1 -14 -11 5113.05 348.388   4 
   1  14 -12 1504.61 155.048   3 
   1 -14 -12 1968.07 374.083   5 
  -1 -14  12 1283.54 268.330   4 
   1 -14  12 2280.28 388.393   5 
   1  14  12 1706.02 405.460   3 
   1  14  12 1056.53 289.814   2 
  -1 -14  12 1793.41 354.368   5 
   1 -14  12 1911.98 307.004   4 
  -1 -14 -12 1478.40 318.985   5 
  -1  14  12 1859.97 416.123   2 
   1 -14  13 5400.41 578.537   5 
  -1 -14  13 7305.89 587.012   4 
   1  14 -13 6144.44 258.569   3 
   1  14  13 7966.30 785.765   3 
  -1  14  13 6374.45 727.291   2 
  -1 -14  13 7037.03 641.724   5 
   1 -14 -13 5322.44 556.208   5 
   1  14  13 7080.98 697.552   2 
   1 -14  13 5545.03 530.341   4 
   1 -14  14 926.034 271.450   5 
   1 -14  14 1266.76 285.477   4 
   1  14  14 549.807 282.459   3 
   1 -14 -14 1091.98 282.856   5 
  -1  14  14 727.604 313.686   2 
  -1 -14  14 1144.87 283.943   4 
   1  14  14 799.739 302.648   2 
  -1 -14  15 2616.18 392.974   4 
   1 -14  15 2523.42 384.502   4 
   1  14  15 2451.93 445.477   2 
   1 -14  15 2597.77 407.629   5 
   1  14  15 2836.33 491.931   3 
   1 -14 -15 2592.42 400.079   5 
  -1  14  15 3135.57 528.556   2 
  -1 -14  16 402.643 222.111   4 
   1 -14  16 1325.62 298.684   4 
   1  14  16 218.346 218.232   3 
  -1  14  16 486.410 242.566   2 
   1 -14 -16 717.697 239.761   5 
   1  14  16 292.750 202.603   2 
   1 -14  16 927.248 259.508   5 
   1  14  17 1945.91 446.508   3 
  -1 -14  17 1921.78 357.583   4 
   1 -14  17 961.230 267.820   4 
   1 -14  17 1509.53 338.644   5 
   1 -14 -17 1840.13 337.513   5 
   1  14  17 1373.30 361.265   2 
  -1  14  17 1936.65 441.724   2 
   1 -14  18 3197.47 475.179   4 
   1  14  18 2503.43 481.098   2 
   1 -14 -18 3622.56 460.101   5 
  -1  14  18 3226.12 577.956   2 
   1 -14  18 3749.90 497.215   5 
  -1 -14  18 2693.16 445.024   4 
   1  14  19 349.216 285.005   2 
  -1  14  19 392.614 347.205   2 
   1 -14  19 1141.85 372.078   4 
   1 -14 -19 271.519 198.844   5 
   1 -14  19 795.031 260.778   5 
  -1 -14  19 77.1921 181.521   4 
   1 -14 -20 12757.3 837.286   5 
   1 -14  20 12781.5 969.187   4 
   1 -14  20 12245.8 841.516   5 
   1  14  20 12943.5 1070.00   2 
  -1 -14  20 11631.3 905.341   4 
  -1  14  20 11715.6 1075.24   2 
  -1 -14  21 529.322 212.815   4 
  -1  14 -21 124.022 231.225   1 
   1  14  21 283.925 266.143   2 
  -1  14  21 482.945 302.479   2 
   1 -14 -21 531.490 229.439   5 
   1 -14  21 507.481 218.005   4 
   1 -14  21 463.946 222.218   5 
  -1 -14  22 5997.98 710.441   4 
  -1  14  22 4144.75 657.614   2 
   1  14  22 4631.00 694.985   2 
  -1  14 -22 6299.68 694.829   1 
   1 -14  22 4890.41 631.003   4 
   1 -14  23 261.057 247.152   4 
  -1 -14  23 290.608 213.114   4 
   1  14  23 835.549 340.929   2 
  -1  14 -23 377.148 236.244   1 
   1 -14  24 2965.71 541.725   4 
  -1 -14  24 2222.05 449.566   4 
  -1 -14  25 287.918 225.833   4 
   1 -14  25-268.818 257.439   4 
   1  15   0 370.679 216.882   3 
   1 -15   0 186.006 164.602   3 
  -1 -15   0-177.987 123.928   3 
   1 -15   0 386.179 282.595   5 
   1  15  -1 31506.3 1209.12   3 
   1 -15  -1 31883.0 1202.35   3 
  -1 -15   1 33396.7 1223.97   3 
  -1 -15  -1 32218.2 1249.98   3 
   1  15   1 32769.5 1286.45   3 
   1 -15   1 32820.4 1151.59   3 
  -1 -15   1 31529.2 1413.63   5 
  -1 -15  -1 31025.6 1414.00   5 
   1 -15  -1 30103.5 1390.08   5 
   1 -15   1 30650.4 1401.30   5 
  -1 -15   2 8478.82 740.453   5 
   1  15  -2 8100.93 589.652   3 
   1  15   2 9109.90 691.949   3 
  -1 -15   2 8214.97 585.551   3 
   1 -15   2 9115.25 575.614   3 
   1 -15  -2 9478.91 663.326   3 
  -1 -15  -2 8524.22 733.520   5 
  -1 -15  -2 8208.54 636.739   3 
   1 -15  -2 7933.68 714.086   5 
   1 -15   2 8970.05 748.473   5 
   1 -15  -3 27525.6 1164.99   3 
   1 -15  -3 25531.6 1268.72   5 
  -1 -15   3 29237.7 1085.98   3 
   1 -15   3 25875.3 951.889   3 
  -1 -15  -3 27944.8 1321.80   5 
  -1 -15   3 26356.1 1205.28   1 
   1  15  -3 28292.4 1084.81   3 
   1  15   3 25134.6 1190.58   3 
   1 -15   3 24919.6 1259.09   5 
  -1 -15   3 27114.1 1309.02   5 
   1 -15   4 6380.22 633.989   5 
  -1 -15   4 6169.96 563.877   1 
   1 -15   4 5571.36 420.325   3 
  -1 -15   4 7364.67 524.641   3 
   1  15  -4 6177.60 496.127   3 
   1  15   4 6341.00 609.990   3 
   1 -15  -4 6733.92 655.525   5 
  -1 -15  -4 7172.35 684.268   5 
  -1 -15   4 6330.17 655.612   5 
  -1 -15   5 19537.0 838.208   3 
  -1 -15  -5 20984.1 1142.32   5 
   1  15  -5 19591.2 848.168   3 
   1 -15  -5 16488.6 1021.24   5 
  -1 -15   5 19722.3 1007.56   1 
   1 -15   5 16988.9 706.685   3 
  -1 -15   5 20995.7 1143.78   5 
   1 -15   5 18388.5 1075.28   5 
   1  15   5 19330.6 1075.79   3 
   1 -15  -6 315.247 220.837   5 
  -1 -15  -6 754.342 279.464   5 
   1  15   6 229.949 218.290   3 
   1 -15   6 546.829 144.460   3 
  -1 -15   6 320.853 118.833   4 
   1 -15  -6 333.090 78.2150   4 
  -1 -15   6 802.365 267.948   5 
   1  15  -6 440.882 141.509   3 
   1 -15   6 425.724 222.679   5 
  -1 -15   6 486.393 199.978   1 
   1 -15   7 6497.48 649.982   5 
   1  15   7 4453.07 527.437   3 
   1 -15   7 5359.92 336.631   3 
   1 -15  -7 5246.15 277.544   4 
  -1 -15  -7 4879.17 572.491   5 
  -1  15   7 5393.84 626.121   2 
  -1 -15   7 5368.00 510.961   1 
  -1 -15   7 5037.41 376.662   4 
   1  15  -7 5253.54 403.364   3 
  -1 -15   7 5387.32 578.005   5 
   1 -15  -7 5016.10 576.263   5 
   1  15   8 6948.18 683.659   3 
  -1 -15   8 6469.03 557.311   1 
  -1 -15  -8 5527.51 603.349   5 
  -1 -15   8 6340.55 447.232   4 
   1 -15   8 6011.86 629.041   5 
   1  15  -8 6376.32 429.244   3 
   1 -15  -8 6531.97 638.353   5 
  -1  15   8 5154.96 609.227   2 
   1 -15  -8 5597.43 299.534   4 
  -1 -15   8 5995.91 630.712   5 
  -1 -15   9 11158.4 622.784   4 
   1  15   9 9903.57 839.835   3 
   1 -15  -9 11309.9 446.911   4 
  -1  15   9 11217.0 906.983   2 
   1 -15  -9 10668.8 818.018   5 
  -1 -15  -9 10701.7 821.373   5 
  -1 -15   9 11069.8 724.404   1 
   1  15   9 9607.75 783.278   2 
   1 -15   9 13069.8 910.042   5 
   1  15  -9 10280.3 521.109   3 
  -1 -15   9 10753.2 829.781   5 
   1  15 -10 283.455 112.379   3 
   1 -15 -10 612.744 282.652   5 
  -1  15  10-92.2187 298.209   2 
  -1 -15 -10 538.779 284.114   5 
  -1 -15  10 378.744 229.466   5 
   1  15  10-136.303 225.262   3 
   1  15  10-266.723 294.446   2 
   1 -15  10 581.468 286.311   5 
   1 -15 -10 275.301 93.6758   4 
  -1 -15  10 626.513 214.246   4 
   1  15  11 19450.0 1166.45   2 
  -1 -15  11 21585.1 951.621   4 
   1  15 -11 20113.4 647.220   3 
  -1 -15  11 21269.1 1152.71   5 
  -1  15  11 21080.9 1294.23   2 
   1  15  11 19016.5 1196.90   3 
   1 -15  11 20446.4 1137.55   5 
   1 -15 -11 20797.0 1137.25   5 
  -1 -15 -11 18950.3 1096.63   5 
   1 -15  11 21045.3 982.109   4 
   1  15  12 8264.06 808.968   3 
   1 -15 -12 8607.28 740.381   5 
   1  15 -12 8221.53 362.432   3 
   1 -15  12 9210.86 660.438   4 
  -1 -15 -12 8572.92 733.694   5 
   1  15  12 7724.63 757.122   2 
   1 -15  12 9015.22 755.258   5 
  -1  15  12 9948.41 916.461   2 
  -1 -15  12 8375.51 723.743   5 
  -1 -15  12 8933.29 632.261   4 
   1 -15  13 7384.08 688.356   5 
   1  15  13 7233.44 772.120   3 
  -1 -15  13 6048.49 621.733   5 
   1 -15 -13 7629.66 689.853   5 
   1  15  13 7419.32 754.234   2 
  -1 -15  13 6950.60 577.397   4 
  -1  15  13 7800.87 820.823   2 
   1 -15  13 7705.09 617.392   4 
   1 -15  14 462.136 227.236   4 
   1 -15 -14 570.322 245.608   5 
  -1  15  14 485.900 299.907   2 
  -1 -15  14 594.836 232.903   4 
   1  15  14 432.188 284.823   2 
   1 -15  14 241.065 177.033   5 
   1  15  14 1192.23 398.644   3 
   1  15  15 1264.78 347.191   2 
  -1 -15  15 837.717 218.476   4 
  -1  15  15 1754.56 438.631   2 
   1 -15  15 1502.08 311.626   4 
   1  15  15 1453.57 364.788   3 
   1 -15 -15 1363.60 316.487   5 
   1 -15  15 1275.11 299.958   5 
   1  15  16 308.942 240.791   2 
  -1  15  16-4.22737 211.473   2 
   1  15  16-119.402 236.887   3 
   1 -15  16 76.8921 173.261   4 
   1 -15 -16 38.1427 194.797   5 
  -1 -15  16 216.774 190.230   4 
   1 -15  16 360.451 243.619   5 
  -1 -15  17 2362.52 410.359   4 
   1 -15  17 2435.90 398.251   5 
   1 -15  17 1800.06 376.459   4 
  -1  15  17 2772.69 537.848   2 
   1  15  17 2100.19 431.521   2 
   1 -15 -17 2640.85 413.224   5 
  -1 -15  18 13979.8 952.634   4 
   1 -15  18 13480.4 921.895   5 
   1  15  18 11792.3 1012.30   2 
  -1  15  18 14767.8 1190.62   2 
   1 -15 -18 14599.4 945.570   5 
   1 -15  18 14115.1 985.034   4 
  -1  15  19 751.091 394.942   2 
   1  15  19 425.522 224.809   2 
  -1 -15  19 1496.19 364.154   4 
   1 -15 -19 552.347 246.910   5 
   1 -15  19 688.166 261.939   5 
   1 -15  19 894.415 339.131   4 
   1 -15  20 3390.69 530.556   4 
  -1 -15  20 2982.39 495.375   4 
  -1  15  20 3264.71 614.091   2 
   1 -15 -20 3806.26 491.368   5 
   1  15  20 2877.47 549.380   2 
   1 -15  20 3594.64 492.964   5 
  -1  15  21 5506.10 784.796   2 
   1 -15  21 7175.39 754.363   4 
  -1 -15  21 8516.47 809.897   4 
   1  15  21 5813.32 765.463   2 
   1 -15  21 7809.63 701.918   5 
   1 -15  22 1303.01 431.378   4 
  -1 -15  22 972.721 344.250   4 
   1  15  22 662.055 269.948   2 
  -1  15  22 306.414 285.340   2 
  -1 -15  23 507.312 303.965   4 
   1  15  23 132.915 252.719   2 
  -1  15  23 376.732 314.394   2 
   1 -15  23 969.387 342.476   4 
   1  15  24-12.9256 345.922   2 
   1 -15  24 296.482 257.970   4 
  -1  15  24 309.408 300.804   2 
  -1 -15  24 145.776 224.816   4 
   1 -15  25-303.168 301.472   4 
   1  15  25-1096.52 423.172   2 
  -1 -16   0 39.3986 166.115   3 
   1  16   0 71.4914 163.604   3 
  -1 -16   0 141.331 197.163   5 
   1 -16   0-27.3161 114.759   3 
   1 -16   0-291.152 243.673   5 
   1 -16   1 3605.12 388.360   3 
   1  16  -1 5371.04 509.518   3 
  -1 -16   1 5553.35 508.746   3 
  -1 -16   1 5266.65 606.737   5 
   1 -16  -1 3561.79 421.541   3 
   1 -16   1 3444.32 503.768   5 
   1  16   1 4468.69 503.639   3 
  -1 -16  -1 5069.06 590.395   5 
  -1 -16  -1 5289.36 515.789   3 
   1 -16  -1 3085.27 459.430   5 
   1 -16   2-191.995 231.107   5 
  -1 -16  -2-152.196 235.325   5 
   1  16  -2 118.880 143.421   3 
   1  16   2-177.855 201.029   3 
  -1 -16   2 249.686 172.037   3 
   1 -16  -2 220.118 218.492   5 
   1 -16  -2-20.7546 168.670   3 
   1 -16   2-208.315 158.666   3 
  -1 -16   2-254.769 222.140   5 
   1  16  -3 341.759 158.567   3 
  -1 -16   3 287.178 152.781   3 
   1  16   3 509.963 232.034   3 
   1 -16  -3 624.417 231.531   5 
   1 -16   3 584.684 165.052   3 
  -1 -16   3 350.059 205.868   5 
   1 -16   3 594.059 264.004   5 
  -1 -16  -3 265.319 217.101   5 
  -1 -16   4-99.4306 151.011   1 
   1 -16   4-218.410 225.628   5 
  -1 -16   4-138.288 140.338   3 
   1  16  -4 15.8362 113.527   3 
  -1 -16   4-81.1610 158.023   5 
   1 -16   4-184.995 180.519   3 
  -1 -16  -4-144.566 223.604   5 
   1  16   4 31.7948 170.781   3 
   1 -16  -4-166.463 214.343   5 
   1 -16   5 1767.05 380.406   5 
   1 -16  -5 1443.57 134.790   4 
   1 -16   5 1428.63 219.970   3 
   1  16   5 848.742 299.225   3 
  -1 -16   5 886.180 267.876   1 
   1  16  -5 1279.95 244.947   3 
  -1 -16  -5 1466.07 358.837   5 
  -1 -16   5 1307.53 348.684   5 
   1 -16  -5 1462.38 354.824   5 
  -1 -16   5 946.197 221.931   3 
   1 -16  -6 9810.96 353.460   4 
   1  16  -6 11464.0 642.336   3 
  -1 -16   6 12280.6 813.907   1 
   1  16   6 11142.5 851.733   3 
   1 -16   6 10994.5 858.206   5 
  -1 -16   6 11270.3 865.978   5 
   1 -16   6 9999.26 524.279   3 
  -1 -16  -6 11319.0 872.950   5 
   1 -16  -6 9846.91 815.597   5 
   1 -16  -7 581.300 277.199   5 
   1 -16  -7 506.369 87.3051   4 
   1  16  -7 903.609 188.574   3 
   1 -16   7 342.137 186.785   5 
   1 -16   7 756.337 152.221   3 
  -1 -16   7 1179.95 327.120   5 
   1  16   7 1105.88 316.858   3 
  -1 -16  -7 1462.93 342.686   5 
  -1 -16   7 1331.91 291.092   1 
  -1 -16   8 1496.35 217.095   4 
   1 -16  -8 1365.91 317.387   5 
  -1 -16   8 985.908 285.906   5 
  -1 -16   8 797.561 229.403   1 
   1 -16   8 956.442 291.189   5 
  -1 -16  -8 966.057 310.216   5 
   1  16  -8 1439.27 216.706   3 
   1  16   8 1168.80 335.289   3 
   1 -16  -8 1461.16 142.482   4 
   1 -16  -9 314.709 192.286   5 
   1  16   9 115.048 205.476   3 
  -1 -16   9 87.0626 115.141   1 
   1 -16   9 103.847 208.965   5 
  -1 -16   9 26.3830 191.009   5 
  -1 -16  -9-90.2473 180.780   5 
  -1  16   9 7.40961 259.266   2 
   1 -16   9 338.349 144.533   4 
   1  16  -9-20.9160 90.4207   3 
  -1 -16   9 130.771 119.252   4 
   1  16  10-18.3702 277.982   2 
  -1 -16  10-35.2104 197.995   5 
  -1  16  10-258.580 291.674   2 
  -1 -16 -10 419.117 222.598   5 
   1  16  10 336.157 203.630   3 
   1 -16 -10 41.2913 222.377   5 
   1  16 -10 238.631 98.2370   3 
   1 -16  10-287.923 258.020   5 
   1 -16  10-217.996 190.881   4 
  -1 -16  10 319.079 142.905   4 
  -1 -16  11 456.992 224.260   5 
   1 -16 -11-487.572 323.563   5 
  -1 -16  11 1093.05 252.421   4 
   1  16 -11 321.881 100.636   3 
   1  16  11 745.943 334.741   3 
   1  16  11 269.697 182.292   2 
   1 -16  11 456.493 163.807   4 
   1 -16  11-150.417 262.445   5 
  -1  16  11 643.945 308.888   2 
  -1 -16 -11 509.632 234.971   5 
   1 -16  12 5182.76 590.181   5 
  -1  16  12 4950.96 666.232   2 
  -1 -16  12 6180.16 525.488   4 
   1  16  12 6445.27 734.141   3 
  -1 -16  12 6268.01 663.468   5 
   1  16  12 5659.52 663.613   2 
   1 -16 -12 6448.13 666.358   5 
   1 -16  12 5282.92 516.473   4 
  -1 -16  13 428.339 211.833   4 
  -1  16  13 195.379 250.110   2 
   1 -16 -13 413.634 222.872   5 
   1 -16  13 23.3169 156.553   4 
   1  16  13-85.1671 198.897   2 
   1  16  13 159.611 231.535   3 
   1 -16  13 26.6657 216.422   5 
  -1 -16  14 11428.0 769.343   4 
   1  16  14 11074.3 988.641   3 
   1 -16 -14 11182.4 881.152   5 
   1  16  14 11080.2 943.037   2 
  -1  16  14 10429.1 976.247   2 
   1 -16  14 10261.4 842.825   5 
   1 -16  14 11221.7 793.806   4 
   1  16  15 2016.05 445.905   2 
   1 -16  15 1873.36 350.459   4 
  -1  16  15 1985.71 462.785   2 
  -1 -16  15 1885.46 358.785   4 
   1  16  15 1784.28 454.108   3 
   1 -16  15 1238.84 313.721   5 
   1 -16 -15 2280.78 423.943   5 
   1  16  16 3523.46 579.727   2 
  -1  16  16 3739.46 618.116   2 
  -1 -16  16 3659.45 466.635   4 
   1 -16 -16 3824.13 516.056   5 
   1 -16  16 3883.55 535.812   5 
   1 -16  16 3562.75 465.163   4 
   1  16  17 16.6578 247.511   2 
  -1 -16  17 152.374 194.882   4 
   1 -16  17-1.62518 194.052   5 
   1 -16 -17 274.240 240.400   5 
  -1  16  17-302.247 321.080   2 
   1 -16  17 121.983 168.673   4 
   1 -16  18 3649.60 535.024   4 
   1  16  18 3740.64 606.750   2 
   1 -16  18 3785.25 530.845   5 
  -1 -16  18 4538.62 560.854   4 
  -1  16  18 3587.16 620.949   2 
   1 -16 -18 3005.38 472.268   5 
  -1 -16  19 125.944 266.557   4 
  -1  16  19-64.9326 293.653   2 
   1 -16  19 216.435 199.786   4 
   1 -16  19 213.944 222.733   5 
   1  16  19 177.316 293.403   2 
   1 -16 -19 411.795 287.315   5 
  -1  16  20 913.659 373.163   2 
  -1 -16  20 2071.19 401.500   4 
   1 -16  20 1581.56 367.944   4 
   1  16  20 1633.53 422.780   2 
   1 -16 -20 2262.26 403.175   5 
   1 -16  20 2630.83 473.749   5 
   1 -16  21 125.372 202.616   5 
  -1 -16  21 476.811 270.128   4 
   1  16  21 278.186 305.695   2 
  -1  16  21 248.194 288.424   2 
   1 -16  21 6.65363 240.608   4 
   1 -16  22 5255.88 675.501   4 
  -1 -16  22 4631.04 624.180   4 
   1  16  22 5014.78 720.188   2 
  -1  16  22 3627.22 643.253   2 
  -1  16  23 256.318 342.975   2 
   1 -16  23 227.099 288.540   4 
   1  16  23 864.795 386.479   2 
   1  16  24 3506.75 670.804   2 
   1 -16  24 3795.32 621.134   4 
   1 -17   0 10.1954 193.878   5 
   1  17   0 215.257 204.006   3 
  -1 -17   0 76.1951 188.607   5 
   1 -17   0-94.2290 141.870   3 
   1  17  -1 3723.28 438.476   3 
   1 -17  -1 4177.62 461.954   3 
   1  17   1 3302.90 440.658   3 
  -1 -17   1 3663.07 427.664   3 
  -1 -17  -1 3903.09 560.552   5 
   1 -17   1 3163.82 487.168   5 
   1 -17   1 4053.07 419.663   3 
   1 -17  -1 3446.27 516.814   5 
  -1 -17   1 4208.20 577.269   5 
  -1 -17   2 3482.80 408.253   3 
   1  17  -2 4852.13 488.221   3 
   1  17   2 4709.71 525.656   3 
  -1 -17  -2 4873.25 608.642   5 
  -1 -17   2 4980.12 606.978   5 
   1 -17  -2 4190.89 564.075   5 
   1 -17   2 5199.61 627.932   5 
   1 -17   2 5011.74 452.458   3 
   1 -17   3 1485.33 343.384   5 
   1 -17  -3 1454.18 359.724   5 
   1  17   3 1068.68 280.999   3 
  -1 -17   3 1503.66 284.621   3 
   1  17  -3 1551.41 271.063   3 
   1 -17   3 930.832 208.226   3 
  -1 -17   3 1739.39 401.924   5 
  -1 -17  -3 1658.52 368.737   5 
   1 -17   4 1098.55 335.869   5 
  -1 -17   4 361.236 259.175   5 
  -1 -17   4 920.719 230.785   3 
   1 -17  -4 1411.77 369.044   5 
   1 -17  -4 846.684 95.0202   4 
   1 -17   4 906.151 210.791   3 
   1  17  -4 828.297 219.180   3 
  -1 -17  -4 1552.91 354.063   5 
   1  17   4 813.944 249.887   3 
   1 -17   5 3423.56 341.245   3 
   1 -17  -5 3108.84 488.672   5 
   1  17  -5 3721.07 396.102   3 
   1  17   5 3622.56 499.379   3 
  -1 -17  -5 4529.73 584.110   5 
  -1 -17   5 3201.17 497.731   5 
   1 -17  -5 2938.05 153.767   4 
   1 -17   5 3878.10 556.790   5 
   1 -17  -6-11.9000 32.6670   4 
   1  17   6 91.0569 239.161   3 
   1 -17   6 141.076 202.728   5 
  -1 -17   6 393.574 277.423   5 
   1  17  -6-51.2539 117.835   3 
  -1 -17  -6 107.259 212.327   5 
   1 -17   6 84.9798 106.092   3 
   1 -17  -6-273.181 263.751   5 
   1 -17   7 619.571 149.031   3 
   1 -17   7 516.014 175.264   4 
   1  17  -7 468.639 145.326   3 
  -1 -17   7 630.158 244.440   5 
   1  17   7 239.148 187.310   3 
   1 -17   7 211.669 202.241   5 
  -1 -17  -7 477.490 251.912   5 
   1 -17  -7 358.144 217.189   5 
   1 -17  -8 3455.95 526.674   5 
   1 -17   8 3084.28 344.762   4 
   1  17   8 3759.29 527.935   3 
   1 -17   8 2856.16 480.648   5 
  -1 -17   8 3862.96 556.588   5 
  -1 -17  -8 4043.98 556.877   5 
   1  17  -8 3943.89 359.946   3 
  -1 -17  -9 1401.97 365.835   5 
   1 -17   9 1242.80 345.586   5 
   1 -17   9 1629.58 264.554   4 
   1 -17  -9 1935.93 381.824   5 
   1  17  -9 1392.73 216.587   3 
  -1 -17   9 1420.52 349.991   5 
   1  17   9 1479.62 354.671   3 
   1  17  10 217.566 213.744   3 
  -1 -17  10 336.778 161.075   4 
   1 -17  10 269.685 129.093   4 
   1  17 -10 330.118 125.770   3 
  -1  17  10-189.999 280.868   2 
  -1 -17 -10 899.812 344.454   5 
   1 -17 -10 237.857 184.290   5 
  -1 -17  10 414.711 223.895   5 
   1 -17  10-70.9201 272.036   5 
  -1 -17  11 637.447 189.361   4 
   1 -17  11 818.882 189.445   4 
  -1 -17  11 865.380 307.824   5 
   1  17  11 741.595 278.376   3 
  -1 -17 -11 644.908 289.566   5 
   1 -17 -11 951.236 254.407   5 
   1 -17  11 931.256 321.864   5 
  -1  17  11 210.324 202.519   2 
  -1 -17  12 593.501 227.830   4 
   1  17  12 2.03352 280.128   3 
  -1  17  12 827.918 319.022   2 
   1 -17  12 481.428 263.105   5 
   1 -17  12 555.758 181.043   4 
   1  17  12 599.650 272.199   2 
   1 -17 -12 599.437 270.592   5 
  -1 -17  12 737.947 311.884   5 
  -1 -17  13 1466.34 305.240   4 
   1  17  13 1050.53 307.669   3 
   1  17  13 1120.69 342.926   2 
   1 -17  13 997.547 262.756   4 
  -1  17  13 815.308 277.701   2 
   1 -17 -13 1441.26 364.853   5 
   1 -17  13 1590.42 367.129   5 
  -1 -17  14 4737.03 516.862   4 
   1 -17 -14 3476.18 518.880   5 
   1 -17  14 4017.63 556.228   5 
   1  17  14 4398.79 660.881   3 
   1  17  14 3868.45 598.714   2 
   1 -17  14 4036.77 496.448   4 
  -1  17  14 3616.75 614.944   2 
   1 -17  15 244.304 169.248   4 
   1 -17 -15 30.9081 216.819   5 
  -1  17  15 434.654 280.890   2 
   1  17  15 91.7765 233.709   2 
  -1 -17  15 819.047 241.438   4 
   1 -17  15 187.118 238.237   5 
   1 -17  16 3838.54 508.642   4 
  -1 -17  16 3930.42 505.971   4 
   1 -17  16 4587.30 602.900   5 
  -1  17  16 3306.33 617.452   2 
   1 -17 -16 2952.12 474.555   5 
   1  17  16 3841.87 617.948   2 
  -1 -17  17 6511.52 654.013   4 
   1 -17  17 6769.85 684.194   4 
   1 -17  17 6203.07 690.494   5 
   1  17  17 6915.87 812.729   2 
   1 -17 -17 7010.71 708.178   5 
  -1  17  17 7337.15 883.752   2 
   1  17  18 1625.83 461.283   2 
  -1  17  18 1521.41 448.983   2 
   1 -17 -18 1627.80 396.799   5 
   1 -17  18 1638.91 390.243   4 
   1 -17  18 1630.30 396.165   5 
  -1 -17  18 1094.09 327.423   4 
  -1 -17  19 3242.19 502.072   4 
  -1  17  19 2366.92 598.069   2 
   1 -17  19 2607.13 479.673   5 
   1  17  19 2393.95 512.500   2 
   1 -17 -19 2141.18 410.854   5 
   1 -17  19 2793.59 475.433   4 
   1  17  20-160.168 243.169   2 
   1 -17  20 63.6179 193.753   5 
  -1  17  20-204.906 284.475   2 
  -1 -17  20 9.85186 213.326   4 
   1 -17 -20-16.8175 210.646   5 
   1 -17  20-128.171 237.293   4 
   1  17  21 1102.53 369.472   2 
  -1  17  21 933.322 362.129   2 
   1 -17  21 1308.67 376.037   4 
   1 -17  22 2187.95 467.604   4 
   1  17  22 2161.82 547.125   2 
   1 -17  23 3103.78 531.462   4 
   1  17  23 3294.92 629.709   2 
   1 -17  24-50.5923 242.876   4 
   1  18   0-45.0520 179.448   3 
   1 -18   0-68.4781 229.141   5 
  -1 -18   0 156.154 237.284   5 
   1 -18   1 8145.86 622.646   3 
   1 -18   1 7953.54 795.363   5 
   1  18   1 7439.41 681.574   3 
  -1 -18   1 6298.74 709.903   5 
   1  18  -1 7183.75 630.368   3 
  -1 -18  -1 6179.38 710.468   5 
   1 -18  -1 7430.04 775.562   5 
   1  18   2 1545.88 312.873   3 
   1 -18   2 2447.07 332.705   3 
   1  18  -2 2140.58 362.020   3 
  -1 -18  -2 2078.42 439.077   5 
  -1 -18   2 1800.55 419.753   5 
   1 -18   2 2109.00 444.743   5 
   1 -18  -2 2180.27 457.320   5 
   1 -18  -3 4916.90 644.433   5 
   1 -18   3 4384.55 600.299   5 
   1  18  -3 4209.82 458.926   3 
   1 -18   3 4811.63 460.117   3 
   1  18   3 3634.39 486.695   3 
  -1 -18   3 4155.76 584.491   5 
  -1 -18  -3 3572.35 556.318   5 
  -1 -18   3 4105.41 446.786   3 
   1 -18   4 13326.1 1029.82   5 
   1  18   4 12308.1 922.053   3 
  -1 -18   4 12769.1 764.380   3 
  -1 -18  -4 13399.8 1026.83   5 
   1 -18   4 12712.1 708.531   3 
   1  18  -4 13588.4 806.263   3 
   1 -18  -4 13107.9 1001.47   5 
  -1 -18   4 11886.1 973.288   5 
   1 -18   4 14120.2 616.029   4 
   1 -18   5 2014.60 258.131   4 
  -1 -18  -5 1728.26 385.679   5 
  -1 -18   5 2348.91 488.733   5 
   1 -18  -5 2017.45 455.750   5 
   1  18  -5 1644.96 287.953   3 
   1  18   5 1405.47 354.482   3 
   1 -18   5 1432.46 357.685   5 
  -1 -18   6 2303.46 473.848   5 
  -1 -18  -6 2500.12 464.891   5 
   1  18  -6 2357.68 326.672   3 
   1 -18  -6 2803.76 476.424   5 
   1  18   6 2800.02 474.388   3 
   1 -18   6 2065.21 422.582   5 
   1 -18   6 3409.49 341.406   4 
  -1 -18  -7 2626.44 475.118   5 
   1  18   7 1945.63 415.432   3 
   1 -18  -7 1771.71 397.970   5 
   1 -18   7 2421.19 305.997   4 
   1 -18   7 1595.75 407.735   5 
  -1 -18   7 1515.07 387.365   5 
   1  18  -7 1759.42 265.368   3 
  -1 -18   8-54.4541 190.477   5 
  -1 -18  -8-135.293 227.698   5 
   1 -18   8-226.363 135.758   4 
   1  18  -8-7.86999 112.872   3 
   1  18   8-305.415 313.348   3 
   1 -18  -8-56.0018 167.542   5 
   1 -18   8 30.5310 212.752   5 
   1 -18   9-55.7829 136.372   4 
  -1 -18  -9 197.812 282.949   5 
   1 -18  -9-393.590 210.105   5 
   1 -18   9-295.539 217.893   5 
   1  18   9-185.098 225.133   3 
  -1 -18   9-85.8133 225.336   5 
   1 -18  10 1291.67 250.388   4 
  -1 -18 -10 1301.70 359.755   5 
  -1 -18  10 970.875 339.982   5 
   1 -18  10 1359.53 322.020   5 
   1 -18 -10 651.969 284.223   5 
   1  18  10 1081.22 307.677   3 
  -1 -18  11 87.8100 187.492   5 
   1 -18  11 396.049 259.182   5 
   1 -18 -11 251.610 275.885   5 
   1  18  11 322.525 273.866   3 
  -1  18  11 24.0320 250.516   2 
   1 -18  11 7.85266 164.268   4 
   1 -18  12 2848.94 388.681   4 
   1 -18 -12 2909.49 464.062   5 
   1  18  12 3261.65 560.428   3 
  -1  18  12 3743.99 606.956   2 
   1 -18  12 2999.33 491.750   5 
   1 -18  13 991.044 263.564   4 
   1 -18 -13 985.617 314.452   5 
   1  18  13 989.760 393.997   3 
   1  18  13 1015.20 313.603   2 
   1 -18  13 1353.42 375.477   5 
  -1  18  13 860.666 337.505   2 
   1  18  14 3547.80 581.713   2 
  -1  18  14 3421.61 618.763   2 
   1 -18  14 3722.16 478.260   4 
   1 -18 -14 3407.30 548.138   5 
   1 -18  14 3388.14 548.476   5 
   1 -18  15 4792.79 636.144   5 
  -1  18  15 4074.88 668.173   2 
   1  18  15 4100.83 643.846   2 
   1 -18 -15 4021.84 600.688   5 
   1 -18  15 4490.55 528.280   4 
   1 -18  16 8572.44 824.925   5 
  -1  18  16 9272.62 1000.61   2 
   1  18  16 6882.24 810.984   2 
   1 -18  16 8974.09 760.939   4 
   1 -18 -16 7349.32 759.719   5 
  -1  18  17 619.548 358.965   2 
   1  18  17-331.969 320.702   2 
   1 -18  17-22.5566 164.831   4 
   1 -18  17-19.8247 187.909   5 
   1 -18 -17 205.520 235.064   5 
   1 -18  18 2652.81 464.434   4 
  -1  18  18 2586.56 588.098   2 
   1 -18 -18 2648.86 472.198   5 
   1 -18  18 1987.06 448.292   5 
   1  18  18 2453.39 503.938   2 
  -1  18  19 950.392 400.521   2 
   1  18  19 1025.00 396.381   2 
   1 -18 -19 521.193 236.577   5 
   1 -18  19 622.492 308.405   5 
   1 -18  19 1027.26 332.600   4 
  -1  18  20-327.127 342.473   2 
   1  18  20-43.8494 264.086   2 
   1 -18  20 247.683 241.272   5 
   1 -18  20 100.909 278.431   4 
   1  18  21 524.187 326.152   2 
   1 -18  21 518.833 228.757   4 
   1 -18  22-224.023 306.749   4 
   1  18  22 150.087 295.079   2 
   1 -18  23 1084.23 417.193   4 
  -1 -19   0 208.802 300.178   5 
   1 -19   0 91.2769 318.941   5 
   1  19   0 530.586 311.496   3 
   1 -19  -1 15119.3 1112.16   5 
   1  19  -1 15863.1 970.416   3 
  -1 -19   1 16027.0 1153.23   5 
   1 -19   1 14310.2 1104.43   5 
  -1 -19  -1 16456.3 1179.38   5 
   1  19   1 15845.7 1016.17   3 
   1  19  -2 418.247 218.095   3 
   1  19   2 289.600 166.484   3 
   1 -19  -2 347.438 234.465   5 
  -1 -19   2 964.916 344.270   5 
  -1 -19  -2 133.317 212.731   5 
   1 -19   2 127.741 220.883   5 
   1  19  -3 42.5677 146.259   3 
   1  19   3-120.967 224.333   3 
  -1 -19  -3 166.723 229.729   5 
   1 -19  -3-66.7659 201.136   5 
  -1 -19   3-18.6723 203.616   5 
   1 -19   3-14.7545 173.070   5 
   1 -19   4 474.742 274.429   5 
   1  19  -4 309.173 157.556   3 
   1  19   4 398.676 255.488   3 
  -1 -19   4 718.480 338.215   5 
   1 -19   4 548.010 155.442   4 
  -1 -19  -4 243.402 230.394   5 
   1 -19  -4 577.697 290.066   5 
  -1 -19  -5 206.826 248.155   5 
   1  19  -5 118.589 125.097   3 
   1 -19   5-172.643 224.106   5 
   1 -19   5 337.260 130.154   4 
   1 -19  -5-245.525 252.324   5 
   1  19   5 37.0977 191.244   3 
  -1 -19   5 178.059 237.654   5 
   1 -19   6 378.482 138.384   4 
   1  19   6 220.547 214.252   3 
  -1 -19  -6 666.394 256.306   5 
   1 -19  -6 843.512 338.665   5 
   1  19  -6 725.996 202.234   3 
  -1 -19   6 322.360 229.621   5 
   1 -19   6 240.868 279.805   5 
   1  19   7 6109.63 708.056   3 
   1  19  -7 5345.23 467.350   3 
   1 -19   7 4650.87 407.027   4 
  -1 -19  -7 5891.30 707.092   5 
  -1 -19   7 4844.83 657.082   5 
   1 -19   7 5191.67 670.363   5 
   1 -19  -7 4457.13 615.212   5 
   1 -19   8 1080.12 230.423   4 
   1  19   8 799.914 320.119   3 
   1 -19   8 1335.07 362.805   5 
  -1 -19  -8 673.182 332.532   5 
  -1 -19   8 117.522 184.577   5 
   1 -19  -8 695.004 262.801   5 
   1 -19   9 965.537 328.307   5 
  -1 -19  -9 1555.08 386.662   5 
   1  19   9 1012.02 345.877   3 
   1 -19  -9 1724.75 401.539   5 
  -1 -19   9 1818.22 418.851   5 
   1 -19   9 2461.21 323.345   4 
   1 -19 -10-130.511 247.981   5 
  -1 -19  10 673.389 314.916   5 
   1 -19  10 261.498 148.439   4 
   1  19  10 204.250 270.791   3 
  -1 -19 -10 514.045 296.824   5 
   1 -19  10 280.036 248.401   5 
   1 -19  11 607.836 208.703   4 
   1  19  11 884.153 336.291   3 
   1 -19 -11 626.622 304.805   5 
  -1 -19  11 999.528 352.361   5 
   1 -19  11 792.001 359.798   5 
   1 -19  12 115.260 211.832   4 
   1 -19 -12-225.629 232.831   5 
   1 -19  12 140.184 238.247   5 
   1 -19 -13 2914.62 512.604   5 
   1 -19  13 3344.75 441.207   4 
   1 -19  13 2815.95 521.440   5 
  -1  19  13 3066.85 562.130   2 
   1 -19 -14-155.637 245.008   5 
   1 -19  14-78.3805 176.880   4 
   1 -19  14 97.6741 255.927   5 
  -1  19  14 107.983 281.525   2 
   1 -19  15 119.568 196.750   4 
   1 -19 -15 805.590 310.346   5 
   1 -19  15 167.474 212.592   5 
  -1  19  15-118.686 369.006   2 
   1  19  15 257.571 243.370   2 
   1 -19 -16 257.558 250.699   5 
   1 -19  16 57.6555 213.658   5 
   1  19  16-392.454 313.936   2 
   1 -19  16 271.287 207.569   4 
  -1  19  16 102.239 231.857   2 
   1 -19  17 2205.55 397.752   4 
   1  19  17 1067.02 324.398   2 
   1 -19  17 1226.90 394.391   5 
   1 -19 -17 1674.72 447.929   5 
  -1  19  17 1752.02 498.449   2 
   1 -19 -18 1578.41 378.141   5 
   1 -19  18 2128.17 458.665   5 
   1 -19  18 2126.38 434.541   4 
  -1  19  18 1675.25 493.509   2 
   1  19  18 1673.33 423.051   2 
   1 -19  19 2.73593 226.471   4 
   1  19  19 161.020 235.475   2 
   1 -19 -19 783.672 339.783   5 
   1 -19  19 736.810 333.810   5 
   1 -19  20 4061.70 588.108   4 
   1 -19  20 4599.44 625.817   5 
   1  19  20 3520.93 652.566   2 
   1  19  21 1458.69 475.924   2 
   1 -19  21 742.875 251.526   4 
   1 -19  22 2315.76 489.071   4 
  -1 -20   0 144.663 232.143   5 
   1  20   0 48.2476 185.586   3 
   1 -20   0-81.9225 225.111   5 
  -1 -20  -1 388.846 282.310   5 
  -1 -20   1 127.952 249.642   5 
   1 -20   1 320.468 274.130   5 
   1  20   1 789.685 277.179   3 
   1  20  -1 875.785 266.820   3 
   1 -20  -1 61.9591 324.273   5 
   1 -20   2 631.916 301.116   5 
   1 -20  -2 478.935 304.653   5 
   1  20   2 144.069 234.093   3 
   1  20  -2 180.871 162.026   3 
  -1 -20  -2-135.223 218.975   5 
  -1 -20   2 489.124 305.649   5 
   1 -20  -3 86.1831 291.540   5 
  -1 -20  -3 663.813 325.531   5 
   1  20   3 1164.53 346.407   3 
   1  20  -3 747.016 242.267   3 
  -1 -20   3 601.050 284.564   5 
   1 -20   3 66.3053 279.254   5 
  -1 -20  -4 4480.92 636.382   5 
   1 -20   4 4586.40 655.131   5 
   1  20  -4 4201.15 474.821   3 
  -1 -20   4 3939.71 609.684   5 
   1 -20  -4 3841.70 590.734   5 
   1  20   4 4917.35 617.193   3 
   1  20   5 372.245 243.987   3 
   1 -20  -5 1354.58 418.556   5 
  -1 -20  -5 468.043 324.066   5 
   1 -20   5 472.960 271.103   5 
   1  20  -5 758.039 233.241   3 
  -1 -20   5 502.792 287.526   5 
   1 -20  -6 847.738 343.634   5 
   1 -20   6 744.548 296.078   5 
   1  20   6 729.717 311.833   3 
  -1 -20   6 820.165 309.654   5 
  -1 -20  -6 787.251 329.236   5 
   1  20   7 518.183 297.501   3 
  -1 -20  -7 282.162 281.580   5 
   1 -20   7 72.0307 213.778   5 
  -1 -20   7-138.230 209.284   5 
   1 -20  -7-56.9301 231.493   5 
  -1 -20  -8 1455.76 412.088   5 
   1  20   8 1323.15 391.212   3 
  -1 -20   8 1536.50 408.008   5 
   1 -20   8 2259.14 453.195   5 
   1 -20  -8 1568.61 418.802   5 
  -1 -20   9 329.430 315.102   5 
   1  20   9 44.2523 220.229   3 
  -1 -20  -9 22.9875 260.108   5 
   1 -20  -9 271.805 267.750   5 
   1 -20   9 182.106 218.294   5 
   1 -20 -10 5842.28 722.541   5 
   1 -20  10 4096.41 629.019   5 
  -1 -20  10 4522.56 649.385   5 
   1 -20 -11-386.644 294.814   5 
   1 -20  11 122.919 255.972   5 
   1 -20  12 1615.93 428.699   5 
   1 -20 -12 1593.43 402.873   5 
   1 -20 -13-21.2105 223.795   5 
   1 -20  13-6.44859 230.799   5 
   1 -20  14 948.665 375.032   5 
   1 -20 -14 479.101 323.056   5 
   1 -20 -15 132.641 272.398   5 
  -1  20  15 152.192 293.068   2 
   1 -20  15 326.264 242.238   5 
  -1  20  16 6897.30 917.943   2 
   1 -20 -16 6789.24 786.732   5 
   1 -20  16 6400.05 762.523   5 
   1 -20 -17 382.639 199.741   5 
   1  20  17 857.505 362.290   2 
  -1  20  17 1046.54 463.752   2 
   1 -20  17 249.291 205.370   5 
   1 -20  18 3405.52 574.139   5 
   1 -20 -18 2786.21 529.364   5 
   1  20  18 3128.62 605.098   2 
   1 -20  19 115.127 275.248   5 
   1 -20 -19-106.321 217.476   5 
   1  20  19 508.567 358.760   2 
  -1 -21   0 206.798 287.272   5 
   1 -21   0 204.385 337.064   5 
   1  21   0 406.578 212.767   3 
   1 -21   1 3048.95 581.676   5 
  -1 -21  -1 3681.49 623.993   5 
   1  21  -1 4579.68 566.822   3 
  -1 -21   1 4277.65 677.542   5 
   1  21   1 4596.55 583.012   3 
   1 -21  -1 4678.99 666.759   5 
  -1 -21   2 5613.80 741.692   5 
  -1 -21  -2 7231.87 842.552   5 
   1  21   2 7876.95 775.928   3 
   1 -21  -2 7989.15 868.430   5 
   1 -21   2 7332.74 839.465   5 
  -1 -21  -3 931.435 317.845   5 
   1  21   3 1109.06 346.310   3 
   1 -21   3 955.260 340.610   5 
   1 -21  -3 1050.40 361.557   5 
  -1 -21   3 916.443 324.028   5 
   1 -21   4-54.0710 242.945   5 
   1 -21  -4 456.373 327.343   5 
  -1 -21   4 117.792 201.892   5 
  -1 -21  -4 588.520 301.087   5 
   1  21   4 6.68096 231.963   3 
   1 -21  -5 867.957 341.664   5 
  -1 -21  -5 353.417 300.949   5 
   1  21   5 657.211 250.045   3 
  -1 -21   5 1319.13 454.550   5 
   1 -21   5 781.765 353.480   5 
  -1 -21   6 1231.72 435.991   5 
  -1 -21  -6 1421.82 392.749   5 
   1 -21  -6 1416.36 414.394   5 
   1 -21   6 1012.07 399.625   5 
  -1 -21  -7 4673.84 680.720   5 
   1 -21  -7 5329.48 727.692   5 
  -1 -21   7 5012.34 705.289   5 
   1 -21   7 5315.73 710.907   5 
   1 -21   8 886.570 369.587   5 
   1 -21  -8-226.650 205.500   5 
  -1 -21   8 575.200 332.785   5 
   1 -21   9 949.897 362.098   5 
   1 -21  -9 668.728 322.477   5 
   1 -21  10 4958.52 706.080   5 
   1 -21 -10 4981.26 697.740   5 
   1 -21  11 408.953 314.006   5 
   1 -21 -11 522.878 274.237   5 
   1 -21  12 7042.04 837.299   5 
   1 -21 -12 8045.94 881.585   5 
   1 -21 -13 687.453 308.636   5 
   1 -21  13 478.313 278.013   5 
   1 -21  14 323.415 295.554   5 
   1 -21 -14 11.3352 241.796   5 
   1 -21  15 1654.05 472.752   5 
   1 -21 -15 2515.86 531.829   5 
   1 -21 -16 870.547 380.102   5 
   1 -21  16 697.936 324.683   5 
   1 -21  17 907.116 440.619   5 
   1 -21 -17-215.598 305.364   5 
   1 -21  18 3471.52 603.854   5 
   1 -21 -18 4211.68 643.412   5 
  -1 -22   0 305.377 323.619   5 
   1 -22   0-58.7771 267.210   5 
  -1 -22   1 200.899 313.708   5 
   1 -22   1 862.759 339.352   5 
   1 -22  -1 804.805 363.995   5 
  -1 -22  -2 1666.95 460.712   5 
   1 -22   2 1990.67 523.145   5 
  -1 -22   2 1673.75 441.761   5 
   1 -22  -2 1862.92 499.485   5 
  -1 -22   3 1388.40 472.283   5 
  -1 -22  -3 1648.47 420.044   5 
   1 -22   3 1611.41 465.962   5 
   1 -22  -3 2200.74 528.277   5 
  -1 -22  -4 2116.70 491.027   5 
   1 -22   4 3098.78 615.706   5 
   1 -22  -4 1965.07 462.197   5 
  -1 -22   4 1796.64 453.003   5 
  -1 -22   5-236.402 325.552   5 
  -1 -22  -5 213.015 304.465   5 
   1 -22  -5-260.350 255.489   5 
   1 -22   5 626.692 323.097   5 
   1 -22   6 1896.21 482.028   5 
  -1 -22  -6 1910.50 489.704   5 
  -1 -22   6 1734.73 479.919   5 
   1 -22  -6 1360.46 410.645   5 
   1 -22  -7 300.660 210.102   5 
   1 -22   7 464.615 333.937   5 
   1 -22  -8 517.633 315.489   5 
   1 -22   8 234.715 255.975   5 
   1 -22  -9 257.829 206.769   5 
   1 -22   9 322.479 302.713   5 
   1 -22  10 795.652 351.538   5 
   1 -22 -10-14.4659 296.723   5 
   1 -22  11 389.416 229.268   5 
   1 -22 -11 985.644 379.255   5 
   1 -22 -12 1392.51 413.685   5 
   1 -22  12 740.218 345.030   5 
   1 -22  13-28.1419 273.962   5 
   1 -22 -13-399.853 218.673   5 
   1 -22 -14 2283.74 530.986   5 
   1 -22 -15-101.541 299.910   5 
   1 -22 -16 2554.61 486.763   5 
   1 -23   0 605.320 376.387   5 
   1 -23  -1 13919.8 1220.84   5 
   1 -23  -2 4506.81 741.216   5 
  -2   0   0 5994.78 211.789   2 
  -2   0   1 69.4980 63.9008   1 
   2   0   1 137.786 46.9251   2 
  -2   0   2 34242.1 692.347   1 
   2   0  -3 57.4950 54.6159   1 
   2   0   3 91.0137 105.965   3 
   2   0   4 138654. 2118.11   3 
   2   0   5 17.8507 73.8071   3 
   2   0   6 201598. 2923.26   3 
  -2   0  -6 205326. 2940.59   3 
  -2   0  -7-30.8732 70.6923   3 
   2   0   7 125.751 88.2536   3 
   2   0   8 156214. 2474.58   3 
  -2   0  -8 160028. 2486.36   3 
  -2   0  -9-23.9346 92.3844   3 
   2   0   9-14.0454 72.1054   3 
  -2   0 -10 27883.2 844.493   3 
   2   0  10 28203.3 849.876   3 
   2   0  11 163.696 121.905   3 
  -2   0 -11 70.5759 76.3913   3 
   2   0  12 2016.37 234.392   3 
  -2   0 -12 2090.50 233.408   3 
   2   0  13-40.9064 102.438   3 
  -2   0 -13 22.7511 95.0733   3 
   2   0  14 110049. 2197.38   3 
  -2   0 -14 114323. 2198.25   3 
   2   0  15-43.7770 100.776   3 
  -2   0 -15 121.998 105.154   3 
   2   0 -15-13.0519 120.800   4 
   2   0  16 22517.5 913.717   3 
   2   0 -16 22853.4 1031.97   4 
   2   0  17-54.3733 128.887   3 
   2   0 -17 5.09636 126.169   3 
   2   0 -17 20.0752 25.6851   5 
   2   0 -18 35952.9 1309.63   3 
   2   0  18 33528.9 1184.94   3 
   2   0  18 34244.8 1339.54   4 
   2   0  18 32365.7 604.831   5 
   2   0 -19 605.241 392.243   3 
   2   0  19 804.688 474.521   4 
   2   0  19 685.589 336.736   3 
   2   0 -20 202007. 3820.96   3 
  -2   0 -20 199081. 3595.99   3 
   2   0  21 1733.67 374.651   4 
  -2   0 -21 1334.65 308.997   3 
   2   0  22 2959.29 449.921   4 
  -2   0 -22 3131.64 379.524   3 
   2   0  23-54.1105 221.910   4 
  -2   0 -23-336.410 222.406   3 
   2   0  24 1383.01 354.379   4 
   2   0  25 95.9959 258.660   4 
   2   0  26 15869.5 1130.01   4 
   2   0  27-139.919 249.535   4 
   2   0  28 3523.98 578.795   4 
   2   0  29 441.063 298.067   4 
   2   0  30 222.044 320.125   4 
   2  -1   1 2257.31 156.701   2 
   2  -1  -1 2347.46 185.416   1 
  -2   1   1 2201.52 183.612   1 
   2   1   2 51259.9 1067.91   3 
  -2  -1   2 52459.6 846.761   1 
  -2   1   2 52683.2 998.539   1 
   2  -1  -2 52232.5 1000.34   1 
   2   1   3 15577.0 538.783   3 
  -2  -1   3 15830.0 349.533   1 
   2   1  -4 570.479 65.3655   1 
   2   1   4 536.734 109.250   3 
   2  -1   4 897.703 135.994   3 
   2   1   5 96943.5 1659.19   3 
   2  -1   5 87233.6 1501.56   3 
  -2   1  -6 48764.8 1008.28   3 
   2  -1   6 48086.6 993.749   3 
   2   1   6 50011.5 1111.03   3 
   2   1   7 599.901 133.130   3 
  -2   1  -7 148.192 73.4827   3 
   2  -1   7 137.099 79.9993   3 
  -2  -1  -7 432.755 123.071   3 
  -2  -1  -8 2138.13 221.650   3 
  -2   1  -8 2008.38 193.520   3 
   2  -1   8 2424.74 208.892   3 
   2   1   8 2443.76 237.248   3 
  -2   1  -9 2377.70 220.100   3 
  -2  -1  -9 3326.91 281.780   3 
   2  -1   9 1967.09 198.062   3 
   2   1   9 3238.19 282.602   3 
  -2  -1 -10 15318.7 634.144   3 
  -2   1 -10 15608.0 581.243   3 
   2  -1  10 15629.3 579.798   3 
   2   1  10 15367.2 647.476   3 
  -2   1 -11 66714.2 1397.72   3 
  -2  -1 -11 68767.2 1540.01   3 
   2   1  11 67614.8 1539.68   3 
   2  -1  11 65778.2 1398.57   3 
   2   1  12 5377.00 412.156   3 
  -2   1 -12 5596.22 363.852   3 
   2  -1  12 5484.68 364.334   3 
  -2  -1 -12 5164.87 394.570   3 
   2   1  13 14340.6 668.121   3 
  -2  -1 -13 13778.4 661.054   3 
  -2   1 -13 11723.5 552.443   3 
   2  -1 -13 9473.95 599.150   4 
   2  -1  13 11419.0 546.703   3 
   2   1  14 1998.43 266.124   3 
   2  -1  14 2636.58 276.827   3 
  -2   1 -14 2726.03 276.738   3 
   2  -1 -14 2647.85 347.435   4 
  -2  -1 -14 1850.59 261.555   3 
  -2   1 -15 689.949 154.624   3 
   2   1  15 865.881 193.117   3 
   2  -1  15 519.825 138.309   3 
   2   1 -15 1028.30 114.349   5 
   2  -1 -15 690.040 200.064   4 
   2   1  16 3556.07 390.491   3 
   2  -1 -16 3379.59 396.564   3 
   2  -1 -16 3167.09 386.947   4 
  -2   1 -16 3010.17 314.933   3 
   2   1 -16 3029.80 178.613   5 
   2   1  16 3229.54 203.443   5 
   2   1 -16 3381.75 405.797   4 
   2  -1  16 3092.01 332.880   3 
   2   1 -17 16782.4 410.907   5 
  -2   1 -17 15641.2 733.542   3 
   2   1  17 19469.1 899.255   3 
   2  -1  17 16738.2 765.815   3 
   2  -1 -17 16731.0 877.845   3 
   2   1  17 18501.7 479.905   5 
   2   1  18 101.835 168.263   3 
   2   1 -18 76.0166 135.847   3 
   2  -1  18 179.606 138.631   3 
   2   1  18 12.9465 45.1522   5 
   2  -1 -18 348.879 213.192   3 
  -2  -1 -18 433.644 210.094   3 
   2   1  18 434.087 219.293   4 
   2   1  19 35149.2 1301.75   3 
   2  -1 -19 33313.7 1344.10   3 
   2   1 -19 35543.2 1317.25   3 
  -2  -1 -19 38721.2 1331.04   3 
   2   1  19 35113.9 1393.99   4 
   2  -1  19 31189.6 1347.70   4 
   2   1  20 7870.34 716.433   4 
   2   1  20 9252.82 678.213   3 
   2  -1  20 8213.86 729.559   4 
   2   1 -20 6969.65 592.284   3 
  -2  -1 -20 7780.51 632.799   3 
   2   1  21 2134.72 391.308   4 
   2   1 -21 2293.62 370.222   3 
   2  -1  21 1593.62 346.592   4 
  -2   1 -21 1965.90 312.533   3 
  -2  -1 -21 2112.15 348.568   3 
  -2  -1 -22 27753.9 1192.54   3 
   2   1  22 24408.7 1260.49   4 
  -2   1 -22 25199.0 1071.95   3 
   2  -1  22 24001.4 1271.59   4 
   2  -1  23 2566.93 438.190   4 
   2   1  23 2355.21 420.468   4 
  -2   1 -23 2546.62 365.787   3 
   2  -1  24 6904.63 721.216   4 
   2   1  24 6548.36 677.745   4 
   2   1  25 8431.72 806.355   4 
   2  -1  25 8489.47 821.821   4 
   2   1  26 1082.72 375.749   4 
   2  -1  26 1434.65 420.282   4 
   2  -1  27 564.273 298.225   4 
   2   1  27 1051.65 326.560   4 
   2   1  28-253.151 259.533   4 
   2  -1  28 543.305 315.758   4 
   2   1  29 568.691 298.040   4 
   2  -1  29 567.910 339.085   4 
   2   1  30 1243.44 392.125   4 
   2  -1  30 1588.39 424.081   4 
   2  -2   0 28498.6 754.282   1 
   2  -2   0 29983.1 706.344   2 
   2   2   1 65525.0 1267.22   3 
   2  -2  -1 62215.9 1221.74   1 
   2  -2   1 62756.2 1155.45   2 
   2   2   2 633087. 7839.15   3 
   2  -2  -2 631385. 7772.24   1 
   2   2   3 176678. 2668.93   3 
   2   2   4 725898. 8966.57   3 
   2  -2   5 131777. 1960.31   3 
   2   2   5 135456. 2220.72   3 
   2   2   6 164176. 2637.46   3 
   2  -2   6 165998. 2348.13   3 
   2  -2   7 3423.25 218.775   3 
   2   2   7 2899.45 269.541   3 
  -2  -2  -8 10523.8 511.232   3 
  -2   2  -8 9333.18 384.447   3 
   2  -2   8 9376.88 383.890   3 
   2   2   8 10143.7 510.160   3 
   2  -2  -9 18791.3 726.302   4 
  -2  -2  -9 19286.8 727.184   3 
  -2   2  -9 17081.9 553.502   3 
   2  -2   9 17202.5 549.023   3 
   2   2   9 17986.0 715.224   3 
  -2   2 -10 63533.8 1255.73   3 
  -2  -2 -10 64239.2 1498.92   3 
   2  -2 -10 63617.5 1513.56   4 
   2   2  10 65442.5 1519.13   3 
   2  -2  10 60768.1 1237.32   3 
   2  -2 -11 121446. 2362.83   4 
  -2   2 -11 123613. 2035.72   3 
  -2  -2 -11 123111. 2312.43   3 
   2   2  11 121727. 2337.72   3 
   2  -2  11 120782. 2017.60   3 
   2  -2  12 70851.5 1430.23   3 
   2  -2 -12 71450.2 1726.75   4 
  -2   2 -12 71527.8 1436.54   3 
  -2  -2 -12 72894.9 1681.39   3 
   2   2  12 70906.5 1695.45   3 
   2  -2  13 2265.99 239.124   3 
   2   2  13 2181.07 291.719   3 
  -2   2 -13 2456.16 244.633   3 
   2  -2 -13 2426.08 311.633   4 
   2  -2 -14 831.201 198.402   4 
   2   2 -14 746.478 110.608   5 
   2  -2  14 639.737 135.884   3 
   2   2  14 739.712 115.172   5 
  -2   2 -14 678.567 147.536   3 
   2   2  14 676.691 180.307   3 
   2  -2 -15 519.840 183.409   4 
   2   2  15 523.736 167.748   3 
   2  -2  15 554.970 147.170   3 
  -2   2 -15 677.573 141.992   3 
   2  -2 -15 1053.10 243.493   3 
   2   2 -15 508.717 91.3552   5 
   2   2  15 538.653 96.3750   5 
   2   2  16 11634.1 417.390   5 
  -2   2 -16 10325.9 544.383   3 
   2   2  16 10911.6 679.843   3 
   2  -2  16 10617.4 557.424   3 
   2   2 -16 10942.7 382.110   5 
   2   2 -16 10659.7 704.952   4 
   2  -2 -16 10610.7 698.005   3 
   2  -2 -16 11734.5 719.469   4 
   2   2  17 7327.40 317.916   5 
   2   2  17 8545.37 626.756   3 
  -2  -2 -17 8649.05 608.518   3 
   2  -2 -17 8497.64 642.614   3 
   2  -2  17 7013.91 472.176   3 
   2   2  17 8630.59 639.829   4 
  -2   2 -17 7550.50 485.088   3 
   2   2  18 1068.10 248.116   3 
   2  -2 -18 1024.04 288.134   3 
   2   2  18 1171.15 294.629   4 
  -2   2 -18 1026.68 210.738   3 
  -2  -2 -18 1640.85 315.932   3 
   2   2 -19 37197.0 1317.63   3 
   2   2  19 37481.7 1402.69   3 
   2  -2  19 37500.6 1482.39   4 
  -2  -2 -19 37535.6 1363.74   3 
   2   2  19 37389.9 1437.08   4 
   2   2 -20 4223.40 457.769   3 
   2   2  20 4622.66 511.544   4 
   2   2  20 3350.99 445.492   3 
  -2  -2 -20 4699.16 488.455   3 
   2  -2  20 3691.98 487.690   4 
   2   2  21-255.114 224.006   4 
   2   2 -21-46.8445 151.015   3 
   2  -2  21 26.0021 192.083   4 
   2   2  22 251.556 179.208   4 
   2  -2  22 483.404 296.726   4 
   2   2 -22 93.0822 182.741   3 
   2  -2  23 6517.91 681.354   4 
  -2   2 -23 6747.75 537.159   3 
   2   2  23 6723.74 681.520   4 
   2   2  24 993.559 295.963   4 
   2  -2  24 896.781 322.874   4 
   2   2  25 8940.44 813.897   4 
   2  -2  25 9488.79 875.690   4 
   2  -2  26 4597.06 631.507   4 
   2   2  26 4182.56 593.756   4 
   2   2  27 4.93336 201.090   4 
   2  -2  27-92.5796 292.233   4 
   2   2  28 455.857 230.884   4 
   2  -2  28 408.857 222.790   4 
   2  -2  29 552.951 263.245   4 
   2   2  29 937.580 346.752   4 
   2   2  30 2678.79 538.414   4 
   2  -2  30 3134.56 597.716   4 
   2   2  31 10426.6 1025.96   4 
   2  -3   0 8390.21 411.554   1 
   2  -3   0 8353.18 388.094   2 
   2  -3  -1 9951.45 446.106   1 
   2  -3   1 10432.9 433.611   2 
   2  -3   1 10340.2 468.030   1 
   2   3   2 211149. 3135.77   3 
   2  -3  -2 216183. 3126.50   1 
   2   3   3 180307. 2779.28   3 
   2   3   4 226284. 3351.45   3 
   2   3   5 60055.7 1343.62   3 
   2  -3   6 50707.6 943.340   3 
   2   3   6 56770.1 1297.34   3 
   2  -3   7 529.718 88.6227   3 
   2   3   7 351.086 125.298   3 
   2  -3   8 59627.9 1069.32   3 
   2   3   8 59717.5 1435.02   3 
   2  -3  -9 14722.6 636.519   4 
   2   3   9 14407.0 665.869   3 
   2  -3   9 14302.9 454.422   3 
  -2   3 -10 21251.3 599.564   3 
   2  -3 -10 21846.6 824.378   4 
  -2  -3 -10 21557.3 838.706   3 
   2  -3  10 21246.0 598.392   3 
   2   3  10 21271.4 839.152   3 
   2  -3 -11 18538.9 772.459   4 
  -2   3 -11 16894.7 545.179   3 
   2   3 -11 13695.4 517.414   5 
   2   3  11 14189.1 703.320   3 
  -2  -3 -11 13169.4 673.717   3 
   2  -3  11 16938.4 538.956   3 
   2   3  12 89.1539 140.309   3 
   2  -3  12 161.803 73.7635   3 
   2   3  12 157.033 70.7994   5 
  -2   3 -12 229.779 88.6110   3 
   2   3 -12 140.404 70.3719   5 
   2  -3 -12 69.8437 109.689   4 
   2   3  13 32.7704 107.199   3 
   2  -3  13-25.6244 67.2015   3 
  -2   3 -13 104.734 63.6623   3 
   2   3  13 72.2728 74.4440   5 
   2   3 -13-40.1734 67.8906   5 
   2  -3 -13 127.596 81.2841   4 
   2  -3 -14 119.707 116.967   4 
   2   3  14-123.355 158.730   3 
  -2   3 -14 169.190 76.1079   3 
   2  -3  14 56.9872 74.6573   3 
   2  -3 -14-83.2591 141.781   3 
   2   3  14 77.1123 74.8666   5 
   2   3 -14 57.0051 58.5116   5 
   2   3  15 19585.0 929.801   3 
   2  -3  15 19888.6 700.263   3 
   2  -3 -15 21445.5 992.857   3 
  -2   3 -15 20874.2 708.233   3 
   2   3  15 19907.5 623.063   5 
   2  -3 -15 20708.4 943.892   4 
   2   3 -15 20422.1 601.869   5 
   2   3 -15 22168.4 994.156   4 
  -2   3 -16 3295.50 299.024   3 
   2   3  16 3207.61 241.113   5 
   2   3  16 3469.77 401.613   3 
   2  -3  16 3448.61 310.017   3 
  -2  -3 -16 3757.98 429.509   3 
   2   3  16 3584.44 416.996   4 
   2   3 -16 3469.58 236.319   5 
   2  -3 -16 4078.38 464.264   3 
   2  -3 -16 3448.62 419.419   4 
   2   3  17 92162.2 2281.76   3 
   2  -3 -17 95151.0 2376.97   3 
  -2   3 -17 91580.8 1833.22   3 
  -2  -3 -17 90344.7 2225.13   3 
   2   3  17 89436.7 1541.42   5 
   2   3  17 87584.8 2204.16   4 
   2   3  18 2946.74 411.520   4 
  -2   3 -18 3900.55 340.730   3 
   2   3  18 3207.15 438.071   3 
  -2  -3 -18 3339.52 418.390   3 
   2   3  19 20188.1 1050.42   3 
  -2   3 -19 23185.6 857.542   3 
  -2  -3 -19 23644.3 1091.78   3 
   2  -3 -19 21226.2 473.749   5 
   2   3  19 21452.4 1061.36   4 
   2   3 -20 8239.93 593.363   3 
   2   3  20 8303.58 677.778   3 
  -2   3 -20 9129.80 541.380   3 
   2  -3  20 9007.49 737.250   4 
   2  -3  20 8469.32 271.378   5 
   2   3  20 9488.02 718.159   4 
   2   3 -21 249.254 142.966   3 
   2   3  21-224.889 225.579   3 
   2  -3  21-142.889 206.005   4 
   2   3  21-65.1565 186.507   4 
   2   3 -22 529.704 172.694   3 
   2   3  22 861.752 289.291   4 
   2  -3  22 511.968 245.094   4 
   2   3 -23 200.881 159.891   3 
   2   3  23 462.172 233.396   4 
   2  -3  23 467.500 236.269   4 
   2  -3  24 173.633 242.472   4 
   2   3  24 154.746 222.729   4 
   2   3  25 454.675 276.626   4 
   2  -3  25 406.037 206.973   4 
   2   3  26-156.357 267.656   4 
   2  -3  26-121.160 241.649   4 
   2  -3  27-312.633 293.918   4 
   2   3  27-35.1876 234.076   4 
   2   3  28 811.776 348.356   4 
   2  -3  28 489.063 329.691   4 
   2  -3  29 769.130 398.772   4 
   2   3  29 452.836 330.828   4 
   2   3  30 742.679 322.833   4 
   2   3  31-116.960 213.613   4 
   2  -4   0 3606.14 280.303   2 
   2  -4   0 3544.31 290.623   1 
   2  -4  -1 134044. 2205.40   2 
   2   4   1 124635. 2148.31   3 
   2  -4   1 132395. 2234.21   1 
   2  -4   1 130533. 2171.56   2 
  -2  -4  -1 124730. 1773.48   2 
   2  -4  -1 130254. 2216.11   1 
   2   4  -1 125670. 2114.22   3 
   2  -4   2 245161. 3572.07   1 
   2   4  -2 236152. 3414.63   3 
   2   4   2 238841. 3510.14   3 
   2  -4  -2 240763. 3535.31   1 
   2   4   3 175480. 2822.91   3 
   2   4   3 180175. 2396.23   2 
   2   4   4 70407.1 1507.06   3 
   2   4  -5 4039.77 279.182   4 
   2   4   5 3826.21 324.795   3 
   2  -4   6 12903.3 377.859   3 
   2   4   6 13329.1 606.005   3 
   2   4  -6 13420.6 550.016   4 
   2   4  -7 29236.4 877.205   4 
   2  -4   7 29453.9 608.889   3 
   2   4   7 27161.9 931.743   3 
   2   4  -8 49224.1 1235.07   4 
   2  -4   8 46757.0 848.306   3 
   2   4   8 47566.3 1302.03   3 
   2   4  -8 46702.1 1104.31   5 
   2   4  -9 6047.29 221.414   1 
   2   4  -9 6167.31 361.096   5 
   2   4   9 6240.70 370.653   5 
   2  -4   9 6097.66 260.539   3 
   2   4   9 6265.73 459.972   3 
   2   4  10 2823.53 255.704   5 
   2  -4 -10 3519.77 320.131   4 
   2   4 -10 3033.90 259.673   5 
   2  -4  10 3317.65 199.247   3 
   2   4  10 3044.15 338.983   3 
   2  -4 -11 86291.9 1854.84   4 
   2   4  11 82346.3 1610.83   5 
   2   4 -11 80718.7 1570.53   5 
   2   4  11 82259.6 1941.07   3 
   2  -4  11 83198.4 1371.66   3 
   2   4 -12 28.3809 62.3293   5 
   2   4  12 0.45251 143.668   3 
   2  -4  12 6.44048 72.8625   3 
   2  -4 -12 121.818 98.2558   4 
  -2   4 -12 99.5671 64.9160   3 
   2   4  12-53.8400 70.5169   5 
   2  -4 -13 22087.1 915.546   4 
  -2   4 -13 21621.8 622.677   3 
   2   4  13 23055.0 737.378   5 
   2   4 -13 22544.9 708.338   5 
   2  -4 -13 21078.0 967.603   3 
   2   4 -13 23208.4 970.309   4 
   2  -4  13 21139.4 622.756   3 
   2   4  13 22695.3 980.271   3 
   2   4  14 13292.0 767.123   3 
  -2  -4 -14 12977.9 737.915   3 
   2   4  14 12004.1 521.861   5 
  -2   4 -14 13793.9 501.877   3 
   2  -4 -14 13758.9 789.697   3 
   2   4 -14 13325.4 525.343   5 
   2  -4  14 13045.8 488.170   3 
   2  -4 -14 13959.8 741.589   4 
   2   4 -14 13321.6 757.057   4 
   2   4  15 56601.7 1713.77   3 
   2  -4 -15 62143.2 1819.35   3 
  -2   4 -15 59742.1 1235.65   3 
   2  -4 -15 63062.0 1713.35   4 
   2   4 -15 54581.5 1196.28   5 
  -2  -4 -15 60452.7 1719.14   3 
   2   4  15 58176.7 1258.58   5 
   2   4  15 56042.7 1578.98   4 
   2   4  16 4345.36 470.868   3 
   2  -4 -16 5162.48 511.348   3 
  -2   4 -16 4100.38 303.018   3 
  -2  -4 -16 4708.99 476.799   3 
   2   4  16 4284.59 435.288   4 
   2   4  16 4542.44 311.236   5 
   2  -4 -16 3805.43 417.073   4 
   2   4  17 21001.1 1053.22   3 
  -2   4 -17 21244.1 726.601   3 
  -2  -4 -17 22785.7 1062.95   3 
   2   4  17 20505.6 989.002   4 
   2   4  18 437.150 206.242   4 
  -2   4 -18 350.893 108.257   3 
   2   4  18-68.2697 172.588   3 
  -2  -4 -18-15.5939 132.174   3 
   2   4  19 2409.38 380.437   4 
   2  -4 -19 2511.80 183.697   5 
  -2   4 -19 2318.63 248.446   3 
   2   4  19 1907.53 343.715   3 
   2  -4  20 8990.17 740.253   4 
   2  -4  20 9416.34 361.845   5 
   2   4  20 10346.0 745.731   4 
  -2   4 -20 9205.52 512.816   3 
   2   4  20 8847.80 719.608   3 
   2  -4 -20 8920.57 308.392   5 
   2  -4  21 2093.75 142.110   5 
  -2   4 -21 1853.09 243.602   3 
   2   4 -21 2159.31 328.191   3 
   2   4  21 2613.77 410.254   3 
   2   4  21 2359.84 398.446   4 
   2  -4  21 1985.12 376.110   4 
   2   4 -22 14649.9 818.693   3 
  -2   4 -22 15444.1 709.881   3 
   2  -4  22 16146.6 1065.94   4 
   2   4  22 13833.8 927.263   4 
   2  -4  23 3558.37 528.672   4 
   2   4 -23 3933.18 454.161   3 
   2   4  23 3740.39 514.206   4 
   2   4  24 5091.94 598.564   4 
   2  -4  24 5038.47 630.629   4 
   2  -4  25 2767.63 493.235   4 
   2   4  25 3230.87 498.337   4 
   2   4  26 266.606 254.432   4 
   2  -4  26 381.747 262.115   4 
   2  -4  27 7457.06 822.579   4 
   2   4  27 7479.62 793.838   4 
   2  -4  28 5061.52 733.810   4 
   2   4  28 4536.86 661.250   4 
   2  -4  29 30032.6 1721.28   4 
   2   4  29 28451.6 1624.81   4 
   2   4  30 7826.93 875.214   4 
   2   4  31 1522.63 469.587   4 
  -2  -5   0 31788.7 884.874   3 
   2  -5   0 24599.7 853.215   1 
   2   5   0 29278.5 861.864   3 
   2  -5   0 25364.4 844.674   2 
   2   5   0 31298.9 902.847   5 
   2  -5   1 68.3334 94.3030   2 
   2  -5   1 142.975 115.217   1 
   2  -5  -1 114.078 88.0573   2 
   2   5  -1 86.0994 102.430   3 
   2   5   1 104.081 108.507   3 
   2   5   1 212.701 126.207   5 
   2   5  -1 359.793 150.549   5 
   2  -5  -1 63.5677 92.6850   1 
  -2  -5  -1 107.303 70.1865   2 
  -2  -5  -2 138453. 2036.65   2 
   2   5   2 139633. 2396.22   3 
   2  -5   2 135096. 2414.03   2 
   2  -5   2 141858. 2475.35   1 
   2   5  -2 136935. 2292.33   3 
   2   5   2 144832. 2409.86   5 
   2   5  -2 147249. 2417.50   5 
   2   5  -3 135934. 2247.24   3 
   2   5  -3 140904. 2366.27   5 
   2   5   3 140440. 2376.57   5 
   2  -5   3 136515. 2425.52   1 
   2   5   3 136046. 2391.47   3 
   2   5   3 137257. 2035.89   2 
   2   5  -3 136879. 2082.81   4 
   2   5  -4 4708.26 343.035   5 
   2   5   4 4913.50 351.066   5 
   2   5  -4 4774.87 289.508   4 
   2   5   4 4237.45 344.000   3 
   2   5   4 4372.03 254.286   2 
   2   5  -5 10494.9 453.224   4 
   2   5   5 9751.76 495.248   5 
   2   5   5 9355.79 523.032   3 
   2   5  -5 9891.49 498.179   5 
  -2  -5   5 8770.84 260.167   1 
   2   5  -6 63842.6 1364.12   4 
   2   5   6 66270.6 1444.60   5 
   2   5   6 66020.3 1559.17   3 
   2   5  -6 63973.9 1417.69   5 
   2   5   7 114003. 2083.82   5 
   2  -5   7 112732. 1581.92   3 
   2   5   7 110586. 2244.97   3 
   2   5  -7 115863. 2075.13   5 
   2   5  -7 116265. 2070.17   4 
   2   5  -8 1751.20 224.649   4 
   2   5   8 1907.79 235.505   5 
   2  -5   8 2482.35 139.503   3 
   2   5  -8 1639.96 212.672   5 
   2   5   8 1578.08 251.603   3 
   2   5   9 124756. 2202.47   5 
   2   5  -9 120283. 1684.79   1 
   2   5   9 125175. 2479.59   3 
   2  -5   9 121573. 1670.48   3 
   2   5  -9 124055. 2179.62   5 
   2   5  -9 126418. 2312.69   4 
   2   5  10 4290.76 405.268   3 
   2  -5 -10 3190.49 310.599   4 
   2   5 -10 3886.21 201.668   1 
   2   5 -10 3841.53 304.950   5 
   2   5  10 3926.77 313.348   5 
   2  -5  10 2797.94 156.865   3 
   2  -5  11 6475.04 251.498   3 
   2  -5 -11 6390.93 450.029   4 
   2   5  11 6420.48 404.618   5 
   2   5 -11 6580.95 288.408   1 
   2   5 -11 6074.36 387.381   5 
   2   5  11 6117.79 499.320   3 
   2  -5  12 12125.1 370.334   3 
   2   5 -12 10548.2 510.354   5 
   2  -5 -12 12172.2 635.515   4 
   2   5  12 11606.6 540.652   5 
   2   5  12 11782.5 701.848   3 
   2  -5 -13 4702.02 414.171   4 
   2   5  13 5632.17 373.422   5 
  -2  -5 -13 5206.63 473.962   3 
   2   5  13 4854.11 471.279   3 
   2   5 -13 4809.59 340.630   5 
   2   5 -13 5396.61 461.371   4 
   2   5  13 5007.88 398.250   4 
   2   5  14 11681.2 738.883   3 
   2  -5 -14 12024.8 681.338   4 
   2  -5 -14 13320.4 797.462   3 
   2   5 -14 10963.8 514.409   5 
   2   5  14 11327.6 626.300   4 
  -2  -5 -14 12971.9 759.800   3 
   2   5  14 11925.4 549.286   5 
   2   5  15 19445.6 989.839   3 
  -2  -5 -15 19201.7 957.698   3 
   2  -5 -15 19380.6 1003.83   3 
   2   5  15 18556.6 692.628   5 
   2  -5 -15 19931.9 915.011   4 
   2   5  15 18573.0 852.357   4 
   2   5  16 4061.10 470.081   3 
  -2   5 -16 4596.49 282.713   3 
   2   5  16 4334.06 430.594   4 
  -2  -5 -16 4905.34 504.589   3 
   2  -5 -16 5001.49 477.723   4 
  -2   5 -17 20514.9 635.691   3 
   2   5  17 18395.7 1012.10   3 
   2   5  17 17752.7 895.250   4 
   2   5  18 1720.50 305.971   4 
  -2   5 -18 1821.72 199.804   3 
   2   5  18 1363.15 306.490   3 
   2   5  19 120.990 161.471   4 
  -2   5 -19 450.665 125.678   3 
   2   5  19-95.8156 190.327   3 
   2  -5 -19 231.894 80.4423   5 
  -2   5 -20 281.247 119.802   3 
   2   5  20-35.9061 214.992   3 
   2  -5  20 231.418 95.3092   5 
   2  -5 -20 281.506 86.7924   5 
   2  -5  20-217.897 223.910   4 
   2   5  20 288.141 218.047   4 
   2   5  21 25583.7 1217.24   4 
  -2   5 -21 27471.0 863.415   3 
   2   5  21 25197.0 1296.20   3 
   2  -5 -21 25180.0 609.119   5 
   2  -5  21 25780.6 1304.51   4 
   2  -5  21 25518.7 676.876   5 
   2   5  22 294.101 165.249   4 
   2  -5  22-6.61122 183.756   4 
   2   5 -22-180.881 122.856   3 
   2   5  22-222.107 192.097   3 
   2  -5  22 42.8975 50.8658   5 
   2  -5  23 3310.71 503.854   4 
   2   5  23 3015.00 456.595   4 
   2  -5  24 474.065 287.146   4 
   2   5  24 417.532 269.996   4 
   2   5  25 2357.48 453.069   4 
   2  -5  25 2191.46 456.352   4 
   2  -5  26 997.690 370.037   4 
   2   5  26 1045.20 338.261   4 
   2  -5  27 1101.87 371.982   4 
   2   5  27 1026.48 329.336   4 
   2  -5  28 1119.39 424.407   4 
   2   5  28 648.141 327.961   4 
   2   5  29 440.603 347.500   4 
   2  -5  29 615.298 360.704   4 
   2   5  30 862.206 412.058   4 
   2   5  31 892.801 327.385   4 
   2   6   0 82313.2 1683.25   3 
   2   6   0 84337.7 1761.78   5 
  -2  -6   0 84331.0 1695.99   3 
   2  -6   0 84129.4 1795.90   2 
   2  -6   0 84618.8 1818.36   1 
   2   6   1 29042.2 931.170   5 
  -2  -6  -1 28090.6 884.427   3 
   2   6  -1 27715.7 904.953   5 
   2   6  -1 26663.0 851.526   3 
   2   6   1 28758.1 895.688   3 
   2  -6   1 28529.4 960.263   1 
   2  -6  -1 28555.2 958.473   1 
   2  -6   1 28845.5 948.764   2 
  -2  -6  -1 27096.6 731.579   2 
   2  -6  -1 28758.4 950.338   2 
  -2  -6  -2 518.017 139.503   3 
   2   6  -2 608.464 91.1018   4 
   2   6  -2 529.729 130.077   3 
   2  -6  -2 703.544 156.470   2 
   2   6   2 412.951 141.468   5 
   2   6  -2 672.533 160.254   5 
   2   6   2 498.612 156.925   3 
   2  -6   2 723.600 167.808   2 
   2  -6   2 756.820 168.256   1 
  -2  -6  -2 632.575 113.313   2 
   2   6  -3 357.209 113.538   5 
   2   6  -3 507.941 103.222   4 
   2  -6   3 523.814 170.662   1 
   2   6  -3 493.387 134.033   3 
   2   6   3 270.958 115.243   5 
   2   6   3 301.774 119.858   3 
   2   6   4 8445.22 402.189   2 
   2   6  -4 7951.70 471.164   5 
   2   6  -4 8376.51 428.977   3 
   2   6   4 8571.93 514.190   3 
   2   6   4 7837.25 475.058   5 
   2   6  -4 8043.85 379.211   4 
   2   6   5 27528.8 908.582   5 
   2   6  -5 27059.3 807.796   3 
   2   6  -5 26101.8 885.552   5 
   2   6   5 25579.8 935.317   3 
  -2  -6   5 25944.6 596.022   1 
   2   6  -5 27236.7 774.650   4 
   2   6   5 27781.0 776.168   2 
   2   6   6 7034.12 387.765   2 
   2   6  -6 7139.67 445.750   5 
  -2  -6   6 6896.27 260.030   1 
   2   6   6 6522.87 470.805   3 
   2   6   6 6972.48 446.399   5 
   2   6  -6 7181.71 402.946   4 
   2   6   7 43960.9 1198.51   5 
   2   6  -7 46673.2 1147.16   4 
   2  -6   7 42100.7 716.185   3 
   2   6   7 42778.8 1293.41   3 
   2   6  -7 43498.6 1181.65   5 
   2   6  -8 94.1623 76.9185   4 
   2  -6   8 216.522 37.2841   3 
   2   6  -8 59.9748 98.6073   5 
   2   6   9 7596.97 468.247   5 
   2   6  -9 7288.05 453.768   5 
   2   6   9 6998.14 524.986   3 
   2   6  -9 7827.86 481.114   4 
   2  -6 -10 31779.9 1001.07   4 
   2   6  10 30803.0 977.556   5 
   2   6 -10 29729.7 952.648   5 
   2   6  10 30673.6 1142.36   3 
   2  -6 -11 4817.14 389.083   4 
   2   6 -11 5152.13 379.567   5 
   2   6  11 5363.97 485.699   3 
   2   6 -11 5161.12 265.463   1 
   2   6  11 5909.04 419.395   5 
   2  -6 -12 4677.43 402.754   4 
  -2  -6 -12 5112.92 466.847   3 
   2   6  12 5402.33 387.193   4 
   2   6  12 6070.70 417.322   5 
   2   6 -12 5911.58 402.472   5 
   2   6 -12 5402.58 286.743   1 
   2   6  12 5136.79 479.898   3 
   2   6  13 9316.42 671.137   3 
   2   6 -13 9538.30 406.908   1 
   2   6 -13 9231.00 505.748   5 
  -2  -6 -13 10124.7 674.899   3 
   2   6  13 9358.45 521.017   5 
   2  -6 -13 9553.17 592.409   4 
   2  -6 -13 10229.6 703.745   3 
   2   6  13 9169.56 531.872   4 
   2   6  14 8363.09 651.069   3 
   2   6  14 9156.60 551.093   4 
   2  -6 -14 9102.60 687.546   3 
  -2  -6 -14 9875.45 683.139   3 
   2   6  14 9611.30 523.931   5 
   2   6 -14 10042.7 436.001   1 
   2  -6 -14 8522.01 577.316   4 
   2   6  15-143.417 105.198   4 
   2   6  15-131.160 173.655   3 
   2  -6 -15 234.485 179.828   4 
  -2  -6 -15 171.539 223.116   3 
   2   6 -15 64.3517 102.770   1 
   2   6  16 56309.6 1846.05   3 
   2   6  16 55081.9 1581.17   4 
   2   6  17 337.596 230.374   4 
   2   6  17 390.353 233.265   3 
   2   6  18 38852.7 1574.93   3 
   2   6  18 37336.7 1350.50   4 
   2   6  19 8373.53 739.669   3 
   2   6  19 8502.20 648.846   4 
   2  -6 -19 9029.39 446.914   5 
   2  -6  20 443.332 116.197   5 
   2   6  20-160.809 246.234   3 
   2  -6 -20 166.969 81.1277   5 
   2   6  20-6.20422 174.497   4 
   2  -6  20 176.410 178.643   4 
   2   6  21 699.122 270.082   4 
   2  -6  21 712.233 306.049   4 
   2   6  21 528.808 301.533   3 
   2  -6 -21 317.140 95.8910   5 
   2  -6  21 285.108 110.713   5 
   2  -6  22 2545.23 415.680   4 
   2   6  22 2427.30 413.220   4 
   2  -6  22 2915.15 230.521   5 
   2   6  23 8815.55 760.272   4 
   2  -6  23 7823.82 814.763   4 
   2  -6  24 26705.6 1459.98   4 
   2   6  24 25757.6 1333.29   4 
   2  -6  25 6548.60 750.923   4 
   2   6  25 6943.83 729.276   4 
   2  -6  26 73.7900 291.668   4 
   2   6  26 275.619 253.701   4 
   2  -6  27 167.855 232.009   4 
   2   6  27 506.386 313.064   4 
   2   6  28 1995.30 445.451   4 
   2  -6  28 1467.55 424.718   4 
   2   6  29 3259.15 569.726   4 
   2   6  30 14324.4 1144.69   4 
   2   6  31 664.454 313.792   4 
   2   7   0 14019.1 370.631   4 
   2   7   0 15002.8 689.659   5 
   2  -7   0 14743.4 703.724   2 
   2   7   0 12940.5 597.245   3 
  -2  -7   0 12455.8 523.166   2 
   2  -7   0 15700.9 726.924   1 
  -2  -7   0 13916.3 620.538   3 
   2   7  -1 21250.0 521.208   4 
  -2  -7  -1 21730.8 803.175   3 
   2  -7   1 22636.2 887.060   1 
   2   7  -1 20532.2 823.077   5 
   2   7   1 20500.0 784.454   3 
   2   7   1 21386.1 836.221   5 
   2   7  -1 20329.3 750.430   3 
   2  -7   1 24275.1 913.133   2 
  -2  -7  -1 20187.7 677.790   2 
   2  -7  -1 23056.6 884.736   2 
   2  -7  -1 24370.8 915.840   1 
  -2  -7   1 20884.8 756.066   3 
   2   7  -2 10481.0 374.767   4 
  -2  -7  -2 10335.9 550.898   3 
   2   7  -2 10253.1 566.065   5 
   2  -7   2 8163.73 536.083   1 
   2   7  -2 9918.35 505.032   3 
   2   7   2 10850.5 570.232   3 
   2  -7   2 9002.64 549.859   2 
  -2  -7  -2 10313.1 464.110   2 
   2   7   2 10897.8 586.658   5 
   2  -7  -2 8901.07 547.995   2 
   2   7  -3 10453.9 401.684   4 
   2   7  -3 10087.9 508.051   3 
  -2  -7  -3 11496.4 593.342   3 
   2   7  -3 9570.59 551.901   5 
   2   7   3 10359.4 577.343   5 
   2  -7   3 8523.87 546.861   1 
   2   7   3 10148.5 573.039   3 
   2   7  -4 18154.0 681.087   3 
   2   7   4 19846.6 806.918   5 
   2  -7  -4 21196.9 817.288   3 
   2   7  -4 18963.8 604.881   4 
   2   7   4 19078.3 806.841   3 
   2   7  -4 19241.3 796.074   5 
   2   7   4 18527.7 662.366   2 
   2  -7   4 21147.2 852.190   1 
   2   7  -5 39078.8 1023.43   3 
   2  -7  -5 41550.8 1214.45   3 
   2   7  -5 40542.5 1185.62   5 
   2   7  -5 40436.3 979.649   4 
   2   7   5 39437.0 1218.91   3 
  -2  -7   5 39000.4 855.275   1 
   2   7   5 39278.1 1035.11   2 
   2   7   5 40707.8 1193.48   5 
   2   7   6 5425.10 365.089   2 
   2  -7  -6 5559.74 440.509   3 
   2   7  -6 5210.62 342.829   3 
   2   7   6 5570.63 423.780   5 
   2   7   6 5518.02 444.109   3 
   2   7  -6 5359.10 406.643   5 
   2   7  -6 5437.10 345.466   4 
  -2  -7   6 5294.29 266.751   1 
   2   7  -7 57.9973 104.852   3 
   2   7   7 90.8995 109.097   5 
   2   7   7 126.517 118.239   2 
   2   7   7 142.481 168.195   3 
   2   7  -7 206.372 79.2294   4 
   2   7  -7 86.3123 99.1875   5 
   2   7   8 171.691 114.614   3 
   2   7   8 385.515 134.750   5 
   2   7  -8 367.550 108.127   4 
   2   7  -8 359.886 145.275   5 
   2   7   9 11932.3 620.951   5 
   2   7  -9 11784.0 609.262   5 
   2   7  -9 12381.8 613.572   4 
   2   7   9 13083.3 742.747   3 
   2  -7 -10 9294.61 522.018   4 
   2   7  10 9909.56 564.995   5 
   2   7  10 9587.50 456.738   4 
   2   7  10 9430.95 650.114   3 
   2   7 -10 10477.8 572.243   5 
   2  -7 -11 14711.9 693.240   4 
   2   7  11 17149.1 887.767   3 
   2   7  11 16718.4 749.829   5 
   2   7 -11 16520.4 723.947   5 
   2   7  11 15687.6 624.175   4 
   2   7  12 840.668 161.231   4 
   2   7  12 908.404 229.396   3 
   2   7  12 931.743 188.817   5 
  -2  -7 -12 1133.46 244.758   3 
   2  -7 -12 1273.92 209.315   4 
   2   7 -12 1052.16 198.040   5 
   2  -7 -13 10180.9 716.370   3 
   2  -7 -13 9311.95 579.916   4 
  -2  -7 -13 11340.1 734.820   3 
   2   7 -13 10934.5 449.246   1 
   2   7  13 10845.4 742.031   3 
   2   7  13 10913.9 567.272   4 
   2   7  14 241.287 180.223   3 
   2   7  14 314.741 155.779   4 
   2   7 -14 220.462 82.6872   1 
  -2  -7 -14 463.498 186.537   3 
   2  -7 -14 167.106 130.249   4 
   2   7  15 41142.5 1556.46   3 
   2   7  15 38867.5 1233.57   4 
   2   7 -15 41850.2 1031.86   1 
   2  -7 -15 39996.4 1328.02   4 
   2   7  16 368.501 168.213   4 
   2  -7 -16 340.460 152.010   4 
   2   7 -16 329.623 121.937   1 
   2   7  16 626.982 302.063   3 
   2   7  17 8981.49 611.027   4 
   2   7 -17 9981.83 509.394   1 
   2   7  17 9316.46 757.675   3 
   2   7  18 9269.62 777.387   3 
   2  -7 -18 9247.58 511.648   5 
   2   7  18 9466.75 661.467   4 
   2   7 -18 10352.2 538.103   1 
   2   7  19 520.952 181.184   4 
   2  -7  19 902.029 177.585   5 
   2  -7 -19 578.102 141.992   5 
   2   7 -19 440.836 155.234   1 
   2   7  19 859.427 268.095   3 
   2   7 -20 10535.2 581.518   1 
   2   7  20 9706.24 835.199   3 
   2   7 -20 11029.0 611.629   3 
   2   7  20 10628.7 742.290   4 
   2  -7 -20 10777.4 520.108   5 
   2  -7  20 11135.8 553.920   5 
   2  -7  20 10552.1 826.569   4 
   2   7  21 12187.1 815.100   4 
   2   7 -21 12565.2 647.389   1 
   2   7  21 12259.2 939.664   3 
   2  -7 -21 10733.8 503.730   5 
   2  -7  21 10395.3 848.330   4 
   2  -7  21 12076.0 562.890   5 
   2  -7  22 72.8618 214.612   4 
   2   7  22 264.296 183.026   4 
   2  -7  22 354.593 115.938   5 
   2  -7 -22 496.545 117.546   5 
   2   7  22 311.672 250.428   3 
   2  -7  23 698.659 281.522   4 
   2   7  23 1137.94 325.808   4 
   2  -7  24 4562.96 623.749   4 
   2   7  24 4725.56 597.276   4 
   2  -7  25 8341.62 836.782   4 
   2   7  25 8888.42 796.592   4 
   2   7  26 763.238 242.458   4 
   2  -7  26 1152.13 329.752   4 
   2   7  27 314.274 228.659   4 
   2  -7  27 342.021 224.554   4 
   2   7  28 682.911 309.492   4 
   2  -7  28 276.810 218.422   4 
   2   7  29 213.646 256.105   4 
   2  -8   0 116074. 2374.83   2 
  -2  -8   0 111827. 2144.21   3 
   2  -8   0 114456. 2029.12   3 
   2   8   0 112916. 2299.87   5 
   2   8   0 108543. 2131.71   3 
   2  -8   0 113638. 2354.41   1 
  -2  -8   0 103901. 1992.83   2 
   2   8   0 107817. 1522.88   4 
   2  -8   1 31378.7 882.903   3 
   2  -8   1 35735.3 1184.09   2 
  -2  -8   1 32030.7 983.936   3 
   2  -8  -1 30873.7 950.638   3 
   2   8  -1 30976.5 977.518   3 
   2  -8  -1 31679.9 1122.36   1 
   2   8   1 30754.8 1020.99   3 
  -2  -8  -1 30904.8 927.216   2 
  -2  -8  -1 31405.5 1013.62   3 
   2  -8   1 31750.4 1118.88   1 
   2   8   1 31160.5 1081.30   5 
   2   8  -1 30625.4 1069.03   5 
   2   8   1 29937.5 535.581   4 
   2  -8  -1 31881.6 1126.20   2 
   2   8  -1 31655.6 648.625   4 
   2  -8  -2 13881.5 726.076   2 
   2  -8   2 14543.5 544.282   3 
   2  -8  -2 14104.9 643.383   3 
  -2  -8  -2 12888.6 646.418   3 
   2   8  -2 12397.7 666.036   5 
   2   8  -2 13132.6 419.516   4 
   2   8  -2 11993.7 576.198   3 
   2   8   2 11934.3 647.375   5 
   2  -8   2 13794.1 724.520   1 
   2  -8   2 14503.4 745.129   2 
   2   8   2 12524.1 643.205   3 
  -2  -8  -2 11778.9 543.231   2 
   2   8  -3 144.454 111.174   5 
   2  -8   3 340.766 102.522   3 
  -2  -8  -3-84.7975 114.759   3 
   2  -8  -3 399.198 162.302   3 
   2   8  -3-81.8076 137.848   3 
   2   8  -3 62.5739 72.1070   4 
   2  -8   3 298.518 158.192   1 
   2   8   3 74.4883 112.037   3 
   2   8   3-26.7893 131.312   5 
   2   8  -4 48606.4 1379.23   5 
   2  -8  -4 47085.6 1322.98   3 
   2   8  -4 46405.8 1025.65   4 
   2   8  -4 46932.6 1191.51   3 
  -2  -8  -4 48671.4 1368.55   3 
   2   8   4 47437.4 1374.03   5 
   2   8   4 45923.8 1186.44   2 
   2   8   4 47528.6 1371.47   3 
   2  -8   4 49631.7 1437.70   1 
   2  -8   4 45758.8 974.315   3 
   2  -8   5 28955.7 1066.25   1 
   2  -8  -5 29752.4 1041.69   3 
   2   8  -5 28530.5 882.798   3 
   2   8  -5 28234.6 1023.20   5 
   2   8   5 27814.9 1058.32   3 
   2   8  -5 28889.3 809.296   4 
  -2  -8   5 28376.4 768.686   1 
   2   8   5 28289.7 906.571   2 
   2  -8   5 27841.4 665.820   3 
   2   8   5 28821.9 1034.71   5 
   2   8  -6 106350. 2228.20   5 
   2  -8   6 100404. 1534.26   3 
   2   8  -6 107811. 1964.07   3 
   2   8   6 107017. 2231.92   5 
   2  -8  -6 104269. 2263.09   3 
   2   8   6 106022. 2056.83   2 
   2   8   6 105853. 2309.96   3 
  -2  -8   6 106190. 1760.34   1 
   2   8   6 105050. 1525.54   4 
   2  -8   7 5688.11 205.922   3 
  -2  -8   7 5518.01 298.256   1 
   2   8  -7 5250.38 362.127   3 
   2   8   7 5121.30 259.997   4 
   2   8   7 5062.58 391.190   2 
   2   8   7 5071.06 468.427   3 
   2   8  -7 5694.22 456.954   5 
   2   8   7 5060.63 438.279   5 
   2   8  -8 60171.6 1570.59   5 
   2   8  -8 58935.4 1326.41   3 
   2  -8  -8 60920.8 1697.13   3 
   2   8   8 59470.2 1127.66   4 
   2   8   8 58465.9 1690.13   3 
   2   8   8 59447.8 1576.90   5 
   2   8   8 58052.5 1484.89   2 
   2   8  -9 601.197 144.588   3 
   2  -8  -9 659.740 207.221   3 
   2   8   9 397.299 201.916   3 
   2   8   9 119.768 114.216   5 
   2   8   9 620.282 119.855   4 
   2   8  -9 42.7719 126.277   5 
   2  -8 -10 9076.03 514.078   4 
   2   8 -10 8910.91 562.153   5 
   2   8  10 8802.59 557.667   5 
   2   8  10 9734.30 681.011   3 
   2   8  10 8761.36 422.563   4 
   2  -8 -11 23886.1 1091.07   3 
   2   8  11 22381.7 920.526   5 
   2   8  11 22087.8 741.642   4 
   2  -8 -11 23182.5 872.607   4 
   2   8  11 21666.4 1046.13   3 
   2   8  12 25529.5 1156.93   3 
   2  -8 -12 24140.9 1130.35   3 
   2  -8 -12 25082.6 936.974   4 
  -2  -8 -12 25477.7 1139.66   3 
  -2   8 -12 25762.0 1132.06   1 
   2   8  12 24084.1 820.513   4 
   2   8  13 3020.60 438.858   3 
   2  -8 -13 3125.19 349.857   4 
   2   8  13 3308.20 314.409   4 
  -2   8 -13 3224.24 428.755   1 
   2   8  14 19697.4 803.079   4 
   2  -8 -14 18796.8 852.530   4 
  -2   8 -14 18430.5 981.288   1 
   2   8  14 20051.0 1068.95   3 
   2   8  15 5722.80 462.001   4 
   2   8  15 5670.98 598.529   3 
   2   8 -15 4687.07 327.971   1 
  -2   8 -15 6721.74 621.008   1 
  -2  -8  15 5870.83 552.154   4 
   2  -8 -15 6512.25 522.036   4 
   2   8  16 6874.62 671.953   3 
   2   8  16 6899.34 517.114   4 
  -2   8 -16 7461.70 651.701   1 
   2   8 -16 6694.33 404.187   1 
   2  -8 -16 7619.47 572.721   4 
   2   8  17 661.669 217.196   4 
   2   8 -17 338.511 113.735   1 
   2   8  17 147.664 195.235   3 
  -2   8 -17 828.416 287.295   1 
   2   8  18 135.439 195.626   3 
   2   8  18 157.410 191.075   4 
   2   8 -18 56.9070 98.9112   1 
   2   8  19 5655.37 638.429   3 
   2  -8 -19 6058.44 435.468   5 
   2  -8  19 6492.89 462.174   5 
   2   8  19 5265.29 516.457   4 
   2   8 -19 5991.62 425.209   1 
   2   8 -20 7799.99 500.629   1 
   2   8  20 7763.90 779.269   3 
   2  -8  20 7939.69 507.035   5 
   2   8 -20 7369.02 479.043   3 
   2  -8  20 7895.17 732.319   4 
   2  -8 -20 8533.22 502.149   5 
   2   8  20 7304.19 624.311   4 
   2  -8  21 109.835 191.870   4 
   2  -8  21 59.1962 138.532   5 
   2   8  21 381.809 248.039   4 
   2   8  21 212.671 235.518   3 
   2   8 -21 110.956 139.034   1 
   2  -8 -21 188.020 113.592   5 
   2   8  22 129.762 188.304   4 
   2  -8 -22 152.765 96.2914   5 
   2   8  22 82.1582 181.340   3 
   2  -8  22-116.215 243.537   4 
   2  -8  22-27.8923 93.3671   5 
   2   8  23 824.800 267.919   4 
   2  -8  23 439.514 215.566   4 
   2   8  24 11507.2 877.580   4 
   2  -8  24 11476.3 969.989   4 
   2  -8  25 4405.05 631.674   4 
   2   8  25 3143.05 493.654   4 
   2  -8  26 373.619 299.820   4 
   2   8  26-6.09120 250.701   4 
   2  -8  27 64.1030 229.529   4 
   2   8  27-206.130 282.923   4 
   2  -8  28-456.316 322.611   4 
   2  -9   0 1907.84 291.461   2 
   2  -9   0 2130.65 310.760   1 
   2  -9   0 2332.31 257.088   3 
   2   9   0 2520.99 298.391   3 
   2   9   0 2153.52 289.012   5 
  -2  -9   0 1969.17 240.929   2 
  -2  -9   0 1891.01 257.087   3 
   2  -9   1 15270.0 617.001   3 
   2  -9  -1 14118.3 645.847   3 
  -2  -9   1 15050.1 686.278   3 
  -2  -9  -1 14763.7 706.413   3 
   2  -9   1 14440.9 778.945   1 
   2   9  -1 15110.3 778.574   5 
   2   9   1 15900.7 789.892   5 
   2  -9  -1 15559.3 801.174   1 
   2   9  -1 14858.8 684.204   3 
   2   9   1 15382.9 722.896   3 
   2  -9   1 14517.8 785.478   2 
  -2  -9  -1 14293.9 653.080   2 
   2  -9  -1 14437.4 779.416   2 
   2  -9  -2 38810.3 1321.99   2 
   2  -9   2 36611.2 974.669   3 
   2  -9  -2 39091.4 1155.27   3 
  -2  -9   2 39528.2 1136.93   3 
  -2  -9  -2 39440.8 1218.70   3 
   2   9  -2 40363.4 1148.95   3 
   2  -9   2 36299.8 1285.83   2 
  -2  -9  -2 36682.7 1081.53   2 
   2   9   2 38924.9 1229.34   3 
   2   9   2 40822.8 1308.71   5 
   2   9  -2 41132.7 1312.86   5 
   2  -9   2 36348.4 1276.15   1 
   2  -9   3 6322.47 357.816   3 
   2  -9   3 6883.00 537.618   1 
   2  -9   3 7262.56 562.482   2 
   2   9  -3 7387.16 534.045   5 
   2   9   3 8080.64 553.240   3 
   2   9   3 8369.59 569.610   5 
   2   9  -3 8727.88 496.397   3 
  -2  -9  -3 8545.94 552.867   3 
   2  -9  -3 7500.81 498.506   3 
   2  -9   4 3377.99 239.718   3 
   2   9   4 3005.13 341.680   3 
  -2  -9  -4 2739.89 321.442   3 
   2   9  -4 2463.74 313.477   5 
   2   9  -4 2949.08 287.350   3 
   2   9   4 2550.76 305.906   5 
   2  -9   4 3531.21 375.207   1 
   2  -9  -4 3563.98 353.583   3 
   2  -9   5 7089.77 323.485   3 
   2  -9  -5 7818.57 539.835   3 
   2  -9   5 7570.68 555.667   1 
  -2  -9   5 6334.02 377.744   1 
   2   9   5 6591.15 443.858   2 
   2   9  -5 6487.04 413.931   3 
  -2  -9  -5 6834.87 514.655   3 
   2   9   5 7443.03 544.432   3 
   2   9   5 6956.31 518.289   5 
   2   9  -5 7479.19 535.715   5 
   2   9   6 4270.74 180.798   4 
   2   9   6 4747.80 452.414   3 
   2  -9  -6 4123.17 405.288   3 
   2   9  -6 4032.90 322.758   3 
   2   9  -6 4393.27 420.804   5 
   2   9   6 5067.52 405.748   2 
  -2  -9  -6 4151.94 408.982   3 
   2   9   6 4293.26 413.386   5 
  -2  -9   6 4782.70 322.482   1 
   2  -9   6 4055.39 216.765   3 
   2   9   7 3834.04 197.061   4 
   2   9   7 3199.63 380.176   3 
   2  -9  -7 3134.00 362.423   3 
   2   9  -7 4087.32 402.321   5 
   2   9  -7 3833.38 310.854   3 
  -2  -9   7 3615.08 265.300   1 
   2   9   7 3880.19 391.204   5 
   2   9   7 4079.04 376.138   2 
   2  -9   7 3213.29 165.565   3 
   2   9   8 1346.36 134.906   4 
   2   9   8 1165.15 270.357   3 
   2   9   8 1253.05 216.558   2 
   2  -9  -8 1186.09 226.867   3 
   2   9  -8 1120.68 177.597   3 
   2   9   8 1224.76 236.233   5 
   2   9  -8 1218.63 239.416   5 
  -2   9   9 15841.2 913.869   2 
   2  -9  -9 17309.3 903.782   3 
   2   9  -9 16171.4 635.666   3 
   2   9   9 15112.2 865.785   3 
   2   9   9 16114.3 808.790   5 
   2   9   9 15305.8 507.831   4 
   2   9   9 15119.9 754.077   2 
   2   9  10 560.092 116.077   4 
   2   9  10 485.850 206.696   3 
   2  -9 -10 137.528 97.2508   4 
   2   9 -10 406.524 126.085   3 
   2  -9 -10 47.5931 134.565   3 
  -2   9 -10-16.6778 192.520   1 
  -2  -9 -10 532.644 214.579   3 
   2   9  10 382.665 171.692   2 
   2   9  11 7287.33 401.094   4 
   2  -9 -11 8416.19 514.898   4 
   2   9 -11 7743.06 433.592   3 
  -2  -9 -11 7461.29 607.748   3 
  -2   9 -11 7801.31 625.026   1 
   2   9  11 6832.06 602.944   3 
   2   9  12 2932.14 269.673   4 
   2   9  12 3088.57 418.501   3 
  -2   9 -12 3217.19 414.620   1 
   2  -9 -12 2875.98 323.798   4 
   2   9 -12 2493.19 256.955   3 
   2  -9 -13 7676.96 528.930   4 
   2   9  13 6273.07 601.267   3 
   2   9 -13 6474.31 402.546   3 
  -2   9 -13 8290.65 670.938   1 
   2   9  13 7173.98 443.075   4 
   2   9  14 6563.40 453.469   4 
   2  -9 -14 6468.92 506.822   4 
  -2   9 -14 5447.22 550.987   1 
   2   9  14 6009.39 616.416   3 
   2   9  15 13042.0 667.008   4 
   2   9  15 11900.4 875.435   3 
  -2   9 -15 12600.9 868.508   1 
   2  -9 -15 13376.0 739.954   4 
   2  -9 -16-95.9947 139.733   4 
   2   9  16-16.7929 126.143   4 
   2   9  16 294.815 257.353   3 
  -2   9 -16 96.4448 214.126   1 
   2   9  17 2463.14 318.199   4 
   2   9  17 3259.78 491.425   3 
   2   9 -17 2832.61 278.569   1 
  -2   9 -17 2849.75 424.535   1 
   2   9  18 7198.61 557.212   4 
   2   9  18 8184.28 761.891   3 
  -2   9 -18 6997.53 652.276   1 
   2   9 -18 7173.35 460.516   1 
   2   9  19-52.2135 117.385   4 
   2   9 -19 80.1778 97.0282   1 
   2   9  19 64.7466 196.012   3 
   2  -9  19 187.999 157.695   5 
  -2   9 -19-342.078 294.363   1 
   2   9  20 2152.49 343.827   4 
   2  -9  20 2020.25 279.538   5 
   2   9 -20 2432.44 278.930   1 
  -2   9 -20 2266.45 403.910   1 
   2   9  20 2333.11 431.265   3 
   2  -9  20 2286.87 415.175   4 
  -2   9 -21 6355.66 676.367   1 
   2  -9  21 5701.91 452.593   5 
   2   9  21 5763.99 684.972   3 
   2   9  21 5656.93 552.892   4 
   2  -9  21 6424.18 692.307   4 
   2   9 -21 5646.76 438.667   1 
   2  -9  22-138.131 241.691   4 
   2   9  22-16.1081 153.977   4 
   2   9  22-52.7200 200.108   3 
   2  -9  22-23.6949 116.358   5 
  -2   9 -22 38.6319 202.772   1 
  -2   9 -23 1383.76 381.614   1 
   2   9  23 1429.79 325.241   4 
   2  -9  23 1584.64 382.372   4 
   2   9  24 5503.43 608.796   4 
  -2   9 -24 6603.42 721.561   1 
   2  -9  24 6420.74 751.208   4 
   2  -9  25 161.380 285.646   4 
   2   9  25 209.392 221.448   4 
  -2   9 -25 361.068 243.354   1 
   2  -9  26 283.927 262.067   4 
  -2   9 -26 244.141 245.006   1 
   2  -9  27 120.034 233.962   4 
  -2   9 -27 180.508 216.207   1 
  -2   9 -28 3382.68 589.311   1 
  -2   9 -29 281.970 256.331   1 
   2 -10   0 38248.4 1100.47   3 
   2  10   0 35798.5 1284.24   5 
   2 -10   0 39141.2 1370.32   2 
   2 -10   0 40107.1 1383.67   1 
   2  10   0 34264.3 1147.94   3 
  -2 -10   0 35492.3 1135.26   2 
  -2 -10   0 35649.2 1159.16   3 
  -2 -10   1 15909.6 739.727   3 
   2 -10   1 18487.6 705.062   3 
   2 -10  -1 17740.0 752.966   3 
  -2 -10  -1 16569.9 775.808   3 
   2 -10  -1 17721.0 897.327   2 
  -2 -10  -1 14870.1 710.736   2 
   2 -10  -1 18247.6 910.157   1 
  -2 -10   1 15229.6 727.661   2 
   2  10  -1 16081.8 743.289   3 
   2  10  -1 16040.5 845.438   5 
   2 -10   1 17151.0 901.342   2 
   2  10   1 15899.9 780.124   3 
   2 -10   1 18121.5 907.305   1 
   2  10   1 16367.7 842.343   5 
   2 -10   2 6533.81 397.920   3 
   2 -10  -2 7005.52 565.129   2 
   2 -10  -2 7316.55 491.869   3 
  -2 -10  -2 7135.26 515.130   3 
   2  10  -2 7190.86 484.612   3 
   2 -10   2 7469.12 582.300   2 
   2  10   2 6511.72 507.111   3 
   2  10   2 6193.29 521.907   5 
   2  10  -2 7148.97 553.490   5 
   2 -10   2 8347.18 617.082   1 
  -2 -10   2 7278.80 480.679   3 
  -2 -10  -2 6166.35 445.244   2 
  -2 -10  -3 10086.6 574.844   2 
   2  10   3 10260.9 660.203   5 
   2  10  -3 10193.7 562.331   3 
   2 -10   3 11189.7 708.272   1 
   2 -10  -3 9976.73 600.554   3 
   2 -10   3 9550.89 457.481   3 
  -2 -10  -3 10851.6 645.100   3 
   2 -10   3 9234.35 660.486   2 
   2  10  -3 10632.4 672.263   5 
   2  10   3 9563.79 622.253   3 
   2 -10  -4 7081.16 512.542   3 
   2  10   4 6894.81 536.432   5 
   2 -10   4 7546.15 581.402   1 
   2  10  -4 6320.14 534.086   5 
  -2 -10  -4 6696.99 513.166   3 
   2  10  -4 6120.96 430.578   3 
   2  10   4 6325.15 511.501   3 
   2 -10   4 7456.55 376.069   3 
   2 -10  -5 24607.1 1000.98   3 
   2  10   5 25079.3 1054.54   5 
   2  10  -5 23776.4 1026.52   5 
   2  10   5 22560.2 1004.25   3 
   2  10  -5 22616.8 826.267   3 
  -2 -10   5 20989.5 765.608   1 
  -2 -10  -5 23463.4 1002.79   3 
   2 -10   5 23638.1 655.554   3 
   2 -10   5 23976.1 1049.39   1 
   2  10   6 5007.35 479.102   3 
   2 -10  -6 4653.24 454.244   3 
  -2 -10  -6 4827.33 455.820   3 
   2  10  -6 4880.56 370.278   3 
   2  10   6 4704.77 422.107   2 
  -2 -10   6 4460.54 334.624   1 
   2 -10   6 4571.20 459.299   1 
   2 -10   6 4542.48 247.035   3 
   2  10   6 5037.71 472.030   5 
   2 -10  -7 16660.3 874.384   3 
  -2 -10   7 17864.8 668.975   1 
  -2  10   7 18276.5 983.910   2 
   2  10  -7 17889.9 706.208   3 
  -2 -10  -7 18259.2 912.110   3 
   2 -10   7 15870.6 430.841   3 
   2  10   7 17238.4 810.336   2 
   2  10   7 16477.4 895.845   3 
   2 -10  -8 20944.8 995.573   3 
   2  10  -8 19689.4 732.970   3 
   2  10   8 19115.1 985.536   3 
  -2 -10  -8 21311.2 1008.62   3 
  -2 -10   8 19182.0 678.864   1 
  -2  10  -8 19337.8 992.893   1 
   2  10   8 20363.7 892.092   2 
  -2  10   8 18949.3 1017.26   2 
   2  10  -9 13512.8 593.558   3 
   2  10   9 13728.0 447.149   4 
   2  10   9 14194.4 854.801   3 
  -2 -10  -9 14673.8 848.802   3 
  -2  10  -9 13672.9 840.521   1 
   2 -10  -9 14743.3 854.866   3 
   2  10   9 13233.7 727.598   2 
  -2  10   9 12582.4 847.846   2 
   2  10  10 2013.41 185.285   4 
   2 -10 -10 2304.55 270.564   4 
   2  10  10 1541.38 306.516   3 
   2 -10 -10 1972.89 324.854   3 
   2  10  10 1569.41 261.008   2 
  -2  10  10 1701.78 322.145   2 
  -2  10 -10 2020.02 355.452   1 
   2  10 -10 2132.67 240.296   3 
   2  10  11 4305.54 502.174   3 
   2 -10 -11 5212.75 405.758   4 
  -2  10  11 4725.11 532.750   2 
   2  10 -11 4521.60 334.350   3 
   2  10  11 4865.08 310.457   4 
   2  10  11 4546.14 449.106   2 
  -2  10 -11 4731.32 507.883   1 
   2  10  12 9705.22 751.824   3 
   2 -10 -12 9779.39 576.210   4 
   2  10  12 9534.31 469.516   4 
   2  10  12 8301.99 624.524   2 
  -2  10 -12 9593.35 732.832   1 
   2  10 -12 9968.06 493.517   3 
   2  10  13 6481.77 643.923   3 
   2  10  13 6024.50 401.380   4 
   2  10 -13 6884.40 404.909   3 
   2 -10 -13 6544.36 483.035   4 
  -2  10 -13 6892.50 633.327   1 
  -2  10 -14 10213.3 787.688   1 
   2  10  14 11540.1 868.445   3 
   2  10 -14 10738.6 509.333   3 
   2  10  14 10337.5 554.851   4 
   2 -10 -14 8722.02 576.094   4 
   2  10  15 34619.5 1548.16   3 
   2  10  15 36281.8 1123.80   4 
   2  10 -15 35105.3 977.088   3 
  -2  10 -15 35029.9 1478.29   1 
   2 -10 -15 35484.8 1238.05   4 
   2  10  16 2001.30 282.479   4 
   2 -10 -16 2221.78 326.113   4 
   2  10 -16 2044.86 228.690   3 
   2  10  16 2393.58 426.859   3 
  -2  10 -16 1639.44 361.680   1 
   2 -10 -17 1223.56 234.126   5 
   2  10 -17 1197.03 194.813   3 
   2  10  17 1165.04 330.460   3 
   2 -10 -17 1318.98 260.312   4 
  -2  10 -17 1308.51 330.387   1 
   2  10  17 1078.30 226.587   4 
   2  10  18 1572.80 265.381   4 
   2 -10 -18 1507.33 258.634   5 
   2  10  18 1979.90 403.703   3 
   2  10 -18 1639.70 205.711   3 
   2 -10  18 2080.34 298.417   5 
  -2  10 -18 2174.01 390.972   1 
   2 -10  19 1326.96 242.231   5 
  -2  10 -19 1227.57 302.569   1 
   2  10  19 1531.04 380.158   3 
   2  10  19 1630.14 279.327   4 
   2  10  20 5408.99 524.589   4 
   2  10  20 5259.25 668.180   3 
   2 -10  20 5072.75 582.441   4 
  -2  10 -20 5599.15 652.553   1 
   2 -10  20 6312.14 508.097   5 
   2 -10  21 4130.28 406.759   5 
   2 -10  21 3080.94 481.842   4 
  -2  10 -21 3766.70 547.138   1 
   2  10  21 3445.56 573.463   3 
   2  10 -21 3861.36 363.394   1 
   2  10  21 3603.92 437.837   4 
   2 -10  22 1107.57 214.761   5 
   2 -10  22 806.524 277.829   4 
  -2  10 -22 1279.56 346.189   1 
   2  10  22 643.827 202.826   3 
  -2  10 -23 116.298 224.689   1 
   2 -10  23 423.819 265.633   4 
   2 -10  24 6314.11 749.673   4 
  -2  10 -24 7708.08 792.717   1 
   2 -10  25 3881.55 612.626   4 
  -2  10 -25 3351.07 548.856   1 
   2 -10  26 4670.41 660.862   4 
  -2  10 -26 4724.07 656.022   1 
   2 -10  27 1735.60 445.835   4 
  -2  10 -27 2149.78 473.338   1 
  -2  10 -28 405.946 287.608   1 
  -2 -11   0 52666.5 1476.66   3 
   2 -11   0 48564.3 1638.22   2 
   2 -11   0 48900.5 1626.19   1 
  -2 -11   0 52559.1 1493.05   2 
   2  11   0 52102.2 1480.70   3 
   2 -11   0 48549.9 1331.29   3 
  -2 -11   1 7182.07 502.994   3 
  -2 -11  -1 6506.24 498.790   3 
   2 -11  -1 6224.30 559.685   1 
  -2 -11   1 5748.72 474.007   2 
   2  11  -1 6329.59 482.913   3 
   2 -11   1 5830.77 549.019   2 
   2 -11   1 5724.80 525.821   1 
   2  11   1 5845.78 487.750   3 
  -2 -11  -1 6358.50 488.746   2 
   2 -11  -1 6122.89 453.685   3 
   2 -11  -1 5957.16 548.622   2 
   2 -11   1 5865.70 411.404   3 
   2 -11  -2 4053.32 456.923   2 
   2  11   2 3011.65 354.825   3 
  -2 -11   2 3776.33 363.430   3 
   2 -11  -2 4247.86 394.913   3 
  -2 -11  -2 4054.16 407.024   3 
   2 -11   2 3994.67 449.485   1 
   2  11  -2 3689.69 368.310   3 
   2 -11   2 3601.75 422.566   2 
  -2 -11  -2 3289.61 342.880   2 
   2 -11   2 3858.61 319.162   3 
   2 -11  -3 19535.6 879.062   3 
  -2 -11  -3 19333.4 854.112   2 
   2 -11   3 18748.0 686.149   3 
  -2 -11  -3 19820.4 912.712   3 
   2  11  -3 19691.8 825.714   3 
   2 -11   3 20203.3 1011.81   2 
   2 -11   3 18841.5 975.025   1 
   2  11   3 19165.9 920.468   3 
   2 -11  -4 3576.13 389.075   3 
  -2 -11  -4 3919.20 417.151   3 
   2 -11   4 4297.58 477.726   2 
   2 -11   4 4276.03 474.750   1 
   2  11  -4 3737.08 357.540   3 
  -2  11   4 4419.65 502.655   2 
   2  11   4 4178.98 453.393   3 
   2 -11   4 3922.66 283.912   3 
   2 -11  -5 4728.61 459.005   3 
  -2 -11  -5 7263.08 568.749   3 
   2  11  -5 6243.99 443.552   3 
  -2 -11   5 5778.00 415.924   1 
  -2  11   5 4931.06 526.135   2 
   2 -11   5 4837.89 497.861   1 
   2 -11   5 5273.43 311.014   3 
   2  11   5 6947.81 574.548   3 
   2  11   6 244.924 163.371   3 
   2 -11  -6 16.5468 136.562   3 
   2 -11   6 101.721 163.810   1 
  -2 -11   6 174.812 129.994   1 
  -2 -11  -6 175.412 139.986   3 
   2  11   6 243.222 174.088   2 
   2  11  -6 147.994 112.060   3 
   2 -11   6 128.948 56.6770   3 
  -2  11   6-19.8068 179.661   2 
   2 -11  -7 11678.8 746.431   3 
  -2 -11  -7 14830.7 839.549   3 
   2  11  -7 13580.6 625.012   3 
   2 -11   7 11011.8 378.527   3 
   2  11   7 12904.9 725.429   2 
  -2 -11   7 14058.6 628.534   1 
  -2  11   7 10138.1 770.911   2 
   2  11   7 14050.0 853.558   3 
   2 -11  -8 13245.4 814.905   3 
   2 -11   8 10926.4 300.927   3 
  -2 -11  -8 12320.3 790.792   3 
  -2  11   8 12240.6 847.768   2 
   2  11  -8 10961.0 553.363   3 
   2  11   8 11088.4 682.787   2 
  -2 -11   8 11108.4 546.888   1 
   2  11   8 11027.0 765.473   3 
  -2  11  -9 11475.3 790.947   1 
   2  11  -9 11699.6 568.857   3 
   2  11   9 12727.7 749.634   2 
  -2  11   9 10924.8 817.525   2 
   2  11   9 11202.2 802.876   3 
   2  11 -10 7521.69 447.400   3 
  -2  11 -10 8452.45 695.192   1 
  -2  11  10 7910.21 713.381   2 
   2  11  10 7393.77 577.153   2 
   2 -11 -10 8325.98 495.711   4 
   2  11  10 7162.75 647.690   3 
   2  11  11 18417.9 1069.64   3 
  -2  11  11 16186.4 1030.21   2 
   2  11 -11 18206.3 694.444   3 
  -2  11 -11 17134.8 994.145   1 
   2  11  11 18160.0 932.293   2 
   2 -11 -11 17489.9 748.208   4 
   2  11  12 46.2547 174.499   2 
   2 -11 -12 61.8082 121.176   4 
  -2  11 -12-248.624 269.716   1 
   2  11  12 379.096 241.746   3 
  -2  11  12-145.525 260.903   2 
   2  11 -12 50.5295 99.2334   3 
   2 -11 -13 518.562 153.653   4 
   2  11 -13 791.288 146.767   3 
  -2  11 -13 82.0648 195.742   1 
   2  11  13 967.940 292.380   3 
   2  11  13 775.740 241.226   2 
  -2  11  13 262.954 206.392   2 
   2  11 -14 1738.87 201.984   3 
   2 -11 -14 1670.82 250.907   4 
   2  11  14 2166.03 401.895   3 
   2  11  14 1638.52 339.243   2 
  -2  11 -14 1277.93 314.395   1 
   2  11  15 8396.88 783.514   3 
   2  11 -15 7514.03 417.905   3 
  -2  11 -15 7366.88 690.280   1 
   2 -11 -15 8329.68 575.416   4 
   2  11 -16 3646.00 289.753   3 
   2  11  16 3405.66 524.334   3 
   2 -11 -16 4307.88 427.714   4 
  -2  11 -16 4033.03 548.740   1 
   2 -11 -16 3563.96 404.094   5 
  -2  11 -17 6302.91 658.305   1 
   2  11  17 5120.39 656.328   3 
   2 -11 -17 6292.31 532.908   5 
   2 -11  17 5183.04 508.312   5 
   2  11 -17 4782.33 328.681   3 
   2 -11 -17 6832.50 557.708   4 
   2 -11  18 521.507 184.653   5 
   2  11 -18 676.222 136.621   3 
   2  11  18 668.385 294.784   3 
  -2  11 -18 873.408 280.033   1 
   2 -11 -18 498.395 161.677   5 
  -2  11 -19 237.473 194.154   1 
   2  11  19-8.84274 201.437   3 
   2 -11  19 206.039 224.081   4 
   2 -11 -19 39.9805 127.624   5 
   2  11 -19 2.27059 68.4572   3 
   2 -11  19 220.023 141.521   5 
   2 -11  20-19.2213 176.597   4 
  -2  11 -20-276.730 230.428   1 
   2  11  20-492.548 295.196   3 
   2 -11  20 337.595 178.734   5 
   2 -11 -20 37.7137 118.835   5 
  -2  11 -21 125.455 191.658   1 
   2 -11  21-433.348 299.856   4 
   2  11  21 115.402 212.376   3 
   2 -11 -21 197.437 134.934   5 
   2 -11  21 197.884 148.149   5 
   2 -11  22 1160.15 248.286   5 
   2  11  22 757.453 362.257   3 
   2 -11  22 997.555 315.952   4 
  -2  11 -22 1296.07 320.333   1 
  -2  11 -23 8764.44 841.746   1 
   2 -11  23 11657.7 983.810   4 
  -2  11 -24 10.7016 230.561   1 
   2 -11  24-53.0014 256.429   4 
   2 -11  25 7681.60 847.336   4 
  -2  11 -25 5746.01 702.763   1 
   2 -11  26-490.297 282.381   4 
  -2  11 -26-290.682 205.227   1 
  -2  11 -27-532.334 336.179   1 
  -2 -12   0-32.3049 137.161   2 
   2 -12   0-18.3827 87.5896   3 
   2 -12   0-378.540 249.544   2 
  -2 -12   0 255.266 171.002   3 
   2  12   0-3.82067 118.185   3 
   2 -12   0-18.9492 170.818   1 
   2 -12   1 265.706 119.678   3 
   2 -12   1 272.186 204.666   2 
   2 -12   1 212.753 133.502   1 
   2 -12  -1 436.559 173.978   3 
  -2 -12  -1 75.1898 128.298   2 
   2 -12  -1 154.759 147.213   2 
  -2 -12   1 77.1815 134.707   3 
  -2 -12  -1 168.032 163.960   3 
   2  12  -1 304.448 167.838   3 
  -2 -12   1 43.4476 128.544   2 
   2 -12  -1 281.060 174.119   1 
   2  12   1 277.296 160.046   3 
   2 -12  -2 70877.6 2068.24   2 
   2 -12   2 70671.8 2040.27   1 
   2  12   2 66500.2 1845.14   3 
  -2 -12   2 67190.6 1711.10   3 
  -2 -12   2 64957.9 1803.12   2 
   2 -12   2 70100.1 2087.55   2 
  -2 -12  -2 69880.2 1853.98   3 
   2  12  -2 64113.0 1692.37   3 
   2 -12   2 66801.3 1548.22   3 
   2 -12  -2 69181.0 1758.22   3 
  -2 -12  -2 65584.8 1770.12   2 
   2 -12   3 1702.59 244.110   3 
   2 -12   3 2202.02 389.840   1 
  -2 -12   3 1835.20 299.148   3 
  -2 -12  -3 1887.22 345.861   3 
  -2 -12  -3 1712.49 293.306   2 
   2  12  -3 1568.49 333.154   3 
   2  12   3 1412.94 327.448   3 
   2 -12   3 1656.37 333.514   2 
   2 -12  -3 2344.42 361.127   3 
   2 -12   4 119100. 2736.19   1 
  -2 -12  -4 106550. 2495.77   3 
  -2  12   4 112798. 2775.55   2 
   2 -12  -4 116236. 2512.60   3 
   2  12  -4 102473. 2205.57   3 
   2 -12   4 111746. 1996.26   3 
   2  12   4 103873. 2514.62   3 
  -2  12   5 3516.91 471.169   2 
   2  12   5 3780.08 457.672   3 
   2 -12   5 3887.67 458.049   1 
  -2 -12   5 3545.81 352.858   1 
   2  12  -5 3896.74 380.141   3 
   2 -12   5 3431.07 271.661   3 
  -2 -12  -5 4120.10 455.290   3 
   2 -12  -5 3362.33 418.346   3 
   2 -12   6 18932.2 1002.57   1 
   2  12  -6 17258.8 754.917   3 
   2 -12   6 18286.1 581.558   3 
  -2  12   6 16855.4 1016.83   2 
  -2 -12   6 17795.7 778.316   1 
  -2 -12  -6 20284.1 1002.45   3 
   2 -12  -6 18782.4 959.325   3 
   2  12   6 17730.9 965.191   3 
   2 -12  -7 6361.23 575.200   3 
   2 -12   7 5880.95 288.267   3 
   2  12   7 5652.52 506.023   2 
   2  12  -7 6543.43 458.579   3 
  -2  12   7 5287.31 586.798   2 
   2  12   7 5907.49 586.648   3 
  -2 -12   7 6296.11 458.916   1 
   2 -12   8 23741.8 526.302   3 
   2  12  -8 25548.1 887.598   3 
  -2 -12   8 25237.1 901.278   1 
   2  12   8 24169.2 1071.86   2 
   2  12   8 26021.7 1227.82   3 
  -2  12   8 25166.7 1289.15   2 
  -2  12   9 112.794 218.181   2 
   2  12   9 286.825 196.869   3 
   2  12  -9 166.566 158.090   3 
   2  12   9 196.968 161.728   2 
   2  12 -10 35807.3 1046.49   3 
   2  12  10 37254.7 1399.45   2 
   2  12  10 35305.4 1517.83   3 
   2 -12 -10 37194.3 1095.38   4 
  -2  12  10 35353.1 1567.40   2 
   2  12  11 1879.53 338.121   2 
   2  12  11 2113.72 392.327   3 
  -2  12  11 1891.93 398.409   2 
   2  12 -11 2392.28 259.798   3 
  -2  12 -11 2197.79 377.918   1 
   2 -12 -11 2774.13 303.158   4 
   2 -12 -12 120.432 116.734   4 
   2  12  12-139.215 173.751   2 
   2  12  12 396.549 229.370   3 
  -2  12  12 159.095 197.844   2 
  -2  12 -12-15.1577 227.153   1 
   2  12 -12 47.4705 88.7208   3 
   2 -12 -13 1322.80 229.217   4 
   2  12  13 1139.79 328.077   3 
  -2  12 -13 1101.89 303.083   1 
   2  12 -13 1192.58 193.685   3 
  -2  12  13 960.065 355.567   2 
   2  12  13 1038.53 267.584   2 
   2 -12 -14 1032.72 229.422   4 
  -2  12 -14 739.393 273.695   1 
   2  12  14 644.993 229.379   2 
   2  12  14 849.590 350.697   3 
  -2  12  14 805.762 304.927   2 
   2  12 -14 784.577 146.854   3 
  -2  12  15 8395.45 827.372   2 
   2  12  15 7661.13 796.282   3 
   2  12 -15 7755.11 412.737   3 
   2  12  15 7218.18 664.592   2 
  -2  12 -15 7367.79 694.645   1 
   2 -12 -15 7801.30 627.058   5 
   2 -12 -15 7114.27 529.523   4 
   2  12  16 18488.7 1087.32   2 
   2  12  16 17414.2 1174.30   3 
   2  12 -16 16781.4 613.529   3 
   2 -12 -16 16373.8 908.525   5 
  -2  12 -16 17534.6 1095.95   1 
   2 -12  16 15560.3 897.166   5 
   2 -12 -16 17862.8 870.020   4 
   2 -12 -17 300.935 175.651   4 
   2  12  17-88.8372 230.586   3 
   2 -12 -17 43.9002 134.544   5 
   2 -12  17-3.62178 151.576   5 
  -2  12 -17 119.922 215.456   1 
   2  12 -17 295.941 111.905   3 
  -2  12 -18 9842.89 834.725   1 
   2  12  18 9913.34 914.461   3 
   2 -12 -18 8538.30 646.851   5 
   2 -12  18 8690.64 665.345   5 
   2  12  19 2963.31 533.279   3 
  -2  12 -19 2346.58 438.006   1 
   2 -12  19 2862.18 456.336   4 
   2 -12 -19 3395.24 415.445   5 
   2 -12  19 2568.92 372.223   5 
   2 -12  20 171.871 187.358   5 
   2  12  20-388.983 264.727   3 
  -2  12 -20-35.8115 231.650   1 
   2 -12  20-52.1151 198.917   4 
   2 -12 -20 152.555 186.324   5 
   2 -12  21-54.1250 219.467   4 
  -2  12 -21-117.051 279.465   1 
   2  12  21-51.2346 331.787   3 
   2 -12  21 203.840 156.951   5 
   2 -12  22-80.5223 241.989   4 
   2  12  22 230.112 270.630   3 
  -2  12 -22-354.873 323.781   1 
   2 -12  23 2358.29 499.064   4 
  -2  12 -23 2729.70 480.930   1 
   2 -12  24 913.736 324.354   4 
  -2  12 -24 255.248 273.187   1 
   2 -12  25 686.229 342.375   4 
  -2  12 -25-2.06876 266.649   1 
   2 -12  26 6457.41 798.992   4 
  -2  12 -26 5221.67 695.508   1 
  -2 -13   0 2524.84 356.169   2 
  -2 -13   0 2670.86 358.212   3 
   2 -13   0 2841.52 322.706   3 
   2  13   0 2134.51 311.819   3 
   2 -13   1 477.236 161.012   3 
   2 -13  -1 210.177 111.002   3 
  -2 -13  -1 557.538 179.355   2 
  -2 -13   1 890.844 240.235   3 
  -2 -13  -1 698.422 214.139   3 
   2  13   1 718.498 199.780   3 
   2  13  -1 932.237 219.040   3 
  -2 -13   1 727.126 219.202   2 
   2  13   2 1359.08 279.308   3 
  -2 -13  -2 1404.44 259.050   2 
   2 -13  -2 1379.78 261.086   3 
  -2 -13   2 1306.39 246.459   3 
  -2 -13  -2 958.549 221.497   3 
   2  13  -2 1423.69 265.615   3 
  -2 -13   2 1122.00 256.669   2 
   2 -13   2 1436.44 223.095   3 
  -2 -13   3 11873.9 678.231   3 
  -2 -13   3 13259.0 803.719   2 
   2  13  -3 13161.8 717.204   3 
   2 -13   3 13435.4 620.998   3 
  -2 -13  -3 13138.7 796.066   3 
   2  13   3 13996.7 829.438   3 
   2 -13  -3 13362.0 759.000   3 
   2  13   4 1078.66 278.982   3 
   2 -13  -4 689.957 167.294   3 
  -2 -13  -4 1273.34 270.658   3 
   2  13  -4 1214.99 215.142   3 
   2 -13   4 710.562 151.297   3 
   2 -13  -5 3371.03 408.282   3 
  -2  13   5 3407.50 487.487   2 
  -2 -13   5 3967.01 395.001   1 
   2 -13   5 4020.93 301.163   3 
   2  13  -5 3679.31 370.758   3 
   2  13   5 3768.01 467.377   3 
  -2 -13   6 9136.19 586.530   1 
   2 -13   6 7386.68 379.507   3 
  -2  13   6 6925.08 677.244   2 
   2  13  -6 9251.57 563.264   3 
   2  13   6 8673.66 693.554   3 
   2 -13  -6 7477.50 606.038   3 
   2  13   7 594.047 230.391   3 
  -2 -13   7 679.446 166.123   1 
   2  13  -7 1217.00 229.507   3 
   2 -13   7 1227.56 143.719   3 
  -2  13   7 1308.90 350.387   2 
  -2 -13   8 218.568 113.918   1 
   2  13   8 313.219 199.177   3 
   2  13  -8 722.931 184.434   3 
   2 -13   8 908.916 106.338   3 
   2  13   8 249.989 162.761   2 
  -2  13   8 526.048 248.025   2 
   2  13   9 2474.02 403.559   3 
  -2  13   9 1617.80 371.126   2 
   2  13  -9 2758.54 295.383   3 
   2  13   9 2024.21 345.196   2 
  -2  13  10 3836.97 544.634   2 
   2  13  10 4581.84 562.253   3 
   2  13 -10 3925.08 345.609   3 
   2  13  10 4469.49 486.254   2 
   2 -13 -10 4413.09 363.948   4 
   2 -13 -11 12797.2 636.860   4 
   2  13  11 15096.3 1004.69   3 
  -2  13  11 14076.3 1018.10   2 
   2  13 -11 13340.6 608.164   3 
   2  13  11 14571.1 899.002   2 
   2  13  12 244.827 245.662   2 
   2 -13 -12-36.4727 117.177   4 
  -2  13  12-79.3593 232.650   2 
   2  13  12-16.7189 183.171   3 
   2  13 -12 31.0161 113.276   3 
   2  13  13 22201.7 1283.30   3 
   2  13 -13 22924.9 771.320   3 
   2  13  13 23329.9 1183.21   2 
  -2  13  13 22715.2 1326.19   2 
   2 -13 -13 22918.9 912.685   4 
  -2  13  14 5356.24 680.381   2 
   2  13  14 4314.06 594.065   3 
   2  13  14 4430.76 533.370   2 
   2  13 -14 4503.88 321.155   3 
  -2  13 -14 4186.26 559.936   1 
   2 -13 -14 4975.88 540.363   5 
   2 -13 -14 5283.03 442.066   4 
   2 -13 -15 1337.54 247.725   4 
   2 -13  15 1590.32 322.805   5 
   2  13  15 978.924 268.687   2 
  -2  13  15 1674.10 399.439   2 
   2  13  15 1027.73 342.800   3 
   2  13 -15 1230.19 169.026   3 
  -2  13 -15 1083.03 331.380   1 
   2 -13 -15 1200.54 309.510   5 
   2 -13  16 2350.18 389.778   5 
   2  13  16 2246.40 401.420   2 
  -2  13 -16 2583.27 462.127   1 
   2  13  16 2651.31 516.135   3 
   2  13 -16 2772.29 228.954   3 
   2 -13 -16 2351.14 316.728   4 
   2 -13 -16 2260.70 361.037   5 
  -2  13  16 1855.47 435.856   2 
  -2  13 -17 344.958 222.890   1 
   2 -13  17 109.520 194.891   5 
   2  13  17-34.2017 225.033   2 
  -2  13  17-75.8955 262.720   2 
   2  13  17 23.3959 233.267   3 
   2 -13 -17 414.730 181.132   5 
  -2  13 -18 2259.76 449.388   1 
   2 -13  18 2311.12 402.292   4 
   2  13  18 1374.24 332.789   2 
   2  13  18 2013.05 429.270   3 
  -2  13  18 1860.53 432.754   2 
   2 -13 -18 1566.90 301.762   5 
   2 -13  18 1805.32 341.397   5 
   2 -13  19 3069.54 478.484   4 
  -2  13 -19 1984.74 405.741   1 
   2 -13 -19 2575.23 380.586   5 
   2  13  19 3059.93 517.974   2 
   2  13  19 1681.67 421.616   3 
  -2  13  19 2299.17 502.042   2 
   2 -13  19 2309.97 368.756   5 
   2  13  20 5599.01 679.353   2 
  -2  13 -20 4924.95 633.720   1 
   2 -13  20 6044.28 677.794   4 
   2  13  20 5052.56 726.351   3 
   2 -13 -20 4824.04 518.827   5 
   2 -13  20 5584.39 557.989   5 
   2 -13  21 1320.54 338.655   4 
  -2  13 -21 515.360 257.224   1 
   2 -13 -21 857.663 238.125   5 
   2  13  21 529.322 216.608   3 
   2 -13  21 1274.69 282.795   5 
   2 -13  22 267.042 185.396   4 
  -2  13 -22-211.327 343.911   1 
  -2  13 -23 773.769 312.111   1 
   2 -13  23 534.779 289.378   4 
  -2  13 -24-274.077 312.809   1 
   2 -13  24 396.967 234.649   4 
   2 -13  25 1007.18 319.077   4 
  -2  13 -25 990.873 400.343   1 
   2 -14   0 9130.01 600.941   3 
   2  14   0 8698.77 635.479   3 
  -2 -14   0 10254.3 717.818   2 
  -2 -14   0 11033.4 713.042   3 
  -2 -14   1 191.912 182.602   2 
   2 -14  -1 905.531 221.873   3 
  -2 -14  -1-35.7688 165.806   2 
  -2 -14   1 657.912 197.177   3 
  -2 -14  -1 494.396 186.003   3 
   2  14   1 42.1541 170.576   3 
   2 -14   1 614.663 178.362   3 
   2  14  -1 105.850 202.437   3 
  -2 -14   2 5303.72 478.053   3 
   2  14   2 5206.65 523.883   3 
  -2 -14  -2 5425.64 524.441   3 
   2 -14   2 5019.20 409.510   3 
  -2 -14   2 4227.94 483.709   2 
   2  14  -2 3939.75 410.804   3 
   2 -14  -2 4571.17 456.782   3 
  -2 -14  -2 4504.85 484.551   2 
   2 -14  -3 588.287 230.536   3 
   2  14   3 666.194 272.429   3 
  -2 -14   3 269.374 161.353   2 
   2 -14   3 372.585 143.439   3 
  -2 -14   3 863.777 232.321   3 
   2  14  -3 452.357 182.463   3 
   2  14   4 26317.5 1220.16   3 
   2 -14   4 26067.6 889.342   3 
   2 -14  -4 27020.5 1158.10   3 
   2  14  -4 25859.5 1036.46   3 
  -2 -14   5 51.3037 141.834   1 
   2  14  -5-70.7827 131.316   3 
   2  14   5-80.8121 173.397   3 
   2 -14   5-69.5258 121.246   3 
  -2 -14   6 116.278 140.374   1 
  -2  14   6 524.081 239.591   2 
   2 -14   6 483.701 113.679   3 
   2  14   6-64.5535 168.705   3 
   2  14  -6 307.336 156.415   3 
   2 -14   7 3625.21 255.940   3 
   2  14   7 2908.96 431.998   3 
  -2 -14   7 2960.04 363.575   1 
  -2  14   7 3326.25 503.581   2 
   2  14  -7 2485.21 295.811   3 
   2  14   8 151.281 203.304   3 
   2 -14   8 439.325 87.7234   3 
  -2 -14   8 142.293 115.846   1 
  -2  14   8 241.732 237.012   2 
   2  14  -8 200.383 105.141   3 
   2  14   9 7022.19 688.158   3 
  -2 -14   9 6534.87 497.177   1 
   2  14   9 6756.20 610.753   2 
  -2  14   9 6890.24 721.311   2 
   2  14  -9 6538.81 453.765   3 
   2 -14  -9 7859.12 461.807   4 
   2  14  10 3223.44 498.038   3 
  -2  14  10 3683.45 563.276   2 
   2  14 -10 2698.61 285.749   3 
   2  14  10 3208.73 426.093   2 
   2 -14 -10 3952.31 337.663   4 
  -2  14  11-53.5263 270.308   2 
   2 -14 -11 180.620 128.666   4 
   2  14  11-153.669 208.964   3 
   2  14 -11 47.2350 93.6108   3 
   2  14  11-84.2273 206.698   2 
   2 -14 -12 75.7637 117.082   4 
   2  14  12-256.282 274.933   3 
   2  14 -12 91.3010 91.6415   3 
  -2  14  12 84.9889 227.986   2 
   2  14  12 101.429 176.876   2 
   2  14  13 7468.13 777.676   3 
  -2  14  13 7649.50 803.072   2 
   2  14 -13 8163.83 448.599   3 
   2  14  13 7648.86 703.587   2 
   2 -14 -13 7196.73 661.603   5 
   2 -14 -13 7926.55 527.974   4 
   2  14  14 3805.36 513.370   2 
  -2  14  14 4198.06 649.563   2 
   2  14  14 4466.39 657.795   3 
   2 -14 -14 4644.72 543.840   5 
   2  14 -14 3910.66 300.930   3 
   2 -14  14 3776.19 517.734   5 
   2 -14 -14 4248.78 397.904   4 
   2  14  15 24663.2 1454.05   3 
  -2  14  15 29404.9 1592.70   2 
   2 -14  15 27530.2 1299.32   5 
   2  14 -15 25667.0 758.141   3 
   2 -14 -15 28066.7 1298.80   5 
   2  14  15 25723.8 1333.38   2 
   2 -14 -15 27519.6 1052.83   4 
   2  14  16 1323.85 334.210   2 
  -2  14  16 2367.21 474.561   2 
   2  14  16 2026.63 485.227   3 
   2 -14 -16 1782.40 323.224   5 
   2 -14  16 2172.03 374.546   5 
   2 -14  17 1807.88 362.617   4 
   2  14  17 1533.03 359.060   2 
  -2  14  17 1264.44 379.306   2 
  -2  14 -17 1480.25 386.675   1 
   2  14  17 2348.85 498.593   3 
   2 -14 -17 1808.73 328.830   5 
   2 -14  17 1716.99 345.793   5 
   2  14  18-20.9510 241.392   2 
   2 -14  18 11.3191 191.736   4 
  -2  14  18 327.284 259.909   2 
   2 -14  18 229.624 221.875   5 
   2  14  18 354.533 252.900   3 
  -2  14 -18 279.780 202.737   1 
   2 -14 -18 350.849 168.712   5 
   2 -14  19 673.181 298.501   4 
   2  14  19 453.341 251.265   2 
   2 -14  19 641.172 214.643   5 
  -2  14  19 413.097 332.926   2 
  -2  14 -19 330.434 256.151   1 
   2  14  19 501.954 212.047   3 
   2 -14 -19 544.668 230.836   5 
   2 -14  20 1778.64 383.464   4 
   2  14  20 2144.22 467.725   2 
  -2  14  20 1564.68 412.737   2 
   2  14  20 1219.63 400.104   3 
   2 -14 -20 1709.91 313.051   5 
   2 -14  20 1906.14 359.613   5 
  -2  14 -20 1700.65 414.335   1 
   2  14  21 8712.27 885.709   2 
   2  14  21 9806.80 1023.97   3 
  -2  14 -21 10065.4 937.894   1 
   2 -14 -21 9307.65 727.517   5 
   2 -14  21 9254.14 744.088   5 
   2 -14  21 8323.06 820.496   4 
  -2  14  21 10923.9 1093.41   2 
   2  14  22-121.042 245.865   2 
  -2  14 -22-329.333 259.684   1 
  -2  14  22-70.4313 248.465   2 
   2 -14  22 43.2979 196.746   4 
   2 -14  23 4210.32 612.603   4 
  -2  14 -23 3837.30 599.766   1 
   2  14  23 3922.90 642.551   2 
  -2  14  23 3926.20 686.783   2 
   2  14  24 281.846 287.773   2 
  -2  14 -24 597.397 347.026   1 
   2 -14  24-97.0790 254.399   4 
   2 -14  25 322.545 289.594   4 
   2  14  25-432.775 295.851   2 
  -2 -15   0 3654.08 447.778   2 
  -2 -15   0 3774.97 443.671   3 
   2  15   0 4206.28 474.600   3 
   2 -15   0 3272.03 374.353   3 
  -2 -15   1 906.974 247.849   2 
   2  15   1 1029.26 271.964   3 
  -2 -15   1 1587.35 311.450   3 
  -2 -15  -1 767.838 232.782   3 
  -2 -15  -1 1240.62 271.607   2 
   2  15  -1 849.324 240.532   3 
   2 -15  -1 991.198 218.817   3 
   2 -15   1 869.861 203.063   3 
  -2 -15  -2 3948.22 474.728   2 
   2  15   2 2731.71 404.067   3 
  -2 -15   2 4252.82 445.982   3 
   2 -15   2 3436.48 361.247   3 
   2  15  -2 4181.06 447.150   3 
   2 -15  -2 3187.03 393.473   3 
   2  15  -3 104.096 145.346   3 
  -2 -15   3 246.767 162.638   3 
   2 -15   3-62.6834 106.715   3 
   2  15   3-28.6364 168.961   3 
   2 -15  -3 59.4248 145.214   3 
   2  15  -4 2184.60 304.817   3 
   2 -15   4 1636.34 231.656   3 
   2  15   4 2105.71 366.290   3 
  -2 -15   4 1964.45 321.347   1 
   2  15   5 6050.52 616.565   3 
   2 -15   5 5519.77 390.060   3 
  -2 -15   5 5034.79 481.301   1 
   2  15  -5 5717.77 479.586   3 
   2  15   6 7157.23 686.272   3 
   2 -15   6 6337.21 388.771   3 
  -2 -15   6 6160.48 535.638   1 
   2  15  -6 7361.88 536.685   3 
   2  15   7 4608.01 561.454   3 
   2  15  -7 4348.21 417.061   3 
   2 -15   7 4916.17 314.194   3 
  -2  15   7 4219.30 573.973   2 
  -2 -15   7 4338.35 438.263   1 
  -2  15   8 2127.88 424.921   2 
   2 -15   8 2286.64 184.998   3 
   2  15   8 2511.83 428.637   3 
   2  15  -8 2571.09 306.980   3 
  -2 -15   8 2355.37 322.653   1 
   2 -15  -9 2252.21 249.490   4 
   2  15   9 1991.93 419.714   3 
  -2 -15   9 2843.59 352.638   1 
  -2  15   9 1978.95 412.000   2 
   2  15  -9 2212.04 269.303   3 
   2 -15 -10 878.304 175.366   4 
   2  15  10 463.384 255.931   3 
  -2  15  10 518.430 226.233   2 
   2  15  10 135.754 212.320   2 
   2  15 -10 467.063 148.641   3 
   2  15  11 9935.60 879.047   3 
   2 -15 -11 10309.1 553.109   4 
   2  15  11 10075.3 803.947   2 
  -2  15  11 9903.76 904.768   2 
   2  15 -11 10927.9 568.345   3 
   2 -15 -11 10528.4 831.790   5 
   2  15  12 7110.34 771.969   3 
   2 -15 -12 7051.88 475.014   4 
   2 -15  12 6896.91 679.923   5 
   2 -15 -12 7131.07 688.951   5 
   2  15  12 7623.09 708.578   2 
  -2  15  12 6712.12 773.613   2 
   2  15 -12 8103.03 469.155   3 
   2  15  13 16999.9 1191.26   3 
   2 -15  13 15880.7 1023.19   5 
   2 -15 -13 16652.7 1039.93   5 
   2  15  13 17234.5 1096.17   2 
  -2  15  13 18540.2 1276.71   2 
   2  15 -13 18380.2 686.054   3 
   2 -15 -13 16101.3 747.775   4 
  -2  15  14 1929.29 514.125   2 
   2  15  14 2289.85 504.291   3 
   2 -15 -14 2437.28 453.605   5 
   2  15  14 2400.09 469.300   2 
   2 -15  14 2966.71 485.216   5 
   2  15  15 23183.9 1451.10   3 
   2 -15 -15 22633.6 1221.03   5 
   2  15  15 24005.2 1352.03   2 
  -2  15  15 25615.4 1546.98   2 
   2 -15  15 23226.8 1249.01   5 
   2  15  16 103.076 211.672   2 
   2 -15 -16 158.638 196.373   5 
   2 -15  16 337.517 215.113   5 
   2  15  16 291.275 338.966   3 
  -2  15  16 254.974 223.293   2 
   2  15  17 2039.22 433.725   2 
  -2  15  17 2829.00 548.703   2 
   2  15  17 1739.92 448.808   3 
   2 -15 -17 2478.01 413.363   5 
   2 -15  17 2816.73 441.997   5 
   2 -15  17 2188.02 380.132   4 
   2  15  18-621.987 361.803   2 
  -2  15  18-381.761 385.062   2 
   2  15  18 301.751 249.133   3 
   2 -15  18 120.107 212.058   5 
   2 -15 -18 164.509 184.812   5 
   2 -15  18-28.1259 192.503   4 
   2 -15  19 1495.63 359.682   4 
   2  15  19 1410.14 390.859   2 
   2  15  19 1206.92 363.335   3 
  -2  15  19 870.754 319.782   2 
   2 -15 -19 1338.85 317.495   5 
   2 -15  19 985.101 299.835   5 
   2 -15  20 340.013 279.249   4 
   2  15  20 163.076 215.782   2 
  -2  15  20 110.305 278.328   2 
   2  15  20 452.697 318.405   3 
   2 -15 -20 445.362 244.840   5 
   2 -15  20 182.154 176.961   5 
   2 -15  21-8.62334 218.675   4 
   2  15  21-355.570 286.471   2 
  -2  15  21-300.957 325.613   2 
   2 -15  21 86.9118 207.538   5 
   2 -15  22-43.3485 197.009   4 
   2  15  22 188.850 240.528   2 
  -2  15  22 625.120 309.262   2 
  -2  15 -22-64.7081 250.298   1 
   2 -15  23 24.4323 218.116   4 
   2  15  23-475.894 324.985   2 
  -2  15  23 71.5921 269.168   2 
   2 -15  24 3549.69 590.408   4 
   2  15  24 4584.48 722.933   2 
   2  15  25 247.512 288.636   2 
   2  15  26 789.322 371.682   2 
   2 -16   0 155.424 122.381   3 
   2  16   0 203.938 141.411   3 
  -2 -16   1 3364.39 420.241   3 
   2  16  -1 3209.45 427.095   3 
   2 -16   1 3791.42 397.793   3 
   2 -16  -1 4361.91 458.318   3 
   2  16   1 4037.12 486.155   3 
  -2 -16   2 4263.49 472.666   3 
   2  16   2 4184.51 508.026   3 
   2 -16   2 3568.83 369.355   3 
   2 -16  -2 4218.95 474.747   3 
   2  16  -2 3740.55 434.301   3 
   2  16  -3 1455.61 291.853   3 
   2  16   3 1837.68 347.323   3 
  -2 -16   3 1692.44 307.139   3 
   2 -16   3 1957.24 270.894   3 
   2  16  -4 222.671 167.652   3 
   2  16   4 370.678 194.904   3 
   2 -16   4 205.587 122.020   3 
  -2 -16   4 320.455 161.796   1 
   2  16   5 9377.59 788.599   3 
   2 -16   5 10035.1 546.933   3 
  -2 -16   5 9195.75 691.641   1 
   2  16  -5 9841.36 655.890   3 
   2  16  -6 2044.52 300.274   3 
   2  16   6 1943.96 399.688   3 
  -2 -16   6 1608.48 287.669   1 
   2 -16   6 2204.56 236.142   3 
  -2 -16   7 224.220 165.297   1 
   2  16   7 16.5954 182.136   3 
   2 -16   7 81.5111 90.4109   3 
   2  16  -7 37.6774 114.354   3 
   2  16  -8 127.335 106.698   3 
   2  16   8 55.1032 223.622   3 
   2 -16  -8-31.6986 82.0023   4 
   2 -16   8 70.2567 62.1122   3 
  -2  16   8-142.510 267.494   2 
  -2 -16   8-110.538 175.128   1 
   2 -16  -9 1278.73 189.955   4 
  -2 -16   9 963.974 237.586   1 
   2  16   9 1128.61 327.739   3 
  -2  16   9 487.609 259.287   2 
   2  16  -9 471.802 164.372   3 
   2 -16  -9 1551.78 343.163   5 
   2 -16 -10 228.958 208.696   5 
   2  16  10 239.561 235.318   3 
  -2  16  10-198.846 335.466   2 
   2 -16  10 284.286 240.564   5 
   2  16 -10 229.854 146.804   3 
   2  16  11 6661.34 675.986   2 
  -2  16  11 5859.15 716.462   2 
   2  16 -11 7929.20 494.561   3 
   2 -16 -11 6577.78 686.335   5 
   2 -16  11 8491.07 794.161   5 
   2  16  11 7509.09 798.385   3 
   2  16 -12 760.995 167.408   3 
  -2  16  12 1038.32 363.155   2 
   2  16  12 815.835 287.332   3 
   2 -16  12 678.320 265.077   5 
   2  16  12 532.712 252.201   2 
   2 -16 -12 769.529 253.522   5 
  -2  16  13 768.659 338.675   2 
   2 -16  13 94.2507 182.306   5 
   2  16  13 479.538 244.974   3 
   2  16  13 417.104 243.708   2 
   2 -16 -13 699.217 260.675   5 
  -2  16  14 6625.12 805.188   2 
   2  16  14 7392.61 821.258   3 
   2 -16 -14 6423.76 676.734   5 
   2  16  14 5721.89 670.506   2 
   2 -16  14 5168.70 614.074   5 
  -2  16  15 18.5355 230.464   2 
   2  16  15 89.2742 195.961   2 
   2  16  15 387.481 277.805   3 
   2 -16 -15 402.770 243.188   5 
   2 -16  15 572.583 288.601   5 
   2  16  16 5390.12 676.100   2 
  -2  16  16 4651.76 692.810   2 
   2  16  16 4428.46 664.327   3 
   2 -16  16 4832.17 599.355   5 
   2 -16  16 5093.92 578.965   4 
   2 -16 -16 4773.29 605.419   5 
   2 -16  17 4511.04 572.520   4 
  -2  16  17 5579.36 760.954   2 
   2 -16 -17 5537.54 629.991   5 
   2  16  17 6172.57 777.294   3 
   2 -16  17 4922.31 611.745   5 
   2  16  17 5939.57 710.780   2 
   2  16  18 1920.46 454.264   2 
   2 -16  18 2386.82 426.061   4 
   2 -16  18 2424.57 428.862   5 
   2  16  18 2345.01 547.152   3 
  -2  16  18 2914.02 588.500   2 
   2 -16 -18 3068.23 493.828   5 
   2  16  19 9446.34 1008.62   3 
   2 -16  19 7127.09 709.543   5 
   2  16  19 8592.82 894.801   2 
   2 -16 -19 7843.88 751.236   5 
  -2  16  19 9063.92 996.359   2 
   2 -16  19 7698.23 773.197   4 
   2 -16  20 7669.96 753.608   5 
  -2  16  20 6828.30 887.143   2 
   2  16  20 7476.68 905.350   3 
   2 -16 -20 7720.02 716.050   5 
   2  16  20 7151.36 817.560   2 
   2 -16  20 7606.56 774.733   4 
   2 -16  21 217.935 251.414   4 
   2  16  21-57.6732 231.680   2 
  -2  16  21-39.8079 259.382   2 
   2 -16  21 93.2465 249.767   5 
  -2  16  22 6300.77 886.379   2 
   2 -16  22 6806.51 785.249   4 
   2  16  23 440.994 261.121   2 
   2 -16  23 688.912 371.037   4 
   2  16  24 3938.44 683.596   2 
   2  16  25 3474.93 675.266   2 
   2 -17   0 22730.5 1050.69   3 
   2  17   0 24971.1 1206.49   3 
   2  17  -1 195.847 215.058   3 
   2  17   1 482.875 279.103   3 
   2 -17   1 118.320 142.648   3 
   2  17   2 8506.08 732.005   3 
   2  17  -2 8840.94 696.305   3 
   2 -17   2 7653.26 572.268   3 
   2  17  -3 2962.78 414.562   3 
  -2 -17   3 2356.56 362.916   3 
   2 -17   3 1766.30 276.301   3 
   2  17   3 1991.02 374.751   3 
   2  17   4 8797.62 769.512   3 
   2 -17   4 7995.77 539.211   3 
   2  17  -4 7927.09 622.054   3 
   2  17  -5 2290.70 341.768   3 
  -2 -17   5 2561.42 412.624   1 
   2  17   5 2304.25 419.337   3 
   2 -17   5 2526.79 297.169   3 
   2  17   6 5237.91 618.708   3 
   2  17  -6 5901.14 516.025   3 
  -2 -17   6 5734.24 553.191   1 
   2 -17  -6 5612.86 671.960   5 
   2  17  -7 2534.04 332.043   3 
  -2 -17   7 2354.34 376.710   1 
   2  17   7 3333.88 496.227   3 
   2 -17  -7 2747.81 483.703   5 
   2 -17   7 2917.65 518.313   5 
  -2 -17   8 772.118 227.162   1 
   2  17  -8 1059.90 216.438   3 
   2  17   8 1334.15 390.841   3 
   2 -17  -8 1635.31 413.419   5 
   2 -17   8 1285.56 368.537   5 
  -2 -17   9 14553.8 849.187   1 
   2  17   9 15651.0 1123.21   3 
   2 -17   9 14081.2 1022.25   5 
  -2  17   9 12133.4 1055.99   2 
   2 -17  -9 12186.9 958.739   5 
   2  17  -9 15151.7 755.156   3 
   2 -17 -10 3573.48 546.029   5 
   2 -17  10 3166.86 525.228   5 
   2  17  10 2945.60 533.291   3 
  -2  17  10 3421.57 589.365   2 
   2  17 -10 2876.46 333.395   3 
   2  17 -11 4837.47 390.763   3 
   2 -17  11 5048.25 631.474   5 
   2  17  11 4639.37 642.543   3 
  -2  17  11 4306.30 640.904   2 
   2 -17 -11 4656.14 604.528   5 
   2  17  12 826.036 289.846   3 
   2 -17  12 1287.47 379.418   5 
  -2  17  12 577.400 249.499   2 
   2 -17 -12 548.543 255.688   5 
  -2  17  13 795.510 329.175   2 
   2  17  13 1096.99 402.988   3 
   2  17  13 906.610 333.392   2 
   2 -17 -13 358.637 261.661   5 
   2 -17  13 899.520 332.427   5 
   2 -17  14 291.536 223.139   4 
  -2  17  14-159.372 289.616   2 
   2  17  14 287.617 243.510   2 
   2  17  14 721.567 291.643   3 
   2 -17 -14 398.539 265.766   5 
   2 -17  14 676.414 313.819   5 
   2 -17 -15 10956.5 902.312   5 
   2 -17  15 10239.6 894.129   5 
   2  17  15 11947.2 984.280   2 
  -2  17  15 11420.2 1092.99   2 
   2  17  15 13592.5 1148.92   3 
   2 -17  15 11203.4 844.890   4 
   2 -17  16 1613.81 376.064   4 
  -2  17  16 535.661 388.812   2 
   2 -17  16 854.950 300.439   5 
   2  17  16 1682.76 464.100   3 
   2  17  16 842.031 336.939   2 
   2 -17 -16 1098.61 337.922   5 
   2 -17  17 2534.18 424.434   4 
   2  17  17 3995.82 630.317   2 
   2 -17  17 3542.78 530.310   5 
   2  17  17 2903.29 597.518   3 
   2 -17 -17 3572.37 501.951   5 
  -2  17  17 3211.28 623.599   2 
  -2  17  18 477.120 335.338   2 
   2  17  18 580.731 343.498   3 
   2 -17 -18 4.37575 186.286   5 
   2 -17  18 419.826 284.562   5 
   2 -17  18 259.495 190.212   4 
   2  17  18 478.212 281.880   2 
   2  17  19 222.900 270.063   2 
  -2  17  19 553.261 327.966   2 
   2 -17  19-208.819 221.874   4 
   2  17  19-293.607 403.884   3 
   2 -17  19 268.558 224.928   5 
   2 -17 -19 152.284 214.622   5 
   2  17  20 601.520 305.531   2 
  -2  17  20 483.898 326.727   2 
   2 -17  20 826.606 285.024   5 
   2 -17 -20 790.427 266.179   5 
   2 -17  20 202.581 230.644   4 
   2  17  21 1848.14 456.802   2 
   2 -17  21 1036.49 335.961   4 
   2 -17  22-281.190 206.720   4 
   2  17  22 60.5369 266.446   2 
   2  17  23 29.3261 245.380   2 
   2 -17  23 53.9587 213.535   4 
   2  17  24 930.011 394.627   2 
   2  18   0 70458.7 2191.57   3 
   2 -18   0 76402.6 2551.07   5 
   2  18   1 2944.19 517.487   3 
   2  18  -1 3041.57 491.296   3 
   2 -18  -1 2579.86 555.415   5 
   2 -18   1 2449.64 380.200   3 
   2 -18   1 2803.16 587.980   5 
   2 -18   2 39934.4 1818.24   5 
   2  18   2 39083.9 1642.52   3 
   2 -18  -2 42141.9 1855.54   5 
   2 -18   2 40943.0 1389.33   3 
   2  18  -2 40634.6 1561.41   3 
   2  18   3 2707.28 484.582   3 
   2 -18   3 2808.87 356.400   3 
   2 -18   3 3307.41 572.251   5 
   2 -18  -3 2960.93 542.085   5 
   2  18  -3 2313.34 393.886   3 
   2  18   4 25923.4 1367.44   3 
   2  18  -4 23978.9 1128.11   3 
   2 -18   4 24367.4 1403.21   5 
   2 -18  -4 25368.5 1428.52   5 
   2  18  -5 865.467 275.463   3 
   2 -18  -5 1741.69 476.980   5 
   2  18   5 996.737 349.032   3 
   2 -18   5 723.592 351.534   5 
   2  18  -6 31050.6 1240.04   3 
   2  18   6 29712.5 1527.85   3 
   2 -18   6 33038.5 1634.93   5 
   2 -18  -6 32329.1 1617.13   5 
   2  18  -7 3578.64 419.216   3 
   2 -18   7 4200.52 614.292   5 
   2  18   7 4420.51 635.505   3 
   2 -18  -7 5176.15 681.739   5 
   2  18  -8 15851.3 827.228   3 
   2  18   8 16105.8 1157.20   3 
   2 -18  -8 15527.0 1110.62   5 
   2 -18   8 15635.6 1121.28   5 
   2  18   9 4992.81 679.458   3 
   2  18  -9 4496.46 431.210   3 
   2 -18  -9 5081.52 660.675   5 
   2 -18   9 5270.54 673.154   5 
   2  18  10 6635.12 775.975   3 
   2 -18  10 5966.52 718.723   5 
   2 -18 -10 6226.64 724.900   5 
   2 -18 -11 309.250 289.603   5 
   2  18  11 446.933 386.649   3 
  -2  18  11 107.355 317.119   2 
   2 -18  11 918.486 366.239   5 
   2  18  12 20146.3 1374.64   3 
   2 -18 -12 19391.2 1250.44   5 
  -2  18  12 21813.2 1485.64   2 
   2 -18  12 21158.8 1308.93   5 
   2  18  13 1355.13 512.572   3 
   2 -18 -13 1388.95 402.211   5 
  -2  18  13 917.186 444.612   2 
   2 -18  13 1146.58 375.519   5 
   2 -18  13 1463.45 360.819   4 
   2  18  14 20853.6 1448.24   3 
   2 -18 -14 20053.1 1270.65   5 
  -2  18  14 21917.9 1523.97   2 
   2 -18  14 20200.9 1286.96   5 
   2 -18  14 22066.9 1170.32   4 
   2 -18  15 963.828 279.467   4 
   2 -18  15 1040.05 341.891   5 
   2 -18 -15 708.132 292.862   5 
   2  18  15 1551.39 504.939   3 
   2  18  15 911.411 311.559   2 
  -2  18  15 675.541 427.692   2 
   2 -18  16 1.92820 238.417   5 
   2 -18  16-105.089 227.219   4 
   2  18  16-89.6403 339.000   3 
   2 -18 -16 520.272 261.743   5 
   2  18  16 160.658 221.046   2 
  -2  18  16 841.849 346.065   2 
   2 -18  17 839.580 300.499   4 
   2 -18  17 838.329 278.969   5 
   2  18  17 684.281 333.308   3 
   2  18  17 637.206 321.910   2 
   2 -18 -17 312.131 242.567   5 
  -2  18  17 421.675 250.284   2 
   2 -18 -18-442.418 322.052   5 
   2  18  18 25.6538 329.478   3 
   2 -18  18 275.101 231.519   5 
   2 -18  18-62.6502 195.516   4 
  -2  18  18-114.258 262.154   2 
   2  18  18 110.243 224.717   2 
  -2  18  19 734.389 428.105   2 
   2 -18 -19-60.7670 197.143   5 
   2 -18  19-13.4857 202.229   5 
   2  18  19-47.7415 240.747   2 
   2 -18  19 33.4518 246.264   4 
   2 -18  20 5525.89 673.155   5 
   2  18  20 5998.45 783.505   2 
   2 -18  20 5880.12 706.122   4 
   2 -18  21 515.466 293.019   4 
   2  18  21 100.553 254.772   2 
   2  18  22-343.833 248.905   2 
   2 -18  22-7.50263 249.260   4 
   2  18  23 893.384 375.396   2 
   2  19   0 2853.71 449.882   3 
   2 -19   0 2312.07 466.741   5 
   2 -19  -1 214.826 246.939   5 
   2  19  -1 324.909 224.798   3 
   2  19   1 638.551 290.769   3 
   2 -19   1-300.283 351.957   5 
   2  19  -2 3037.13 449.227   3 
   2  19   2 2951.91 480.532   3 
   2 -19  -2 3640.65 560.750   5 
   2 -19   2 3003.72 497.481   5 
   2  19  -3 946.094 261.521   3 
   2 -19  -3 103.680 239.287   5 
   2  19   3 632.875 273.679   3 
   2 -19   3 564.278 315.014   5 
   2  19  -4 2492.46 374.609   3 
   2  19   4 3102.22 485.719   3 
   2 -19  -4 2885.73 509.486   5 
   2 -19   4 2113.24 459.117   5 
   2  19  -5 81.6022 160.838   3 
   2  19   5-28.7305 198.624   3 
   2 -19   5 231.444 247.166   5 
   2 -19  -5 678.428 307.953   5 
   2 -19   6 477.860 317.025   5 
   2  19  -6 69.8704 127.857   3 
   2  19   6 221.619 212.600   3 
   2 -19  -6 692.466 334.953   5 
   2  19  -7 3377.68 420.613   3 
   2  19   7 3401.59 562.381   3 
   2 -19   7 3115.91 536.982   5 
   2 -19  -7 3153.29 559.252   5 
   2 -19   8 1048.00 396.917   5 
   2 -19  -8 1427.40 392.299   5 
   2  19   8 1678.70 419.974   3 
   2 -19   9 11435.6 985.805   5 
   2  19   9 12417.0 1063.83   3 
   2 -19  -9 12481.6 1031.49   5 
   2  19  10 430.001 336.208   3 
   2 -19 -10 298.088 249.553   5 
   2 -19  10 203.926 268.868   5 
   2  19  11 2824.58 547.767   3 
   2 -19 -11 3263.78 541.523   5 
   2 -19  11 4029.35 605.486   5 
   2 -19  11 4387.31 484.263   4 
   2  19  12 279.483 264.835   3 
  -2  19  12-383.779 403.658   2 
   2 -19  12 114.437 202.121   5 
   2 -19 -12 12.1622 229.747   5 
   2 -19  12 681.121 235.652   4 
   2 -19  13 1852.28 372.581   4 
   2 -19  13 1245.92 359.524   5 
   2  19  13 666.801 319.191   3 
  -2  19  13 1016.35 429.261   2 
   2 -19 -13 791.995 274.648   5 
   2  19  14 307.154 252.846   3 
  -2  19  14 329.517 286.161   2 
   2 -19  14 614.199 277.918   4 
   2 -19  14 187.122 213.111   5 
   2 -19 -14 326.248 264.775   5 
   2  19  15 5388.73 740.476   3 
   2 -19  15 5951.58 727.058   5 
  -2  19  15 4699.05 727.929   2 
   2 -19 -15 4988.73 655.522   5 
   2 -19  15 5958.54 639.363   4 
   2 -19  16 144.986 170.712   4 
   2  19  16 316.149 312.215   3 
   2  19  16 335.512 275.361   2 
  -2  19  16 73.2153 288.311   2 
   2 -19 -16-13.1552 206.701   5 
   2 -19  16 693.111 322.621   5 
   2 -19  17 679.597 262.949   4 
   2  19  17 578.385 251.257   2 
  -2  19  17 1147.49 424.018   2 
   2 -19 -17 1220.33 365.313   5 
   2 -19  17 1098.04 360.004   5 
   2 -19  18 33.3723 200.774   4 
   2 -19  18-284.674 252.807   5 
   2  19  18-188.035 315.605   2 
   2 -19 -18-24.1433 223.055   5 
   2 -19  19 190.333 224.341   4 
   2 -19  19 659.644 377.864   5 
   2 -19 -19 536.627 322.911   5 
   2  19  19 259.009 232.584   2 
   2 -19  20 2077.20 465.910   4 
   2 -19  20 1823.93 435.692   5 
   2  19  20 1697.28 461.890   2 
   2 -19  21 3606.07 598.654   4 
   2  19  21 4874.42 756.707   2 
   2  20   0 8352.20 749.880   3 
   2 -20   0 7827.96 839.274   5 
   2  20  -1 395.607 242.453   3 
   2  20   1 384.055 263.508   3 
   2 -20  -1 608.148 272.152   5 
   2 -20   1 329.987 236.351   5 
   2 -20  -2 1129.47 385.972   5 
   2  20  -2 714.333 266.942   3 
   2  20   2 676.595 290.615   3 
   2 -20   2 590.454 285.385   5 
   2 -20  -3 1056.83 314.256   5 
   2  20  -3 1078.58 277.962   3 
   2  20   3 1020.10 301.593   3 
   2 -20   3 1424.12 424.501   5 
   2 -20   4 1655.26 412.536   5 
   2  20  -4 2438.37 384.809   3 
   2  20   4 2375.17 456.420   3 
   2 -20  -4 1718.90 381.551   5 
   2 -20   5 322.427 311.950   5 
   2  20  -5 193.393 172.527   3 
   2  20   5 83.8433 207.071   3 
   2 -20  -5 260.353 239.193   5 
   2 -20  -6 2786.88 526.000   5 
   2  20  -6 3147.37 422.769   3 
   2  20   6 3468.74 561.300   3 
   2 -20   6 3119.37 549.971   5 
   2  20   7 96.9521 182.659   3 
   2 -20  -7 455.384 303.323   5 
   2 -20   7 254.299 275.565   5 
   2 -20  -8 1351.49 426.978   5 
   2  20   8 1784.14 452.680   3 
   2 -20   8 1644.97 440.204   5 
   2  20   9 1177.72 418.455   3 
   2 -20  -9 844.502 325.333   5 
   2 -20   9 1507.53 421.252   5 
   2 -20  10 3627.54 596.242   5 
   2  20  10 3336.12 593.011   3 
   2 -20 -10 2863.46 532.272   5 
   2  20  11 4483.43 682.046   3 
   2 -20 -11 5979.01 750.606   5 
   2 -20  11 5445.79 715.530   5 
   2  20  12-191.803 297.434   3 
   2 -20 -12 48.6815 240.471   5 
   2 -20  12 82.0777 253.613   5 
   2 -20 -13 1111.83 360.311   5 
   2  20  13 728.639 311.532   3 
   2 -20  13 1075.79 362.834   5 
   2  20  14 1183.41 433.659   3 
  -2  20  14 2567.49 586.751   2 
   2 -20 -14 1669.77 416.898   5 
   2 -20  14 1845.92 465.057   5 
   2  20  15 1.35185 249.473   3 
  -2  20  15 914.424 488.499   2 
   2 -20 -15 500.070 325.130   5 
   2 -20  15 834.572 354.358   5 
   2 -20 -16 7040.27 802.274   5 
   2 -20  16 6250.53 778.580   5 
   2 -20 -17 131.516 219.917   5 
   2 -20  17 661.708 328.309   5 
   2 -20 -18 8091.56 853.453   5 
   2 -20  18 6622.67 792.665   5 
   2  20  19 3937.22 658.818   2 
   2 -20  19 3130.59 546.583   5 
   2  21   0 194.580 227.519   3 
   2 -21   0 184.279 256.464   5 
   2  21  -1 96.5096 185.969   3 
   2  21   1 335.196 246.634   3 
   2 -21  -1-448.659 360.878   5 
   2 -21   1 128.231 253.023   5 
   2 -21  -2 1938.07 434.408   5 
   2  21  -2 2529.99 439.601   3 
   2  21   2 2752.76 491.937   3 
   2 -21   2 3122.73 571.879   5 
   2  21   3 1046.78 332.086   3 
   2  21  -3 900.794 311.816   3 
   2 -21   3 416.161 231.197   5 
   2 -21  -3 816.536 307.696   5 
   2 -21   4 695.476 359.314   5 
   2 -21  -4 360.954 232.977   5 
   2  21  -4 1809.67 364.236   3 
   2  21   4 1275.91 370.399   3 
   2 -21  -5-74.4170 278.240   5 
   2  21   5-152.717 226.393   3 
   2 -21   5-312.565 257.092   5 
   2 -21  -6 1436.94 388.019   5 
   2  21   6 1600.75 388.354   3 
   2 -21   7 392.494 275.410   5 
   2 -21  -7 422.094 343.090   5 
   2  21   7 132.510 234.720   3 
   2  21   8 138.064 254.780   3 
   2 -21  -8-365.000 311.840   5 
   2 -21   8 469.359 335.581   5 
   2 -21  -9 176.126 288.012   5 
   2  21   9 1180.50 352.037   3 
   2 -21   9 1009.39 355.467   5 
   2 -21  10 1070.64 422.211   5 
   2  21  10 1280.74 414.750   3 
   2 -21 -10 995.527 325.032   5 
   2  21  11 1972.95 528.434   3 
   2 -21 -11 2668.04 567.954   5 
   2 -21  11 1805.39 464.626   5 
   2  21  12 489.637 298.979   3 
   2 -21 -12 1059.08 359.223   5 
   2 -21  12 649.130 278.961   5 
   2  21  13 1965.64 503.123   3 
   2 -21  13 2137.37 517.638   5 
   2 -21 -13 1097.11 371.409   5 
   2 -21 -14 614.606 303.831   5 
   2 -21  14 1297.94 395.947   5 
   2 -21 -15 1231.50 369.281   5 
   2 -21  15 1629.43 444.857   5 
   2 -21  16-92.6357 227.956   5 
   2 -21 -16 709.257 352.860   5 
   2 -21 -17 3801.44 626.601   5 
   2 -21  17 3450.93 621.755   5 
   2 -21  18 990.466 367.374   5 
   2  22   0 6591.21 722.724   3 
   2 -22   0 5130.03 750.975   5 
   2  22  -1 1354.07 338.333   3 
   2  22   1 1468.17 393.544   3 
   2 -22  -1 2287.93 533.271   5 
   2 -22   1 1069.38 370.234   5 
   2 -22  -2 3050.73 593.451   5 
   2 -22   2 3312.07 641.901   5 
   2  22  -2 3708.67 532.925   3 
   2  22   2 3543.35 547.125   3 
   2  22   3 179.205 193.826   3 
   2 -22  -3-390.970 341.504   5 
   2 -22   3-532.900 344.232   5 
   2 -22  -4 3634.34 620.950   5 
   2  22   4 3714.94 581.813   3 
   2 -22   4 3593.92 627.199   5 
   2  22   5 2403.09 476.376   3 
   2 -22  -5 3342.04 589.730   5 
   2 -22   5 2348.13 521.642   5 
   2  22   6 1617.48 425.576   3 
   2 -22  -6 1777.89 465.244   5 
   2 -22   6 1696.05 435.800   5 
   2  22   7 2074.35 507.211   3 
   2 -22   7 1809.59 485.305   5 
   2 -22  -7 1553.03 438.858   5 
   2  22   8 1664.83 448.140   3 
   2 -22  -8 1814.65 484.072   5 
   2 -22   8 2733.89 585.294   5 
   2  22   9 2400.45 529.029   3 
   2 -22  -9 2135.08 525.718   5 
   2 -22   9 1980.62 497.695   5 
   2  22  10 2281.15 564.862   3 
   2 -22 -10 2157.92 509.805   5 
   2 -22  10 2031.43 485.269   5 
   2  22  11-280.433 257.102   3 
   2 -22  11-497.205 351.681   5 
   2 -22 -12 879.926 350.931   5 
   2 -22 -13 392.749 322.223   5 
   2 -22 -14 1124.58 411.020   5 
   2  23   0 555.009 306.815   3 
   2  23   1 254.424 247.606   3 
   2  23   2 106.164 207.810   3 
   2  23   3 664.120 337.144   3 
   2  23   4-585.640 305.972   3 
   2  23   5 1084.70 391.754   3 
   2  23   6 268.125 280.435   3 
   2  23   7 1139.43 409.931   3 
   2  23   8 1.25952 268.540   3 
   2  23   9 1349.15 410.046   3 
   2  24   2 2503.91 499.858   3 
   2  24   3 1476.08 438.399   3 
   2  24   4 6507.60 812.457   3 
   2  24   5 196.860 224.951   3 
  -3   0   0 124.053 56.1878   2 
  -3   0   1 218.801 93.3781   1 
  -3   0   2 13545.0 482.423   1 
   3   0   2 13240.7 367.097   2 
  -3   0   3 66.6283 72.0313   1 
   3   0   4 5613.51 360.341   3 
   3   0  -4 5430.05 279.068   1 
   3   0  -5 25.1897 61.5534   1 
   3   0   5 107.643 94.9206   3 
   3   0   6 295614. 4154.30   3 
   3   0  -6 286541. 3818.41   1 
   3   0   7 156.266 97.4401   3 
  -3   0  -8 4411.53 346.492   3 
   3   0   8 3716.21 306.528   3 
  -3   0  -9-19.2127 79.8776   3 
   3   0   9 124.694 89.8638   3 
  -3   0 -10 125259. 2305.61   3 
   3   0  10 126767. 2311.54   3 
  -3   0 -11-52.4558 99.0443   3 
   3   0  11-74.1167 103.125   3 
  -3   0 -12 25759.2 916.517   3 
   3   0  12 25215.6 906.376   3 
  -3   0 -13-71.3393 96.6091   3 
   3   0  13-99.0144 132.685   3 
  -3   0 -14 878.337 187.385   3 
   3   0  14 793.197 173.323   3 
   3   0 -14 1205.48 242.536   4 
   3   0  15 318.408 151.786   3 
   3   0 -15 71.7629 125.928   4 
   3   0  16 13853.3 729.371   3 
   3   0  17 112.609 131.410   3 
   3   0  18 18596.5 891.356   3 
  -3   0 -18 16464.0 838.769   3 
   3   0  19 9.92553 135.551   3 
  -3   0 -19 4.06217 127.876   3 
  -3   0 -20 3165.68 384.329   3 
   3   0  20 3451.50 408.901   3 
   3   0 -20 3270.35 203.705   5 
  -3   0 -21-200.988 193.630   3 
   3   0  21 72.4292 152.536   3 
   3   0  21-14.1131 51.6247   5 
   3   0  22 5735.81 543.617   3 
  -3   0 -22 5615.05 537.441   3 
   3   0  22 5249.85 211.656   5 
   3   0  22 5891.94 624.725   4 
   3   0  23 93.8671 203.460   4 
   3   0  24 10054.2 861.218   4 
   3   0  25-95.1672 242.234   4 
   3   0  26-63.4500 210.115   4 
   3   0  27 145.632 286.187   4 
   3   0  28 1818.33 456.277   4 
   3   0  29 425.587 362.759   4 
   3   0  30 12515.6 1118.00   4 
  -3  -1   0 226.027 45.9501   2 
  -3   1   0 81.0946 96.9268   1 
  -3   1   0 318.412 80.5720   2 
   3  -1   1 2776.27 189.520   2 
  -3   1   1 2867.46 210.724   2 
  -3   1   1 2458.89 232.150   1 
  -3  -1   2 34680.9 767.531   1 
  -3   1   2 32382.4 860.243   1 
   3  -1   2 33114.6 748.573   2 
   3   1   3 2962.12 272.381   3 
   3  -1  -3 3267.90 248.862   1 
  -3  -1   3 2994.34 195.696   1 
   3  -1  -4 26515.3 736.593   1 
   3   1   4 27625.5 859.387   3 
   3  -1   5 46868.4 1109.91   3 
   3   1   5 48531.2 1191.88   3 
   3  -1  -5 45117.8 1018.79   1 
   3   1  -6 40355.3 776.184   1 
   3  -1   6 41662.1 1039.31   3 
   3   1   6 41471.0 1108.76   3 
   3  -1  -6 40177.0 947.626   1 
   3  -1   7 140115. 2292.24   3 
   3   1   7 132288. 2378.08   3 
  -3  -1  -7 136731. 2397.80   3 
   3   1  -7 132576. 1915.43   1 
   3  -1   8 9768.40 480.044   3 
   3   1   8 9289.11 508.429   3 
  -3  -1  -8 9731.49 522.510   3 
  -3  -1  -9 13106.0 622.092   3 
   3  -1   9 12576.2 558.926   3 
   3   1   9 14027.4 638.902   3 
  -3  -1 -10 19240.8 779.932   3 
   3  -1  10 18265.4 700.719   3 
  -3   1 -10 19278.9 711.665   3 
   3   1  10 17845.3 760.339   3 
  -3   1 -11 463.217 136.962   3 
  -3  -1 -11 515.127 153.347   3 
   3  -1  11 224.539 116.650   3 
   3   1  11 318.576 133.434   3 
  -3   1 -12 284.186 130.152   3 
   3  -1  12 360.690 127.928   3 
  -3  -1 -12 475.567 130.932   3 
   3   1  12 207.422 120.891   3 
  -3   1 -13 1762.52 235.112   3 
   3  -1  13 1520.25 212.070   3 
   3   1  13 1305.46 221.861   3 
   3  -1 -14 22902.9 1019.90   4 
  -3   1 -14 22755.4 867.336   3 
   3  -1  14 23191.1 873.772   3 
   3   1  14 21211.4 914.088   3 
   3  -1 -15 17384.7 900.572   4 
  -3   1 -15 16002.1 737.964   3 
   3   1  15 16275.2 806.830   3 
   3  -1  15 15925.1 734.124   3 
   3   1 -15 18265.0 924.161   4 
   3   1  16 4068.80 415.033   3 
   3  -1  16 3911.05 370.389   3 
   3  -1  17 16306.0 779.479   3 
  -3  -1 -17 17404.8 864.539   3 
   3   1  17 15609.8 833.863   3 
   3   1  18 5961.83 538.116   3 
   3  -1  18 4977.62 454.809   3 
  -3  -1 -18 6192.77 534.880   3 
   3   1  19 1422.71 276.921   3 
   3  -1  19 1446.03 269.916   3 
  -3  -1 -19 1472.59 288.315   3 
   3   1 -19 1228.99 148.867   5 
   3   1  20 132.893 142.020   3 
   3   1 -20-27.5739 53.8018   5 
  -3   1 -20-54.7217 133.742   3 
   3  -1  20 251.437 178.595   3 
  -3  -1 -20 193.371 184.135   3 
   3   1  20 55.8226 59.1164   5 
  -3   1 -21-40.7787 149.610   3 
   3   1  21 325.977 173.458   3 
  -3  -1 -21 125.189 141.348   3 
   3  -1  21 150.977 128.134   3 
   3  -1 -21 153.760 41.5106   5 
   3   1  21 193.087 66.4364   5 
   3   1  21 154.382 175.160   4 
   3   1  22 5878.42 569.785   3 
  -3   1 -22 5650.42 514.908   3 
   3  -1  22 6012.33 533.105   3 
   3  -1  22 5916.39 640.107   4 
   3   1  22 5501.12 616.583   4 
  -3   1 -23 14549.6 842.732   3 
   3   1  23 10856.5 798.521   3 
   3  -1  23 13033.1 962.332   4 
   3   1  23 13037.3 949.936   4 
   3  -1  24-187.465 239.603   4 
   3   1  24 275.034 229.616   4 
   3  -1  25 796.015 302.429   4 
   3   1  25 540.550 222.427   4 
   3  -1  26 315.325 221.979   4 
   3   1  26 240.458 210.044   4 
   3  -1  27 187.149 264.186   4 
   3   1  27-101.891 216.026   4 
   3  -1  28 8097.18 864.599   4 
   3   1  28 8425.55 877.265   4 
   3   1  29 4759.21 696.695   4 
   3  -1  29 6757.02 829.853   4 
   3   1  30 1542.21 478.679   4 
  -3   2   0 28.6054 94.0475   1 
  -3   2   0 12.0244 82.2976   2 
   3  -2   1 8619.23 385.314   2 
  -3   2   1 8154.46 393.023   2 
  -3   2  -1 7368.48 432.082   1 
  -3   2   1 7830.54 428.943   1 
  -3   2   2 38325.8 958.812   2 
   3   2   2 35747.8 1011.60   3 
  -3   2   2 38573.4 990.650   1 
   3  -2   2 38631.0 894.180   2 
   3  -2  -2 36049.6 960.946   1 
   3  -2  -3 13178.8 541.374   1 
   3   2   3 14496.9 612.576   3 
  -3  -2   3 13450.9 390.124   1 
   3   2   4 2794.56 272.305   3 
   3  -2  -4 3441.59 269.291   1 
  -3  -2   4 2748.93 153.355   1 
   3   2   5 756.328 171.401   3 
   3  -2  -5 63.3521 75.8015   1 
   3  -2   6 3029.08 248.904   3 
   3   2   6 3626.23 327.224   3 
   3   2  -7 3665.45 154.141   1 
  -3  -2  -7 4249.38 359.747   3 
   3  -2   7 4705.68 314.213   3 
   3   2   7 4208.30 359.506   3 
  -3  -2  -8 25700.9 901.746   3 
   3  -2   8 24603.1 749.497   3 
   3   2   8 24571.9 884.345   3 
   3   2  -8 22939.1 479.107   1 
  -3  -2  -9 98927.4 2047.39   3 
   3  -2   9 96171.0 1780.59   3 
   3   2   9 97011.5 2025.49   3 
  -3  -2 -10 9806.17 571.001   3 
   3  -2  10 8689.20 448.933   3 
   3   2  10 10717.1 595.053   3 
   3  -2 -11 2927.70 321.134   4 
   3  -2  11 2750.23 260.104   3 
   3   2  11 2617.26 302.934   3 
   3  -2 -12 5903.58 478.114   4 
  -3   2 -12 5456.64 375.545   3 
   3  -2  12 5971.98 386.621   3 
   3   2  12 4891.81 423.685   3 
   3  -2 -13 2908.18 350.078   4 
  -3   2 -13 2511.27 263.150   3 
   3  -2  13 2618.64 267.389   3 
   3   2  13 2366.36 317.954   3 
   3   2 -14 9538.16 649.811   4 
   3  -2 -14 10239.8 680.155   4 
  -3   2 -14 9903.24 531.021   3 
   3   2  14 8995.00 601.282   3 
   3  -2  14 9446.22 517.035   3 
   3   2 -15-214.557 149.460   4 
   3  -2  15-62.3033 143.832   3 
   3  -2 -15-219.749 196.657   4 
  -3   2 -15 123.856 109.767   3 
  -3  -2 -15 155.967 145.465   3 
   3   2  15 141.108 145.851   3 
   3  -2  16 10243.0 572.940   3 
  -3   2 -16 10803.0 583.724   3 
  -3  -2 -16 11512.0 706.587   3 
   3   2  16 10085.8 677.276   3 
   3   2  17 4687.77 479.705   3 
  -3   2 -17 4558.83 403.724   3 
  -3  -2 -17 4920.53 493.647   3 
   3  -2  17 4847.88 408.153   3 
   3   2 -17 4482.45 305.854   5 
   3   2  18 27149.4 1178.47   3 
   3  -2  18 28996.3 1042.90   3 
  -3  -2 -18 28644.6 1185.93   3 
   3   2  18 28186.6 834.897   5 
   3   2 -18 28590.1 791.883   5 
   3   2  19 18077.6 977.062   3 
   3   2 -19 16893.6 569.342   5 
  -3  -2 -19 19328.8 991.285   3 
   3  -2  19 17920.7 833.846   3 
   3   2  19 18439.3 635.626   5 
   3   2  20 16967.4 953.090   3 
   3  -2  20 17390.8 829.937   3 
  -3  -2 -20 16107.1 923.983   3 
   3   2 -20 15560.2 510.178   5 
   3   2  20 16307.7 571.978   5 
   3  -2  21 12546.5 724.367   3 
   3   2  21 15110.9 920.673   3 
   3   2  21 13079.8 898.948   4 
   3   2  21 13642.8 480.543   5 
   3   2  22 4045.79 506.572   4 
  -3   2 -22 3133.94 369.686   3 
   3   2  22 4140.86 482.631   3 
   3   2  23 1029.43 305.899   3 
   3  -2  23 728.465 257.012   4 
   3   2  23 862.364 293.744   4 
   3  -2  24 674.641 284.520   4 
   3   2  24 126.235 203.383   4 
   3   2  24 368.099 214.919   3 
   3  -2  25 1057.21 325.360   4 
   3   2  25 1379.92 345.769   4 
   3   2  26 3321.16 550.253   4 
   3  -2  26 3924.39 597.492   4 
   3  -2  27 2660.15 499.692   4 
   3   2  27 4022.30 604.330   4 
   3  -2  28 504.051 342.128   4 
   3   2  28 205.658 219.758   4 
   3  -2  29 771.460 359.585   4 
   3   2  29 320.259 294.706   4 
   3   2  30 10.5101 295.896   4 
   3  -3   0-99.4914 94.2792   2 
  -3   3   0-34.5109 87.8239   2 
  -3   3   0 148.696 121.922   1 
   3  -3   0 63.6861 106.064   1 
   3   3   1 212399. 3295.18   3 
   3  -3   1 213743. 3127.22   2 
  -3   3   1 203204. 3258.22   1 
   3  -3  -1 210508. 3240.99   1 
  -3   3   1 210013. 3180.05   2 
   3  -3  -2 55790.4 1315.23   1 
   3  -3   2 59548.4 1253.68   2 
  -3   3   2 57734.1 1292.99   2 
   3   3   3 55528.9 1357.41   3 
   3  -3  -3 55647.8 1306.60   1 
   3   3   4 18284.5 731.016   3 
   3  -3  -4 16868.2 661.214   1 
  -3  -3   4 16641.5 371.255   1 
   3   3   5 44446.2 1220.98   3 
   3  -3   6 3737.00 267.790   3 
   3   3   6 4338.40 367.006   3 
   3  -3   7 70928.9 1380.46   3 
   3   3   7 71080.2 1657.61   3 
   3  -3   8 19652.4 641.962   3 
   3   3   8 21483.3 856.155   3 
  -3  -3  -9 32995.1 1095.31   3 
   3  -3   9 29892.0 826.548   3 
   3   3   9 31780.1 1079.10   3 
   3  -3  10 9007.78 430.888   3 
   3   3  10 8199.36 545.632   3 
   3  -3  11 46046.6 1094.42   3 
   3   3  11 46667.6 1395.15   3 
   3  -3 -12 42711.0 1345.48   4 
   3   3  12 42152.9 1340.37   3 
   3  -3  12 42014.5 1053.84   3 
   3  -3 -13 23095.4 988.770   4 
   3  -3  13 23660.0 774.996   3 
   3   3  13 22386.4 975.871   3 
   3  -3 -14 3319.79 392.082   4 
   3   3  14 4064.33 426.351   3 
  -3  -3 -14 3516.52 394.422   3 
   3  -3  14 3798.54 309.903   3 
   3   3 -14 3884.64 421.647   4 
   3  -3 -15 540.000 164.325   4 
   3  -3  15 610.835 143.569   3 
  -3   3 -15 682.510 146.401   3 
  -3  -3 -15 464.451 184.855   3 
   3   3  16 1564.23 282.623   3 
  -3   3 -16 1794.63 233.504   3 
   3  -3  16 1281.86 194.239   3 
  -3  -3 -16 2040.37 318.313   3 
   3   3 -16 1698.88 208.147   5 
   3   3  17 6168.50 559.701   3 
   3  -3  17 6040.50 427.489   3 
  -3  -3 -17 6766.76 569.387   3 
  -3   3 -17 6955.39 454.862   3 
   3   3  17 6357.19 400.441   5 
   3   3 -17 5196.21 350.880   5 
   3   3  18 35940.1 1414.75   3 
   3  -3  18 38480.6 1158.29   3 
  -3   3 -18 37544.3 1137.08   3 
  -3  -3 -18 38129.7 1409.14   3 
   3   3 -18 34801.4 938.575   5 
   3   3  18 36826.1 1005.53   5 
   3   3 -19 10573.5 468.613   5 
   3   3  19 11397.1 796.343   3 
   3  -3  19 12370.2 647.642   3 
  -3   3 -19 12298.9 642.738   3 
   3   3  19 11640.8 524.056   5 
   3   3  20 7306.26 655.503   3 
   3   3  20 7604.87 403.428   5 
   3  -3  20 7631.71 527.090   3 
   3   3  20 8103.95 680.274   4 
   3   3  21 1329.75 321.372   4 
   3   3  21 826.435 250.639   3 
   3   3  22-116.316 186.944   4 
   3   3  22-85.3762 216.521   3 
   3  -3 -22 43.8475 41.2672   5 
   3   3  23 209.336 196.481   3 
   3   3  23 302.633 224.675   4 
   3  -3  23 252.827 194.817   4 
   3   3  24 13290.0 942.614   3 
   3   3  24 12210.4 931.778   4 
   3  -3  24 11002.1 935.797   4 
   3   3  25 1566.81 417.484   4 
   3  -3  25 1448.47 407.717   4 
   3  -3  26 10532.1 945.568   4 
   3   3  26 10136.1 914.630   4 
   3  -3  27 1987.47 474.985   4 
   3   3  27 1673.45 387.543   4 
   3   3  28 5827.63 713.297   4 
   3  -3  28 5786.20 736.215   4 
   3  -3  29 978.698 385.745   4 
   3   3  29 964.909 351.554   4 
   3   3  30 2597.47 525.139   4 
   3  -4   0 15.0135 85.1733   2 
   3  -4   0 163.404 111.250   1 
   3   4   0 79.5800 124.685   3 
  -3   4   0 40.4035 81.6581   2 
   3  -4   1 1632.04 211.387   2 
   3   4  -1 1712.81 243.490   3 
   3   4   1 1744.11 240.940   3 
   3  -4  -1 1651.64 234.903   1 
  -3  -4  -1 1669.60 99.1456   2 
   3  -4   1 1673.75 220.632   1 
  -3   4   1 1416.63 207.485   2 
   3   4   2 10969.1 562.341   3 
   3  -4   2 10342.6 505.101   2 
  -3   4   2 9583.31 516.073   2 
   3  -4  -2 9805.80 526.628   1 
   3   4   3 40656.4 1170.75   3 
   3  -4  -3 41994.2 1159.32   1 
   3   4   4 42351.3 1206.02   3 
   3  -4  -4 39645.2 1133.27   1 
   3   4   4 42112.9 716.365   2 
   3   4   5 1817.52 256.030   3 
   3   4   6 71964.0 1696.57   3 
   3   4  -7 32946.7 1011.44   4 
   3  -4   7 34125.3 838.304   3 
   3   4   7 33303.2 1113.05   3 
   3   4  -8 36447.2 1094.39   4 
   3  -4   8 32640.1 827.247   3 
   3   4   8 35336.8 1154.33   3 
   3  -4   9 291.251 78.1817   3 
   3   4   9 38.3853 146.174   3 
   3  -4  10 5192.74 306.068   3 
   3   4  10 5586.44 471.461   3 
   3  -4  11 4986.24 307.211   3 
   3   4  11 4355.78 436.314   3 
   3   4 -12 4912.43 447.625   4 
   3  -4 -12 4995.42 439.378   4 
   3  -4  12 5184.61 320.900   3 
   3   4  12 4508.55 439.755   3 
   3  -4 -13 6747.32 529.776   4 
   3   4  13 7132.69 576.233   3 
  -3  -4 -13 7824.42 587.960   3 
   3  -4  13 6430.06 365.641   3 
   3   4 -13 7950.70 579.788   4 
   3   4  14 10128.9 536.106   5 
   3  -4 -14 9239.21 636.113   4 
   3   4 -14 10370.7 528.604   5 
  -3  -4 -14 11271.8 711.881   3 
   3   4  14 10394.9 692.548   3 
   3  -4  14 8393.26 439.143   3 
   3   4 -14 10408.1 694.815   4 
   3  -4  15 3342.34 281.406   3 
   3  -4 -15 3908.30 429.766   4 
   3   4 -15 3852.35 325.518   5 
  -3  -4 -15 3811.88 423.074   3 
   3   4  15 3948.75 333.035   5 
   3   4  15 4014.64 454.545   3 
   3  -4  16 4905.58 351.794   3 
  -3  -4 -16 6501.50 563.223   3 
   3   4 -16 6449.79 407.034   5 
   3   4  16 6936.05 438.304   5 
   3   4  16 6266.70 549.495   3 
   3   4  17 4.40810 148.742   3 
  -3  -4 -17 60.3644 187.613   3 
   3  -4  17-0.92048 92.6015   3 
   3   4  17 379.862 130.498   5 
   3   4 -17 134.752 118.185   5 
   3   4  18 10905.1 792.415   3 
   3  -4  18 11389.0 568.145   3 
   3   4 -18 9881.12 495.931   5 
   3   4  18 11180.9 543.438   5 
  -3   4 -19 471.104 164.525   3 
   3   4  19 193.839 200.891   3 
   3  -4  19 100.297 117.630   3 
   3   4  19 42.9670 86.4946   5 
   3   4 -19 216.137 116.679   5 
   3   4  19 219.977 218.102   4 
   3   4  20 2823.82 421.789   4 
  -3   4 -20 2484.43 279.310   3 
   3   4  20 2980.88 271.406   5 
   3   4  20 2954.36 436.988   3 
   3   4  21 6180.28 644.894   3 
  -3   4 -21 4983.86 403.561   3 
   3   4  21 5324.06 582.409   4 
   3   4  22 2355.73 398.482   4 
   3  -4 -22 1817.66 158.819   5 
   3   4  22 2355.59 409.290   3 
   3   4 -22 2139.19 354.500   3 
   3   4  23 1604.98 339.692   4 
   3  -4  23 924.798 305.158   4 
   3   4  23 1463.41 337.811   3 
   3   4  24 145.005 257.848   4 
   3   4  24-113.898 199.558   3 
   3  -4  24 113.538 285.256   4 
   3  -4  25 541.368 340.677   4 
   3   4  25 198.866 226.436   4 
   3   4  26-204.627 236.089   4 
   3  -4  26-246.589 264.870   4 
   3   4  27 6476.66 747.709   4 
   3  -4  27 6046.66 752.900   4 
   3  -4  28 327.177 297.566   4 
   3   4  28 137.614 234.531   4 
   3  -4  29-35.8884 226.176   4 
   3   4  29-89.3470 269.704   4 
   3   4  30 120.339 236.063   4 
   3  -5   0-24.0741 83.3021   1 
   3  -5   0-106.513 100.271   2 
   3  -5  -1 20549.3 779.116   2 
   3   5  -1 17841.0 734.752   3 
   3   5   1 17881.2 750.304   3 
   3  -5   1 19479.6 755.514   2 
  -3  -5  -1 17335.4 448.378   2 
   3  -5   1 19527.7 798.043   1 
   3  -5  -1 19774.1 800.305   1 
   3   5  -2 591.969 152.668   3 
   3   5   2 460.028 163.542   3 
   3  -5  -2 161.771 110.964   1 
   3  -5   2 244.567 116.343   2 
   3   5   3 10479.3 581.410   3 
   3  -5   3 12014.3 597.727   2 
   3  -5  -3 10704.7 585.084   1 
   3   5   4 12526.7 654.113   3 
   3  -5  -4 11485.6 615.198   1 
   3   5   4 13132.8 386.428   2 
   3   5   5 7662.39 513.538   3 
   3   5   5 8261.55 323.904   2 
   3   5   6 26127.5 982.207   3 
   3   5  -6 26426.1 863.760   4 
   3   5  -7 30929.2 976.852   4 
   3   5   7 30923.9 1103.72   3 
   3   5  -8 5538.56 419.749   4 
   3  -5   8 5460.13 300.857   3 
   3   5   8 5872.23 481.392   3 
   3  -5   9 6727.57 328.402   3 
   3   5   9 7537.50 554.322   3 
   3  -5  10 7153.89 335.060   3 
   3   5  10 6348.18 513.237   3 
   3   5 -11 1638.03 252.011   4 
   3   5 -11 2299.40 262.606   5 
  -3  -5 -11 2438.33 318.887   3 
   3  -5  11 2851.15 214.519   3 
   3   5  11 2039.61 308.339   3 
   3  -5 -12 30476.0 1121.40   4 
  -3  -5 -12 33174.9 1242.71   3 
   3   5  12 31242.4 1030.41   5 
   3  -5  12 31716.3 784.008   3 
   3   5 -12 30829.6 997.857   5 
   3   5  12 32096.4 1239.81   3 
   3   5 -12 33513.7 1195.04   4 
   3  -5 -13 34372.8 1227.47   4 
  -3  -5 -13 38035.5 1345.02   3 
   3  -5  13 34555.2 844.955   3 
   3   5  13 34997.9 1099.89   5 
   3   5 -13 33264.0 1050.31   5 
   3   5  13 34030.5 1313.02   3 
   3   5 -13 36094.3 1279.25   4 
   3  -5 -14 3755.86 407.826   4 
   3   5 -14 3028.67 311.025   5 
   3   5 -14 3129.99 383.946   4 
  -3  -5 -14 3177.17 396.191   3 
   3   5 -14 2807.21 166.323   1 
   3   5  14 3467.23 342.271   5 
   3   5  14 3336.34 423.382   3 
   3  -5  14 3543.28 255.069   3 
   3  -5  15 13650.6 527.404   3 
   3   5 -15 13288.6 629.090   5 
  -3  -5 -15 15429.3 881.062   3 
   3  -5 -15 16056.9 860.219   4 
   3   5  15 14487.6 678.147   5 
   3   5  15 15119.0 882.669   3 
   3   5  16 9942.50 742.497   3 
   3  -5  16 11213.8 487.192   3 
   3   5  16 10934.9 584.539   5 
   3   5 -16 10660.6 556.478   5 
   3  -5  17 6335.95 369.867   3 
   3   5  17 6844.76 462.930   5 
   3   5 -17 6377.44 424.652   5 
   3   5  17 6796.24 638.057   3 
   3   5  18 14761.3 956.214   3 
   3   5  18 15430.9 684.601   5 
   3   5 -18 15067.3 653.664   5 
   3   5  18 14644.8 850.026   4 
   3   5  19 43411.4 1677.90   3 
   3   5  19 44858.4 1210.96   5 
   3   5  19 44486.6 1577.12   4 
   3   5  20 4241.56 542.593   3 
   3   5  20 3540.74 479.221   4 
   3   5  21 33643.5 1529.45   3 
   3   5  21 32597.3 1404.53   4 
   3   5  22 560.508 225.025   4 
   3  -5 -22 440.490 96.8741   5 
   3   5  22 301.910 235.566   3 
   3   5  23 9520.53 841.105   3 
   3  -5  23 9040.53 833.886   4 
   3   5  23 8970.51 773.437   4 
   3   5  24 1097.53 320.107   4 
   3   5  24 560.462 256.153   3 
   3  -5  24 337.766 209.189   4 
   3   5  25 7342.49 738.535   4 
   3   5  25 7811.28 785.896   3 
   3  -5  25 8118.61 825.835   4 
   3   5  26 693.131 301.189   4 
   3  -5  26 581.452 327.727   4 
   3   5  27 11284.9 965.323   4 
   3  -5  27 11380.3 1035.46   4 
   3  -5  28 2453.23 519.741   4 
   3   5  28 1824.34 433.858   4 
   3   5  29 128.354 200.769   4 
   3   5  30 509.104 278.790   4 
   3   5  31 775.496 353.837   4 
   3  -6   0 252.265 96.0927   2 
   3   6   0 57.5603 106.464   3 
   3  -6   0 26.4882 114.894   1 
   3   6  -1 7282.69 473.814   3 
   3   6   1 6747.53 466.881   3 
   3  -6   1 6197.17 447.814   2 
   3  -6   1 6793.35 490.011   1 
  -3  -6  -1 7122.01 311.867   2 
   3  -6  -1 6933.56 490.650   1 
   3  -6  -1 6364.63 463.488   2 
   3  -6   2 57719.0 1559.35   1 
   3   6  -2 63757.0 1511.77   3 
   3   6   2 63197.8 1573.94   3 
   3  -6   2 61991.3 1555.86   2 
   3  -6  -2 61638.0 1595.86   1 
   3  -6  -3 193.435 174.234   1 
   3   6  -3 366.413 159.405   3 
   3   6   3 290.469 173.340   3 
   3  -6   3 261.162 160.096   2 
   3   6  -4 43767.1 1212.97   3 
   3   6   4 42874.6 1300.24   3 
   3   6  -5 8395.77 458.007   4 
   3   6   5 7828.73 547.417   3 
   3   6   5 7185.75 348.314   2 
   3   6  -6 8615.32 478.851   4 
   3   6   6 8730.50 583.389   3 
   3   6   6 7575.70 361.506   2 
   3   6  -7 5956.62 411.065   4 
   3   6   7 5831.90 484.331   3 
   3   6  -7 5787.59 437.274   5 
   3   6  -8 50391.5 1338.15   4 
   3   6   8 49377.2 1385.02   5 
   3  -6   8 51539.0 1013.03   3 
   3   6  -8 48711.1 1357.31   5 
   3   6   8 50126.4 1514.47   3 
   3  -6   9 2128.30 172.936   3 
   3   6   9 2709.34 319.288   5 
   3   6  -9 2397.70 295.367   5 
   3   6   9 2746.02 365.025   3 
   3  -6  10 14262.2 447.207   3 
   3   6  10 14050.4 800.932   3 
   3   6  10 13204.8 676.738   5 
   3   6 -10 13716.6 679.154   5 
   3   6 -11 756.129 179.970   4 
   3   6  11 913.033 190.825   5 
  -3  -6 -11 638.573 217.392   3 
   3  -6  11 755.308 106.025   3 
   3   6 -11 678.526 166.726   5 
   3   6  11 746.099 214.730   3 
   3   6 -12 61.3467 111.586   4 
   3  -6 -12 29.2030 101.417   4 
  -3  -6 -12 257.794 159.414   3 
   3   6 -12 22.2555 95.0411   5 
   3   6  12-50.0816 115.138   5 
   3  -6  12 51.6161 46.2472   3 
   3   6  12 212.947 139.286   3 
   3  -6 -13 9841.54 635.714   4 
  -3  -6 -13 10059.1 697.077   3 
   3  -6 -13 8597.69 669.580   3 
   3   6  13 9324.18 565.179   5 
   3   6 -13 9092.00 543.344   5 
   3   6  13 9015.14 676.171   3 
   3  -6  13 9304.02 359.335   3 
   3   6 -13 8848.19 620.880   4 
   3  -6  14 23125.1 610.071   3 
  -3  -6 -14 22287.4 1072.97   3 
   3   6  14 21469.9 878.358   5 
   3   6 -14 21559.7 1016.42   4 
   3   6 -14 20166.1 832.445   5 
   3   6  14 20241.8 1047.53   3 
   3  -6 -15 6437.77 551.854   4 
   3  -6  15 6095.13 306.403   3 
   3   6 -15 5631.00 239.745   1 
   3   6  15 5389.28 436.045   5 
   3   6 -15 6199.78 452.852   5 
   3   6  15 5649.61 566.627   3 
   3   6  16 2155.70 377.122   3 
   3   6  16 1880.44 264.257   5 
   3   6 -16 1427.38 140.954   1 
   3   6 -16 1728.83 252.390   5 
   3   6  17 23154.9 1193.20   3 
   3   6 -17 22045.5 618.016   1 
   3   6  17 23461.1 904.194   5 
   3   6 -17 22328.6 865.492   5 
   3   6  17 23409.7 1034.06   4 
   3   6  18 880.133 272.883   4 
   3   6  18 776.162 314.752   3 
   3   6 -18 363.998 108.242   1 
   3   6  18 394.261 151.914   5 
   3   6  19 437.136 210.770   4 
   3   6  19-69.7005 211.180   3 
   3   6 -19 425.546 113.550   1 
   3   6  20 5916.78 635.625   3 
   3   6  20 6675.82 609.783   4 
   3   6  21 478.362 215.203   4 
   3   6  21 882.073 344.722   3 
   3   6  22 7109.15 726.288   3 
   3  -6 -22 6397.01 379.857   5 
   3   6  22 6894.92 647.643   4 
   3   6  23 1781.35 369.377   4 
   3   6  23 2341.57 448.557   3 
   3  -6  23 2044.23 427.705   4 
   3   6  24-192.842 228.049   4 
   3  -6  24 202.107 217.561   4 
   3   6  24 286.164 203.552   3 
   3  -6  25 910.177 380.149   4 
   3   6  25 510.769 287.872   4 
   3   6  25 545.667 289.790   3 
   3   6  26 4260.74 594.025   4 
   3  -6  26 5469.92 706.912   4 
   3   6  27 1165.99 400.828   4 
   3  -6  27 470.449 278.305   4 
   3  -6  28 1281.64 390.465   4 
   3   6  28 800.979 323.896   4 
   3   6  29-189.436 270.377   4 
   3   6  30 40.1329 264.865   4 
   3   6  31-87.7990 289.059   4 
   3  -7   0 66.9864 135.510   1 
   3  -7   0-279.428 205.352   2 
   3   7   0-107.668 122.338   3 
  -3  -7   0-98.9159 97.2684   2 
   3   7   0 197.199 149.308   5 
   3  -7  -1 21828.4 917.513   2 
  -3  -7  -1 21661.3 874.111   3 
   3  -7   1 23584.5 937.056   2 
   3  -7   1 24471.3 986.979   1 
   3   7  -1 20404.9 838.466   3 
   3   7   1 21718.9 880.431   3 
  -3  -7  -1 20233.9 634.446   2 
   3   7   1 22750.4 917.178   5 
   3  -7  -1 23005.8 959.005   1 
   3   7  -1 21268.3 892.917   5 
  -3  -7  -2 105847. 1791.44   2 
  -3  -7  -2 111485. 2276.80   3 
   3   7  -2 105337. 2187.58   3 
   3   7   2 111864. 2316.84   5 
   3   7   2 109384. 2281.53   3 
   3  -7   2 113388. 2354.90   2 
   3  -7  -2 114132. 2401.28   1 
   3   7  -2 107612. 2286.34   5 
   3  -7   2 115437. 2403.09   1 
   3   7  -3 568031. 7753.64   3 
   3   7   3 586927. 7957.37   5 
   3  -7   3 597558. 8064.17   1 
   3   7   3 572168. 7915.93   3 
   3  -7   3 590823. 7990.84   2 
   3  -7  -3 590851. 8052.43   1 
   3   7  -3 578369. 7913.90   5 
   3   7  -4 41516.8 1046.05   4 
   3   7  -4 43159.7 1231.47   3 
   3   7   4 41370.4 1335.49   3 
   3   7   4 45073.0 1349.57   5 
   3   7  -4 41437.7 1300.48   5 
   3   7  -5 348359. 4797.58   4 
   3   7  -5 345714. 5007.75   3 
   3   7  -5 340109. 5175.05   5 
   3   7   5 336386. 5270.98   3 
   3   7   5 349655. 4610.83   2 
   3   7   5 347865. 5225.83   5 
   3   7   6 622.786 136.679   2 
   3   7  -6 1174.19 202.764   4 
   3   7  -6 451.250 170.894   3 
   3   7   6 1136.77 278.009   3 
  -3  -7   6 736.493 84.2346   1 
   3   7   6 1273.63 288.806   5 
   3   7  -6 961.336 220.800   5 
   3   7  -7 29157.5 941.405   4 
   3   7   7 27982.1 1043.72   5 
   3   7   7 26947.4 1091.86   3 
   3   7  -7 27465.2 1022.10   5 
   3   7   7 27893.3 826.041   2 
   3   7  -8 101.477 118.071   4 
   3   7   8-58.8172 79.7181   2 
   3   7  -8 51.5406 119.394   5 
   3   7   8-1.73927 122.735   5 
   3   7   8 25.1209 147.278   3 
  -3   7  -9 120511. 2698.18   1 
   3   7  -9 118726. 2412.20   5 
   3   7   9 116223. 2617.95   3 
   3   7   9 118080. 2442.57   5 
   3  -7   9 115860. 1752.50   3 
   3   7  10 14130.9 738.962   5 
   3  -7  10 14035.2 412.598   3 
   3   7  10 14906.8 846.801   3 
   3   7 -10 14278.6 728.433   5 
  -3   7 -10 13596.6 839.510   1 
  -3   7 -11 24463.0 1142.62   1 
  -3  -7 -11 25992.1 1133.04   3 
   3  -7  11 25169.2 560.025   3 
   3   7  11 26461.0 1015.64   5 
   3   7 -11 24331.3 959.571   5 
   3   7  11 24274.0 1126.62   3 
   3   7 -11 24917.0 997.612   4 
   3   7  12 10362.0 630.234   5 
   3  -7 -12 9862.30 717.740   3 
  -3  -7 -12 10771.7 722.616   3 
  -3   7 -12 9370.56 705.476   1 
   3   7 -12 9185.51 574.080   5 
   3  -7  12 8472.84 294.585   3 
   3   7  12 9571.17 706.097   3 
   3   7 -12 9813.73 638.798   4 
   3   7 -13 33.5614 171.006   4 
   3  -7 -13 140.149 120.584   4 
   3  -7  13 86.6089 37.4572   3 
   3   7  13-9.66322 115.531   5 
   3   7 -13 10.9655 109.334   5 
   3   7  14 407.332 224.848   3 
   3  -7 -14-14.7755 143.732   4 
   3   7 -14 119.378 108.825   5 
   3  -7  14 67.4447 36.4144   3 
   3   7  14 211.032 144.068   5 
   3   7 -14 170.778 160.131   4 
   3   7  15 3104.81 435.141   3 
   3   7 -15 3076.75 342.116   5 
   3   7  15 3725.36 379.738   5 
   3   7  15 3072.98 344.537   4 
   3  -7 -15 3487.37 395.848   4 
   3   7  16 4749.01 554.911   3 
   3   7  16 5144.41 450.520   5 
   3   7 -16 5127.06 432.076   5 
   3   7  16 5313.64 469.593   4 
   3   7  17 26712.4 1323.02   3 
   3   7  17 26484.3 1015.71   5 
   3   7 -17 25234.8 630.484   1 
   3   7  17 27137.9 1101.23   4 
   3   7  18 2057.94 341.954   4 
   3   7  18 2273.79 412.976   3 
   3   7 -18 1492.51 158.971   1 
   3   7  19 5335.67 601.927   3 
   3   7  19 5469.15 522.984   4 
   3   7 -19 5715.83 318.464   1 
   3   7  20 1867.54 342.598   4 
   3   7  20 1394.23 335.677   3 
   3   7 -20 1689.17 190.953   1 
   3   7 -21 2921.37 256.220   1 
   3   7  21 2856.22 410.113   4 
   3   7  21 2725.39 492.410   3 
   3   7  22 1725.78 353.623   4 
   3   7  22 1325.39 354.823   3 
   3  -7 -22 1460.35 205.023   5 
   3  -7  23 2959.39 486.051   4 
   3   7  23 3246.51 472.166   4 
   3   7  23 2512.00 458.770   3 
   3   7  24 6900.69 681.903   4 
   3   7  24 6043.67 729.010   3 
   3  -7  24 6151.33 715.507   4 
   3   7  25 5873.89 648.911   4 
   3   7  25 5730.86 709.917   3 
   3  -7  25 4945.27 650.943   4 
   3   7  26 963.050 329.343   4 
   3  -7  26 782.256 330.582   4 
   3   7  27 3347.76 552.210   4 
   3  -7  27 3450.58 602.782   4 
   3   7  28 20.9525 237.870   4 
   3   7  29-413.474 352.323   4 
   3   7  30 407.777 224.414   4 
   3   7  31 67.0861 225.111   4 
   3  -8   0-93.9457 151.072   2 
   3   8   0-159.658 168.483   3 
   3   8   0 61.9822 99.8967   5 
  -3  -8   0-8.56879 82.4973   2 
   3  -8   0 107.804 125.321   1 
  -3  -8  -1 6.79742 67.8954   2 
   3  -8   1 97.3457 104.009   2 
  -3  -8  -1-0.42238 138.106   3 
   3  -8  -1-13.4727 122.452   2 
   3  -8  -1 54.4279 131.468   1 
   3   8  -1-17.2915 133.392   3 
   3  -8   1 415.759 162.921   1 
   3   8   1-3.41115 115.967   3 
   3   8   1 260.908 148.783   5 
   3   8  -1 276.235 131.649   5 
  -3  -8  -2 14402.8 561.591   2 
   3   8  -2 14840.7 528.246   4 
  -3  -8  -2 16263.8 785.311   3 
   3   8  -2 14214.6 708.557   3 
   3   8   2 15180.1 770.635   3 
   3  -8   2 14826.8 796.051   1 
   3  -8   2 14904.0 790.575   2 
   3  -8  -2 13549.5 768.006   1 
   3   8   2 15733.8 792.249   5 
   3   8  -2 16529.8 806.984   5 
   3  -8   3 67689.5 1796.02   1 
   3   8  -3 61554.6 1286.46   4 
  -3  -8  -3 64130.3 1697.21   3 
   3   8  -3 62345.3 1579.14   3 
   3   8   3 61749.2 1680.15   3 
   3  -8  -3 62307.3 1758.48   1 
   3  -8   3 70082.7 1811.14   2 
   3   8   3 63390.9 1707.01   5 
   3   8  -3 64144.0 1713.41   5 
   3   8  -4 62799.4 1336.54   4 
  -3  -8  -4 63446.9 1696.29   3 
   3   8  -4 61286.2 1665.58   5 
   3   8  -4 60293.7 1535.30   3 
   3   8   4 61080.7 1679.73   5 
   3  -8   4 63620.4 1733.76   2 
   3   8   4 59212.4 1674.80   3 
   3   8  -5 21241.7 736.365   4 
   3   8  -5 19318.8 807.822   3 
   3   8   5 21152.2 928.316   5 
   3   8   5 20726.4 956.334   3 
   3   8  -5 20322.7 909.425   5 
   3   8  -6 1855.88 229.490   4 
   3   8  -6 1736.82 244.671   3 
   3   8   6 1872.35 314.848   3 
   3   8   6 1684.19 210.989   2 
  -3  -8   6 1576.49 144.184   1 
   3   8   6 1733.12 271.320   5 
   3   8  -6 1666.07 279.308   5 
   3   8  -7 18279.1 777.002   3 
   3   8  -7 18272.0 853.824   5 
  -3  -8   7 16901.6 456.964   1 
   3   8   7 18309.1 920.004   3 
   3   8   7 18276.9 696.547   2 
   3   8   7 18280.6 865.919   5 
   3   8  -7 18763.9 741.951   4 
   3   8   8 27176.8 892.971   2 
   3   8  -8 27367.2 963.680   3 
   3   8  -8 27103.1 957.256   4 
  -3   8  -8 26975.8 1191.09   1 
   3   8   8 26773.0 1153.99   3 
   3   8  -8 27277.8 1058.29   5 
   3   8   8 28373.2 1096.89   5 
   3   8   9 16354.5 703.543   2 
  -3   8  -9 14804.6 892.891   1 
   3  -8   9 14280.9 419.474   3 
   3   8  -9 16044.7 808.696   5 
   3  -8  -9 15592.0 861.239   3 
   3   8   9 14784.8 874.744   3 
   3   8   9 16813.3 835.235   5 
   3   8  10 16057.7 822.692   5 
   3   8 -10 14927.1 778.208   5 
  -3   8 -10 14534.3 891.431   1 
   3  -8 -10 15839.6 890.002   3 
  -3  -8 -10 16182.6 902.220   3 
   3  -8  10 14631.7 385.890   3 
   3   8  10 15634.6 898.305   3 
   3   8  11-51.7961 169.201   3 
   3   8 -11 172.224 108.610   4 
  -3   8 -11 394.453 192.040   1 
   3  -8 -11 212.220 146.028   3 
  -3  -8 -11 171.450 115.285   3 
   3   8  11 79.6369 103.002   5 
   3  -8  11 100.010 33.5710   3 
   3   8 -11 184.469 111.413   5 
   3   8  12 204.739 168.741   3 
  -3   8 -12 167.131 193.013   1 
   3   8 -12 678.014 189.058   4 
   3   8  12 702.114 197.001   5 
   3   8 -12 473.020 159.227   5 
   3   8  13 3886.43 477.510   3 
   3  -8 -13 2939.73 341.209   4 
   3   8  13 3822.06 406.824   5 
   3   8 -13 3582.93 387.131   5 
  -3   8 -13 2564.21 413.720   1 
   3   8 -13 3726.95 407.087   4 
  -3   8 -14 21206.5 1130.44   1 
   3  -8 -14 20315.4 952.759   4 
   3   8  14 21636.5 958.863   5 
   3   8  14 20111.8 1112.59   3 
   3   8 -14 21321.8 939.171   5 
   3   8  14 19856.2 832.488   4 
   3   8  15 117.220 134.377   4 
   3  -8 -15 325.291 154.838   4 
   3   8  15 144.384 219.525   3 
   3   8 -15-88.9538 147.062   5 
  -3   8 -15 365.493 251.951   1 
   3   8  15 163.247 128.753   5 
   3   8  16 4402.94 575.316   3 
   3   8  16 4368.93 437.851   5 
  -3   8 -16 3482.25 515.659   1 
   3   8  16 3969.39 410.152   4 
   3   8  17-213.891 231.547   3 
   3   8  17 131.373 145.458   4 
  -3   8 -17 89.3694 203.752   1 
   3   8  18 740.574 238.627   4 
   3   8  18 609.646 279.123   3 
   3   8  19 737.852 211.959   4 
   3   8  19 185.491 222.972   3 
   3   8  20 3598.31 525.961   3 
   3   8 -20 4117.23 270.663   1 
   3   8  20 3874.99 463.148   4 
   3   8  21 443.833 201.892   4 
   3   8  21 111.643 192.353   3 
   3   8  22 830.557 271.420   4 
   3   8  22 1027.22 354.094   3 
   3   8  23 4740.67 552.006   4 
   3   8  23 5325.52 684.620   3 
   3  -8  23 4735.35 610.404   4 
   3   8  24 345.648 210.266   4 
   3  -8  24 326.154 250.292   4 
   3   8  24 430.534 266.238   3 
   3   8  25 835.201 363.647   3 
   3  -8  25 1153.29 347.869   4 
   3   8  25 879.593 326.863   4 
   3   8  26 116.546 268.072   4 
   3  -8  26 23.1071 187.280   4 
   3  -8  27 1051.89 407.105   4 
   3   8  27 706.295 334.751   4 
   3   8  28-94.1211 241.994   4 
   3   8  29 260.302 250.921   4 
   3   8  30-196.563 243.762   4 
  -3  -9   0 158.675 156.717   3 
   3  -9   0-117.967 222.455   2 
   3   9   0 183.331 135.821   3 
   3  -9   0-125.698 143.124   1 
  -3  -9   0-162.945 134.071   2 
   3   9   0 57.1488 137.442   5 
   3  -9  -1 25095.1 1095.43   2 
   3  -9   1 26254.9 1115.94   1 
   3   9  -1 26567.3 685.271   4 
  -3  -9  -1 28420.1 1066.85   3 
  -3  -9  -1 25880.4 845.954   2 
   3   9  -1 26722.4 1027.93   3 
   3   9   1 25796.2 1038.93   3 
   3  -9  -1 25616.6 1116.61   1 
   3   9  -1 27572.5 1107.13   5 
   3   9   1 28200.9 1128.97   5 
   3  -9   1 25798.9 1097.56   2 
  -3  -9  -2 74970.7 1592.17   2 
  -3  -9  -2 79184.8 1932.47   3 
   3   9   2 78318.0 1995.83   5 
   3   9  -2 74670.3 1819.21   3 
   3  -9   2 79032.4 2045.76   1 
   3   9   2 73986.0 1903.14   3 
   3   9  -2 76288.7 1976.37   5 
   3  -9  -2 80622.9 2080.43   1 
   3  -9   2 81987.1 2087.32   2 
   3   9  -2 75992.8 1410.91   4 
   3   9  -3 119958. 2007.55   4 
   3   9  -3 117005. 2403.66   3 
   3   9   3 118146. 2568.65   3 
   3  -9  -3 120556. 2692.03   1 
   3  -9   3 126704. 2711.50   2 
   3   9  -3 117932. 2592.96   5 
   3   9   3 119399. 2608.54   5 
   3  -9   3 122808. 2683.62   1 
  -3  -9  -3 125490. 2588.43   3 
   3   9  -4 32522.2 894.861   4 
  -3  -9  -4 33820.7 1232.91   3 
   3   9  -4 33258.1 1225.67   5 
   3   9  -4 31191.4 1081.84   3 
   3   9   4 34030.6 1254.88   5 
   3  -9   4 34868.2 1301.36   1 
   3  -9   4 33582.6 1282.62   2 
   3   9   4 30884.2 1210.08   3 
   3   9  -5 28171.6 1128.96   5 
  -3  -9  -5 27689.9 1128.99   3 
   3   9  -5 26402.5 983.211   3 
   3   9   5 27284.1 1133.58   3 
   3   9   5 28433.1 1134.01   5 
   3   9  -5 28204.8 858.417   4 
   3   9  -6 4130.14 376.938   3 
  -3  -9  -6 4042.82 432.211   3 
   3  -9  -6 6101.36 508.814   3 
   3   9   6 3629.39 309.959   2 
  -3  -9   6 3903.12 257.690   1 
  -3   9  -6 5501.14 545.760   1 
   3   9   6 4059.47 451.808   3 
   3   9   6 4281.17 439.124   5 
   3   9  -6 4011.98 416.024   5 
   3   9  -6 3879.29 319.165   4 
  -3   9  -7 652.347 226.244   1 
  -3  -9   7 722.600 111.457   1 
   3   9  -7 643.123 209.659   3 
  -3  -9  -7 1015.05 260.192   3 
   3  -9  -7 588.569 194.635   3 
   3   9  -7 598.853 145.978   4 
   3   9   7 361.011 164.682   5 
   3   9  -7 708.465 209.141   5 
   3   9   7 500.265 174.831   3 
   3   9   7 482.646 137.777   2 
   3   9   8 15975.3 907.086   3 
   3   9  -8 16930.6 749.343   3 
   3  -9  -8 16603.9 893.121   3 
  -3  -9  -8 17158.1 918.067   3 
   3   9   8 16493.3 722.368   2 
  -3   9  -8 15998.1 941.401   1 
   3   9  -8 16062.6 842.703   5 
   3   9   8 17067.6 878.102   5 
   3   9  -9 3678.84 402.596   5 
  -3   9   9 3623.05 459.542   2 
   3  -9   9 3525.87 188.028   3 
   3   9  -9 4145.54 372.601   3 
   3  -9  -9 4002.60 450.057   3 
   3  -9   9 3257.66 181.475   3 
  -3  -9  -9 4486.83 477.285   3 
   3   9   9 3770.60 456.644   3 
   3   9   9 4210.71 436.332   5 
  -3   9  -9 4056.20 486.863   1 
   3   9   9 4429.84 377.688   2 
   3  -9  10 2815.09 133.059   3 
  -3   9 -10 3293.14 454.730   1 
   3   9 -10 3569.75 343.505   3 
   3   9  10 3602.80 354.117   2 
   3  -9  10 2762.85 131.960   3 
  -3   9  10 2683.91 380.928   2 
   3   9 -10 3308.22 380.669   5 
   3   9  10 3528.01 451.036   3 
   3   9  10 3278.35 378.235   5 
   3   9  11 3036.42 433.075   3 
   3   9  11 3237.96 352.259   2 
   3   9 -11 2970.31 320.783   3 
  -3   9 -11 3176.29 439.466   1 
   3   9 -11 2923.47 344.489   4 
   3   9  11 3179.56 388.124   5 
   3   9 -11 2700.82 346.255   5 
   3   9  12 3280.47 450.076   3 
  -3   9 -12 3553.05 482.080   1 
   3   9  12 4007.69 435.003   5 
   3   9 -12 3774.41 409.092   5 
   3   9  12 3653.73 315.968   4 
   3  -9 -13 4966.24 458.400   4 
  -3   9 -13 5404.18 581.790   1 
   3   9  13 5307.87 496.919   5 
   3   9 -13 5042.74 466.443   5 
   3   9  13 5276.90 570.044   3 
   3   9  13 4720.58 372.457   4 
   3  -9 -14 23442.8 1027.44   4 
  -3   9 -14 22946.9 1214.58   1 
   3   9  14 23329.5 1044.18   5 
   3   9 -14 22721.2 1017.07   5 
   3   9  14 24508.6 1258.90   3 
   3   9  14 22964.9 874.434   4 
   3   9  15 1469.44 291.392   4 
   3  -9 -15 1432.53 284.702   4 
   3   9  15 1619.63 405.292   3 
   3   9  15 1671.77 301.642   5 
  -3   9 -15 1487.75 426.153   1 
   3   9  16 83735.5 2538.33   3 
  -3   9 -16 88750.2 2554.23   1 
   3   9  16 81518.9 1961.68   4 
   3   9  17 2870.15 363.418   4 
   3   9  17 2813.16 495.452   3 
  -3   9 -17 2603.79 480.847   1 
   3   9  18 9283.36 838.271   3 
   3   9  18 9948.72 658.538   4 
  -3   9 -18 9857.05 825.620   1 
   3   9  19-7.81709 139.350   4 
  -3   9 -19-67.4516 211.447   1 
   3   9  19-57.8381 203.829   3 
   3   9  20 11331.8 767.432   4 
  -3   9 -20 12801.2 988.687   1 
   3   9  20 12089.2 990.663   3 
   3   9  21 763.417 255.133   4 
   3   9  21 564.296 334.930   3 
  -3   9 -21 749.147 317.787   1 
   3   9  22 12038.8 832.253   4 
  -3   9 -22 11031.4 948.723   1 
   3   9  22 11013.5 989.200   3 
   3  -9  22 12423.4 702.860   5 
   3   9  23 1803.29 366.813   4 
  -3   9 -23 1707.61 415.559   1 
   3  -9  23 2493.64 507.827   4 
   3   9  23 2450.28 526.470   3 
   3   9  24 1586.38 363.240   4 
  -3   9 -24 1602.50 413.202   1 
   3   9  24 888.406 331.048   3 
   3  -9  25 2480.89 508.160   4 
   3   9  25 2385.29 431.662   4 
  -3   9 -25 1994.03 468.319   1 
   3   9  25 2760.77 505.479   3 
   3  -9  26 586.621 312.006   4 
   3   9  26 676.218 254.332   4 
  -3   9 -26 447.046 284.923   1 
   3   9  27 6856.16 741.984   4 
  -3   9 -27 6167.96 774.099   1 
   3  -9  27 6281.19 810.940   4 
   3   9  28 9759.51 894.518   4 
  -3   9 -28 10393.3 1017.94   1 
   3   9  29 1549.08 388.853   4 
  -3   9 -29 3007.32 605.990   1 
  -3   9 -30 2792.30 553.726   1 
  -3 -10   0 337.398 158.842   3 
   3 -10   0 107.773 146.070   2 
  -3 -10   0 8.92638 103.958   2 
   3 -10   0 47.1502 109.087   3 
   3  10   0 45.7287 52.0505   4 
   3  10   0 337.184 164.716   3 
   3 -10   0 238.966 187.986   1 
   3  10   0 152.344 123.758   5 
   3 -10   1 1313.50 311.436   1 
  -3 -10  -1 1579.62 220.072   2 
   3 -10   1 1634.16 295.085   2 
  -3 -10  -1 1859.21 293.857   3 
   3 -10  -1 1504.60 306.346   1 
   3 -10  -1 1403.35 271.470   2 
   3 -10  -1 1424.22 226.367   3 
   3 -10   1 1333.40 212.297   3 
   3  10  -1 1888.25 297.694   3 
   3  10   1 2005.90 316.435   3 
  -3 -10   1 1642.73 240.527   2 
   3  10   1 1727.70 317.795   5 
   3  10  -1 2004.76 313.956   5 
   3  10   1 1626.46 131.133   4 
   3  10  -1 1611.17 151.323   4 
   3 -10   2 1597.37 298.183   2 
   3 -10  -2 1687.50 312.704   1 
   3  10   2 2275.89 139.875   4 
  -3 -10  -2 1915.33 295.043   3 
  -3 -10  -2 2128.12 250.326   2 
   3 -10  -2 1285.30 282.473   2 
   3  10  -2 2336.97 333.446   5 
   3 -10  -2 1637.94 255.638   3 
   3 -10   2 1604.66 223.391   3 
   3  10  -2 1955.76 278.132   3 
   3 -10   2 1375.86 285.533   1 
   3  10   2 2608.28 354.571   3 
   3  10   2 2283.17 340.345   5 
   3  10  -2 2241.75 191.176   4 
   3  10  -3 979.927 139.661   4 
   3 -10   3 1066.29 253.949   1 
  -3 -10  -3 1133.66 247.352   3 
   3 -10  -3 839.679 196.866   3 
   3 -10   3 1143.43 187.657   3 
   3  10  -3 866.461 207.524   3 
   3  10   3 946.454 233.110   3 
   3  10   3 1090.38 255.100   5 
   3 -10  -3 1157.73 260.707   1 
   3  10  -3 978.565 231.578   5 
   3 -10   3 891.080 212.454   2 
   3 -10   4 5951.55 545.840   1 
  -3 -10  -4 6520.18 549.585   3 
   3 -10  -4 6332.47 519.220   3 
   3 -10   4 5571.02 360.682   3 
   3  10  -4 6187.11 545.650   5 
   3  10  -4 5772.44 467.277   3 
   3 -10   4 6216.55 560.126   2 
   3  10   4 5432.10 506.723   3 
   3  10   4 6060.46 538.772   5 
   3  10  -4 5874.50 350.650   4 
  -3 -10  -5 9568.73 678.590   3 
   3 -10   5 9276.93 441.621   3 
   3 -10  -5 8686.40 621.363   3 
   3  10  -5 8569.29 550.969   3 
   3  10  -5 8015.40 620.869   5 
   3 -10   5 9494.61 700.233   2 
   3  10   5 9045.55 656.948   3 
   3  10   5 9318.51 663.853   5 
   3  10  -5 8710.94 456.538   4 
   3  10  -6 758.033 157.655   4 
  -3  10   6 1003.30 284.595   2 
  -3 -10  -6 702.926 229.887   3 
   3 -10   6 1220.12 156.772   3 
   3  10  -6 513.199 164.391   3 
   3 -10  -6 1019.85 244.958   3 
  -3  10  -6 515.212 204.358   1 
   3  10  -6 434.525 194.442   5 
  -3 -10   6 587.542 129.466   1 
   3  10   6 1191.94 270.376   3 
   3  10   6 757.071 225.034   5 
   3 -10   7 9146.63 382.906   3 
   3 -10  -7 8805.76 657.320   3 
   3  10  -7 8371.68 547.685   3 
  -3 -10  -7 8871.88 671.934   3 
   3  10   7 8774.20 536.692   2 
  -3  10  -7 8721.39 708.822   1 
   3  10   7 9027.50 697.138   3 
  -3  10   7 8530.87 721.314   2 
   3  10   7 8208.75 640.112   5 
   3  10  -7 9563.11 677.494   5 
  -3 -10   7 8809.01 413.361   1 
   3  10  -7 9308.21 518.743   4 
  -3  10  -8 215.025 246.815   1 
  -3  10   8-58.5471 211.978   2 
   3 -10   8 226.364 67.6060   3 
  -3 -10   8 205.676 78.6144   1 
   3  10  -8 67.2776 143.378   3 
   3 -10  -8 233.253 173.428   3 
   3  10   8 321.793 143.326   2 
   3  10   8 135.481 134.553   5 
   3  10  -8 135.153 149.640   5 
   3  10   8 273.461 162.646   3 
   3 -10   9 9638.90 308.189   3 
   3  10  -9 10843.1 609.785   3 
   3  10   9 11593.4 649.768   2 
  -3  10  -9 10103.1 781.971   1 
   3  10   9 10842.8 429.992   4 
   3  10   9 10409.7 716.225   5 
   3  10  -9 10991.0 722.112   5 
   3  10   9 10169.6 753.514   3 
  -3  10   9 10053.1 782.013   2 
   3  10  10 1291.30 313.502   3 
   3  10  10 1696.03 264.875   2 
   3  10 -10 1969.89 275.999   3 
  -3  10  10 1740.07 346.995   2 
  -3  10 -10 1692.59 351.277   1 
   3  10  10 1996.89 324.813   5 
   3  10 -10 1922.03 304.635   5 
   3  10  10 1615.12 179.727   4 
  -3  10  11 8096.86 731.308   2 
   3  10  11 9617.52 623.264   2 
   3  10 -11 10223.9 586.713   3 
   3  10 -11 9937.76 684.517   5 
   3  10  11 10212.4 707.459   5 
  -3  10 -11 8543.46 725.728   1 
   3  10  11 8920.40 731.619   3 
   3  10  11 9262.76 453.525   4 
   3  10  12 7553.88 568.061   2 
  -3  10  12 8309.07 739.215   2 
   3  10 -12 7991.96 617.859   5 
   3  10 -12 7767.92 511.507   3 
   3  10  12 7883.47 620.340   5 
  -3  10 -12 8624.87 730.549   1 
   3  10  12 7015.27 670.025   3 
   3  10  12 7449.85 429.185   4 
   3 -10 -13 5870.40 491.141   4 
   3  10 -13 6278.21 464.458   3 
  -3  10 -13 5546.48 596.791   1 
   3  10  13 6280.04 543.459   2 
   3  10  13 6211.81 554.619   5 
   3  10  13 5729.32 616.546   3 
   3  10  13 5868.84 403.470   4 
   3 -10 -14 3764.56 403.846   4 
   3  10  14 4659.57 565.164   3 
   3  10 -14 4079.56 378.933   3 
  -3  10 -14 3652.28 499.744   1 
   3  10  14 4768.39 384.249   4 
   3 -10 -15 81.6543 151.798   4 
   3  10 -15 156.272 136.507   3 
   3  10  15-189.541 231.367   3 
  -3  10 -15-17.5717 267.610   1 
   3  10  15 77.8273 100.590   4 
   3  10  16 1707.90 261.442   4 
   3  10  16 1521.38 346.775   3 
  -3  10 -16 1410.19 352.665   1 
   3  10  17 10374.1 638.452   4 
   3  10  17 9685.69 866.525   3 
  -3  10 -17 9903.88 830.897   1 
  -3  10 -18 545.249 220.199   1 
   3  10  18 1267.75 259.766   4 
   3  10  18 1529.05 408.128   3 
   3  10  19 3487.23 413.013   4 
  -3  10 -19 2689.86 472.950   1 
   3  10  19 3262.44 543.586   3 
   3  10  20 348.372 185.219   4 
  -3  10 -20 749.054 295.017   1 
   3  10  20 487.532 243.977   3 
  -3  10 -21 5127.97 654.164   1 
   3  10  21 5080.24 708.491   3 
   3 -10 -21 4834.76 447.324   5 
   3  10  21 5247.52 527.320   4 
   3  10  22-77.0244 173.244   4 
   3  10  22 89.0714 254.937   3 
  -3  10 -22 172.169 209.477   1 
   3 -10  22 128.700 127.880   5 
   3  10  23 8463.97 718.227   4 
   3  10  23 8483.98 899.647   3 
  -3  10 -23 7469.68 806.954   1 
   3 -10  23 9095.34 880.149   4 
   3  10  24 5515.34 607.605   4 
   3 -10  24 5148.52 676.772   4 
   3  10  24 5666.85 752.270   3 
  -3  10 -24 4501.50 672.124   1 
   3 -10  25 1586.76 436.089   4 
   3  10  25 890.951 315.093   4 
   3  10  25 789.123 421.989   3 
  -3  10 -25 977.791 426.801   1 
   3 -10  26 101.407 246.123   4 
   3  10  26 988.373 341.333   4 
  -3  10 -26 388.326 297.127   1 
   3  10  27 743.246 304.797   4 
  -3  10 -27 241.073 276.343   1 
  -3  10 -28 1218.10 373.921   1 
  -3  10 -29-64.6557 264.810   1 
  -3 -11   0 152.338 123.350   2 
  -3 -11   0-156.339 162.479   3 
   3 -11   0-48.1985 114.670   2 
   3 -11   0 95.5876 111.214   3 
   3  11   0 3.59800 129.674   5 
   3 -11   0-50.6088 158.756   1 
   3  11   0 150.166 144.173   3 
   3  11   0 69.2804 48.4496   4 
   3 -11  -1 4931.18 522.832   2 
  -3 -11  -1 5386.25 487.791   3 
   3 -11   1 4911.16 402.029   3 
   3  11   1 5128.36 516.431   5 
   3 -11  -1 4696.91 423.614   3 
   3 -11   1 5333.94 530.837   2 
   3  11  -1 4120.25 422.284   3 
   3  11   1 4005.79 430.743   3 
  -3 -11   1 4502.69 396.515   2 
   3 -11  -1 4638.99 515.811   1 
   3  11  -1 4495.94 487.355   5 
  -3 -11  -1 4412.45 380.513   2 
   3 -11   1 4513.82 504.097   1 
   3  11  -1 4433.65 239.049   4 
   3  11   1 3987.77 178.271   4 
   3 -11   2 827.572 234.768   2 
   3 -11  -2 968.343 246.118   1 
   3  11  -2 784.372 232.937   5 
  -3 -11  -2 828.963 220.663   3 
  -3 -11  -2 1034.40 204.470   2 
   3 -11   2 1209.62 199.649   3 
   3 -11  -2 994.900 216.987   3 
   3 -11  -2 821.887 210.364   2 
   3 -11   2 1241.06 258.821   1 
   3  11  -2 1072.99 242.188   3 
   3  11   2 1441.94 259.932   3 
   3  11   2 1360.06 256.490   5 
   3 -11  -3 3995.58 408.121   3 
  -3 -11  -3 5258.32 495.672   3 
   3  11  -3 3916.35 404.031   3 
   3 -11   3 4788.51 515.702   1 
   3 -11   3 4029.12 481.199   2 
   3  11   3 4228.35 452.696   3 
   3  11   3 3995.03 457.933   5 
   3  11  -3 3773.52 436.277   5 
   3 -11  -3 3266.34 420.833   1 
   3 -11   3 4020.12 334.286   3 
   3  11   4 309.088 172.948   5 
  -3 -11  -4 201.856 151.962   3 
   3 -11   4 336.650 115.496   3 
   3 -11  -4 374.999 163.055   3 
   3  11  -4-36.8700 160.844   3 
   3 -11   4 333.354 189.787   1 
  -3  11   4 511.448 231.478   2 
   3 -11   4 295.287 141.788   2 
   3  11   4 60.1411 156.242   3 
   3  11  -4 385.810 171.330   5 
   3 -11   5 8189.64 431.696   3 
   3 -11  -5 8177.17 614.603   3 
  -3 -11  -5 7918.11 620.471   3 
   3  11  -5 8322.60 562.204   3 
   3 -11   5 8868.23 692.541   1 
   3 -11   5 8154.35 677.416   2 
  -3  11   5 8010.27 684.154   2 
   3  11   5 7837.24 633.014   3 
   3  11   5 7681.72 642.970   5 
   3  11  -5 7978.08 641.585   5 
   3 -11   6 1644.13 188.154   3 
   3 -11  -6 1677.73 307.472   3 
  -3 -11  -6 1210.92 307.913   3 
   3  11  -6 1624.07 260.408   3 
   3  11   6 1939.61 338.730   3 
   3  11   6 1407.95 287.263   5 
   3  11  -6 2117.07 356.055   5 
  -3 -11   6 1618.31 212.596   1 
  -3  11   6 1126.60 312.820   2 
   3 -11  -7 9295.82 695.336   3 
   3  11  -7 9104.29 574.536   3 
   3  11   7 8186.38 270.541   4 
   3 -11   7 9658.06 403.598   3 
  -3  11   7 9247.23 763.290   2 
   3  11   7 8181.47 673.137   3 
   3  11   7 8460.41 660.981   5 
   3  11  -7 8212.30 655.566   5 
  -3 -11   7 9451.16 465.821   1 
   3  11   8 385.096 68.4052   4 
   3 -11   8 647.000 99.4791   3 
  -3  11   8 677.344 271.474   2 
   3  11  -8 414.026 153.639   5 
  -3 -11   8 584.225 124.287   1 
   3  11   8 659.135 192.031   2 
   3  11  -8 483.430 176.980   3 
  -3  11  -8 631.446 253.074   1 
   3  11   8 195.407 135.315   5 
   3  11   8 217.297 168.954   3 
   3  11   9 1803.22 341.847   3 
  -3  11   9 1803.25 337.499   2 
   3  11  -9 1877.61 258.619   3 
   3 -11   9 1995.76 132.146   3 
   3  11   9 2173.69 304.725   2 
   3  11   9 1813.10 301.300   5 
   3  11  -9 1705.46 290.901   5 
  -3  11  -9 2229.56 409.728   1 
   3  11   9 2078.40 170.009   4 
   3  11 -10-168.477 199.352   5 
   3  11  10-20.1482 138.764   2 
   3  11  10-132.501 189.917   3 
   3  11  10-18.2376 66.7791   4 
  -3  11 -10-184.354 223.604   1 
  -3  11  10-227.517 258.874   2 
   3  11 -10 17.7466 140.081   3 
   3  11  10 25.4558 164.039   5 
   3  11  11-26.2008 170.437   3 
   3  11  11-63.8124 76.1804   4 
   3  11  11 99.1630 163.676   2 
  -3  11 -11-129.928 202.235   1 
   3  11  11-201.310 205.798   5 
  -3  11  11-99.1775 250.602   2 
   3  11 -11 200.396 171.210   3 
  -3  11  12 12494.6 948.641   2 
   3 -11 -12 12290.7 696.971   4 
   3  11 -12 11561.5 635.775   3 
   3  11  12 12597.1 533.977   4 
  -3  11 -12 13064.3 932.322   1 
   3  11  12 11650.7 741.322   2 
   3  11  12 12080.2 896.284   3 
   3  11  13 865.052 161.950   4 
   3  11  13 565.093 259.597   3 
   3 -11 -13 808.169 208.821   4 
   3  11  13 921.578 230.040   2 
   3  11 -13 986.534 210.784   3 
  -3  11  13 1477.04 349.637   2 
  -3  11 -13 832.996 280.908   1 
   3  11  14 374.371 146.819   4 
   3 -11 -14 683.780 198.841   4 
   3  11  14 242.077 200.913   3 
   3  11 -14 341.516 124.708   3 
   3  11  14 123.101 155.161   2 
  -3  11  14 136.026 234.284   2 
  -3  11 -14 124.386 231.188   1 
   3  11  15 10199.1 872.996   3 
   3  11  15 10040.6 565.546   4 
   3  11  15 9592.14 717.572   2 
   3  11 -15 9327.66 562.138   3 
  -3  11 -15 10366.7 861.239   1 
   3  11  16 338.734 158.587   4 
   3  11  16 450.700 288.016   3 
  -3  11 -16 89.8177 213.979   1 
   3  11 -16 283.119 133.669   3 
  -3  11 -17 18715.9 1192.56   1 
   3  11  17 18125.0 837.189   4 
   3  11  17 18175.1 1204.77   3 
   3  11 -17 17094.3 776.759   3 
  -3  11 -18 17612.0 1172.69   1 
   3  11  18 18747.9 886.269   4 
   3  11  18 19276.5 1262.83   3 
   3  11 -18 19064.0 817.372   3 
   3  11  19 3503.73 399.945   4 
   3  11 -19 3654.40 365.527   3 
   3  11  19 3802.93 603.153   3 
  -3  11 -19 3481.62 574.704   1 
   3  11  20 1317.54 280.608   4 
   3  11  20 1389.41 392.104   3 
  -3  11 -20 1616.08 385.021   1 
   3 -11 -20 1567.83 279.756   5 
   3  11  21 3214.28 412.064   4 
   3  11  21 3349.49 575.054   3 
   3 -11  21 3214.99 394.593   5 
  -3  11 -21 3062.69 525.315   1 
   3 -11 -21 2835.53 374.725   5 
   3  11  22 1526.46 317.116   4 
   3  11  22 1220.42 402.846   3 
   3 -11  22 1700.35 307.298   5 
  -3  11 -22 1944.33 453.303   1 
   3  11  23 15230.2 951.581   4 
   3  11  23 14189.7 1197.58   3 
  -3  11 -23 14209.2 1140.29   1 
   3 -11  23 14692.5 1115.92   4 
   3 -11  24 4315.11 651.845   4 
   3  11  24 3797.37 526.735   4 
   3  11  24 4399.55 716.470   3 
  -3  11 -24 5224.29 723.118   1 
  -3  11 -25 15773.2 1226.83   1 
   3 -11  25 16993.2 1266.78   4 
   3 -11  26 3749.60 677.646   4 
  -3  11 -26 4142.37 658.587   1 
  -3  11 -27 2671.56 553.419   1 
  -3  11 -28-270.229 252.700   1 
  -3 -12   0 11.4929 109.680   2 
  -3 -12   0 157.439 132.080   3 
   3 -12   0 43.8600 123.293   3 
   3  12   0 76.4775 199.416   3 
   3 -12   1 6319.68 473.339   3 
   3 -12  -1 6906.76 522.239   3 
  -3 -12  -1 8103.18 619.537   3 
   3  12  -1 7493.86 583.255   3 
  -3 -12   1 7359.26 539.386   2 
   3  12   1 7434.34 605.883   3 
  -3 -12  -1 6838.11 504.081   2 
   3 -12   2 3069.93 315.469   3 
   3 -12  -2 3052.15 363.284   3 
  -3 -12  -2 4005.47 438.378   3 
  -3 -12  -2 3626.82 369.438   2 
   3  12  -2 3260.50 394.334   3 
  -3 -12   2 3714.24 385.499   2 
   3  12   2 3261.60 424.985   3 
   3 -12   3 50.6294 107.786   3 
  -3 -12  -3 104.566 174.505   3 
   3 -12  -3 186.049 157.023   3 
   3  12  -3-70.0474 129.052   3 
   3  12   3 191.794 167.841   3 
   3 -12   4 15390.3 653.156   3 
   3 -12  -4 17753.2 906.507   3 
  -3 -12  -4 16905.4 939.978   3 
   3  12  -4 15736.0 811.197   3 
  -3  12   4 16717.2 1031.56   2 
   3  12   4 14985.2 901.992   3 
   3 -12   5 706.123 148.201   3 
   3 -12  -5 832.802 240.515   3 
   3  12  -5 892.642 232.408   3 
  -3  12   5 843.142 293.256   2 
   3  12   5 834.351 277.347   3 
   3 -12  -6 4826.17 500.836   3 
   3  12  -6 4271.13 423.312   3 
  -3 -12   6 4246.19 351.046   1 
  -3  12   6 4445.52 560.223   2 
   3 -12   6 4457.00 306.954   3 
   3  12   6 4660.98 519.674   3 
   3  12  -7 10210.0 626.869   3 
  -3  12   7 10281.1 833.501   2 
  -3 -12   7 9811.69 520.463   1 
   3  12   7 9651.78 755.307   3 
   3 -12   7 10167.0 428.375   3 
   3  12   8 1492.21 313.820   3 
  -3  12   8 2421.36 445.623   2 
   3  12  -8 2162.75 296.419   3 
   3 -12   8 2757.10 194.737   3 
  -3 -12   8 2060.36 233.352   1 
   3  12   9 436.937 194.206   3 
  -3  12   9 321.368 214.617   2 
   3  12   9 531.745 186.475   2 
   3  12  -9 540.694 150.624   3 
   3 -12   9 325.684 60.4114   3 
   3  12  10 237.300 69.2561   4 
  -3  12  10-120.471 290.635   2 
   3  12  10 595.277 276.680   3 
   3  12 -10 283.647 129.697   3 
  -3  12 -10 48.4768 231.165   1 
   3  12  10 187.214 134.454   2 
   3  12  11 2885.66 372.965   2 
   3  12  11 2885.69 215.298   4 
   3  12  11 2782.87 463.152   3 
  -3  12  11 1504.66 361.530   2 
   3  12 -11 2733.83 312.258   3 
  -3  12 -11 2105.80 392.090   1 
   3  12  12 11350.1 476.658   4 
   3 -12 -12 13653.7 734.857   4 
   3  12 -12 11570.7 638.317   3 
  -3  12 -12 13201.2 966.310   1 
   3  12  12 12543.2 784.751   2 
  -3  12  12 11648.3 946.259   2 
   3  12  12 10605.4 860.872   3 
  -3  12 -13 67.9452 208.668   1 
   3  12  13 364.321 109.970   4 
   3 -12 -13 642.234 191.746   4 
   3  12  13-34.2271 264.285   3 
   3  12  13 278.113 151.030   2 
  -3  12  13 428.423 207.536   2 
   3  12 -13 566.662 157.600   3 
   3 -12 -14 771.347 174.476   4 
   3  12  14 1225.52 191.872   4 
   3  12  14 1444.29 370.002   3 
   3  12  14 938.908 247.744   2 
  -3  12 -14 256.770 214.089   1 
  -3  12  14 459.901 259.877   2 
   3  12 -14 904.738 181.493   3 
   3  12  15 1630.57 223.835   4 
   3  12  15 1559.26 299.510   2 
  -3  12 -15 1575.43 348.205   1 
   3  12 -15 1679.49 240.260   3 
  -3  12  15 1608.48 387.236   2 
   3  12  15 1581.40 366.517   3 
   3  12  16 1365.32 217.620   4 
   3  12  16 1990.28 435.706   3 
   3  12  16 1235.82 300.543   2 
   3  12 -16 1496.51 225.131   3 
  -3  12  16 1047.99 361.142   2 
  -3  12 -16 1112.05 335.105   1 
   3  12  17 593.488 178.214   4 
   3  12  17 1042.61 382.083   3 
   3  12 -17 612.092 151.293   3 
   3  12  17 786.100 284.069   2 
  -3  12 -17 854.877 281.006   1 
   3  12  18 10.4280 118.571   4 
   3  12  18 7.25341 226.789   3 
   3  12 -18 244.837 125.454   3 
   3  12  18 171.726 221.284   2 
  -3  12 -18-27.5709 255.418   1 
   3  12  19 817.868 196.941   4 
  -3  12 -19 690.614 261.033   1 
   3  12  20 263.053 224.115   3 
   3 -12 -20-53.7829 163.533   5 
   3 -12  20-325.661 203.825   5 
  -3  12 -20-157.650 276.200   1 
   3  12  21 210.500 258.196   3 
   3 -12 -21 562.864 162.826   5 
   3 -12  21 376.413 186.255   5 
  -3  12 -21 445.627 245.864   1 
  -3  12 -22-192.022 284.054   1 
   3  12  22-463.862 307.589   3 
   3 -12  22 218.782 214.536   4 
  -3  12 -23 916.583 363.047   1 
   3  12  23 1765.63 474.267   3 
   3 -12  23 1804.44 436.179   4 
  -3  12 -24 3887.78 632.661   1 
   3  12  24 4399.06 733.658   3 
   3 -12  24 5995.54 769.548   4 
   3 -12  25 172.929 308.874   4 
  -3  12 -25 431.047 344.647   1 
   3  12  25 911.197 465.509   3 
  -3  12 -26 12535.7 1111.64   1 
  -3  12 -27-319.079 335.208   1 
  -3  12 -28-1187.25 408.220   1 
  -3 -13   0 178.980 196.741   2 
   3 -13   0 609.393 272.306   3 
  -3 -13   0 432.959 281.378   3 
   3  13   0 916.546 334.303   3 
   3 -13   1 106780. 2266.24   3 
  -3 -13   1 106226. 2473.58   3 
  -3 -13  -1 111823. 2580.31   3 
   3 -13  -1 106651. 2375.67   3 
   3  13  -1 102163. 2461.78   3 
  -3 -13   1 100284. 2367.29   2 
   3  13   1 102880. 2541.16   3 
  -3 -13  -1 98918.0 2312.93   2 
   3 -13   2 186.666 158.139   3 
   3 -13  -2 295.920 208.866   3 
  -3 -13  -2 699.922 303.449   3 
  -3 -13  -2 0.98348 153.495   2 
   3  13  -2 310.588 218.620   3 
  -3 -13   2 128.186 166.615   2 
   3  13   2 784.439 292.661   3 
  -3 -13   3 36338.1 1335.32   2 
   3  13   3 37521.1 1470.17   3 
   3  13  -3 38259.8 1361.09   3 
   3 -13  -3 37275.9 1360.86   3 
   3 -13   3 36266.5 1122.73   3 
   3 -13   4 162.922 137.525   3 
   3 -13  -4 885.426 271.092   3 
   3  13  -4 573.274 251.192   3 
   3  13   4 736.262 299.767   3 
   3  13   5 119833. 2947.35   3 
   3 -13  -5 125305. 2866.46   3 
   3  13  -5 122297. 2620.71   3 
  -3  13   5 123055. 3152.96   2 
   3 -13   5 123852. 2219.48   3 
   3  13   6 941.037 351.014   3 
   3 -13   6 690.566 178.866   3 
  -3 -13   6 416.011 205.475   1 
   3  13  -6 1133.49 304.979   3 
   3  13  -7 66835.3 1760.31   3 
   3 -13   7 68020.5 1334.01   3 
  -3  13   7 66910.4 2265.36   2 
  -3 -13   7 67003.7 1599.97   1 
   3  13   7 67068.5 2148.70   3 
   3  13   8 757.550 263.983   3 
   3  13  -8 1134.95 249.302   3 
   3 -13   8 1308.88 147.673   3 
  -3 -13   8 769.475 175.655   1 
  -3  13   9 1762.28 358.255   2 
   3  13   9 1793.04 343.632   3 
   3 -13   9 1780.59 131.301   3 
   3  13  -9 2069.25 291.892   3 
  -3  13  10-212.913 251.811   2 
   3  13  10-190.858 259.086   3 
   3  13 -10-16.4097 130.529   3 
   3  13  10 201.259 138.214   2 
   3  13 -11 22582.8 925.787   3 
   3  13  11 23702.2 1115.95   2 
  -3  13  11 23578.4 1372.62   2 
   3  13  11 24121.1 1329.20   3 
   3 -13 -12 2082.72 302.445   4 
   3  13  12 2373.13 492.624   3 
  -3  13  12 2498.60 527.021   2 
  -3  13 -12 3101.94 554.460   1 
   3  13 -12 2148.69 305.768   3 
   3  13  12 2609.32 395.418   2 
   3  13  13 33167.0 1622.59   3 
   3 -13 -13 35091.6 1241.64   4 
   3  13 -13 33630.9 1127.84   3 
  -3  13 -13 35912.1 1664.82   1 
   3  13  13 34164.3 1419.04   2 
  -3  13  13 34966.1 1720.10   2 
   3  13  14 150.467 173.470   2 
   3 -13 -14 145.575 154.852   4 
   3  13  14 120.994 248.374   3 
  -3  13  14 148.226 300.634   2 
   3  13 -14 46.6235 128.154   3 
  -3  13 -14 302.978 258.215   1 
  -3  13 -15 409.966 257.402   1 
   3  13  15 860.203 259.176   2 
   3  13  15 629.911 293.526   3 
  -3  13  15 646.613 279.275   2 
   3  13 -15 525.541 138.494   3 
  -3  13 -16 922.577 332.159   1 
  -3  13  16 1304.17 399.466   2 
   3  13  16 1237.57 374.123   3 
   3  13 -16 1018.28 177.212   3 
   3  13  16 730.655 232.756   2 
  -3  13 -17-12.5615 215.319   1 
   3  13  17 5.42129 190.444   2 
   3  13  17-12.6379 224.104   3 
  -3  13  17-138.495 278.710   2 
   3  13 -17 34.3523 129.071   3 
  -3  13 -18 307.905 272.105   1 
   3  13  18-39.1479 258.952   2 
   3  13  18 19.6269 186.479   3 
  -3  13  18-258.481 344.195   2 
  -3  13 -19 4088.80 635.218   1 
   3  13  19 3791.64 549.367   2 
   3  13  19 5427.58 748.470   3 
  -3  13  19 4197.86 662.163   2 
   3 -13 -19 4611.88 503.526   5 
   3  13  20 28.2059 235.337   3 
   3  13  20 256.858 233.528   2 
  -3  13 -20-574.666 379.618   1 
  -3  13  20-340.251 379.047   2 
   3 -13 -20-9.97670 174.624   5 
   3 -13  20-163.047 197.085   5 
   3  13  21 1853.06 515.872   3 
   3  13  21 1568.81 379.075   2 
  -3  13 -21 803.271 231.575   1 
   3 -13 -21 1568.75 313.913   5 
   3 -13  21 1529.83 310.742   5 
   3  13  22-303.424 319.808   3 
   3  13  22-99.0576 248.726   2 
  -3  13 -22-141.368 293.716   1 
   3 -13  22 222.391 258.742   4 
   3  13  23 7675.76 934.746   3 
  -3  13 -23 6766.79 806.860   1 
   3 -13  23 7846.92 839.797   4 
   3 -13  24-2.20464 250.313   4 
   3  13  24 375.615 460.773   3 
  -3  13 -24-120.066 378.439   1 
  -3  13 -25 4439.50 676.716   1 
  -3  13 -26-815.247 433.537   1 
  -3  13 -27 1036.79 401.137   1 
   3 -14   0-69.0566 157.460   3 
  -3 -14   0-16.1700 134.596   2 
  -3 -14   0-52.3301 166.370   3 
   3  14   0-141.305 200.920   3 
  -3 -14   1 1707.72 317.210   2 
   3 -14   1 1554.33 269.903   3 
   3 -14  -1 1968.54 324.389   3 
  -3 -14   1 2049.30 344.433   3 
  -3 -14  -1 1561.79 263.600   2 
   3  14  -1 2623.84 374.279   3 
   3  14   1 2068.42 344.153   3 
   3 -14  -2 5120.51 488.369   3 
  -3 -14  -2 4922.66 487.876   2 
  -3 -14   2 5977.09 545.154   2 
   3  14  -2 4523.34 492.269   3 
   3  14   2 5355.34 560.781   3 
   3 -14   2 5315.15 429.045   3 
   3 -14  -3 6937.50 578.236   3 
  -3 -14   3 6076.36 555.990   2 
   3  14  -3 6771.84 568.789   3 
   3  14   3 7090.75 647.071   3 
   3 -14   3 6455.98 460.521   3 
   3 -14   4 66.7555 106.831   3 
   3  14  -4 161.586 162.537   3 
   3  14   4-64.1988 163.142   3 
   3  14   5 752.970 252.266   3 
   3 -14   5 206.175 128.525   3 
   3  14  -5 727.491 245.440   3 
  -3  14   6 7225.69 738.421   2 
   3  14  -6 7367.54 581.918   3 
  -3 -14   6 6530.53 494.088   1 
   3 -14   6 6931.62 404.459   3 
   3  14   6 7044.21 687.900   3 
   3  14  -7 9379.94 635.866   3 
  -3  14   7 9330.16 848.333   2 
   3 -14   7 8043.02 410.687   3 
  -3 -14   7 8985.74 563.463   1 
   3  14   7 9544.24 796.937   3 
   3  14   8 218.762 242.615   3 
   3 -14   8 154.817 70.7453   3 
   3  14  -8 492.162 201.533   3 
  -3 -14   8-157.703 125.884   1 
  -3  14   8 0.90908 231.335   2 
  -3 -14   9 7338.78 476.301   1 
   3 -14   9 6997.43 267.892   3 
   3  14  -9 7022.05 533.242   3 
  -3  14   9 7927.15 799.456   2 
   3  14   9 7705.64 732.334   3 
   3  14 -10 7148.24 523.752   3 
   3  14  10 6389.91 704.634   3 
   3  14  11 1440.46 364.915   3 
   3  14 -11 1584.43 278.377   3 
  -3  14  11 645.626 316.147   2 
   3  14  11 1304.54 298.061   2 
   3 -14 -12 18061.7 856.397   4 
   3  14 -12 21353.1 895.223   3 
   3  14  12 20820.5 1099.84   2 
  -3  14  12 19281.3 1293.41   2 
   3  14  12 20751.7 1288.48   3 
   3 -14 -13 1122.03 251.490   4 
  -3  14  13 889.425 353.295   2 
   3  14  13 1049.17 336.717   3 
   3  14 -13 1279.12 237.640   3 
   3  14  13 1725.31 359.965   2 
   3  14  14 457.731 220.523   2 
   3 -14 -14 329.990 180.507   4 
  -3  14  14-7.40942 260.839   2 
   3  14  14 84.8125 247.737   3 
   3  14 -14 287.134 136.677   3 
   3  14  15 3483.93 482.401   2 
  -3  14  15 3097.33 539.098   2 
   3  14  15 3654.82 556.353   3 
   3  14 -15 3499.28 351.477   3 
  -3  14 -15 3202.78 545.646   1 
   3  14  16 1005.28 301.684   2 
  -3  14  16 411.844 247.114   2 
   3  14  16 865.179 365.620   3 
  -3  14 -16 538.185 272.052   1 
   3  14  17 257.779 220.527   2 
  -3  14  17-53.4959 249.813   2 
   3  14  17 144.097 284.463   3 
  -3  14 -17 141.845 262.691   1 
  -3  14  18 13109.7 1158.07   2 
   3  14  18 13007.8 1123.03   3 
  -3  14 -18 13065.0 1076.85   1 
   3 -14 -18 12628.0 888.186   5 
   3  14  18 13480.0 990.462   2 
  -3  14 -19 2444.74 504.993   1 
   3  14  19 1602.03 420.298   2 
  -3  14  19 1672.21 468.195   2 
   3  14  19 2613.87 524.182   3 
   3 -14 -19 1618.68 337.548   5 
   3 -14  19 1863.45 365.079   5 
  -3  14 -20 1212.53 364.692   1 
   3  14  20 997.708 277.180   2 
  -3  14  20 645.799 344.486   2 
   3 -14 -20 1074.99 290.000   5 
   3 -14  20 1195.66 304.098   5 
  -3  14 -21-286.501 308.314   1 
   3 -14  21 417.535 307.102   4 
   3  14  21 207.883 207.631   2 
  -3  14  21 105.189 292.689   2 
   3  14  21 154.778 249.496   3 
   3 -14  21 46.1298 187.876   5 
  -3  14 -22 364.771 279.932   1 
   3  14  22 596.239 286.947   2 
  -3  14  22 921.355 434.354   2 
   3  14  22 787.284 416.952   3 
   3 -14  22 900.470 318.074   4 
   3 -14  23 1349.21 432.566   4 
  -3  14 -23 1009.43 380.265   1 
   3  14  23 1102.89 394.542   2 
  -3  14  23 1826.34 553.927   2 
   3  14  23 1500.59 482.775   3 
   3 -14  24-169.676 247.296   4 
  -3  14 -24 98.6236 306.706   1 
   3  14  24-396.608 277.831   2 
  -3  14 -25 565.847 450.342   1 
   3  14  25-67.1255 241.788   2 
  -3  14 -26 1552.39 452.542   1 
   3  14  26 2685.71 547.793   2 
   3 -15   0-1.03031 134.531   3 
  -3 -15   0 181.978 209.942   2 
   3  15   0 366.772 244.802   3 
  -3 -15  -1 25153.3 1153.57   2 
  -3 -15   1 24641.0 1164.82   2 
   3  15  -1 24773.1 1178.88   3 
   3  15   1 26970.4 1255.47   3 
   3 -15   1 28141.0 1095.68   3 
   3 -15  -1 27481.2 1145.07   3 
  -3 -15  -2 13366.2 835.941   2 
  -3 -15   2 12578.7 833.269   2 
   3  15  -2 12280.6 814.499   3 
   3  15   2 13339.3 905.114   3 
   3 -15   2 15289.1 766.212   3 
   3 -15  -2 14477.8 851.065   3 
   3  15   3 2885.79 446.317   3 
  -3 -15   3 2429.90 372.902   2 
   3 -15   3 3101.61 344.703   3 
   3  15  -3 3271.66 426.934   3 
   3  15   4 3759.14 501.662   3 
   3  15  -4 3972.40 456.703   3 
   3 -15   4 3708.01 345.528   3 
   3  15   5 223.149 194.416   3 
  -3 -15   5 61.8512 110.019   1 
   3  15  -5 64.4680 133.019   3 
   3 -15   5-52.6764 94.1287   3 
   3  15  -6 6205.06 535.840   3 
   3 -15   6 5981.64 395.269   3 
  -3 -15   6 5115.36 461.701   1 
   3  15   6 5954.72 639.369   3 
  -3  15   7 5533.31 664.407   2 
   3 -15   7 6179.53 366.403   3 
   3  15  -7 6480.13 546.897   3 
  -3 -15   7 5678.70 481.691   1 
   3  15   7 6525.57 692.537   3 
   3  15   8 1616.72 359.409   3 
   3  15  -8 2594.99 347.322   3 
   3 -15   8 1630.69 170.200   3 
  -3 -15   8 2599.59 318.222   1 
  -3  15   8 1964.84 411.323   2 
  -3 -15   9 7016.96 495.780   1 
   3 -15   9 6519.60 262.800   3 
  -3  15   9 6027.11 714.554   2 
   3  15  -9 7261.72 550.805   3 
   3  15   9 6434.08 698.326   3 
   3  15  10 879.951 306.861   3 
   3  15 -10 788.349 210.392   3 
  -3  15  10 726.147 328.635   2 
   3 -15 -11-259.968 170.425   4 
   3  15  11-80.9694 229.549   3 
   3  15 -11-22.4068 148.647   3 
  -3  15  11-405.378 336.107   2 
  -3  15  12 4561.47 658.438   2 
   3 -15 -12 6025.46 486.941   4 
   3  15  12 5250.96 675.729   3 
   3  15  12 5461.60 588.558   2 
   3  15 -12 5526.60 464.515   3 
  -3  15  13 5341.59 710.943   2 
   3  15  13 5483.51 714.538   3 
   3  15 -13 5473.29 447.738   3 
   3  15  13 5385.00 599.291   2 
   3  15  14 6201.82 757.701   3 
   3  15 -14 7005.26 498.125   3 
   3  15  14 6329.97 659.549   2 
  -3  15  14 6434.11 788.201   2 
  -3  15  15 322.942 348.191   2 
   3  15  15 514.525 289.406   3 
   3  15  15 552.436 291.291   2 
   3  15  16 15991.6 1239.22   3 
   3  15  16 15470.6 1060.26   2 
  -3  15  16 17902.3 1351.86   2 
   3  15  17 7550.16 874.367   3 
   3  15  17 9745.11 853.591   2 
   3 -15 -17 8898.82 781.197   5 
  -3  15  17 9090.59 989.547   2 
  -3  15  18 364.737 323.607   2 
   3  15  18 605.632 369.493   3 
  -3  15 -18-89.8092 231.119   1 
   3  15  18 451.599 319.704   2 
   3 -15 -18 55.4763 212.465   5 
   3 -15  18 183.397 183.775   5 
   3  15  19 4883.25 628.942   2 
  -3  15  19 4792.34 743.550   2 
   3  15  19 5744.84 796.655   3 
  -3  15 -19 5661.58 740.643   1 
   3 -15  19 5182.98 605.763   5 
   3 -15 -19 4997.13 572.804   5 
   3  15  20-11.7332 207.343   2 
  -3  15  20 216.750 294.355   2 
   3  15  20 495.503 335.465   3 
   3 -15  20 162.330 208.592   4 
  -3  15 -20-376.199 384.088   1 
   3 -15 -20 268.805 183.767   5 
   3 -15  20-59.1164 186.791   5 
   3  15  21 4442.30 634.991   2 
  -3  15  21 4691.25 752.613   2 
   3  15  21 5343.94 777.347   3 
   3 -15  21 4990.35 587.103   5 
  -3  15 -21 3508.19 564.736   1 
   3 -15  21 5163.68 671.178   4 
   3 -15  22-76.3202 184.336   4 
   3  15  22 137.376 237.081   2 
  -3  15 -22-43.2311 301.175   1 
   3  15  23 5483.88 723.445   2 
  -3  15 -23 5094.21 711.192   1 
   3 -15  23 6625.34 794.615   4 
   3  15  24 5243.93 730.301   2 
  -3  15 -24 5184.41 759.832   1 
  -3  15 -25 1984.96 522.434   1 
   3  16   0-200.646 220.862   3 
   3 -16   0-287.949 198.605   3 
   3 -16  -1-79.0618 165.478   3 
  -3 -16  -1 139.005 228.426   2 
   3  16  -1 348.629 221.109   3 
   3 -16   1 108.425 134.080   3 
   3  16   2 2022.19 392.774   3 
  -3 -16  -2 2335.96 365.653   2 
   3  16  -2 1801.29 354.985   3 
   3 -16   2 1994.71 308.750   3 
   3  16   3 3011.61 453.486   3 
   3 -16   3 3713.06 375.136   3 
   3  16  -3 3174.34 428.802   3 
   3  16   4-153.817 186.225   3 
   3  16  -4 375.003 189.667   3 
   3 -16   4 185.032 118.124   3 
   3  16   5 110.492 164.012   3 
   3 -16   5 135.393 104.611   3 
   3  16  -5 225.435 168.720   3 
  -3 -16   5 33.3603 127.881   1 
   3  16   6 4360.77 580.174   3 
   3 -16   6 4444.06 350.609   3 
  -3 -16   6 4561.85 454.421   1 
   3  16  -6 3999.09 449.455   3 
   3  16   7 5835.12 661.774   3 
   3  16  -7 5921.69 531.329   3 
  -3 -16   7 5716.40 501.876   1 
  -3 -16   8 9631.79 632.806   1 
   3  16   8 9767.79 868.525   3 
  -3  16   8 10591.8 960.176   2 
   3  16  -8 9241.55 646.745   3 
   3  16   9 4106.33 593.933   3 
  -3  16   9 4100.61 642.487   2 
   3  16  -9 2869.49 368.206   3 
   3  16  10 95.4688 264.569   3 
  -3  16  10-417.439 315.593   2 
   3  16 -10 147.675 151.300   3 
   3  16  11 3332.27 575.417   3 
   3  16 -11 3895.24 402.785   3 
  -3  16  11 3658.05 595.206   2 
   3  16  12 5830.76 729.606   3 
  -3  16  12 6590.56 816.005   2 
   3  16 -12 5202.90 455.405   3 
   3  16  13 116.886 209.528   3 
   3  16 -13 153.827 145.458   3 
   3  16  13 63.8432 168.008   2 
  -3  16  13 103.997 226.804   2 
   3  16  14 9157.73 930.322   3 
   3  16  14 8226.32 758.795   2 
  -3  16  14 10437.8 1020.57   2 
  -3  16  15 214.737 310.261   2 
   3  16  15 249.533 275.570   3 
   3  16  15 248.576 185.348   2 
   3 -16 -15 168.773 205.595   5 
   3 -16 -16 206.404 213.979   5 
  -3  16  16 506.304 310.120   2 
   3  16  16 238.034 311.526   3 
   3  16  16 321.390 237.976   2 
   3 -16  16 657.961 291.839   5 
  -3  16  17 1517.55 389.371   2 
   3  16  17 1299.62 385.396   3 
   3  16  17 737.253 259.756   2 
   3 -16 -17 1336.74 351.618   5 
   3 -16  17 1400.22 351.103   5 
   3  16  18 108.480 219.356   2 
  -3  16  18-82.0256 303.989   2 
   3 -16  18 299.936 215.927   5 
   3  16  18 406.409 270.113   3 
   3 -16 -18 228.831 199.270   5 
   3  16  19 764.780 325.692   2 
  -3  16  19 1174.54 419.459   2 
   3 -16 -19 146.128 190.763   5 
   3  16  19 599.289 284.096   3 
   3 -16  19 957.610 322.080   5 
   3  16  20 664.441 307.820   2 
  -3  16  20 74.4375 288.550   2 
   3 -16 -20 548.811 235.201   5 
   3 -16  20-2.60410 205.350   5 
   3 -16  20 290.658 275.517   4 
   3 -16  21 357.361 259.040   4 
   3  16  21 644.032 307.905   2 
   3 -16  22 139.273 205.505   4 
   3  16  22 336.759 315.170   2 
   3 -16  23 1972.54 480.344   4 
   3  16  23 1789.24 470.897   2 
   3  17   0 217.334 237.824   3 
   3 -17   0 24.3595 165.656   3 
   3  17   1 20964.0 1178.13   3 
   3 -17   1 21288.0 1005.86   3 
   3  17  -1 21440.1 1146.86   3 
   3 -17   2 9342.17 635.664   3 
   3  17  -2 9569.38 766.359   3 
   3  17   2 9082.54 800.759   3 
   3  17  -3 40366.9 1554.13   3 
   3 -17   3 40481.7 1319.57   3 
   3  17   3 41543.4 1726.41   3 
  -3 -17   4 2456.30 376.981   1 
   3 -17   4 2901.96 351.018   3 
   3  17  -4 3345.84 477.426   3 
   3  17   5 7269.99 729.973   3 
  -3 -17   5 7360.19 618.913   1 
   3  17  -5 7542.69 634.353   3 
   3  17   6 109.525 229.159   3 
  -3 -17   6-3.53172 157.299   1 
   3  17  -6-61.7820 145.189   3 
   3  17   7 2313.60 443.409   3 
   3  17  -7 2277.94 339.039   3 
   3  17   8 726.803 317.274   3 
   3  17  -8 859.649 216.105   3 
   3  17   9 10474.7 946.643   3 
  -3  17   9 11835.6 1066.29   2 
   3  17  -9 9219.37 655.095   3 
  -3  17  10-56.6935 264.984   2 
   3  17 -10-10.8372 138.934   3 
   3  17 -11 771.322 207.185   3 
   3  17  11 1341.00 404.516   3 
  -3  17  11 1046.75 380.549   2 
   3  17  12 3151.84 573.088   3 
  -3  17  12 4167.95 658.402   2 
   3  17  13 1261.21 355.507   3 
  -3  17  13 1458.85 461.877   2 
   3  17  14 1516.77 459.335   3 
   3 -17 -14 737.436 332.139   5 
  -3  17  14 1301.55 439.619   2 
   3 -17  15 3109.06 526.409   5 
   3 -17 -15 3239.07 524.987   5 
   3  17  15 3082.74 602.660   3 
   3  17  15 2203.64 448.540   2 
  -3  17  15 3170.80 626.882   2 
   3  17  16 5885.01 810.797   3 
   3  17  16 7774.99 796.153   2 
   3 -17 -16 7018.70 742.757   5 
   3 -17  16 7263.52 766.900   5 
  -3  17  16 7494.21 929.037   2 
  -3  17  17-296.291 352.286   2 
   3  17  17 549.369 346.985   3 
   3  17  17 18.3616 201.361   2 
   3 -17 -17-105.323 186.929   5 
   3 -17  17 77.9065 196.705   5 
  -3  17  18 158.622 304.756   2 
   3 -17 -18 258.782 237.735   5 
   3  17  18 410.032 339.872   3 
   3  17  18-103.174 286.163   2 
   3 -17  18 386.302 282.317   5 
  -3  17  19 1106.52 408.649   2 
   3 -17  19 1566.04 370.629   5 
   3 -17 -19 1697.96 365.937   5 
   3  17  19 1483.23 414.219   2 
   3 -17  19 1755.51 401.962   4 
   3 -17  20-2.99132 227.634   4 
   3 -17  20 419.932 253.040   5 
   3  17  20-138.487 209.544   2 
   3  17  21 1219.39 370.975   2 
   3 -17  21 1124.60 284.040   4 
   3 -17  22 767.580 288.198   4 
   3  18   0 73.5430 182.995   3 
   3  18  -1 2280.51 397.546   3 
   3  18   1 2937.11 466.328   3 
   3  18  -2 3720.83 489.641   3 
   3  18   2 3753.90 534.602   3 
   3  18  -3 950.665 276.070   3 
   3  18   3 859.091 303.443   3 
   3  18  -4-67.9995 180.553   3 
   3  18   4 392.281 262.252   3 
   3  18  -5 202.814 188.201   3 
   3  18   5 85.1319 261.488   3 
   3  18  -6 123.352 152.660   3 
   3  18   6-173.342 257.450   3 
   3  18  -7 1285.68 265.686   3 
   3  18   7 1139.86 339.319   3 
   3  18  -8 3729.06 431.570   3 
   3  18   8 3604.62 556.819   3 
   3  18  -9 242.378 161.174   3 
   3  18   9 538.132 242.435   3 
   3  18 -10 131.475 133.446   3 
   3  18  10 104.005 248.932   3 
   3  18  11 543.610 248.750   3 
  -3  18  11 415.333 268.726   2 
  -3  18  12-87.6315 253.961   2 
   3 -18 -12-79.9234 212.615   5 
   3  18  12-269.869 333.672   3 
   3  18  13 2228.78 503.244   3 
   3 -18 -13 2642.15 500.743   5 
  -3  18  13 2364.45 567.339   2 
   3 -18  13 3024.75 530.068   5 
   3  18  14 3156.96 611.980   3 
   3 -18 -14 3077.26 518.966   5 
   3 -18  14 2974.18 525.851   5 
  -3  18  14 3808.05 708.842   2 
   3  18  15 226.454 292.141   3 
   3 -18 -15 42.3204 208.542   5 
   3 -18  15 423.835 254.259   5 
  -3  18  15-97.4491 342.147   2 
   3  18  16 2462.05 606.550   3 
   3 -18 -16 2298.93 455.428   5 
   3 -18  16 2554.65 513.398   5 
  -3  18  16 2893.27 617.853   2 
   3  18  17 586.819 348.925   3 
   3 -18 -17 73.3805 242.340   5 
   3  18  17 54.7096 198.256   2 
   3 -18  17 482.036 278.896   5 
  -3  18  17 538.039 327.059   2 
   3  18  18 72.2459 204.754   2 
   3 -18 -18-410.954 282.819   5 
   3 -18  18 221.780 228.933   5 
   3 -18  18-116.204 196.274   4 
   3 -18  19-697.763 321.053   4 
   3 -18  19 129.066 206.330   5 
   3  18  19-6.52100 238.327   2 
   3 -18 -19-14.5518 227.471   5 
   3 -18  20 382.905 201.374   4 
   3  18  20 274.141 222.538   2 
   3 -18  20 190.386 252.352   5 
   3 -18  21-128.951 244.780   4 
   3  19   0 28.1438 172.318   3 
   3  19  -1 78.4908 156.220   3 
   3  19   1 75.4207 209.814   3 
   3  19  -2 298.140 197.426   3 
   3  19   2 304.343 231.164   3 
   3  19   3 8733.97 834.755   3 
   3  19  -3 9251.86 771.126   3 
   3  19   4 3478.31 561.872   3 
   3  19  -4 4074.67 513.985   3 
   3  19  -5 2674.76 422.293   3 
   3  19   5 2598.57 493.982   3 
   3  19  -6 2120.33 371.164   3 
   3  19   6 1631.30 383.491   3 
   3  19  -7 115.059 128.148   3 
   3  19   7 231.959 250.838   3 
   3  19  -8 173.547 186.515   3 
   3  19   8-191.123 323.276   3 
   3  19   9 2742.52 529.811   3 
   3 -19  -9 2405.84 494.755   5 
   3  19  10-1.14291 239.960   3 
   3 -19 -10-246.061 287.096   5 
   3 -19  10 29.6392 303.674   5 
   3  19  11 548.789 322.398   3 
   3 -19 -11 619.075 269.717   5 
   3 -19  11-242.845 265.246   5 
   3  19  12 1341.99 442.099   3 
   3 -19  12 1008.87 351.153   5 
  -3  19  12 205.908 316.527   2 
   3 -19 -12 1053.21 337.457   5 
   3  19  13 921.111 436.150   3 
  -3  19  13 1681.17 498.832   2 
   3 -19 -13 931.429 340.168   5 
   3 -19  13 982.419 380.285   5 
   3  19  14 8703.19 982.904   3 
   3 -19  14 10608.2 971.439   5 
  -3  19  14 11316.1 1148.27   2 
   3 -19 -14 10265.7 955.877   5 
   3 -19 -15-332.300 298.863   5 
   3  19  15 6.71493 321.815   3 
  -3  19  15 8.49963 336.986   2 
   3 -19  15 189.831 250.218   5 
   3 -19  16 3060.37 484.862   4 
   3 -19 -16 2562.49 475.439   5 
   3 -19  16 3047.87 538.777   5 
   3 -19  17-254.628 301.558   5 
   3 -19 -17 4.18241 286.962   5 
   3 -19  17 314.415 240.352   4 
   3 -19  18-223.899 295.592   4 
   3 -19 -18-722.271 384.273   5 
   3 -19  18-130.323 251.463   5 
   3 -19  19 294.695 244.655   4 
   3 -19 -19 786.040 310.755   5 
   3 -19  19 151.352 249.118   5 
   3 -19  20-239.023 279.181   4 
   3  20   0 63.6195 171.745   3 
   3  20  -1 329.922 193.788   3 
   3  20   1 689.653 301.577   3 
   3  20  -2 689.539 239.697   3 
   3  20   2-1.88392 236.003   3 
   3  20  -3 534.508 254.267   3 
   3  20   3 374.092 243.597   3 
   3  20  -4-23.7754 156.230   3 
   3  20   4 325.846 201.725   3 
   3  20  -5 98.3826 158.144   3 
   3  20   5-18.5716 209.694   3 
   3 -20  -5 84.7856 253.919   5 
   3  20  -6-50.7806 185.574   3 
   3  20   6-66.0191 201.682   3 
   3 -20  -6 215.513 259.390   5 
   3 -20   6-167.808 308.030   5 
   3 -20  -7 330.689 222.220   5 
   3  20   7 704.068 275.751   3 
   3 -20   7 1058.98 401.820   5 
   3  20   8-189.148 243.201   3 
   3 -20   8 31.4196 247.039   5 
   3  20   9 120.669 313.339   3 
   3 -20  -9 870.594 341.410   5 
   3 -20   9 519.480 334.436   5 
   3 -20 -10 105.240 248.375   5 
   3  20  10-124.292 274.236   3 
   3 -20  10-1.12345 210.004   5 
   3  20  11 667.030 362.108   3 
   3 -20 -11 553.499 322.674   5 
   3 -20  11 1023.39 388.283   5 
   3  20  12 1080.47 390.089   3 
   3 -20 -12 1174.71 403.582   5 
   3 -20  12 841.529 342.336   5 
   3  20  13-151.305 313.717   3 
   3 -20 -13 342.492 279.091   5 
   3 -20  13 269.401 319.887   5 
   3  20  14 177.498 257.782   3 
   3 -20 -14-31.2911 268.373   5 
   3 -20  14 380.775 363.970   5 
   3 -20  15-125.455 192.123   4 
   3 -20  15-182.506 256.913   5 
   3 -20 -15-102.566 243.189   5 
   3 -20 -16-368.395 310.949   5 
   3 -20  16 55.5181 278.342   5 
   3 -20  16 214.483 225.536   4 
   3 -20  17 23.9983 182.958   4 
   3 -20 -17 105.703 270.618   5 
   3 -20  17 338.779 286.060   5 
   3 -20  18-96.8866 267.611   4 
   3 -20  18-489.377 318.485   5 
   3 -20  19 3249.54 574.331   5 
   3  21   0 161.507 234.532   3 
   3 -21   0-544.720 339.322   5 
   3 -21  -1 182.373 281.620   5 
   3  21  -1 990.601 335.777   3 
   3  21   1 811.428 299.355   3 
   3 -21   1 749.713 338.513   5 
   3  21  -2-105.165 225.347   3 
   3  21   2-271.556 259.431   3 
   3 -21   2-229.865 368.332   5 
   3 -21  -2-299.693 346.532   5 
   3  21  -3 228.076 214.393   3 
   3 -21   3-356.882 371.177   5 
   3  21   3 296.648 259.247   3 
   3 -21  -3 170.656 255.476   5 
   3  21  -4 25.0387 179.901   3 
   3  21   4 31.6688 227.021   3 
   3 -21  -4 141.877 256.287   5 
   3 -21   4-310.922 333.180   5 
   3  21   5 1001.65 361.189   3 
   3 -21  -5 1014.03 332.724   5 
   3 -21   5 946.427 345.301   5 
   3  21   6 674.588 232.777   3 
   3 -21  -6 561.345 337.049   5 
   3 -21   6 737.773 320.009   5 
   3  21   7-599.648 328.953   3 
   3 -21  -7-635.535 336.469   5 
   3 -21   7 68.9034 265.219   5 
   3  21   8 429.202 300.524   3 
   3 -21  -8-271.106 320.979   5 
   3 -21   8 310.075 199.415   5 
   3  21   9-211.152 238.055   3 
   3 -21  -9-162.876 255.010   5 
   3 -21   9 76.4700 264.473   5 
   3  21  10 35.7396 216.579   3 
   3 -21 -10 102.253 279.576   5 
   3 -21  10 343.228 241.227   5 
   3  21  11 295.496 280.775   3 
   3 -21 -11 367.642 241.467   5 
   3  21  12 994.633 401.252   3 
   3 -21 -12 2793.48 550.096   5 
   3 -21  12 2363.70 544.997   5 
   3 -21  13 2959.34 584.638   5 
   3 -21 -13 3227.09 583.107   5 
   3 -21 -14-1288.56 404.289   5 
   3 -21  14 220.913 269.160   5 
   3 -21 -15 548.495 306.499   5 
   3 -21  15 440.073 261.222   5 
   3 -21 -16 82.9934 229.185   5 
   3 -21 -17 673.808 397.415   5 
   3  22   0 531.862 275.192   3 
   3 -22   0-420.033 356.580   5 
   3  22  -1 1394.77 363.932   3 
   3  22   1 1812.60 444.237   3 
   3 -22  -1 464.081 254.060   5 
   3 -22   1 720.699 318.856   5 
   3  22  -2-294.654 249.577   3 
   3  22   2-139.255 286.918   3 
   3 -22   2-451.702 335.127   5 
   3 -22  -2-83.0284 302.200   5 
   3 -22  -3-422.877 388.638   5 
   3  22   3-275.584 303.679   3 
   3 -22   3-506.103 318.412   5 
   3  22   4-133.658 282.427   3 
   3 -22  -4-23.9269 293.308   5 
   3 -22   4-216.718 301.227   5 
   3 -22  -5 2520.22 565.860   5 
   3  22   5 1778.05 435.526   3 
   3 -22   5 2902.22 587.537   5 
   3  22   6 1099.99 413.705   3 
   3 -22   6 1767.33 498.234   5 
   3 -22  -6 779.856 373.198   5 
   3  22   7 2244.84 537.659   3 
   3 -22  -7 1910.18 517.935   5 
   3  22   8-58.1438 243.842   3 
   3 -22  -8-37.8325 261.031   5 
   3  22   9 1279.43 441.548   3 
   3 -22  -9 1783.52 490.623   5 
   3  22  10-32.0763 270.836   3 
   3  23   0 215.498 275.051   3 
   3  23   1 14583.3 1162.78   3 
   3  23   2 465.917 298.603   3 
   3  23   3 4420.60 663.699   3 
   3  23   4 302.393 348.145   3 
   3  23   5 7211.74 880.564   3 
   3  23   6 153.587 319.355   3 
   3  23   7 11901.6 1147.34   3 
   3  23   8 2143.81 591.405   3 
   3  24   2 191.581 258.226   3 
   3  24   3 1152.33 402.147   3 
   3  24   4 767.216 370.777   3 
   3  24   5 413.499 302.130   3 
   3  24   6 50.6720 273.422   3 
  -4   0   0 40340.7 851.215   2 
  -4   0   1-18.7128 87.8379   1 
  -4   0   1 71.7605 73.9831   2 
  -4   0   2 886.122 157.756   1 
   4   0   3 220.651 71.2886   2 
  -4   0   3 54.5419 73.4157   1 
   4   0   4 60.3128 58.2369   2 
  -4   0   4 1.17740 76.8460   1 
   4   0   5-58.5767 103.915   3 
   4   0  -6 91513.7 1633.77   1 
   4   0   6 93144.3 1954.45   3 
   4   0   7 273.583 177.186   3 
   4   0  -7 200.251 98.9905   1 
   4   0   8 114088. 2247.67   3 
   4   0  -8 111724. 1899.26   1 
   4   0  -9 130.710 99.0753   1 
   4   0   9 838.511 245.277   3 
   4   0  10 82711.7 1868.16   3 
   4   0 -10 79275.4 1529.76   1 
   4   0  11 604.857 220.474   3 
   4   0  12 45500.8 1347.03   3 
   4   0 -13 380.504 186.806   4 
   4   0  13 247.743 177.573   3 
   4   0  14 28187.0 1078.11   3 
   4   0  15 1032.47 269.859   3 
  -4   0 -16 19427.9 915.342   3 
   4   0  16 20167.9 939.559   3 
   4   0  17 61.6768 154.196   3 
  -4   0 -17 398.814 211.665   3 
  -4   0 -18 7363.82 584.091   3 
   4   0  18 6716.44 556.989   3 
   4   0  19-22.6331 136.092   3 
  -4   0 -19 240.960 161.102   3 
   4   0  20 9171.47 683.901   3 
  -4   0 -20 8328.20 662.675   3 
   4   0  21 762.870 275.730   3 
  -4   0 -21 1154.51 313.388   3 
   4   0  22 9953.05 741.371   3 
   4   0  23 253.436 167.711   3 
   4   0  24-268.094 236.399   3 
   4   0  25 124.996 246.319   4 
   4   0  25-118.670 195.403   3 
   4   0  26 14081.1 1096.20   4 
   4   0  27 349.905 250.549   4 
   4   0  28 1959.01 451.594   4 
   4   0  29-391.404 358.433   4 
  -4   1   0 18365.7 580.597   2 
  -4  -1   0 17517.3 452.701   2 
  -4   1   0 16974.9 701.788   1 
  -4   1   1 31777.0 962.944   1 
  -4   1   1 32450.8 837.469   2 
  -4  -1   2 3836.46 285.948   1 
   4  -1   2 4906.67 278.619   2 
  -4   1   2 4797.70 314.047   2 
  -4   1   2 4392.21 340.210   1 
  -4  -1   3 14808.4 541.061   1 
  -4   1   3 14713.8 614.712   1 
   4  -1   3 14785.6 502.456   2 
   4   1   4 19411.9 791.441   3 
   4  -1   4 19847.6 597.886   2 
   4   1   4 18238.3 437.926   2 
  -4  -1   4 18530.9 593.995   1 
   4  -1   5 512.234 141.293   3 
   4   1   5 269.249 134.071   3 
   4  -1  -5 407.702 111.874   1 
   4  -1   6 71896.3 1624.58   3 
   4  -1  -6 71447.0 1483.68   1 
   4   1   6 73131.5 1710.46   3 
   4  -1   7 116786. 2223.04   3 
   4  -1  -7 118642. 2060.46   1 
   4  -1   8 4226.96 357.802   3 
   4   1   8 3705.54 374.263   3 
   4   1  -8 4055.77 240.090   1 
   4  -1  -8 4024.97 305.611   1 
   4   1  -9 104676. 1714.90   1 
   4  -1   9 112479. 2174.61   3 
   4   1   9 105394. 2239.91   3 
   4  -1  -9 110637. 1982.11   1 
   4  -1  10 13447.5 660.636   3 
   4   1  10 13944.2 723.125   3 
   4   1 -10 13285.3 468.901   1 
   4  -1  11 13958.2 676.894   3 
   4   1  11 12815.8 699.529   3 
   4   1 -11 12631.9 467.499   1 
   4  -1  12 8533.57 541.972   3 
   4   1  12 9400.30 609.191   3 
   4   1 -13 38673.5 1393.65   4 
   4  -1 -13 43010.7 1455.27   4 
   4  -1  13 42064.6 1268.30   3 
   4   1  13 39604.8 1318.40   3 
  -4  -1 -14 705.360 235.509   3 
   4  -1  14 1113.86 223.304   3 
   4   1  14 917.118 222.274   3 
  -4  -1 -15 59785.5 1723.20   3 
   4  -1  15 61853.3 1633.16   3 
   4   1  15 58430.1 1712.15   3 
  -4  -1 -16 4639.46 466.397   3 
   4  -1  16 4051.01 426.761   3 
   4   1  16 3915.84 429.961   3 
   4   1  17 371.859 186.897   3 
   4  -1  17 810.370 218.049   3 
  -4  -1 -17 637.904 212.396   3 
  -4   1 -18 18909.0 912.593   3 
  -4  -1 -18 19478.4 976.883   3 
   4   1  18 18537.7 949.739   3 
   4  -1  18 17991.2 891.502   3 
   4  -1  19 2959.69 371.108   3 
  -4   1 -19 3472.37 407.438   3 
  -4  -1 -19 3757.44 450.432   3 
   4   1  19 4514.07 488.715   3 
   4   1  20 16798.7 972.450   3 
   4  -1  20 17515.2 912.366   3 
  -4   1 -20 17801.7 921.179   3 
   4   1  21 37005.4 1470.90   3 
   4  -1  21 38558.1 1411.81   3 
  -4   1 -21 39587.6 1418.55   3 
   4   1  22-165.500 217.496   3 
   4  -1  22 99.1505 156.693   3 
   4   1  23 10148.4 793.004   3 
   4  -1  23 10063.4 726.239   3 
   4   1  24 900.580 259.243   3 
   4  -1  24 1047.91 272.446   3 
   4   1  24 877.913 302.115   4 
   4   1  25-120.398 235.089   4 
   4   1  25-64.6824 213.018   3 
   4  -1  25 171.387 175.014   4 
   4  -1  26 3109.17 573.678   4 
   4   1  26 2999.69 547.586   4 
   4   1  26 3034.49 467.427   3 
   4  -1  27 421.494 303.764   4 
   4   1  27-20.9257 225.950   4 
   4  -1  28 768.903 324.660   4 
   4   1  28 1278.16 345.187   4 
   4  -1  29-456.116 314.126   4 
   4   1  29-89.4086 242.102   4 
  -4   2   0 46062.6 1249.93   1 
  -4   2   0 45065.3 1059.86   2 
  -4   2   1 15358.1 599.054   2 
  -4   2  -1 15289.4 705.307   1 
  -4   2   1 15500.7 681.382   1 
  -4   2  -2 24710.9 921.731   1 
  -4   2   2 26418.8 892.363   1 
   4  -2   2 25790.6 750.279   2 
  -4   2   2 25102.4 803.844   2 
   4   2   3 2579.90 297.435   3 
   4  -2  -3 2633.77 268.048   1 
   4  -2   3 2813.10 240.485   2 
  -4  -2   3 2401.77 203.507   1 
   4   2   4 42142.9 1242.81   3 
   4  -2   4 40579.9 1002.50   2 
   4  -2  -4 39089.8 1089.28   1 
  -4  -2   4 41748.8 891.364   1 
   4   2   5-40.9410 111.392   3 
   4  -2  -5 107.023 104.455   1 
   4  -2   6 38216.7 1091.19   3 
   4   2   6 40546.1 1230.42   3 
   4  -2  -6 36834.7 1059.09   1 
   4  -2   7 670.919 148.263   3 
   4  -2  -7 727.549 132.081   1 
   4   2   7 663.822 161.388   3 
   4  -2   8 26605.4 895.717   3 
   4   2   8 24251.3 967.145   3 
   4  -2  -8 27336.4 888.280   1 
   4  -2   9 1537.48 220.306   3 
   4   2   9 1297.32 233.026   3 
   4   2  10 49151.1 1458.58   3 
   4   2 -10 47121.5 868.975   1 
   4  -2  11 10269.0 566.085   3 
   4   2  11 10232.4 649.863   3 
   4   2 -11 10157.6 353.205   1 
   4   2 -12 16861.3 862.104   4 
   4  -2  12 15115.2 691.335   3 
   4   2 -12 15443.4 466.966   1 
   4   2  12 15017.1 806.790   3 
   4   2 -13 796.229 243.076   4 
   4  -2 -13 620.304 218.212   4 
  -4  -2 -13 898.194 229.728   3 
   4   2  13 977.481 249.302   3 
   4  -2  13 765.491 187.909   3 
  -4  -2 -14 335.705 205.775   3 
   4  -2  14 184.182 136.359   3 
   4   2  14 59.4237 146.380   3 
   4   2  15 131.237 177.268   3 
   4  -2  15 226.115 147.715   3 
  -4  -2 -16 53888.3 1681.20   3 
   4  -2  16 52136.8 1464.61   3 
   4   2  16 51997.9 1672.22   3 
  -4  -2 -17 13317.4 811.286   3 
   4   2  17 11752.6 777.393   3 
   4  -2  17 13642.1 718.619   3 
  -4  -2 -18 10729.0 748.279   3 
   4  -2  18 10444.0 638.870   3 
   4   2  18 9660.56 711.194   3 
   4  -2  19 15990.9 819.456   3 
   4   2  19 16148.8 948.321   3 
   4  -2  20 8435.25 610.387   3 
  -4   2 -20 9156.97 622.416   3 
   4   2  20 9014.31 720.473   3 
   4   2 -20 8513.39 478.068   5 
  -4   2 -21 2773.85 368.468   3 
   4   2  21 3010.50 443.949   3 
   4  -2  21 2716.94 374.295   3 
   4   2  22 301.492 160.400   3 
   4  -2  22 874.446 224.666   3 
   4   2  23 357.914 206.806   3 
   4  -2  23 243.139 129.364   3 
   4   2  24 71.7302 179.295   3 
   4  -2  24 91.8407 143.381   3 
   4   2  24 308.459 272.076   4 
   4   2  25 8831.52 789.679   3 
   4  -2  25 9545.02 907.773   4 
   4   2  25 9380.09 866.040   4 
   4   2  26 3138.85 550.149   4 
   4   2  26 3312.20 511.963   3 
   4  -2  26 3896.09 595.593   4 
   4  -2  27 165.029 259.808   4 
   4   2  27-121.854 220.115   4 
   4  -2  28-10.3005 218.215   4 
   4   2  28-29.3640 257.573   4 
   4   2  29-44.6809 254.046   4 
  -4   3   0 50704.3 1222.66   2 
  -4   3   0 48644.9 1360.44   1 
   4   3   1 98096.6 2117.63   3 
  -4   3  -1 100616. 2148.08   1 
  -4   3   1 103483. 1973.44   2 
  -4   3   1 100350. 2097.22   1 
   4   3   2 14837.7 721.037   3 
   4  -3  -2 15706.6 693.917   1 
  -4   3  -2 15625.4 748.710   1 
  -4   3   2 14785.8 690.796   1 
  -4   3   2 15635.4 662.519   2 
   4  -3   2 16374.9 630.316   2 
  -4   3   3 36235.3 1081.44   2 
  -4   3  -3 35132.7 1182.86   1 
   4   3   3 36600.1 1172.10   3 
   4  -3  -3 37390.9 1102.30   1 
   4  -3   3 37734.9 1019.38   2 
  -4  -3   4 395.414 89.6220   1 
   4   3   4 152.263 137.822   3 
   4  -3  -4 379.694 106.431   1 
   4  -3   4 537.280 122.719   2 
  -4  -3   5 5311.98 238.435   1 
   4  -3  -5 4960.14 385.532   1 
   4   3   6 10575.2 629.043   3 
   4  -3  -6 10056.0 551.853   1 
   4  -3   7 40156.6 1096.69   3 
   4   3   7 40562.3 1289.30   3 
   4  -3  -7 38838.8 1142.94   1 
   4  -3   8 4087.76 327.154   3 
   4   3   8 2951.53 354.515   3 
   4  -3  -8 3853.59 348.475   1 
   4  -3   9 25688.0 866.106   3 
   4   3   9 27771.3 1077.86   3 
   4   3 -10 30552.2 1143.12   4 
   4  -3  10 31953.0 971.514   3 
   4   3  10 30343.3 1152.56   3 
   4   3 -11 16783.3 849.022   4 
  -4  -3 -11 16162.0 825.815   3 
   4  -3  11 14528.5 645.992   3 
   4   3  11 16717.7 856.984   3 
   4   3 -12 3381.27 399.270   4 
  -4  -3 -12 3860.40 414.009   3 
   4  -3  12 3236.62 306.515   3 
   4   3  12 3432.08 401.434   3 
  -4  -3 -13 25482.0 1092.20   3 
   4   3 -13 25405.2 1113.07   4 
   4  -3  13 24720.6 880.100   3 
   4   3  13 24513.6 1068.66   3 
   4   3 -13 22042.7 483.523   1 
  -4  -3 -14 35371.7 1328.07   3 
   4   3  14 32324.9 1274.96   3 
   4  -3  14 32573.4 1046.39   3 
   4  -3  15 55701.7 1460.46   3 
   4   3  15 58989.0 1803.06   3 
  -4  -3 -16 5716.37 558.600   3 
   4  -3  16 4178.96 387.282   3 
   4   3  16 4841.98 533.771   3 
   4   3  17 49294.8 1678.79   3 
   4  -3  17 47347.7 1355.85   3 
   4   3  18 128.908 181.597   3 
   4  -3  18 260.191 147.657   3 
   4  -3  19 31061.4 1105.73   3 
   4   3 -19 28652.7 955.213   5 
   4   3  19 29762.5 1341.17   3 
   4   3  20 11736.5 845.108   3 
   4  -3  20 11954.4 686.964   3 
   4   3  20 11695.8 615.950   5 
   4   3 -20 11414.8 568.905   5 
   4   3  21 2136.50 407.229   3 
   4  -3  21 1863.99 283.349   3 
   4   3  22 990.604 266.536   3 
   4  -3  22 957.538 226.936   3 
   4   3  23 735.689 237.619   3 
   4  -3  23 896.173 232.732   3 
   4   3  23 985.732 338.697   4 
   4   3  24 12170.7 953.263   3 
   4   3  24 12577.4 984.454   4 
   4   3  25 1802.83 395.533   4 
   4   3  25 2080.11 442.473   3 
   4   3  26 5299.69 656.580   3 
   4   3  26 5118.86 657.923   4 
   4  -3  26 5378.18 695.154   4 
   4  -3  27 820.952 322.599   4 
   4   3  27 616.987 221.872   4 
   4   3  27 1009.41 336.527   3 
   4   3  28 274.446 229.917   4 
   4  -3  28 560.399 331.837   4 
   4   3  29 2739.03 505.554   4 
   4   3  30 3928.67 636.788   4 
   4   4   0 10788.7 618.961   3 
  -4   4   0 9492.55 593.588   1 
   4   4   1 40145.1 1250.58   3 
   4  -4   1 42972.3 1166.52   2 
   4  -4  -1 42775.1 1249.45   1 
  -4   4   1 39073.0 1239.56   1 
  -4   4   1 42609.6 1196.27   2 
  -4   4  -1 39979.5 1289.18   1 
  -4   4   2 2013.51 255.386   2 
   4  -4   2 1589.05 217.795   2 
   4   4   2 1347.17 248.874   3 
  -4   4  -2 1564.56 267.851   1 
   4  -4  -2 1444.25 222.476   1 
   4   4   3 8781.85 568.406   3 
   4  -4  -3 10086.6 580.964   1 
   4  -4   3 10384.3 548.461   2 
  -4   4   3 10196.0 579.102   2 
  -4   4   4 3975.12 376.560   2 
   4   4   4 3839.67 386.921   3 
   4  -4   4 3915.30 330.145   2 
   4  -4  -4 4481.78 390.596   1 
  -4  -4   5 48512.1 835.971   1 
   4   4   5 51173.7 1471.87   3 
   4  -4  -5 53060.1 1406.59   1 
   4   4   6 23276.1 970.244   3 
   4  -4  -6 22577.0 895.375   1 
   4   4   7 2353.48 326.591   3 
   4  -4  -7 2800.77 311.569   1 
   4  -4   8 20708.5 743.063   3 
   4   4   8 20078.9 923.681   3 
   4  -4   9 58851.8 1331.92   3 
   4   4   9 55702.2 1619.75   3 
   4   4 -10 14062.9 753.985   4 
  -4  -4 -10 15242.0 817.709   3 
   4  -4  10 14063.7 603.760   3 
   4   4  10 14643.1 807.766   3 
   4   4 -11 4196.82 425.504   4 
  -4  -4 -11 3768.37 419.368   3 
   4  -4  11 4001.12 330.857   3 
   4   4  11 3451.63 406.852   3 
   4   4 -12 6041.66 518.302   4 
  -4  -4 -12 6361.43 553.372   3 
   4  -4  12 5775.36 388.098   3 
   4   4  12 5894.51 525.832   3 
   4   4 -13 4127.22 449.082   4 
  -4  -4 -13 4266.47 475.993   3 
   4  -4  13 4350.55 357.602   3 
   4   4  13 4443.47 503.461   3 
  -4  -4 -14 1306.22 300.958   3 
   4   4  14 1433.18 328.258   3 
   4  -4  14 1482.33 205.535   3 
  -4  -4 -15 38018.1 1443.30   3 
   4  -4  15 38522.6 1110.37   3 
   4   4  15 37516.1 1466.14   3 
   4  -4  16 1037.53 186.413   3 
   4   4  16 1290.10 311.839   3 
   4  -4  17 5588.64 422.621   3 
   4   4 -17 6107.68 452.247   5 
   4   4  17 5955.91 613.239   3 
   4  -4  18 5431.29 414.926   3 
   4   4  18 5498.71 439.945   5 
   4   4 -18 4966.52 407.648   5 
   4   4  18 5294.98 564.724   3 
   4   4  19 355.614 248.047   3 
   4  -4  19 492.766 179.615   3 
   4   4  19 422.624 175.305   5 
   4   4 -19 84.2864 134.199   5 
   4   4  20 3580.78 348.288   5 
   4  -4  20 3972.00 372.616   3 
   4   4  20 3155.14 467.201   3 
   4   4 -20 3239.02 313.620   5 
   4  -4  21 4000.23 370.884   3 
   4   4  21 3293.31 480.828   3 
   4   4  22 1072.50 306.840   3 
   4  -4  22 1198.34 239.018   3 
   4   4  22 896.890 286.722   4 
   4   4  23 53.2380 190.168   4 
   4   4  23-156.482 203.903   3 
   4   4  24 676.333 283.328   4 
   4   4  24 546.231 272.881   3 
   4   4  25 519.567 255.488   4 
   4   4  25 470.741 191.055   3 
   4   4  26 688.266 285.966   3 
   4   4  26 187.346 193.719   4 
   4  -4  26 302.151 236.313   4 
   4   4  27 5589.53 694.200   3 
   4  -4  27 6707.80 798.951   4 
   4   4  27 7113.38 790.423   4 
   4  -4  28 261.255 256.845   4 
   4   4  28 370.660 245.374   4 
   4   4  29 278.665 221.514   4 
   4   4  30-254.118 238.072   4 
   4  -5   0 7079.81 487.851   2 
   4   5   0 6068.68 478.585   3 
   4  -5   0 6922.45 513.404   1 
  -4   5   0 6813.74 520.478   1 
   4  -5  -1 1023.86 212.463   1 
   4   5  -1 1539.53 263.116   3 
  -4   5  -1 866.334 212.475   1 
   4  -5   1 1303.50 217.815   2 
   4   5   1 1642.27 250.726   3 
  -4   5   1 1601.51 237.585   2 
   4   5   2 2750.31 327.006   3 
   4  -5  -2 3272.05 349.561   1 
  -4   5   2 2953.19 336.450   2 
   4  -5   2 3294.87 319.080   2 
   4  -5  -3 5884.76 470.786   1 
   4   5   3 5907.11 473.322   3 
   4  -5   3 6180.82 446.916   2 
  -4   5   3 5417.64 439.727   2 
   4   5   4 26990.3 1050.51   3 
   4  -5   4 24876.9 930.343   2 
   4  -5  -4 25630.9 997.173   1 
   4   5   5 27471.4 1073.19   3 
   4  -5  -5 26799.3 1020.24   1 
   4  -5  -6 8.78242 126.130   1 
   4   5   6 38.0356 37.9690   2 
   4   5   6-0.48094 132.337   3 
   4   5   7 6115.89 515.633   3 
   4  -5  -7 5961.76 477.252   1 
   4  -5   8 26525.1 826.354   3 
   4   5   8 24337.8 1060.72   3 
  -4  -5  -9 2394.13 329.283   3 
   4  -5   9 1385.50 194.534   3 
   4   5   9 1983.57 310.918   3 
   4   5 -10 2084.72 299.487   4 
  -4  -5 -10 1891.33 316.703   3 
   4  -5  10 1547.18 199.197   3 
   4   5  10 1672.90 292.883   3 
   4   5 -11 38446.0 1325.64   4 
  -4  -5 -11 37841.3 1379.20   3 
   4  -5  11 35465.1 983.208   3 
   4   5  11 37635.5 1389.13   3 
   4   5 -12 1015.36 239.584   4 
  -4  -5 -12 1084.36 267.553   3 
   4  -5  12 963.081 170.738   3 
   4   5  12 850.982 229.194   3 
   4   5 -13 26612.5 1144.69   4 
   4   5  13 25699.8 1178.73   3 
  -4  -5 -13 26570.4 1188.22   3 
   4  -5  13 27301.1 849.800   3 
   4  -5  14 14647.9 613.080   3 
   4   5  14 15123.2 907.929   3 
   4   5 -15 2623.32 309.967   5 
   4  -5  15 2425.68 261.251   3 
   4   5  15 2468.42 380.595   3 
   4   5 -16 5796.00 457.534   5 
   4   5  16 6133.60 594.165   3 
   4  -5  16 6702.86 414.567   3 
   4   5  16 6157.01 491.560   5 
   4   5  17 28052.6 1062.39   5 
   4   5 -17 27167.1 1011.48   5 
   4   5  17 28074.5 1320.35   3 
   4  -5  17 27121.8 883.896   3 
   4  -5  18 8285.76 478.931   3 
   4   5  18 7907.50 551.012   5 
   4   5 -18 7342.76 513.420   5 
   4   5  18 7876.15 712.708   3 
   4  -5  19 29803.7 963.058   3 
   4   5 -19 28953.6 1028.47   5 
   4   5 -19 26871.2 557.418   1 
   4   5  19 31380.0 1105.02   5 
   4   5  19 29873.8 1407.13   3 
   4   5 -20 1876.19 147.289   1 
   4   5  20 2567.29 438.939   3 
   4  -5  20 2240.86 262.741   3 
   4   5  20 2139.61 286.796   5 
   4   5 -20 2348.60 288.944   5 
   4   5  21-131.583 168.929   3 
   4  -5  21 267.610 116.086   3 
   4   5  21-272.658 230.816   4 
   4   5  22 684.884 251.944   4 
   4   5  22 1551.27 356.833   3 
   4   5  23-185.415 214.656   4 
   4   5  23 174.374 210.848   3 
   4   5  24 1039.11 301.502   4 
   4   5  24 1275.67 340.537   3 
   4   5  25 4396.20 579.177   4 
   4   5  25 3755.78 551.217   3 
   4   5  26 434.562 266.759   4 
   4   5  26 223.301 266.191   3 
   4  -5  26 27.1111 193.000   4 
   4  -5  27 3134.80 613.654   4 
   4   5  27 3454.88 547.865   4 
   4   5  27 2872.68 515.762   3 
   4   5  28-256.884 297.514   4 
   4   5  29 715.852 354.671   4 
   4   5  30 767.007 358.563   4 
   4  -6   0 7268.94 541.669   1 
   4  -6   0 6881.15 496.714   2 
   4   6   0 6662.82 510.212   3 
   4  -6  -1 215.227 115.281   1 
   4  -6   1 256.402 111.954   1 
  -4  -6  -1 379.850 65.0724   2 
   4  -6   1 474.174 136.661   2 
   4   6  -1 268.885 128.403   3 
   4   6   1 433.837 154.820   3 
   4  -6  -2 8881.74 601.819   1 
   4   6  -2 8971.56 587.559   3 
   4   6   2 8451.99 586.936   3 
   4  -6   2 9087.05 575.114   2 
   4   6  -3 9843.03 610.569   3 
   4   6   3 9007.23 609.279   3 
   4  -6   3 7669.97 529.163   2 
   4  -6  -3 8238.16 579.260   1 
   4   6   4 57050.1 1649.87   3 
   4  -6  -4 58859.8 1651.51   1 
   4  -6   4 59177.3 1589.62   2 
   4   6   5 43638.8 1436.61   3 
   4  -6  -5 46514.1 1442.93   1 
   4   6   6 20641.0 533.700   2 
   4  -6  -6 18953.2 895.231   1 
   4   6   7 952.532 119.486   2 
   4  -6  -7 1017.66 226.471   1 
   4   6   7 1354.14 279.796   3 
   4   6   8 12122.1 462.634   2 
   4   6   8 11649.1 736.177   3 
   4  -6   9 101.886 85.3841   3 
  -4  -6  -9-75.3864 163.157   3 
   4   6   9 1.69107 115.115   3 
   4   6 -10 23670.4 995.178   4 
  -4  -6 -10 23961.2 1091.02   3 
   4  -6  10 25134.9 771.163   3 
  -4   6 -10 23884.3 1153.23   1 
   4   6  10 21996.5 1068.89   3 
   4   6 -11 2046.48 314.255   4 
  -4  -6 -11 2170.55 339.948   3 
   4  -6  11 2048.38 218.040   3 
   4   6  11 1798.52 345.828   3 
   4   6 -12 2251.02 332.744   4 
  -4  -6 -12 2312.79 374.491   3 
   4  -6  12 2818.54 244.049   3 
   4   6  12 2012.12 338.241   3 
   4   6 -13 867.338 259.754   4 
   4   6  13 711.714 216.453   5 
   4  -6  13 711.374 148.154   3 
   4   6 -13 444.794 170.656   5 
   4   6  13 502.628 249.646   3 
   4  -6  14 5005.77 323.444   3 
   4   6  14 3541.52 399.646   5 
   4   6 -14 4232.92 403.225   5 
   4   6  14 3770.23 481.976   3 
   4   6 -15 19658.0 887.529   5 
   4   6  15 20028.9 928.960   5 
   4  -6  15 20477.4 691.979   3 
   4   6  15 19311.5 1089.62   3 
   4   6  16 19667.2 910.884   5 
   4   6 -16 19360.6 879.502   5 
   4   6  16 20601.4 1141.49   3 
   4  -6  16 19564.7 675.783   3 
   4  -6  17 1923.40 220.742   3 
   4   6  17 2066.33 384.802   3 
   4   6  17 2502.51 340.525   5 
   4   6 -17 1771.02 279.159   5 
   4  -6  18 8874.71 453.017   3 
   4   6  18 8489.21 753.129   3 
   4   6  18 7761.55 565.838   5 
   4   6 -18 8167.00 558.521   5 
   4   6  19 8661.92 787.509   3 
   4  -6  19 7644.21 433.769   3 
   4   6  19 8545.58 593.037   5 
   4   6 -19 7531.66 529.974   5 
   4   6  20 5605.86 656.629   3 
   4   6  20 6248.50 594.613   4 
   4   6  20 5807.35 475.119   5 
   4   6  21 6139.08 694.170   3 
   4   6  21 6015.45 611.459   4 
   4   6  22 1595.27 373.654   3 
   4   6  22 1340.30 316.444   4 
   4   6  23 98.3759 191.780   4 
   4   6  23 26.8123 213.073   3 
   4   6  24 576.517 199.776   4 
   4   6  24 791.546 293.440   3 
   4   6  25 275.443 259.316   4 
   4   6  25 489.909 304.969   3 
   4   6  26 1139.80 348.716   4 
   4   6  26 1329.50 359.048   3 
   4  -6  26 902.537 325.933   4 
   4  -6  27 509.093 292.600   4 
   4   6  27 714.370 327.572   3 
   4   6  28 888.133 349.833   4 
   4   6  29-345.035 290.701   4 
   4   6  30 2868.77 533.188   4 
   4  -7   0 46416.1 1434.09   2 
   4   7   0 46598.8 1444.31   3 
  -4  -7   0 45247.3 956.127   2 
   4  -7   0 45676.2 1474.10   1 
  -4  -7  -1-26.2404 48.3773   2 
   4  -7   1 35.3361 151.323   2 
   4   7  -1-7.44535 128.773   3 
   4   7   1 94.5295 140.014   3 
   4  -7   1 16.4932 145.265   1 
   4  -7  -1-54.7151 117.042   1 
   4  -7  -2 11903.9 722.274   1 
   4   7  -2 11049.9 662.901   3 
   4   7   2 10674.1 670.368   3 
   4  -7   2 11791.6 690.542   2 
   4   7  -3 4360.79 427.794   3 
   4   7   3 3499.83 398.816   3 
   4  -7   3 4373.00 426.774   2 
   4  -7  -3 4523.47 456.704   1 
   4   7  -4 19925.8 889.639   3 
   4   7   4 18088.6 910.415   3 
   4  -7   4 18629.2 887.943   2 
   4  -7  -4 18110.5 904.130   1 
   4   7  -5 161885. 3059.55   3 
   4   7   5 161214. 3219.03   3 
   4  -7   5 169207. 3182.02   2 
   4  -7  -5 164810. 3233.76   1 
   4  -7  -6 15683.1 846.720   1 
  -4   7   6 15846.7 880.668   2 
  -4   7   7 1888.67 320.469   2 
   4   7   7 1677.81 176.727   2 
  -4   7   8 14239.2 867.478   2 
  -4   7  -8 14563.6 897.354   1 
   4   7   8 12866.7 806.610   3 
   4   7   8 14486.1 545.034   2 
   4   7   9 7120.97 391.127   2 
   4  -7   9 6627.43 369.900   3 
  -4  -7  -9 6452.62 576.340   3 
  -4   7  -9 7146.28 643.635   1 
   4   7   9 6537.93 578.936   3 
   4   7  -9 7142.03 544.406   5 
   4   7 -10 3618.65 387.965   4 
  -4  -7 -10 4261.17 474.050   3 
   4  -7  10 3479.41 267.920   3 
   4   7  10 4049.50 473.112   3 
   4   7  10 3976.12 419.337   5 
  -4   7 -10 3216.97 434.259   1 
   4   7 -10 3064.16 367.940   5 
   4   7 -11 27777.8 1123.94   4 
  -4   7 -11 28292.6 1305.08   1 
   4  -7  11 29536.1 798.512   3 
   4   7  11 27443.4 1250.01   3 
   4   7  11 29594.6 1162.10   5 
   4   7 -11 27849.1 1117.35   5 
   4   7 -12 714.984 195.828   4 
  -4   7 -12 944.225 272.699   1 
   4  -7  12 537.402 119.061   3 
   4   7  12 842.781 225.603   5 
   4   7 -12 1090.89 244.781   5 
   4   7  12 960.434 268.748   3 
  -4   7 -13 18324.3 1072.74   1 
   4   7 -13 17543.3 870.912   5 
   4  -7  13 17850.6 584.965   3 
   4   7  13 18448.4 915.134   5 
   4   7  13 18209.5 1038.27   3 
   4   7 -13 17974.4 942.921   4 
   4   7  14 7418.88 568.738   5 
   4  -7  14 6769.06 347.316   3 
   4   7 -14 6796.18 540.478   5 
   4   7  14 8100.87 702.593   3 
   4   7  15 9936.36 664.261   5 
   4   7 -15 8561.72 611.472   5 
   4   7  15 8527.60 747.944   3 
   4  -7  15 9637.58 412.725   3 
   4  -7  16 2118.35 196.110   3 
   4   7  16 2746.20 372.456   5 
   4   7  16 2975.79 450.806   3 
   4   7 -16 3022.45 382.022   5 
   4   7  17 2355.67 438.824   3 
   4  -7  17 3041.37 231.531   3 
   4   7  17 2280.45 330.479   5 
   4   7 -17 2065.88 307.348   5 
   4   7  18 1625.26 415.617   3 
   4  -7  18 1313.08 159.127   3 
   4   7  18 1799.99 304.892   5 
   4   7 -18 1567.57 273.944   5 
   4   7  19 25765.4 1372.73   3 
   4   7 -19 22457.6 976.220   5 
   4   7  19 22503.2 1004.97   5 
   4   7  19 23645.2 1126.28   4 
   4   7  20 661.048 213.736   4 
   4   7  20 635.401 314.120   3 
   4   7  21 19.5366 147.823   4 
   4   7  21 114.741 201.984   3 
   4   7  22-45.6588 182.811   4 
   4   7  22 576.698 306.231   3 
   4   7  23-61.4987 262.370   3 
   4   7  23 54.7193 165.746   4 
   4   7  24 29.8705 197.953   4 
   4   7  24-241.862 285.972   3 
   4   7  25 12620.5 1087.85   3 
   4   7  25 11078.5 910.809   4 
   4   7  26 6489.49 726.374   4 
   4   7  26 5963.61 756.116   3 
   4  -7  26 4927.26 701.640   4 
   4  -7  27 2783.40 576.370   4 
   4   7  27 2064.58 458.058   4 
   4   7  27 2319.47 505.014   3 
   4   7  28 47.0505 185.639   4 
   4   7  29 365.635 260.761   4 
   4   7  30 1893.01 461.460   4 
   4  -8   0 13182.9 766.206   2 
   4   8   0 12894.6 757.844   3 
   4  -8   0 13381.3 791.615   1 
  -4  -8   0 12451.3 492.975   2 
   4  -8  -1 19509.0 962.730   1 
   4   8  -1 17820.7 875.324   3 
   4   8   1 16962.6 868.172   3 
  -4  -8  -1 15796.1 549.078   2 
   4  -8   1 20778.1 986.051   1 
   4  -8   1 19917.3 940.061   2 
   4   8  -2 10276.7 661.078   3 
   4   8   2 10876.6 705.366   3 
   4  -8   2 10923.1 719.984   1 
   4  -8   2 9890.69 673.213   2 
   4  -8  -2 10347.5 697.805   1 
   4   8  -3 28221.3 1104.44   3 
   4   8   3 28116.7 1154.43   3 
  -4   8   3 29886.1 1213.91   2 
   4  -8   3 32410.0 1231.84   2 
   4   8  -3 28311.7 1149.69   5 
   4  -8  -3 31336.0 1251.02   1 
  -4  -8  -4 3916.67 423.060   3 
   4   8  -4 3738.30 395.438   3 
   4   8  -4 3247.19 391.598   5 
   4   8   4 4048.89 452.489   3 
   4  -8   4 3870.66 420.125   2 
   4  -8  -4 3681.58 430.068   1 
   4   8   4 3730.41 420.634   5 
  -4   8   4 2796.81 394.439   2 
   4   8  -5 4542.35 364.058   4 
  -4  -8  -5 4732.08 474.219   3 
   4   8   5 4253.21 441.868   5 
   4   8   5 5088.64 510.378   3 
   4  -8   5 4460.46 461.321   2 
   4  -8  -5 3770.16 437.533   1 
   4   8  -5 4568.74 432.587   3 
   4   8  -5 4334.59 442.642   5 
  -4   8   5 4020.74 472.014   2 
   4   8  -6 12677.8 637.207   4 
   4   8  -6 13885.8 746.316   3 
  -4  -8  -6 13418.1 799.686   3 
   4   8   6 11907.7 773.960   3 
   4  -8  -6 13487.5 809.642   1 
   4   8   6 13435.8 784.099   5 
   4   8  -6 12829.0 761.758   5 
  -4   8   6 13556.2 845.294   2 
   4   8  -7-9.32628 160.348   3 
  -4   8   7-81.7954 190.960   2 
  -4  -8  -7 144.500 201.294   3 
   4   8  -7 94.1476 148.208   5 
   4   8   7 99.7960 95.4690   2 
   4   8   7 337.976 238.438   3 
   4   8   7 219.218 150.079   5 
  -4   8  -7 79.7284 224.702   1 
  -4   8  -8 3867.55 491.441   1 
  -4  -8  -8 3847.17 449.448   3 
  -4   8   8 3250.91 438.466   2 
   4   8   8 3398.08 278.233   2 
   4   8   8 3964.29 431.232   5 
   4   8   8 3396.74 429.020   3 
   4   8  -8 3065.96 382.425   5 
   4   8  -9 4107.86 398.129   4 
  -4   8   9 4176.87 485.074   2 
  -4   8  -9 3810.66 502.282   1 
   4   8   9 5113.57 534.956   3 
   4   8   9 4136.29 451.351   5 
   4   8  -9 4844.83 470.237   5 
   4   8   9 4882.26 345.744   2 
   4   8 -10 1322.98 270.243   4 
   4   8  10 1132.25 181.785   2 
   4  -8  10 976.178 141.203   3 
  -4   8 -10 949.883 241.114   1 
   4   8  10 1560.70 272.269   5 
   4   8 -10 1835.33 300.751   5 
   4   8  10 1073.54 263.345   3 
   4  -8  11 17594.7 568.295   3 
  -4   8 -11 17685.8 1053.30   1 
   4   8  11 16963.7 1001.35   3 
   4   8 -11 16267.2 873.830   5 
   4   8  11 18367.5 946.210   5 
   4   8 -11 17566.5 881.624   4 
   4  -8  12 12833.1 457.951   3 
  -4   8 -12 12520.4 893.164   1 
   4   8  12 13259.3 796.247   5 
   4   8  12 12855.5 870.865   3 
   4   8 -12 13879.8 796.625   5 
   4   8 -12 13058.7 776.110   4 
  -4   8 -13 350.906 218.993   1 
   4  -8  13 368.225 82.4976   3 
   4   8  13 511.375 189.357   5 
   4   8 -13 322.518 173.032   5 
   4   8  13 109.135 246.620   3 
  -4   8 -14 14184.9 981.705   1 
   4   8  14 14407.3 841.387   5 
   4   8 -14 13730.4 792.124   5 
   4  -8  14 14596.7 457.787   3 
   4   8  14 15027.9 1000.38   3 
  -4   8 -15 19521.6 1166.28   1 
   4   8  15 19133.7 974.533   5 
   4   8 -15 18408.2 920.101   5 
   4   8  15 19921.1 1161.83   3 
   4  -8  15 18468.3 505.752   3 
   4   8  16 443.670 229.566   3 
  -4   8 -16 736.356 271.439   1 
   4  -8  16 488.063 77.9152   3 
   4   8  16 980.223 256.250   5 
   4   8 -16 339.143 145.021   5 
  -4   8 -17 4297.63 572.424   1 
   4   8  17 5344.84 506.227   5 
   4   8 -17 5480.07 499.018   5 
   4   8  17 5607.14 646.466   3 
   4   8  18 2358.60 355.076   4 
   4   8  18 2493.32 456.930   3 
  -4   8 -18 1945.94 406.138   1 
   4   8  18 2553.36 360.376   5 
   4   8 -18 2383.61 341.007   5 
   4   8  19 54.9656 131.799   4 
   4   8  19-109.930 222.982   3 
   4   8  19-151.268 137.993   5 
   4   8 -19-9.27867 116.758   5 
   4   8  20 4463.92 618.379   3 
   4   8  20 5384.58 541.330   4 
   4   8  21 13.5928 161.728   4 
   4   8  21-20.6415 209.438   3 
   4   8  22 347.134 176.644   4 
   4   8  22 443.022 231.086   3 
   4   8  23 1904.50 379.656   4 
   4   8  23 1794.45 434.386   3 
   4   8  24 165.528 191.109   4 
   4   8  24-240.912 283.388   3 
   4   8  25 5279.29 724.697   3 
   4   8  25 5259.96 626.475   4 
   4   8  26 1829.55 417.831   4 
   4   8  26 2182.37 512.547   3 
   4  -8  26 1554.22 404.757   4 
   4   8  27 41.1009 198.288   4 
   4   8  27 1062.59 415.891   3 
   4   8  28 1789.23 415.372   4 
   4   8  28 2345.41 523.902   3 
   4   8  29 421.116 260.920   4 
   4  -9   0 10440.7 720.173   2 
   4  -9   0 10530.7 742.522   1 
   4   9   0 10914.5 706.289   3 
   4   9   0 10922.3 722.695   5 
  -4  -9   0 10863.4 502.574   2 
  -4  -9  -1 117.726 67.1857   2 
   4  -9   1 150.544 157.015   2 
   4  -9  -1 311.236 179.851   1 
   4  -9   1 337.139 182.428   1 
   4   9  -1 304.618 181.124   3 
   4  -9  -1 350.540 191.572   2 
   4   9   1 213.417 182.953   3 
   4   9   1 237.568 148.202   5 
   4   9  -1 451.729 171.268   5 
   4  -9   2 5350.64 537.304   1 
   4   9  -2 6770.76 554.722   3 
   4   9   2 5601.04 529.146   3 
   4   9  -2 6446.08 557.557   5 
   4   9   2 5926.15 541.453   5 
   4  -9   2 5870.47 539.435   2 
   4  -9  -2 5186.56 528.344   1 
   4  -9   3 2621.26 378.716   2 
  -4  -9  -3 2937.50 401.945   3 
   4   9  -3 2813.68 374.094   3 
   4  -9  -3 2542.69 375.993   1 
   4   9   3 2605.40 383.669   3 
   4   9   3 3294.49 410.566   5 
  -4   9   3 1941.56 339.150   2 
   4   9  -3 3097.69 391.365   5 
  -4  -9  -4 8049.04 625.249   3 
   4   9  -4 7978.34 586.185   3 
   4   9   4 7654.29 627.255   3 
   4   9  -4 7873.25 462.152   4 
  -4   9   4 7264.43 639.691   2 
   4  -9   4 7602.80 620.745   2 
   4  -9  -4 7836.73 645.254   1 
   4   9   4 8822.74 661.230   5 
   4   9  -4 7531.29 597.718   5 
   4   9  -5 11278.9 570.130   4 
  -4  -9  -5 12635.2 787.158   3 
   4   9  -5 10930.2 686.648   3 
   4   9   5 10853.9 743.874   3 
   4  -9   5 12187.6 777.458   2 
  -4   9  -5 11068.3 811.796   1 
   4  -9  -5 11920.7 793.548   1 
  -4   9   5 10964.8 787.937   2 
   4   9   5 11831.8 764.444   5 
   4   9  -5 10824.2 726.294   5 
  -4   9   6 528.880 230.664   2 
   4   9  -6 604.434 153.967   4 
  -4   9  -6 352.697 201.709   1 
  -4  -9  -6 543.361 225.891   3 
   4   9  -6 693.262 212.594   3 
   4  -9   6 280.584 136.679   2 
   4   9   6 570.746 239.683   3 
   4   9   6 802.084 205.941   5 
   4   9  -6 418.651 191.425   5 
   4  -9  -6-57.7414 175.357   1 
   4   9  -7 9280.64 627.790   3 
   4   9   7 9804.16 724.922   3 
  -4   9  -7 8138.61 714.374   1 
   4   9   7 9618.47 693.398   5 
   4   9  -7 9029.83 659.001   5 
  -4   9   7 9113.97 736.310   2 
  -4  -9   7 8698.52 298.310   1 
   4   9  -8 11622.5 703.107   3 
   4   9   8 10776.6 536.154   2 
   4   9   8 11884.1 828.567   3 
   4   9   8 11423.8 756.670   5 
   4   9  -8 11174.6 745.928   5 
  -4   9  -8 11962.2 867.485   1 
  -4   9   8 11374.8 827.289   2 
   4   9  -9 33424.2 1210.56   3 
   4   9  -9 30756.8 1123.90   4 
   4   9   9 35592.9 1042.91   2 
   4   9   9 33674.4 1416.12   3 
   4   9   9 34522.1 1352.54   5 
   4   9  -9 35242.5 1340.61   5 
  -4   9  -9 31593.4 1436.71   1 
  -4   9   9 31262.0 1421.44   2 
   4   9 -10 2720.65 347.601   4 
  -4   9 -10 1883.54 373.131   1 
   4   9  10 2501.88 273.956   2 
   4   9 -10 2521.31 344.313   3 
   4  -9  10 2647.30 218.683   3 
  -4   9  10 1896.31 355.414   2 
   4   9 -10 2617.87 377.267   5 
   4   9  10 2899.52 414.947   5 
   4   9  10 2383.12 403.188   3 
  -4   9 -11 28399.8 1389.49   1 
  -4   9  11 28185.2 1378.30   2 
   4  -9  11 28946.6 715.410   3 
   4   9  11 30765.0 1272.41   5 
   4   9  11 29808.3 1383.58   3 
   4   9 -11 30074.6 1236.76   5 
   4   9  11 28096.4 988.242   2 
   4   9 -11 30050.5 1169.32   4 
   4   9 -12 222.313 178.988   4 
   4   9  12-128.667 193.049   2 
   4   9  12 288.337 198.119   5 
   4  -9  12 151.753 57.4313   3 
  -4   9 -12-260.838 284.355   1 
   4   9 -12 136.332 188.549   5 
   4   9  12-213.356 251.957   3 
   4   9  13 5806.84 551.697   5 
   4  -9  13 4694.73 223.451   3 
   4   9 -13 5182.89 500.399   5 
   4   9  13 5319.39 626.131   3 
  -4   9 -13 4419.92 558.352   1 
  -4   9 -14 32343.0 1519.33   1 
   4   9  14 34351.7 1346.00   5 
   4   9 -14 33263.9 1292.76   5 
   4   9  14 33488.1 1535.74   3 
   4   9  15 3901.51 539.199   3 
  -4   9 -15 3179.74 512.976   1 
   4   9 -15 3994.73 460.636   5 
   4   9  15 3396.54 421.569   5 
   4   9 -16 7245.08 603.709   5 
  -4   9 -16 7932.00 780.839   1 
   4   9  16 7190.79 614.190   5 
   4   9  16 7456.50 744.752   3 
   4   9  16 7677.55 567.625   4 
   4   9  17 222.307 152.318   4 
   4   9  17 385.695 225.617   3 
  -4   9 -17 59.7985 218.039   1 
   4   9  17 218.015 167.418   5 
   4   9 -17 298.855 151.647   5 
   4   9  18 2737.09 378.171   4 
   4   9  18 2667.38 468.392   3 
   4   9  18 2323.16 339.577   5 
   4   9 -18 2142.73 339.064   5 
  -4   9 -18 2240.61 434.968   1 
   4   9  19 2727.50 371.861   4 
  -4   9 -19 2057.04 446.728   1 
   4   9  19 1629.89 388.881   3 
  -4   9 -20 5293.88 678.250   1 
   4   9  20 5699.61 705.433   3 
   4   9  20 5776.78 562.311   4 
   4   9  21 1944.53 356.128   4 
   4   9  21 1898.50 482.356   3 
  -4   9 -21 1156.40 356.726   1 
   4   9  22-187.823 177.088   4 
   4   9  22 396.897 240.497   3 
  -4   9 -22 86.8474 233.752   1 
   4   9  23 60.6459 193.972   4 
   4   9  23 188.628 254.707   3 
  -4   9 -23-436.595 375.875   1 
  -4   9 -24 414.052 233.100   1 
   4   9  24 798.443 263.560   4 
   4   9  24 1066.92 389.739   3 
  -4   9 -25 1879.53 481.965   1 
   4   9  25 2382.36 427.245   4 
   4   9  25 2590.42 518.860   3 
  -4   9 -26 1848.64 478.509   1 
   4   9  26 1964.50 400.967   4 
   4   9  26 2196.01 490.756   3 
   4  -9  26 1785.34 437.637   4 
   4   9  27 454.526 284.984   4 
   4   9  27-113.129 337.780   3 
  -4   9 -27 351.098 313.524   1 
   4   9  28 1773.95 424.860   4 
  -4   9 -28 1665.17 515.853   1 
  -4   9 -29 1195.81 403.191   1 
   4 -10   0 41633.1 1539.44   2 
   4 -10   0 41873.4 1559.10   1 
   4  10   0 39598.5 1417.64   3 
  -4 -10   0 39855.2 1109.94   2 
   4  10   0 40346.9 1490.42   5 
   4 -10  -1 26803.4 1229.11   1 
   4 -10  -1 27178.6 1219.77   2 
   4  10   1 22934.6 1106.72   5 
   4  10  -1 24918.2 1087.71   3 
   4  10   1 23814.4 1084.41   3 
   4 -10   1 25158.3 1190.91   1 
  -4 -10   1 22106.0 819.102   2 
   4  10  -1 25394.3 1161.64   5 
  -4 -10  -1 22603.7 788.247   2 
   4 -10   1 26981.2 1197.03   2 
   4  10  -2 18589.2 665.298   4 
   4  10  -2 18536.6 987.216   5 
   4  10  -2 18737.0 927.526   3 
   4  10   2 18800.8 975.702   3 
   4 -10   2 20730.3 1076.54   1 
   4  10   2 20803.0 1054.04   5 
   4 -10   2 20219.9 1049.00   2 
   4 -10  -2 19773.0 1068.62   1 
   4 -10   3 2486.59 389.232   2 
   4  10  -3 2793.31 266.144   4 
  -4 -10  -3 2426.12 380.639   3 
   4 -10  -3 2065.26 356.090   1 
   4  10  -3 3092.41 395.351   3 
   4 -10   3 2704.77 417.502   1 
   4  10   3 2516.16 406.032   3 
  -4  10   3 2046.82 379.909   2 
   4  10   3 2930.62 423.836   5 
   4  10  -3 2290.74 360.736   5 
   4  10  -4 816.829 160.109   4 
   4 -10  -4 1518.75 318.883   1 
  -4 -10  -4 866.458 247.188   3 
   4  10  -4 742.047 193.197   3 
   4  10   4 532.308 223.048   3 
  -4  10   4 874.456 275.699   2 
   4  10   4 902.242 254.033   5 
   4  10  -4 565.115 219.370   5 
   4 -10   4 1282.92 283.934   2 
   4  10  -5 1012.47 178.969   4 
   4  10  -5 820.122 210.400   3 
  -4  10  -5 686.184 245.326   1 
   4  10   5 775.268 221.616   3 
   4 -10   5 793.610 224.531   2 
   4  10   5 584.277 198.639   5 
   4  10  -5 1467.75 281.255   5 
  -4  10   5 825.255 244.862   2 
   4  10  -6 7987.90 495.065   4 
   4  10  -6 7853.19 592.216   3 
   4 -10   6 9517.11 725.860   2 
  -4  10  -6 8984.53 739.795   1 
   4  10   6 7409.41 650.774   3 
  -4  10   6 9007.88 745.839   2 
   4  10   6 7596.52 642.028   5 
   4  10  -6 7986.65 653.931   5 
   4  10  -7 34502.5 1247.94   3 
  -4  10  -7 36163.2 1538.57   1 
   4  10   7 33685.0 1419.60   3 
  -4  10   7 36391.4 1530.55   2 
   4  10  -7 34833.1 1378.18   5 
  -4 -10   7 34226.2 775.145   1 
   4  10  -8 21835.9 977.458   3 
   4  10   8 21792.9 1143.68   3 
  -4  10  -8 21469.0 1192.53   1 
  -4  10   8 21672.6 1183.62   2 
   4  10  -8 21855.1 1091.72   5 
   4  10  -9 187.658 169.347   4 
  -4  10   9 548.426 301.107   2 
   4  10  -9 695.090 250.487   3 
  -4  10  -9 666.645 281.457   1 
   4  10   9 504.115 181.971   2 
   4  10  -9 478.204 226.331   5 
   4  10   9 373.244 268.010   3 
   4 -10  10 4236.38 260.836   3 
   4  10 -10 6064.29 516.338   3 
  -4  10  10 4626.12 574.285   2 
  -4  10 -10 3890.26 536.188   1 
   4  10  10 5440.00 435.093   2 
   4  10  10 5260.56 589.230   3 
   4  10 -10 5452.34 551.006   5 
   4  10 -10 5300.54 473.968   4 
  -4  10  11 18774.8 1157.62   2 
   4  10 -11 17465.2 879.492   3 
   4  10  11 17637.9 803.390   2 
   4 -10  11 17005.7 492.245   3 
   4  10  11 19298.1 1131.02   3 
  -4  10 -11 17837.5 1118.53   1 
   4  10 -11 18052.1 896.049   4 
   4  10 -12 130.452 152.261   4 
   4  10  12-42.5223 138.464   2 
   4  10 -12 238.203 147.937   3 
  -4  10  12 341.606 221.715   2 
  -4  10 -12-95.2035 282.192   1 
   4 -10  12 232.092 51.8811   3 
   4  10  12 380.831 198.472   3 
   4  10  13 454.939 265.486   3 
  -4  10 -13-47.0956 217.426   1 
   4  10 -13 6.51417 171.311   3 
   4  10  13-2.83378 141.042   2 
  -4  10  13 60.4691 234.542   2 
   4  10  14 9118.94 630.642   2 
  -4  10 -14 8651.87 811.951   1 
   4  10  14 10695.1 888.876   3 
   4  10  14 10002.9 582.032   4 
  -4  10 -15 6339.98 710.903   1 
   4  10  15 5506.61 680.457   3 
   4  10  15 5263.25 450.561   4 
   4  10  16 15042.5 1084.44   3 
  -4  10 -16 14059.2 1065.91   1 
   4  10  16 15881.1 796.997   4 
   4  10  17 557.948 198.156   4 
   4  10  17 1031.01 367.333   3 
  -4  10 -17 31.1931 276.257   1 
   4  10  18 2222.23 322.099   4 
   4  10  18 1678.93 384.687   3 
  -4  10 -18 1278.31 370.246   1 
   4  10  19 1491.55 305.817   4 
  -4  10 -19 1248.62 334.723   1 
   4  10  19 1208.08 395.755   3 
   4  10  20 2113.49 341.529   4 
  -4  10 -20 2160.91 487.096   1 
   4  10  20 2921.19 531.709   3 
   4  10  21 393.362 208.360   4 
   4  10  21 1023.06 407.684   3 
  -4  10 -21 770.105 361.824   1 
   4  10  22 3474.85 458.139   4 
   4  10  22 3058.78 551.467   3 
  -4  10 -22 3553.16 582.773   1 
   4  10  23 3356.46 498.024   4 
   4  10  23 3271.11 621.869   3 
  -4  10 -23 3075.91 571.535   1 
   4  10  24 2426.02 421.337   4 
   4  10  24 2474.09 542.124   3 
  -4  10 -24 3100.67 600.733   1 
   4  10  25 947.186 318.614   4 
   4  10  25 1153.48 425.857   3 
  -4  10 -25 369.730 296.110   1 
   4  10  26 266.783 281.548   3 
  -4  10 -26 490.462 367.318   1 
  -4  10 -27 326.756 271.650   1 
  -4  10 -28 359.999 346.902   1 
  -4 -11   0-159.045 131.847   2 
   4  11   0 95.0952 80.8991   4 
   4  11   0 173.036 152.067   3 
   4  11  -1 356.022 96.8755   4 
  -4 -11  -1 200.365 87.5623   2 
   4  11  -1 74.1104 191.607   3 
   4  11   1 397.770 187.726   3 
  -4 -11   1 397.688 132.576   2 
   4  11  -2 5543.06 345.243   4 
   4  11  -2 5189.02 504.309   3 
   4  11   2 5181.97 531.219   3 
   4  11  -3 8141.12 435.639   4 
   4  11  -3 7835.66 615.852   3 
   4  11   3 7076.20 628.132   3 
   4  11  -4 393.928 130.333   4 
   4  11  -4 390.003 204.719   3 
  -4  11   4 511.584 252.767   2 
   4  11   4 533.147 266.406   3 
   4  11  -5 32034.4 1236.97   3 
   4 -11  -5 31847.4 1306.65   3 
  -4  11   5 30666.0 1428.82   2 
   4  11   5 32766.5 1395.99   3 
   4  11  -5 34035.2 1021.77   4 
   4  11  -6 894.448 193.370   4 
   4  11  -6 844.523 239.569   3 
   4  11   6 589.805 265.279   3 
  -4  11   6 121.714 287.270   2 
   4  11  -7 31697.7 1214.97   3 
  -4  11  -7 31279.1 1466.92   1 
  -4  11   7 30548.8 1460.83   2 
   4  11   7 30813.4 1392.66   3 
  -4 -11   7 30623.2 807.362   1 
   4  11  -8 8791.99 623.295   3 
  -4  11  -8 7571.56 758.613   1 
   4  11   8 7109.48 692.404   3 
  -4  11   8 6832.62 706.105   2 
  -4 -11   8 7860.91 342.511   1 
   4  11  -9 44001.4 1447.23   3 
   4 -11   9 45485.6 1004.42   3 
  -4  11  -9 45831.2 1826.83   1 
   4  11   9 45412.6 1770.92   3 
  -4  11   9 44045.0 1802.11   2 
   4  11  -9 44358.7 1383.56   4 
  -4  11 -10 4491.19 592.000   1 
   4 -11  10 4740.12 259.825   3 
  -4  11  10 3526.34 516.771   2 
   4 -11  10 4665.28 262.011   3 
   4  11 -10 4719.09 471.169   3 
   4  11  10 4743.63 421.439   2 
   4  11  10 4702.20 596.980   3 
   4  11 -10 4186.61 422.501   4 
   4 -11  11 9084.38 313.729   3 
   4  11 -11 8368.39 602.948   3 
   4 -11  11 9467.00 315.521   3 
   4  11  11 9331.33 606.711   2 
  -4  11 -11 10431.3 877.017   1 
   4  11  11 9004.48 787.474   3 
   4  11 -11 9900.23 663.091   4 
  -4  11  11 10409.6 873.109   2 
   4  11 -12 11694.7 717.953   3 
   4  11  12 11251.0 681.041   2 
  -4  11 -12 10913.9 910.037   1 
   4  11  12 10990.7 895.260   3 
   4  11  12 10873.0 537.474   4 
  -4  11  12 11288.6 936.270   2 
  -4  11  13 20487.6 1281.25   2 
   4  11 -13 20252.3 944.895   3 
  -4  11 -13 22224.3 1307.39   1 
   4  11  13 18867.4 917.096   2 
   4  11  13 19158.8 1192.98   3 
   4  11  13 18195.9 742.857   4 
   4  11  14 2051.81 261.608   4 
   4  11  14 2061.63 436.863   3 
   4  11  14 1998.42 314.322   2 
   4  11 -14 2195.15 336.958   3 
  -4  11  14 2374.12 461.229   2 
  -4  11 -14 2706.34 475.977   1 
  -4  11  15 11211.3 970.359   2 
   4  11 -15 11597.7 717.677   3 
  -4  11 -15 11965.2 980.246   1 
   4  11  15 12832.9 1007.40   3 
   4  11  15 11288.7 627.038   4 
   4  11  15 11872.2 772.857   2 
   4  11  16 7898.01 645.885   2 
   4  11 -16 7952.07 589.445   3 
   4  11  16 7493.78 777.280   3 
   4  11  16 8303.85 560.998   4 
  -4  11 -16 8871.24 852.377   1 
   4  11  17 3074.31 528.234   3 
  -4  11 -17 2460.56 444.775   1 
   4  11 -17 3511.81 412.977   3 
   4  11  17 3732.96 466.811   2 
   4  11  17 3395.75 361.374   4 
   4  11  18 74.2699 145.067   4 
   4  11 -18-110.654 173.980   3 
   4  11  18-4.12636 225.123   3 
  -4  11 -18 220.274 242.432   1 
   4  11  19 675.402 190.388   4 
   4  11  19 1240.12 406.775   3 
  -4  11 -19 623.700 288.630   1 
   4  11  20 830.274 252.492   4 
   4  11  20 680.457 278.997   3 
  -4  11 -20 775.705 312.139   1 
   4  11  21 13943.1 858.350   4 
   4  11  21 13212.5 1128.01   3 
  -4  11 -21 13299.2 1117.53   1 
   4  11  22 4525.54 524.262   4 
   4  11  22 5100.44 728.391   3 
  -4  11 -22 3995.79 632.919   1 
   4  11  23 2376.62 502.557   3 
  -4  11 -23 2863.17 557.405   1 
   4  11  24 5605.35 811.980   3 
  -4  11 -24 3471.70 609.380   1 
   4  11  25 1108.87 409.185   3 
  -4  11 -25 862.774 403.786   1 
   4 -11  25 606.728 334.452   4 
  -4  11 -26 590.548 343.320   1 
  -4  11 -27 3673.24 653.912   1 
  -4  11 -28 552.897 269.464   1 
   4  12   0 6463.39 315.228   4 
   4 -12   0 6218.70 512.364   3 
   4  12   0 6000.57 551.234   3 
  -4 -12   0 6282.32 467.270   2 
   4  12  -1 351.796 108.963   4 
   4  12   1 338.067 79.2469   4 
  -4 -12  -1 490.687 144.983   2 
   4 -12  -1 447.103 174.447   3 
   4 -12   1 374.780 150.854   3 
   4  12  -1 761.743 243.292   3 
   4  12   1 120.844 155.899   3 
  -4 -12   1 275.256 134.422   2 
   4 -12  -2 20852.1 993.170   3 
   4 -12   2 20638.3 881.216   3 
   4  12  -2 18931.5 989.254   3 
   4  12   2 19052.5 514.161   4 
  -4 -12   2 18715.7 856.669   2 
   4  12   2 19871.4 1059.38   3 
   4  12  -2 19811.9 658.798   4 
   4  12  -3 202.438 136.322   4 
   4  12   3 151.170 69.9482   4 
   4 -12  -3 454.035 259.748   3 
   4 -12   3 462.746 211.686   3 
   4  12  -3 251.413 254.046   3 
   4  12   3 446.268 305.676   3 
   4 -12   4 67478.2 1612.53   3 
   4 -12  -4 67493.8 1958.53   3 
   4  12  -4 63750.9 1874.05   3 
   4  12   4 65721.6 2061.77   3 
   4  12  -4 65244.1 1452.22   4 
   4 -12   5 6496.24 447.223   3 
   4  12  -5 7691.76 616.241   3 
  -4  12   5 7495.97 734.107   2 
   4  12   5 7796.25 694.924   3 
   4  12  -5 7896.50 470.660   4 
   4 -12   6 2955.44 286.599   3 
   4  12  -6 3327.92 422.488   3 
   4  12  -6 3121.82 315.510   4 
  -4  12   6 2126.08 416.275   2 
   4  12   6 3392.84 492.446   3 
   4 -12   7 3365.73 287.783   3 
   4  12  -7 3899.85 441.952   3 
  -4 -12   7 3855.87 292.596   1 
   4  12   7 4182.70 524.891   3 
  -4  12   7 2682.89 469.491   2 
  -4  12   8 958.962 286.502   2 
   4 -12   8 1316.32 176.469   3 
   4  12  -8 1603.84 287.236   3 
  -4 -12   8 1822.73 183.446   1 
   4  12   8 1186.53 337.528   3 
  -4  12   9 1213.36 292.720   2 
   4 -12   9 1513.23 167.035   3 
   4  12  -9 1015.76 243.161   3 
  -4  12  -9 1784.38 398.596   1 
   4  12   9 1127.05 141.359   4 
   4  12   9 1474.13 341.625   3 
   4 -12  10 11018.9 386.217   3 
   4 -12  10 11163.8 391.956   3 
   4  12 -10 9819.15 667.321   3 
   4  12  10 10458.6 644.551   2 
  -4  12 -10 11054.4 914.326   1 
  -4  12  10 11360.4 936.550   2 
   4  12  10 9595.46 835.490   3 
   4  12  10 10658.1 441.846   4 
   4  12  11 267.633 228.385   3 
   4  12  11 35.4306 77.1094   4 
  -4  12 -11 231.249 232.027   1 
  -4  12  11-421.915 340.680   2 
   4  12 -11-100.865 133.891   3 
   4 -12  11 1.46566 23.3054   3 
   4  12  11-138.499 183.286   2 
   4 -12  11 14.4341 25.0727   3 
   4  12 -12 7287.22 572.077   3 
   4  12  12 7478.43 574.983   2 
  -4  12 -12 6279.66 716.001   1 
   4  12  12 8060.27 790.018   3 
  -4  12  12 7016.18 758.777   2 
   4  12  12 7449.07 412.568   4 
   4  12  13 355.210 168.780   2 
   4  12  13 434.211 122.748   4 
   4  12  13 751.846 340.858   3 
  -4  12 -13 296.034 241.099   1 
  -4  12  13 387.022 254.956   2 
   4  12 -13 363.312 157.697   3 
   4  12  14 1616.72 219.767   4 
   4  12  14 1497.60 355.086   3 
   4  12  14 1268.61 291.448   2 
  -4  12  14 1041.65 320.516   2 
   4  12 -14 1240.29 236.223   3 
  -4  12 -14 1540.71 359.624   1 
   4  12  15 992.873 205.628   4 
   4  12  15 703.316 311.210   3 
   4  12  15 653.916 239.751   2 
   4  12 -15 590.338 184.878   3 
  -4  12  15 264.090 273.505   2 
  -4  12 -15 510.878 267.523   1 
   4  12  16 198.814 109.624   4 
   4  12  16 331.229 274.452   3 
   4  12  16-36.2618 174.452   2 
   4  12 -16-19.4104 144.257   3 
  -4  12  16 249.881 265.318   2 
  -4  12 -16 292.404 227.038   1 
   4  12  17 228.180 138.044   4 
   4  12  17 182.678 230.968   3 
   4  12  17 332.174 188.954   2 
   4  12 -17 108.267 120.677   3 
  -4  12  17-101.086 306.728   2 
  -4  12 -17-318.236 259.224   1 
   4  12  18 1570.13 268.431   4 
   4  12  18 1331.81 427.437   3 
   4  12 -18 1094.77 228.639   3 
   4  12  18 1494.36 323.031   2 
  -4  12  18 141.140 338.196   2 
  -4  12 -18 1473.21 422.000   1 
   4  12  19 627.906 205.518   4 
   4  12  19 663.674 300.937   3 
   4  12  19 423.584 206.299   2 
  -4  12 -19 498.210 242.554   1 
   4  12  20-158.760 290.410   3 
   4  12  20 60.3539 189.698   2 
  -4  12 -20-460.839 384.051   1 
  -4  12 -21 1189.55 365.860   1 
   4  12  21 780.508 396.681   3 
   4  12  22 9445.79 1004.91   3 
  -4  12 -22 8286.68 918.556   1 
  -4  12 -23 32.6093 355.026   1 
   4  12  23 460.022 368.932   3 
  -4  12 -24 1871.16 448.432   1 
   4  12  24 1882.69 533.003   3 
  -4  12 -25 393.882 386.942   1 
  -4  12 -26-536.795 334.772   1 
  -4  12 -27 529.673 351.153   1 
  -4 -13   0 641.713 139.246   2 
   4 -13   0 547.077 199.522   3 
   4  13   0 577.501 252.300   3 
   4  13   0 806.229 108.749   4 
   4 -13   1 7345.31 553.440   3 
   4 -13  -1 7494.75 592.843   3 
   4  13  -1 6755.98 619.330   3 
   4  13   1 7410.72 664.258   3 
  -4 -13   1 6993.01 546.409   2 
   4  13   1 6719.92 263.888   4 
  -4 -13  -1 6826.40 517.145   2 
   4 -13   2 1270.99 228.675   3 
   4 -13  -2 1489.90 313.353   3 
   4  13  -2 1825.41 361.192   3 
   4  13   2 1272.91 312.757   3 
  -4 -13   2 696.942 191.530   2 
   4 -13   3 3171.87 365.322   3 
   4 -13  -3 3634.37 442.916   3 
   4  13  -3 3911.30 494.293   3 
  -4 -13   3 3257.07 392.149   2 
   4  13   3 3923.47 539.183   3 
   4 -13   4 31456.2 1072.25   3 
   4  13  -4 30250.0 1261.48   3 
   4  13   4 30629.0 1399.55   3 
   4 -13   5 6752.80 463.580   3 
   4  13  -5 7333.80 618.662   3 
  -4  13   5 8221.54 794.985   2 
   4  13   5 8513.34 751.593   3 
   4 -13   6 10552.1 545.275   3 
   4  13  -6 9383.90 681.021   3 
  -4 -13   6 9478.86 530.722   1 
  -4  13   6 10447.4 882.457   2 
   4  13   6 8433.19 756.284   3 
   4 -13   7 32493.3 940.693   3 
   4  13   7 30487.9 1463.38   3 
   4  13  -7 30362.0 1244.71   3 
  -4  13   7 30521.7 1542.14   2 
  -4 -13   7 30608.9 942.015   1 
   4 -13   8 1966.66 213.740   3 
  -4 -13   8 2279.71 241.659   1 
   4  13  -8 2217.21 343.424   3 
  -4  13   8 2250.29 461.220   2 
   4  13   8 2309.30 466.907   3 
   4  13   9 18941.4 475.944   4 
   4  13  -9 21016.2 993.261   3 
  -4  13   9 20178.5 1275.88   2 
   4  13   9 19767.7 1201.41   3 
   4 -13   9 20544.5 612.216   3 
   4  13  10 3368.46 210.674   4 
   4  13  10 3319.00 522.370   3 
  -4  13  10 2931.25 521.881   2 
   4  13 -10 3509.94 429.202   3 
   4 -13  10 3395.23 199.538   3 
   4  13  11 1172.01 357.668   3 
   4  13  11 999.214 132.051   4 
  -4  13  11 378.650 283.172   2 
   4  13 -11 604.454 198.558   3 
  -4  13 -11 404.033 234.555   1 
   4  13  12 1395.64 361.191   3 
   4  13  12 1449.64 174.264   4 
  -4  13  12 1303.59 380.640   2 
   4  13 -12 2021.93 319.036   3 
   4  13  12 1332.10 277.735   2 
  -4  13 -12 1926.91 466.463   1 
   4  13  13 25432.3 778.677   4 
   4  13 -13 23728.0 1056.29   3 
  -4  13 -13 24511.0 1439.04   1 
   4  13  13 26319.7 1160.32   2 
  -4  13  13 26156.2 1524.84   2 
   4  13  13 24127.2 1411.99   3 
  -4  13 -14 1111.94 397.810   1 
   4  13  14 1646.17 437.209   3 
   4  13  14 1192.65 192.952   4 
  -4  13  14 1022.60 381.086   2 
   4  13 -14 819.277 219.857   3 
   4  13  14 1398.24 325.760   2 
   4  13  15 6342.59 418.529   4 
  -4  13 -15 6248.83 749.311   1 
   4  13 -15 6600.05 538.657   3 
  -4  13  15 5175.07 709.256   2 
   4  13  15 6241.92 599.575   2 
   4  13  15 7534.88 815.864   3 
   4  13  16 136.612 147.552   2 
   4  13  16 246.874 287.009   3 
  -4  13 -16-425.679 329.511   1 
  -4  13  16-261.001 321.572   2 
   4  13 -16-9.67853 157.969   3 
   4  13  17 1169.88 276.179   2 
   4  13  17 1360.94 398.319   3 
  -4  13 -17 1951.03 451.809   1 
  -4  13  17 1595.57 455.200   2 
   4  13 -17 1538.73 282.725   3 
   4  13  18 791.355 278.382   2 
   4  13  18 1078.30 418.830   3 
  -4  13 -18 477.978 275.888   1 
  -4  13  18 997.558 378.710   2 
   4  13  19-303.015 245.716   2 
   4  13  19-370.622 302.084   3 
  -4  13  19-536.345 415.865   2 
  -4  13 -19-509.840 451.282   1 
   4  13  20 392.018 214.248   2 
   4  13  20-23.1895 266.982   3 
  -4  13  20-224.481 351.840   2 
  -4  13 -20-359.497 343.382   1 
   4  13  21 5727.57 669.658   2 
   4  13  21 7575.58 905.498   3 
  -4  13  21 7024.50 880.308   2 
  -4  13 -21 5537.94 761.471   1 
   4  13  22 267.443 264.513   2 
   4  13  22 709.894 442.166   3 
  -4  13  22 497.669 441.680   2 
  -4  13 -22-133.608 307.823   1 
   4  13  23 2771.03 582.277   3 
   4  13  23 2500.09 474.510   2 
  -4  13 -23 2777.31 594.797   1 
  -4  13 -24 1469.41 436.157   1 
  -4  13 -25-541.970 470.113   1 
  -4  13 -26 4234.50 705.638   1 
   4  14   0 26329.6 1258.38   3 
  -4 -14   0 25157.4 1070.33   2 
  -4 -14  -1 5493.88 498.425   2 
   4 -14   1 6602.74 541.151   3 
   4 -14  -1 7114.96 589.497   3 
   4  14  -1 5343.61 572.015   3 
   4  14   1 6396.99 634.386   3 
  -4 -14   1 5591.09 510.597   2 
   4 -14   2 20234.0 913.855   3 
   4 -14  -2 21477.6 1045.01   3 
   4  14  -2 18274.6 1028.63   3 
  -4 -14   2 17937.6 923.657   2 
   4  14   2 19894.2 1115.34   3 
   4 -14   3 8638.29 574.283   3 
   4  14  -3 7754.40 655.858   3 
  -4 -14   3 6892.48 578.539   2 
   4  14   3 7274.64 693.644   3 
   4 -14   4 114.866 117.075   3 
   4  14  -4 108.615 176.816   3 
   4  14   4 78.0128 187.712   3 
   4 -14   5 232.424 109.921   3 
   4  14  -5 395.902 191.062   3 
   4  14   5 252.780 195.924   3 
   4 -14   6 808.655 164.821   3 
  -4  14   6 733.624 291.927   2 
   4  14  -6 833.683 251.142   3 
  -4 -14   6 754.494 170.061   1 
   4  14   6 1000.32 293.396   3 
   4  14  -7 4809.58 501.563   3 
  -4  14   7 4219.82 602.812   2 
  -4 -14   7 4303.25 370.867   1 
   4 -14   7 4272.50 328.236   3 
   4  14   7 3366.85 511.368   3 
   4  14   8 195.774 244.332   3 
   4 -14   8 38.1704 80.2777   3 
  -4 -14   8-126.828 90.9370   1 
   4  14  -8 119.995 169.813   3 
  -4  14   8 129.485 235.322   2 
   4  14   9 691.091 322.169   3 
   4  14  -9 355.449 154.927   3 
  -4  14   9 481.070 318.459   2 
   4 -14   9 558.983 108.085   3 
   4  14  10 2336.41 450.418   3 
   4  14 -10 3124.50 393.193   3 
  -4  14  10 2344.78 484.239   2 
  -4  14  11 559.940 363.108   2 
   4  14  11 54.1815 241.558   3 
   4  14 -11 318.616 163.489   3 
  -4  14  12-22.6832 279.724   2 
   4  14  12-164.545 209.890   3 
   4  14 -12-179.756 137.076   3 
   4  14 -13 15112.5 844.337   3 
  -4  14 -13 15022.6 1151.77   1 
   4  14  13 15724.4 921.126   2 
  -4  14  13 15536.0 1220.73   2 
   4  14  13 17147.1 1207.25   3 
   4  14  14 4219.28 628.951   3 
  -4  14  14 3788.35 647.566   2 
   4  14 -14 4323.79 443.290   3 
   4  14  14 4412.56 517.035   2 
  -4  14 -14 5157.71 707.156   1 
   4  14  15 14627.9 1144.13   3 
   4  14 -15 12646.7 754.362   3 
  -4  14 -15 13422.6 1098.77   1 
   4  14  15 14521.4 916.119   2 
  -4  14  15 12694.8 1104.53   2 
   4  14  16 23.5971 241.216   3 
  -4  14  16-64.5080 308.357   2 
   4  14 -16 122.086 131.922   3 
  -4  14 -16-33.8972 228.525   1 
   4  14  16 436.093 221.755   2 
   4  14  17 9820.62 982.451   3 
  -4  14 -17 8896.36 935.213   1 
   4  14  17 8572.29 746.439   2 
  -4  14  17 8262.18 925.694   2 
  -4  14 -18 1087.47 409.639   1 
   4  14  18 694.890 260.208   2 
   4  14  18 1134.95 377.271   3 
  -4  14  18 657.991 335.817   2 
  -4  14 -19 4704.62 711.203   1 
   4  14  19 6115.84 813.725   3 
  -4  14  19 4823.72 769.369   2 
   4  14  19 6218.78 663.936   2 
  -4  14 -20 1738.59 435.761   1 
   4  14  20 1389.74 354.436   2 
   4  14  20 1472.61 460.099   3 
  -4  14  20 1501.77 485.995   2 
   4  14  21 3418.95 540.739   2 
  -4  14 -21 3247.56 613.119   1 
   4  14  21 3698.10 638.104   3 
  -4  14  21 3528.86 692.048   2 
  -4  14 -22-179.287 353.306   1 
  -4  14 -23 74.4324 263.602   1 
  -4  14 -24-183.500 309.444   1 
  -4  14 -25-284.408 369.142   1 
  -4  14 -26 2624.85 609.541   1 
   4 -15   0 8558.41 638.429   3 
   4  15   0 7662.73 685.226   3 
  -4 -15   0 7074.10 581.918   2 
  -4 -15   1 502.508 204.522   2 
   4 -15   1 94.9699 146.536   3 
   4 -15  -1 294.254 128.218   3 
  -4 -15  -1 559.415 207.302   2 
   4  15  -1 631.781 249.855   3 
   4  15   1 681.696 301.505   3 
   4 -15   2 6629.47 529.332   3 
   4  15  -2 7468.39 660.043   3 
  -4 -15   2 6799.13 595.435   2 
   4  15   2 7257.13 699.009   3 
   4 -15   3 4188.78 409.864   3 
   4  15  -3 6053.28 603.804   3 
  -4 -15   3 5974.67 562.250   2 
   4  15   3 5947.59 646.494   3 
   4 -15   4 2541.60 298.986   3 
  -4 -15   4 2787.48 384.057   2 
   4  15  -4 3067.28 426.679   3 
   4  15   4 2955.34 475.559   3 
   4 -15   5 1095.42 193.496   3 
   4  15  -5 952.665 269.426   3 
   4  15   5 998.340 328.599   3 
  -4 -15   6 58.7610 105.803   1 
   4 -15   6 40.1770 98.4419   3 
   4  15  -6 149.755 153.392   3 
   4  15   6 24.2723 231.637   3 
   4  15   7 3872.49 551.646   3 
   4  15  -7 3944.27 462.964   3 
  -4  15   7 4580.73 637.240   2 
  -4 -15   7 4610.74 398.290   1 
   4 -15   7 3986.48 320.143   3 
   4  15   8 205.066 239.785   3 
   4  15  -8 62.7755 180.550   3 
  -4  15   8-375.013 325.879   2 
   4  15   9 2759.29 498.950   3 
   4  15  -9 3197.64 414.790   3 
  -4  15   9 3316.01 577.063   2 
   4  15 -10 8146.28 636.783   3 
  -4  15  10 7344.84 839.791   2 
   4  15  10 8371.77 834.149   3 
   4  15  11 462.540 310.499   3 
   4  15 -11 80.7293 129.074   3 
  -4  15  11-178.208 241.359   2 
  -4  15  12 858.957 281.304   2 
   4  15  12 1231.82 387.225   3 
   4  15 -12 1260.57 281.980   3 
  -4  15  13 4346.99 686.624   2 
   4  15  13 4263.27 629.972   3 
   4  15 -13 3608.76 418.511   3 
  -4  15  14 4577.12 666.619   2 
   4  15  14 6218.61 782.154   3 
   4  15 -14 5772.45 522.097   3 
   4  15  14 6299.51 614.780   2 
  -4  15  15 2247.42 540.137   2 
   4  15  15 2327.63 518.728   3 
   4  15  15 1756.32 346.655   2 
  -4  15  16 3074.95 614.268   2 
   4  15  16 2691.23 551.273   3 
   4  15  16 3532.43 498.346   2 
  -4  15  17 3043.81 628.393   2 
   4  15  17 3335.26 643.351   3 
  -4  15 -17 2092.46 471.278   1 
   4  15  17 2930.35 467.993   2 
  -4  15  18 79.9645 319.309   2 
   4  15  18-11.3064 234.106   3 
  -4  15 -18 254.774 326.437   1 
   4  15  18 62.4346 219.002   2 
   4  15  19-254.284 261.132   2 
  -4  15  19-257.468 392.783   2 
   4  15  19-547.725 355.322   3 
  -4  15 -19-686.910 406.910   1 
  -4  15  20 2798.27 588.493   2 
   4  15  20 3721.93 706.151   3 
   4 -15 -20 3053.55 488.599   5 
  -4  15 -20 3348.27 576.089   1 
  -4  15 -21 422.235 302.733   1 
  -4  15 -22 2562.77 543.310   1 
  -4  15 -23 1313.10 487.100   1 
  -4  15 -24 3334.29 665.672   1 
  -4  15 -25 503.906 375.398   1 
   4  16   0 32374.5 1476.28   3 
  -4 -16   0 29962.2 1278.66   2 
  -4 -16   1 2961.67 410.165   2 
  -4 -16  -1 3267.13 432.792   2 
   4  16  -1 3114.18 484.450   3 
   4  16   1 3478.52 510.446   3 
   4 -16   1 3550.90 435.073   3 
  -4 -16   2 4963.17 543.280   2 
   4  16   2 5164.21 600.141   3 
   4  16  -2 4477.88 539.946   3 
   4 -16   2 4908.51 465.365   3 
   4 -16   3 1753.96 289.280   3 
   4  16  -3 2125.21 393.589   3 
   4  16   3 2362.00 427.381   3 
   4 -16   4-131.810 159.472   3 
   4  16  -4-89.7773 181.264   3 
   4  16   4-427.345 313.201   3 
   4  16   5-289.965 317.123   3 
   4  16  -5 423.754 196.767   3 
   4  16   6 2152.45 428.917   3 
   4  16  -6 3183.52 435.541   3 
   4  16   7-14.1283 203.696   3 
   4  16  -7 272.551 218.817   3 
  -4  16   8 5799.19 738.986   2 
   4  16  -8 5128.25 529.262   3 
   4  16   8 5623.74 674.962   3 
   4  16   9 4608.73 648.305   3 
   4  16  -9 4384.31 485.901   3 
  -4  16   9 4582.95 671.957   2 
   4  16 -10 5661.03 550.152   3 
  -4  16  10 5294.97 724.458   2 
   4  16  10 5437.35 707.748   3 
   4  16 -11 10566.2 730.419   3 
   4  16  11 11139.8 993.766   3 
   4  16  12 4040.01 640.276   3 
   4  16 -12 4270.73 473.669   3 
  -4  16  12 3276.63 598.118   2 
   4  16  13 194.360 267.840   3 
   4  16 -13 118.016 166.663   3 
  -4  16  13 62.9813 258.140   2 
  -4  16  14 4784.92 749.277   2 
   4  16  14 4605.78 691.095   3 
  -4  16  15 3052.87 616.953   2 
   4  16  15 2630.30 543.442   3 
   4  16  16 11612.6 1112.62   3 
   4  16  16 11228.0 870.848   2 
  -4  16  16 10914.2 1111.67   2 
  -4  16  17-53.4023 252.167   2 
   4  16  17 334.877 305.172   3 
   4  16  17 362.079 247.516   2 
  -4  16  18 276.328 294.275   2 
   4  16  18 391.526 307.517   3 
   4  16  18-132.464 221.558   2 
  -4  16  19 1932.82 518.869   2 
   4  16  19 2481.07 586.056   3 
   4 -16 -19 2511.11 459.551   5 
   4 -16  20 2079.84 449.696   5 
  -4  16 -21 835.087 246.934   1 
  -4  16 -22-505.771 421.581   1 
  -4  16 -23 150.649 299.224   1 
  -4  16 -24 571.560 341.930   1 
   4  17   0 5732.96 631.162   3 
   4  17  -1 1071.77 334.855   3 
   4  17   1 1767.29 405.131   3 
   4  17  -2-94.3702 240.842   3 
   4  17   2-207.344 248.493   3 
   4  17   3 4318.06 587.432   3 
   4  17  -3 3393.88 473.604   3 
   4  17   4 380.950 275.051   3 
   4  17  -4 311.139 230.956   3 
   4  17  -5 11814.4 844.221   3 
   4  17   5 12310.4 988.304   3 
   4  17   6 382.139 230.771   3 
   4  17  -6 328.950 207.469   3 
   4  17   7 712.613 307.209   3 
   4  17  -7 647.890 233.019   3 
   4  17   8 606.678 261.111   3 
   4  17  -8 1056.81 284.904   3 
   4  17   9 2322.33 487.060   3 
   4  17  -9 2934.88 426.964   3 
   4  17  10 3487.71 579.688   3 
  -4  17  10 2587.76 545.446   2 
   4  17 -10 3445.77 443.083   3 
   4  17  11 6621.30 799.764   3 
  -4  17  11 6799.93 866.863   2 
   4  17 -11 6117.03 568.510   3 
   4  17  12 1286.66 409.613   3 
  -4  17  12 673.563 310.649   2 
   4  17  13 4634.23 708.375   3 
  -4  17  13 6227.11 840.186   2 
   4  17  14 1783.92 501.649   3 
  -4  17  14 1541.19 447.553   2 
   4  17  15 5496.09 779.194   3 
  -4  17  15 6141.19 869.789   2 
  -4  17  16 870.685 489.535   2 
   4  17  16 105.413 264.382   3 
   4  17  17 11743.6 1167.29   3 
  -4  17  17 12210.4 1236.61   2 
   4 -17 -18 1193.77 409.474   5 
   4 -17  19 6502.43 743.311   5 
   4 -17 -19 6503.51 739.514   5 
   4 -17  20 3099.37 513.864   5 
   4  18   0 9538.81 830.143   3 
   4  18   1 290.443 268.528   3 
   4  18  -1 893.786 310.270   3 
   4  18   2 4189.99 568.941   3 
   4  18  -2 4410.05 569.992   3 
   4  18   3 169.452 237.819   3 
   4  18  -3 423.640 253.212   3 
   4  18   4 4319.60 607.374   3 
   4  18  -4 4584.51 552.906   3 
   4  18   5 517.637 289.414   3 
   4  18  -5 530.971 256.199   3 
   4  18  -6 13432.7 904.329   3 
   4  18   6 14496.1 1118.25   3 
   4  18   7 1026.88 306.603   3 
   4  18  -7 620.013 266.827   3 
   4  18  -8 13036.1 871.511   3 
   4  18   8 13024.2 1087.33   3 
   4  18   9 473.536 295.940   3 
   4  18  -9 284.307 191.116   3 
   4  18  10 5691.14 757.575   3 
   4  18 -10 4846.10 517.320   3 
   4  18  11 552.024 330.458   3 
  -4  18  11 1081.17 387.289   2 
   4  18  12 10473.2 1049.01   3 
  -4  18  12 9073.76 1006.93   2 
   4  18  13-219.771 249.375   3 
  -4  18  13 612.004 379.669   2 
   4  18  14 8178.19 941.280   3 
  -4  18  14 8825.96 1020.16   2 
   4  18  15 680.192 357.651   3 
  -4  18  15 31.3988 294.714   2 
   4 -18 -16 255.971 224.339   5 
   4 -18 -17-128.097 286.572   5 
   4 -18  17 273.295 242.673   5 
   4 -18 -18 550.100 288.431   5 
   4 -18  18 977.415 362.129   5 
   4 -18 -19 5.10884 231.137   5 
   4 -18  19 79.9572 249.695   5 
   4  19   0 318.615 212.945   3 
   4  19  -1 1388.97 351.375   3 
   4  19   1 2295.00 449.627   3 
   4  19  -2 3031.18 494.367   3 
   4  19   2 3446.37 568.141   3 
   4  19  -3 62.5683 196.363   3 
   4  19   3 395.932 304.378   3 
   4  19   4 1274.88 392.100   3 
   4  19  -4 914.355 300.141   3 
   4  19  -5 6874.70 674.507   3 
   4  19   5 7451.75 822.735   3 
   4  19   6 1143.22 352.876   3 
   4  19  -6 622.160 232.294   3 
   4  19   7 864.866 303.575   3 
   4  19  -7 550.760 228.534   3 
   4  19   8 919.569 295.879   3 
   4  19  -8 1511.97 325.899   3 
   4  19   9 1535.59 398.844   3 
   4  19  10 136.399 258.098   3 
   4  19  11 14115.6 1227.26   3 
   4  19  12 1870.91 513.827   3 
  -4  19  12 1032.95 445.023   2 
   4  19  13 9872.16 1061.23   3 
  -4  19  13 8639.08 1055.64   2 
   4  19  14 955.535 461.005   3 
   4 -19 -15 2357.31 515.948   5 
   4 -19 -16 674.913 318.811   5 
   4 -19  16 430.821 231.438   5 
   4 -19  17 6538.96 799.965   5 
   4 -19 -17 5472.41 712.508   5 
   4 -19 -18 320.702 240.985   5 
   4 -19  18 243.790 311.122   5 
   4 -19  19 5039.95 719.093   5 
   4  20   0-176.748 225.170   3 
   4  20  -1 1025.16 321.653   3 
   4  20   1 804.244 299.039   3 
   4  20  -2 2900.80 498.624   3 
   4  20   2 1876.25 463.252   3 
   4  20  -3 432.268 264.133   3 
   4  20   3 494.963 280.040   3 
   4  20   4 4937.77 672.218   3 
   4  20  -4 5015.79 611.038   3 
   4  20  -5 1608.81 353.174   3 
   4  20   5 1530.55 401.976   3 
   4  20  -6 399.795 235.549   3 
   4  20   6 108.665 216.200   3 
   4  20   7-87.5331 201.002   3 
   4  20   8 1068.62 374.924   3 
   4  20   9-66.5654 212.115   3 
   4  20  10 4474.75 718.754   3 
   4  20  11 240.829 333.310   3 
   4  20  12 1790.89 517.228   3 
   4 -20 -13 346.813 249.099   5 
   4 -20 -14-206.675 285.554   5 
   4 -20  14 220.115 221.978   5 
   4 -20 -15-87.6708 246.375   5 
   4 -20  15 184.318 288.162   5 
   4 -20 -16 3499.19 597.132   5 
   4 -20  16 3480.88 633.775   5 
   4 -20 -17 926.999 319.600   5 
   4 -20  17 1378.55 429.804   5 
   4  21   0 5179.40 668.502   3 
   4  21  -1 800.935 310.124   3 
   4  21   1 269.628 243.537   3 
   4  21  -2 522.595 245.932   3 
   4  21   2 904.997 349.505   3 
   4  21  -3 1598.37 355.126   3 
   4  21   3 1940.61 449.245   3 
   4  21  -4 188.734 223.073   3 
   4  21   4 524.756 316.557   3 
   4  21  -5 4442.87 575.455   3 
   4  21   5 4917.25 706.009   3 
   4  21   6-45.2969 268.831   3 
   4  21   7 2265.81 518.596   3 
   4  21   8 232.382 208.841   3 
   4  21   9 1386.60 440.965   3 
   4  21  10 3476.68 635.894   3 
   4 -21 -10 4135.43 673.861   5 
   4 -21 -11 5727.19 801.367   5 
   4 -21 -12 165.912 296.177   5 
   4 -21 -13 10519.5 1055.70   5 
   4  22   0 987.632 323.924   3 
   4  22  -1 29.6949 215.806   3 
   4  22   1-145.846 286.421   3 
   4  22  -2 1284.76 335.256   3 
   4  22   2 924.356 298.606   3 
   4  22  -3 335.254 209.537   3 
   4  22   3 95.5366 249.375   3 
   4  22   4 537.054 304.446   3 
   4  22   5-16.9860 250.988   3 
   4  22   6-204.557 322.282   3 
   4  22   7-62.8650 215.125   3 
   4  22   8 473.548 350.827   3 
   4  23   0 126.782 269.971   3 
   4  23   1 589.256 285.028   3 
   4  23   2-279.302 265.975   3 
   4  23   3 108.278 230.232   3 
   4  23   4-37.1213 251.350   3 
   4  23   5 393.237 232.449   3 
   4  23   6 1049.91 419.547   3 
   4  24   3 600.899 291.754   3 
  -5   0   0-15.5736 112.632   1 
  -5   0   0-0.19125 63.7990   2 
  -5   0   1 72.5167 67.5040   2 
  -5   0   1-99.3282 116.349   1 
  -5   0   2 403.603 105.471   2 
  -5   0   2 303.112 114.239   1 
  -5   0   3 131.472 97.8544   1 
  -5   0   4 1997.67 236.061   1 
   5   0   4 2312.52 181.788   2 
   5   0   5-65.3776 131.180   3 
   5   0   5-6.34515 53.6503   2 
   5   0   6 10070.9 630.611   3 
   5   0   7 89.1277 155.731   3 
   5   0   8 42982.6 1361.76   3 
   5   0  -9 72.5818 81.8662   1 
   5   0   9 6.52041 171.210   3 
   5   0  10 21882.3 946.629   3 
   5   0 -10 19953.7 707.129   1 
   5   0 -11-40.8149 80.7104   1 
   5   0  11-299.658 192.829   3 
   5   0  12 28136.3 1118.77   3 
   5   0 -12 28319.1 866.833   1 
   5   0 -13-50.4027 106.396   1 
   5   0  13 54.8348 167.580   3 
   5   0 -14 1511.79 206.311   1 
   5   0  14 965.530 237.042   3 
   5   0 -15-97.8870 121.098   1 
   5   0  15 73.5563 143.583   3 
   5   0  16 3286.14 382.021   3 
   5   0  17-114.994 172.698   3 
   5   0  18 27625.4 1210.40   3 
   5   0  19-145.023 190.442   3 
   5   0  20 0.64408 157.770   3 
   5   0  21 310.135 202.856   3 
   5   0  22 48901.8 1764.30   3 
   5   0  23 290.139 261.115   3 
   5   0  24 45.5545 187.878   3 
   5   0  25 139.748 207.231   3 
   5   0  26 5419.21 622.581   3 
   5   0  27 144.929 242.708   4 
   5   0  28 7130.44 851.521   4 
  -5   1   0-25.4023 107.564   1 
  -5   1   0-20.3457 75.2953   2 
  -5  -1   0 43.9309 45.9819   2 
  -5   1   1 27226.0 987.805   1 
  -5   1  -1 27960.1 1024.62   1 
  -5   1   1 28564.9 845.240   2 
  -5  -1   1 28150.9 709.041   2 
  -5  -1   2 16691.2 682.022   1 
  -5   1   2 15806.4 724.257   1 
  -5   1   2 16432.2 639.923   2 
  -5  -1   3 153739. 2595.23   1 
  -5   1   3 154083. 2618.38   2 
  -5   1   3 153000. 2732.61   1 
   5   1   4 7388.90 541.327   3 
  -5  -1   4 6819.00 407.122   1 
   5  -1   4 7253.79 369.784   2 
   5   1   5 15855.0 803.094   3 
   5  -1   5 14175.1 546.302   2 
   5   1   5 15789.4 434.423   2 
   5  -1   6 742.717 186.864   3 
   5   1   6 1126.56 237.787   3 
   5   1   6 1161.26 124.498   2 
   5  -1   7 7112.33 523.966   3 
   5   1   7 7694.12 560.285   3 
   5  -1  -7 7489.14 443.968   1 
   5  -1   8 44071.1 1346.67   3 
   5   1   8 44289.7 1412.55   3 
   5  -1  -8 44708.0 1178.64   1 
   5  -1  -9 16602.3 685.448   1 
   5  -1   9 16163.3 792.463   3 
   5   1   9 14965.3 804.621   3 
   5  -1  10 36115.5 1228.75   3 
   5   1  10 38033.5 1313.33   3 
   5  -1 -10 37710.1 1085.62   1 
   5   1 -11 260.426 102.271   1 
   5  -1  11 351.348 164.321   3 
   5   1  11-60.9508 132.061   3 
   5  -1 -11 75.6429 90.2199   1 
   5  -1 -12-14.9515 101.817   1 
   5  -1  12 348.451 182.655   3 
   5   1  12 75.5027 182.279   3 
   5   1 -12 31.1957 84.7946   1 
   5  -1  13 6758.88 532.036   3 
   5   1  13 5353.47 506.938   3 
   5  -1 -13 6047.48 421.947   1 
   5   1 -13 6451.19 356.907   1 
   5  -1 -14-114.499 145.417   1 
   5   1 -14 193.781 106.508   1 
   5  -1  14 341.817 185.296   3 
   5   1  14 160.587 163.632   3 
   5   1 -15 442.489 101.196   1 
   5  -1  15 272.060 149.190   3 
   5   1  15 357.571 170.981   3 
   5  -1  16 32.6589 168.467   3 
   5   1  16 182.936 162.389   3 
   5   1 -16 128.030 97.0098   1 
   5  -1  17 968.373 226.552   3 
   5   1  17 727.981 186.840   3 
   5  -1  18 869.758 240.266   3 
   5   1  18 1028.64 268.020   3 
   5   1  19 3635.47 455.946   3 
   5  -1  19 4066.67 443.100   3 
   5   1  20 1589.51 331.380   3 
   5  -1  20 1608.15 302.417   3 
   5  -1  21 8950.87 693.058   3 
   5   1  21 8975.61 734.545   3 
   5   1  22 1418.69 340.966   3 
   5  -1  22 1611.10 350.435   3 
   5   1  23 5709.95 613.143   3 
   5  -1  23 5542.08 562.998   3 
   5   1  24 171.507 227.099   3 
   5  -1  24 225.129 207.666   3 
   5   1  25 3078.29 481.530   3 
   5  -1  25 2688.43 407.427   3 
   5   1  26 4199.56 570.915   3 
   5   1  26 5078.54 719.018   4 
   5   1  27 4273.18 573.624   3 
   5  -1  27 3762.23 618.561   4 
   5   1  27 3783.53 611.283   4 
   5   1  28 3438.45 613.618   4 
   5  -1  28 2763.93 565.971   4 
  -5   2   0-63.5476 155.576   1 
  -5  -2   0-20.8566 32.6239   2 
  -5  -2   1 28775.1 660.110   2 
  -5   2  -1 28675.2 1074.43   1 
  -5   2   1 28760.3 900.747   2 
  -5   2   1 27098.0 1023.88   1 
  -5   2  -2 3977.04 404.035   1 
  -5   2   2 4309.58 394.497   1 
  -5   2   2 4225.55 340.453   2 
   5   2   3 11304.9 686.899   3 
  -5  -2   3 10724.9 502.054   1 
  -5   2   3 10471.5 598.649   1 
  -5   2   3 10536.3 557.273   2 
   5  -2   3 10263.2 489.465   2 
   5  -2   4 1033.24 160.996   2 
   5   2   4 816.263 212.214   3 
  -5  -2   4 898.044 145.247   1 
   5   2   5 7704.01 566.429   3 
  -5  -2   5 7675.87 387.928   1 
   5  -2   5 7581.72 429.194   2 
   5   2   6 20826.7 951.157   3 
   5   2   6 19526.8 443.526   2 
   5  -2   7 21735.2 896.083   3 
   5   2   7 23075.8 1004.42   3 
   5  -2  -7 20810.1 818.428   1 
   5  -2   8 333.860 146.131   3 
   5   2   8 206.478 139.737   3 
   5  -2  -8 388.365 136.936   1 
   5  -2   9 25077.6 982.758   3 
   5   2   9 26010.8 1087.41   3 
   5  -2  -9 26744.0 942.875   1 
   5  -2  10 412.932 154.277   3 
   5   2  10 338.244 213.265   3 
   5  -2 -10 584.410 156.765   1 
   5  -2  11 17473.9 818.471   3 
   5   2  11 17082.1 903.087   3 
   5  -2 -11 17745.6 774.654   1 
   5  -2  12 32977.1 1150.66   3 
   5   2  12 33375.1 1279.07   3 
   5  -2 -12 31072.4 1057.49   1 
   5  -2 -13 795.708 179.420   1 
   5  -2  13 837.321 196.769   3 
   5   2  13 596.102 202.028   3 
   5   2 -14 1268.25 139.787   1 
   5  -2  14 1235.73 243.899   3 
   5   2  14 761.023 248.276   3 
   5   2 -15-55.2208 53.9289   1 
   5  -2  15-0.47815 134.215   3 
   5   2  15-158.672 170.172   3 
   5   2 -16 1850.53 178.209   1 
   5  -2  16 1064.20 238.851   3 
   5   2  16 1737.32 314.391   3 
   5   2 -17 573.269 107.734   1 
   5  -2  17 786.227 198.365   3 
   5   2  17 330.709 186.359   3 
   5   2  18 3813.05 478.711   3 
   5   2 -18 3712.73 266.007   1 
   5  -2  18 4662.84 458.736   3 
   5   2  19 6802.11 642.468   3 
   5  -2  19 5750.97 513.969   3 
   5   2  20-139.897 181.601   3 
   5  -2  20 37.9590 122.198   3 
   5   2  21 1074.95 320.987   3 
   5  -2  21 1200.94 264.467   3 
   5   2  22 906.889 280.125   3 
   5  -2  22 2036.43 356.298   3 
   5   2  23 12593.5 933.650   3 
   5  -2  23 13487.8 848.167   3 
   5   2  24 7965.10 758.792   3 
   5  -2  24 7609.05 643.033   3 
   5   2  25 942.092 348.625   3 
   5   2  26 1554.62 389.620   3 
   5   2  26 1524.04 433.139   4 
   5   2  27 3628.73 611.809   4 
   5   2  27 3297.82 523.817   3 
   5   2  28 658.404 304.771   4 
   5   2  28 863.605 283.414   3 
  -5   3   0-18.3224 147.895   1 
  -5   3  -1 11284.5 686.509   1 
  -5   3   1 10894.8 577.337   2 
  -5   3   1 10474.8 643.573   1 
  -5   3   2 2241.60 274.481   2 
  -5   3  -2 1886.61 289.597   1 
   5  -3   2 2163.95 253.125   2 
  -5   3   2 1607.87 262.019   1 
  -5   3   3 165.121 103.947   2 
   5  -3   3 279.175 91.4802   2 
   5   3   3 256.806 161.882   3 
  -5   3  -3 1.01449 212.847   1 
   5  -3   4 255.494 102.517   2 
   5   3   4 455.467 179.901   3 
  -5   3   4 222.940 115.122   2 
  -5   3  -4-83.5627 220.750   1 
  -5  -3   4 495.637 111.155   1 
   5  -3  -4 380.234 139.009   1 
   5   3   5 2763.50 357.969   3 
   5  -3   5 2470.24 267.322   2 
  -5  -3   5 3425.70 237.765   1 
   5  -3  -5 2657.26 313.692   1 
   5   3   6 7894.35 590.783   3 
   5  -3  -6 7621.33 517.128   1 
   5  -3   6 7113.56 453.975   2 
   5  -3   7 241.612 141.300   3 
   5   3   7 522.639 207.699   3 
   5  -3  -7 257.510 126.346   1 
   5  -3   8 2746.30 321.890   3 
   5   3   8 2884.51 360.400   3 
   5  -3  -8 2563.68 315.956   1 
   5  -3   9 1772.39 263.927   3 
   5   3   9 1155.95 251.165   3 
   5  -3  -9 1454.18 250.538   1 
   5  -3  10 3597.37 354.452   3 
   5   3  10 3667.83 409.231   3 
   5  -3 -10 3278.69 352.555   1 
   5  -3 -11 989.793 207.469   1 
   5   3  11 710.265 183.502   3 
   5  -3  12 374.926 140.815   3 
   5   3  12 365.647 159.405   3 
   5  -3 -12 318.266 129.911   1 
  -5  -3 -13 61.4531 189.137   3 
   5  -3  13 29.1364 115.196   3 
   5   3  13 297.693 205.228   3 
   5  -3  14 9555.08 598.564   3 
   5   3  14 9763.61 725.824   3 
   5  -3  15-19.5898 139.295   3 
   5   3  15-124.068 225.587   3 
   5  -3  16 13411.4 730.725   3 
   5   3  16 14448.8 906.590   3 
   5  -3  17 8655.31 595.330   3 
   5   3  17 7632.49 678.594   3 
   5   3 -18 2146.02 150.097   1 
   5  -3  18 2558.73 323.496   3 
   5   3  18 2350.65 406.439   3 
   5   3  19 18222.8 1073.17   3 
   5  -3  19 16613.8 850.254   3 
   5   3  20 2159.78 396.814   3 
   5  -3  20 1741.79 281.110   3 
   5  -3  21 7064.61 566.309   3 
   5   3  21 5828.91 632.735   3 
   5   3  22 5.01721 174.186   3 
   5  -3  22-89.1287 131.690   3 
   5   3  23 7482.50 750.936   3 
   5  -3  23 6902.86 574.620   3 
   5   3  24 2799.25 482.548   3 
   5   3  25 3688.31 524.716   3 
   5   3  25 3636.80 567.594   4 
   5   3  26 1551.42 361.416   3 
   5   3  26 1609.78 422.099   4 
   5   3  27 2019.48 451.016   4 
   5   3  27 1392.12 383.631   3 
   5   3  28 1710.84 438.232   4 
   5   3  28 1405.22 357.179   3 
   5   3  29 1541.87 404.071   4 
   5   3  29 1546.40 388.688   3 
  -5   4   0 231.485 177.387   1 
   5   4   1 78357.4 2003.91   3 
  -5   4   1 80175.8 1824.58   2 
  -5   4   1 75555.3 1960.37   1 
  -5   4  -1 78696.9 2023.61   1 
   5  -4   2 7721.01 491.547   2 
  -5   4  -2 6808.30 567.606   1 
   5   4   2 7916.97 602.209   3 
  -5   4   2 6954.56 500.375   2 
   5   4   3 5037.87 484.968   3 
   5  -4  -3 4290.50 405.518   1 
  -5   4   3 3993.49 382.749   2 
   5  -4   3 4489.42 378.135   2 
  -5   4  -3 3617.77 423.355   1 
  -5  -4   4 19203.7 601.077   1 
   5   4   4 20296.0 964.557   3 
  -5   4  -4 19969.1 985.401   1 
   5  -4   4 20449.5 828.411   2 
   5  -4  -4 21057.4 909.853   1 
   5  -4  -5 1593.77 272.186   1 
  -5   4  -5 1522.80 283.208   1 
   5   4   5 1050.21 247.565   3 
   5  -4   5 1633.54 230.751   2 
  -5  -4   5 1461.73 149.664   1 
  -5   4  -6 1667.49 298.935   1 
   5   4   6 1456.32 291.819   3 
   5  -4   6 1702.36 247.562   2 
   5  -4  -6 1297.43 229.098   1 
   5   4   7 31555.6 1252.51   3 
   5  -4  -7 34692.8 1196.70   1 
   5  -4   8 10246.9 583.838   3 
   5   4   8 11618.0 747.877   3 
   5  -4  -8 11079.3 660.534   1 
   5  -4   9 2025.84 275.764   3 
   5  -4  -9 1692.72 268.534   1 
   5   4   9 1333.28 274.024   3 
   5  -4  10 15511.7 727.699   3 
   5  -4 -10 15882.8 809.999   1 
   5   4 -11 1511.58 272.000   4 
   5  -4  11 1897.79 257.993   3 
   5   4  11 2396.03 381.100   3 
   5  -4 -11 1958.02 283.919   1 
   5  -4 -12 517.984 160.576   1 
   5  -4  12 667.004 181.327   3 
   5  -4  13 40510.6 1226.60   3 
   5   4  13 39234.8 1512.49   3 
   5  -4  14 3363.66 347.526   3 
   5   4  14 3990.09 494.705   3 
   5  -4  15 4585.30 402.185   3 
   5   4  15 3910.93 485.344   3 
   5  -4  16 6123.25 473.445   3 
   5   4  16 5119.82 572.385   3 
   5  -4  17 5351.55 443.159   3 
   5   4  17 5173.65 579.958   3 
   5   4  18 4758.10 558.700   3 
   5  -4  18 5294.20 456.806   3 
   5   4  19 3477.84 507.124   3 
   5  -4  19 3778.39 381.551   3 
   5   4  20 1517.90 365.236   3 
   5  -4  20 1614.25 261.197   3 
   5   4  21 701.091 275.112   3 
   5  -4  21 1001.49 215.128   3 
   5   4  22 1088.69 330.957   3 
   5  -4  22 1370.65 251.589   3 
   5   4  23 5542.13 652.999   3 
   5   4  24 235.938 191.934   3 
   5   4  25-188.924 263.327   3 
   5   4  25 33.4157 199.807   4 
   5   4  26-389.147 326.582   4 
   5   4  26-139.461 270.893   3 
   5   4  27 2052.07 449.821   4 
   5   4  27 1874.11 404.957   3 
   5   4  28 921.132 306.990   4 
   5   4  28 245.619 206.782   3 
   5   4  29 229.947 280.256   4 
   5   4  29-279.139 237.567   3 
  -5   5   0 453.866 275.997   1 
   5   5   0 799.338 324.824   3 
   5   5  -1 226698. 4037.41   3 
   5   5   1 226293. 4046.43   3 
  -5   5   1 234586. 4087.18   1 
  -5   5  -1 229380. 4123.58   1 
   5   5   2 12190.8 761.428   3 
   5  -5  -2 11084.9 690.430   1 
  -5   5  -2 12125.8 778.267   1 
   5  -5   2 12341.2 663.272   2 
  -5   5  -3 68795.1 1975.10   1 
   5   5   3 67883.2 1905.63   3 
   5  -5   3 68788.3 1714.24   2 
   5  -5  -3 73064.3 1878.20   1 
   5  -5   4 147.201 103.747   2 
   5  -5  -4 479.771 200.662   1 
   5   5   4 114.142 130.972   3 
  -5   5  -4 397.145 207.555   1 
   5  -5  -5 17777.4 870.408   1 
   5   5   5 18788.1 948.540   3 
  -5   5  -5 16632.5 932.103   1 
   5  -5   5 17205.6 803.908   2 
  -5  -5   5 17809.9 511.708   1 
   5  -5  -6 1498.98 264.910   1 
   5   5   6 2102.76 310.812   3 
  -5  -5   6 1874.68 130.771   1 
  -5   5  -6 1244.57 270.780   1 
   5  -5   6 2163.47 285.140   2 
  -5   5  -7 28339.1 1273.35   1 
   5   5   7 30465.4 1249.08   3 
   5  -5  -7 30374.6 1171.48   1 
   5  -5   8 5715.20 433.330   3 
  -5   5  -8 6053.84 590.055   1 
   5   5   8 6505.51 585.354   3 
   5  -5  -8 5008.44 473.330   1 
   5   5   8 5318.12 221.142   2 
   5  -5   9 39089.9 1169.66   3 
   5   5   9 39146.6 1469.13   3 
   5  -5  -9 36823.1 1324.57   1 
   5  -5 -10 1954.78 308.758   1 
   5  -5  10 2630.41 309.434   3 
   5   5  10 2928.62 449.482   3 
   5   5 -11 25766.0 1122.55   4 
   5  -5  11 25724.8 919.458   3 
   5  -5 -11 23963.0 1054.00   1 
   5   5  11 24252.9 1169.52   3 
   5  -5  12 4707.60 381.157   3 
   5   5  12 4898.54 543.030   3 
   5  -5  13 21157.5 833.033   3 
   5   5  13 19657.7 1070.21   3 
   5  -5  14 14221.3 683.257   3 
   5   5  14 14254.9 921.439   3 
   5  -5  15 28397.6 989.340   3 
   5   5  15 28833.4 1353.14   3 
   5  -5  16 504.945 154.161   3 
   5   5  16 504.983 258.465   3 
   5  -5  17 1636.45 238.221   3 
   5   5  17 2593.63 436.194   3 
   5   5  18 29.8394 193.682   3 
   5  -5  18 49.8723 108.666   3 
   5   5 -18 137.457 147.289   5 
   5   5  19 373.203 251.616   3 
   5  -5  19 312.416 138.183   3 
   5   5  19 197.476 159.586   5 
   5   5 -19 295.183 124.171   5 
   5   5  20 199.347 207.743   3 
   5  -5  20 63.6716 139.096   3 
   5   5  21 1815.10 398.688   3 
   5  -5  21 1584.26 274.386   3 
   5   5  22 1018.93 329.414   3 
   5   5  23 600.274 316.506   3 
   5   5  24 56.6639 269.246   3 
   5   5  24 167.157 248.842   4 
   5   5  25-339.304 318.747   4 
   5   5  25 87.6261 198.437   3 
   5   5  26 457.526 244.581   4 
   5   5  26 233.670 246.202   3 
   5   5  27 662.114 261.430   4 
   5   5  27 262.793 283.026   3 
   5   5  28 4400.49 653.655   4 
   5   5  28 3528.48 571.934   3 
   5   5  29 2821.41 538.647   4 
   5   5  29 1935.79 461.871   3 
   5   6   0-163.907 155.287   3 
  -5   6   0-25.9871 154.087   1 
  -5  -6   0 10.7309 30.6843   2 
  -5   6  -1 2017.65 346.530   1 
   5   6  -1 2098.12 325.578   3 
   5   6   1 2157.68 333.426   3 
   5  -6   1 2048.70 290.679   2 
   5  -6  -1 2717.75 364.649   1 
   5  -6  -2 9304.32 650.308   1 
   5   6  -2 8452.82 632.994   3 
   5   6   2 8163.79 633.163   3 
  -5   6  -2 9642.84 715.683   1 
   5  -6   2 8767.35 587.156   2 
   5   6   3 29845.8 1227.17   3 
   5  -6  -3 32354.5 1248.70   1 
  -5   6  -3 30797.7 1309.03   1 
   5  -6   3 31761.1 1163.51   2 
   5  -6  -4 6636.50 548.069   1 
   5   6   4 6354.77 564.909   3 
   5  -6   4 6313.42 512.106   2 
  -5   6  -4 6482.95 610.173   1 
   5  -6  -5 1294.33 270.409   1 
  -5   6  -5 1068.79 289.406   1 
   5   6   5 1241.61 274.616   3 
   5  -6   5 990.498 213.399   2 
   5   6   6 3004.21 395.869   3 
   5  -6   6 3352.08 380.097   2 
  -5   6  -6 3456.28 443.260   1 
   5  -6  -6 3426.50 409.930   1 
  -5  -6   6 2857.42 152.826   1 
  -5   6   6 3306.45 406.856   2 
  -5   6   7 3042.84 401.996   2 
  -5   6  -7 3578.05 473.984   1 
   5   6   7 2932.30 387.415   3 
   5  -6  -7 3631.20 420.011   1 
  -5   6   8 34343.0 1373.02   2 
   5   6   8 31868.4 1326.49   3 
   5   6   8 32141.6 653.279   2 
   5  -6  -8 32637.8 1279.52   1 
  -5   6  -8 32131.9 1403.58   1 
   5  -6  -9 692.353 248.387   1 
  -5   6  -9 335.074 277.376   1 
   5   6   9 51.1032 53.5876   2 
   5  -6   9 432.676 166.180   3 
   5   6   9 152.967 205.275   3 
   5   6 -10 37598.0 1356.60   4 
   5  -6  10 40599.9 1161.94   3 
  -5   6 -10 37329.9 1559.49   1 
   5   6  10 36808.6 1473.26   3 
   5  -6 -10 38354.2 1401.83   1 
   5   6 -11 2910.91 367.247   4 
   5  -6  11 2736.43 297.992   3 
   5  -6 -11 3027.60 390.269   1 
   5   6  11 3049.53 452.228   3 
  -5   6 -11 3062.28 455.255   1 
   5  -6  12 6939.93 448.656   3 
   5   6  12 9055.25 741.937   3 
   5  -6  13 2672.96 281.885   3 
   5   6  13 3519.54 487.056   3 
   5  -6  14 10384.4 551.170   3 
   5   6  14 7858.20 715.127   3 
   5  -6  15 1071.69 195.006   3 
   5   6  15 910.330 307.741   3 
   5  -6  16 18951.7 762.655   3 
   5   6 -16 17150.2 893.415   5 
   5   6  16 18809.9 1128.91   3 
   5   6  17 554.746 265.385   3 
   5   6  17 291.145 151.700   5 
   5   6 -17 316.809 166.918   5 
   5  -6  17 138.376 113.515   3 
   5   6  18 10238.3 718.944   5 
   5   6 -18 10955.7 711.221   5 
   5   6  18 12085.8 930.643   3 
   5  -6  18 11171.9 583.733   3 
   5   6  19 5481.30 517.730   5 
   5   6 -19 5523.05 502.709   5 
   5   6  19 4705.70 592.024   3 
   5  -6  19 5491.05 408.664   3 
   5   6  20 1632.18 398.024   3 
   5  -6  20 1974.92 258.000   3 
   5   6  21 2415.45 460.568   3 
   5   6  22 8625.30 853.349   3 
   5   6  23 919.609 337.160   3 
   5   6  23 351.076 283.676   4 
   5   6  24 710.231 297.667   4 
   5   6  24 695.176 294.044   3 
   5   6  25 5845.75 740.578   3 
   5   6  25 6250.61 715.731   4 
   5   6  26 1131.43 355.811   4 
   5   6  26 933.907 295.860   3 
   5   6  27 597.000 263.429   4 
   5   6  27 1171.83 346.077   3 
   5   6  28 2175.10 487.428   4 
   5   6  28 2610.82 538.579   3 
   5   6  29 404.480 312.175   4 
   5   6  29 852.600 428.844   3 
   5   7   0 54.8004 170.289   3 
  -5  -7   0 115.635 50.9721   2 
   5   7  -1 385.028 201.984   3 
   5   7   1 298.227 171.778   3 
   5  -7   1 33.5011 134.869   2 
  -5   7  -1 9.43428 150.760   1 
   5  -7  -1-20.7111 131.569   1 
  -5   7  -2 1071.61 299.360   1 
   5  -7   2 802.322 204.460   2 
   5   7  -2 665.915 233.283   3 
   5   7   2 852.258 227.417   3 
   5  -7  -2 841.296 213.700   1 
  -5   7  -3 2694.93 404.234   1 
   5   7  -3 2121.79 335.639   3 
   5   7   3 1828.91 316.509   3 
   5  -7   3 3258.77 380.734   2 
  -5   7   3 2386.77 355.953   2 
   5  -7  -3 2785.98 369.859   1 
  -5   7   4 277.300 186.750   2 
   5  -7   4 262.822 129.767   2 
   5   7  -4 408.703 204.464   3 
  -5   7  -4 243.012 206.055   1 
   5   7   4 528.520 225.742   3 
   5  -7  -4 24.5587 149.249   1 
   5  -7  -5 291.386 193.793   1 
  -5   7   5 107.270 138.539   2 
   5   7   5 281.430 224.678   3 
  -5   7  -5 173.055 217.430   1 
   5  -7   5 165.156 157.096   2 
  -5   7  -6 3632.15 482.107   1 
   5   7   6 3622.76 444.045   3 
   5  -7   6 4532.84 460.828   2 
   5  -7  -6 3953.01 453.872   1 
  -5   7   6 3802.45 454.396   2 
  -5   7   7 3412.46 432.219   2 
   5  -7  -7 3084.75 387.127   1 
  -5   7  -7 2882.27 427.329   1 
   5  -7   7 3323.98 391.519   2 
   5   7   7 3266.52 431.253   3 
   5  -7  -8 73.1536 149.758   1 
  -5   7   8 188.135 206.468   2 
   5   7   8 579.708 207.771   3 
  -5   7  -8 308.927 185.634   1 
   5  -7  -9-86.9493 144.368   1 
  -5   7  -9 250.127 214.790   1 
   5   7  -9 341.973 174.938   4 
   5  -7   9 65.7790 104.443   3 
  -5   7   9-13.9471 200.903   2 
   5   7   9 335.327 197.282   3 
   5   7   9 128.928 66.4856   2 
   5   7 -10 497.414 201.032   4 
   5   7  10 576.277 104.197   2 
   5  -7  10 842.324 178.626   3 
  -5   7 -10 935.659 295.346   1 
   5   7  10 728.153 263.453   3 
   5  -7 -10 545.123 215.913   1 
   5   7 -11 40802.3 1441.55   4 
   5   7  11 39337.2 1009.24   2 
   5  -7  11 39200.2 1112.74   3 
   5   7  11 37884.3 1560.65   3 
  -5   7 -11 38414.3 1640.63   1 
  -5   7 -12 177.672 217.189   1 
   5  -7  12 317.877 126.348   3 
   5   7  12 285.403 222.846   3 
  -5   7 -13 283.395 222.521   1 
   5  -7  13 540.807 146.033   3 
   5   7 -13 741.705 211.503   5 
   5   7  13 579.949 236.992   3 
   5   7  14 3676.70 449.286   5 
  -5   7 -14 3793.15 547.244   1 
   5  -7  14 4209.78 332.150   3 
   5   7 -14 3914.75 432.402   5 
   5   7  14 4059.85 529.243   3 
   5  -7  15 3064.10 287.031   3 
   5   7  15 3313.68 431.620   5 
   5   7 -15 3025.16 386.326   5 
  -5   7 -15 2824.47 458.024   1 
   5   7  15 3635.12 528.072   3 
   5   7  16 1159.45 291.154   5 
   5   7 -16 893.829 217.290   5 
   5  -7  16 1389.69 203.436   3 
   5   7  16 1421.14 377.930   3 
   5   7  17 7706.17 632.147   5 
   5   7 -17 6850.02 578.088   5 
   5  -7  17 8761.11 476.925   3 
   5   7  17 6944.01 733.077   3 
   5   7  18 2491.33 455.487   3 
   5   7  18 2591.23 384.636   5 
   5   7 -18 2430.57 341.665   5 
   5  -7  18 2996.66 276.200   3 
   5   7  19 132.491 210.119   3 
   5  -7  19 351.096 120.572   3 
   5   7  20 394.945 266.652   3 
   5   7  21 3957.50 627.793   3 
   5   7  22 2126.61 520.574   3 
   5   7  22 2637.41 459.982   4 
   5   7  23 13385.4 1097.48   3 
   5   7  23 14621.5 1009.30   4 
   5   7  24 3429.38 512.691   4 
   5   7  24 2302.11 497.578   3 
   5   7  25 3154.15 503.003   4 
   5   7  25 3122.98 565.192   3 
   5   7  26 2281.51 450.156   4 
   5   7  26 1473.05 410.620   3 
   5   7  27 750.233 342.006   4 
   5   7  27 514.875 244.755   3 
   5   7  28 2974.35 545.215   4 
   5   7  28 3450.27 615.984   3 
   5   7  29 9029.73 910.209   4 
  -5  -8   0-29.9732 47.6409   2 
   5  -8   0-71.5355 149.237   1 
   5   8   0 33.5446 149.827   3 
   5   8  -1 285.450 217.407   3 
   5  -8   1 20.9570 120.042   2 
   5   8   1 425.486 211.897   3 
   5  -8  -1 292.276 186.727   1 
   5   8  -2 4092.39 464.840   3 
   5   8   2 4231.49 482.899   3 
   5  -8  -2 4513.29 500.291   1 
  -5   8  -2 4068.52 498.888   1 
  -5   8   2 3756.32 450.177   2 
   5  -8   2 4335.94 459.173   2 
   5  -8  -3 24918.9 1168.37   1 
   5   8  -3 24961.0 1126.79   3 
   5   8   3 24342.1 1140.48   3 
  -5   8   3 24920.4 1159.66   2 
  -5   8  -3 23735.9 1207.80   1 
   5  -8   3 25403.9 1126.16   2 
   5  -8  -4 4142.95 484.514   1 
  -5   8  -4 3853.57 511.830   1 
   5   8  -4 3118.82 411.449   3 
   5   8   4 2506.61 393.477   3 
  -5   8   4 3971.40 479.510   2 
   5  -8   4 3886.82 446.230   2 
   5   8  -5 14078.6 833.091   3 
   5   8   5 13948.8 872.717   3 
   5  -8   5 14488.3 856.215   2 
  -5   8   5 14532.4 913.247   2 
  -5   8  -5 12599.9 889.076   1 
   5  -8  -5 13554.1 862.258   1 
  -5   8   6-289.886 216.038   2 
   5   8  -6 124.753 160.114   3 
   5  -8  -6 199.631 156.170   1 
  -5   8  -6 258.157 172.963   1 
   5   8   6-16.3343 207.834   3 
   5  -8   6 218.081 147.699   2 
   5   8  -7 2369.89 306.107   4 
  -5   8   7 1617.81 342.387   2 
   5  -8  -7 2153.40 352.490   1 
   5   8   7 2769.92 411.419   3 
   5  -8   7 2536.64 371.399   2 
  -5   8  -7 2523.83 404.251   1 
  -5   8  -8 12094.6 900.345   1 
   5   8  -8 12972.7 740.154   4 
   5   8   8 12702.8 871.716   3 
   5  -8  -8 13017.7 851.660   1 
  -5   8   8 12430.2 872.921   2 
  -5   8   9 33545.2 1478.85   2 
   5   8  -9 33541.4 1244.18   4 
  -5   8  -9 32881.1 1511.21   1 
   5   8   9 31899.0 814.334   2 
   5   8   9 33958.4 1456.71   3 
   5  -8  -9 34752.9 1416.36   1 
   5   8 -10 7982.68 618.397   4 
   5  -8  10 6390.34 423.582   3 
  -5   8  10 4910.51 580.906   2 
   5   8  10 7198.84 704.009   3 
   5   8  10 7540.14 398.601   2 
   5   8 -10 7872.28 636.499   5 
  -5   8 -10 5724.52 627.846   1 
  -5   8 -11-134.441 237.201   1 
   5   8 -11 248.413 154.961   4 
   5   8  11 67.6466 98.9788   2 
   5  -8  11-8.21707 105.920   3 
  -5   8  11-243.663 341.185   2 
   5   8  11 276.283 204.475   3 
  -5   8 -12 1.70470 235.757   1 
   5   8  12 249.060 93.0788   2 
   5  -8  12 289.660 121.410   3 
   5   8  12 213.688 169.560   3 
   5  -8  13 10017.3 498.422   3 
  -5   8 -13 10673.7 902.327   1 
   5   8  13 9816.75 816.652   3 
   5  -8  14 17198.6 647.356   3 
   5   8  14 17896.2 1121.93   3 
  -5   8 -14 17860.3 1166.21   1 
  -5   8 -15 509.804 315.529   1 
   5  -8  15 197.172 84.2108   3 
   5   8  15 541.813 299.244   3 
  -5   8 -16 33131.2 1640.24   1 
   5  -8  16 32592.6 891.353   3 
   5   8  16 33975.8 1605.81   3 
  -5   8 -17 15214.6 1137.60   1 
   5   8  17 16116.5 1116.86   3 
   5  -8  17 16838.1 595.435   3 
   5  -8  18 40.9027 65.3216   3 
  -5   8 -18 23.8676 247.765   1 
   5   8  19 236.042 220.084   3 
  -5   8 -19 647.676 291.888   1 
  -5   8 -20 7514.66 834.747   1 
   5   8  20 6666.78 766.649   3 
   5   8  21 3870.46 621.889   3 
  -5   8 -21 3249.86 599.600   1 
   5   8  21 2961.91 459.624   4 
   5   8  22 10646.6 991.888   3 
  -5   8 -22 10944.1 1039.01   1 
   5   8  22 10123.0 817.359   4 
   5   8  23 1709.89 391.163   4 
   5   8  23 1943.17 485.373   3 
   5   8  24-200.651 271.792   4 
   5   8  24-17.2742 233.165   3 
   5   8  25 1182.55 342.277   4 
   5   8  25 1699.96 449.430   3 
   5   8  26 3420.82 545.956   4 
   5   8  26 3394.01 619.438   3 
   5   8  27 2303.62 460.965   4 
   5   8  27 2050.69 549.195   3 
   5   8  28 1457.74 382.342   4 
  -5  -9   0-91.2962 81.0584   2 
   5   9   0 148.137 174.610   3 
   5  -9   1 22187.8 1086.52   2 
   5   9  -1 20482.9 1040.95   3 
   5   9   1 20299.3 1044.16   3 
  -5  -9   1 19926.5 671.897   2 
   5   9  -2 12581.1 812.533   3 
   5   9   2 12195.0 823.370   3 
   5  -9   2 13455.4 837.433   2 
   5   9  -3 35961.6 1399.13   3 
   5   9   3 34676.9 1416.64   3 
  -5   9   3 37070.1 1487.89   2 
   5  -9   3 37443.4 1445.30   2 
   5  -9   4 8.23313 171.734   2 
   5   9  -4 137.908 161.701   3 
   5   9   4 240.087 183.877   3 
  -5   9   4 117.410 153.725   2 
  -5   9  -4 93.7417 204.316   1 
   5   9  -5 8580.77 666.981   3 
   5   9   5 8295.35 698.414   3 
  -5   9  -5 8287.24 735.386   1 
  -5   9   5 8997.50 733.517   2 
   5  -9   5 9928.40 735.993   2 
  -5   9   6 1295.57 315.149   2 
  -5   9  -6 1238.89 356.677   1 
   5   9  -6 2158.00 358.960   3 
   5   9   6 1546.66 336.202   3 
   5  -9   6 1216.72 275.439   2 
   5   9  -7 31827.5 1150.89   4 
   5   9  -7 32039.8 1290.84   3 
   5   9   7 29912.7 1381.33   3 
   5  -9   7 32293.9 1369.47   2 
  -5   9  -7 31343.2 1473.11   1 
  -5   9   7 32235.6 1442.73   2 
   5   9  -8 9940.65 647.728   4 
   5   9  -8 11399.4 771.042   3 
   5   9   8 10758.6 842.217   3 
  -5   9  -8 10208.7 862.419   1 
  -5   9   8 10032.6 815.582   2 
   5   9  -9 47451.9 1505.57   4 
   5   9  -9 47373.4 1606.57   3 
   5   9   9 46555.8 1769.60   3 
  -5   9  -9 46787.1 1877.81   1 
  -5   9   9 44687.4 1770.35   2 
  -5   9 -10-144.603 277.399   1 
   5   9 -10-35.6569 130.879   4 
   5  -9  10 139.993 136.788   3 
  -5   9  10-366.686 304.854   2 
   5   9  10 160.181 100.246   2 
   5   9  10-6.91889 222.268   3 
  -5   9 -11 105.964 225.691   1 
   5  -9  11-9.95669 84.2007   3 
  -5   9  11-428.152 343.806   2 
   5   9  11-404.040 251.084   3 
   5   9  11 94.5570 106.112   2 
   5  -9  12 3227.64 280.364   3 
  -5   9  12 1855.84 348.567   2 
  -5   9 -12 3192.26 502.190   1 
   5   9  12 3036.05 301.649   2 
   5   9  12 2851.27 455.027   3 
   5   9  13 1917.36 264.300   2 
   5  -9  13 1772.26 202.563   3 
  -5   9 -13 2009.90 405.477   1 
   5   9  13 2251.11 430.156   3 
   5   9  14 12607.3 668.300   2 
  -5   9 -14 12122.4 997.171   1 
   5  -9  14 11735.4 488.954   3 
   5   9  14 11533.2 928.433   3 
  -5   9 -15 1480.29 400.695   1 
   5  -9  15 1264.55 156.176   3 
   5   9  15 1758.73 418.155   3 
   5   9  16 3494.02 570.244   3 
  -5   9 -16 2532.59 471.095   1 
   5  -9  16 3200.03 223.562   3 
  -5   9 -17 6320.34 758.967   1 
   5   9  17 6676.55 747.918   3 
   5   9  18 238.182 263.270   3 
  -5   9 -18 795.551 327.091   1 
   5   9  19 4867.67 658.126   3 
  -5   9 -19 5238.38 736.397   1 
   5   9  19 4703.31 503.768   4 
  -5   9 -20 1662.63 445.309   1 
   5   9  20 1928.19 452.601   3 
   5   9  20 1980.95 366.891   4 
   5   9  21 2201.64 397.728   4 
  -5   9 -21 3459.03 624.254   1 
   5   9  21 2141.86 513.125   3 
   5   9  22 5817.03 761.051   3 
  -5   9 -22 6082.79 797.226   1 
   5   9  22 5106.33 579.368   4 
   5   9  23 3867.39 646.564   3 
  -5   9 -23 4186.84 666.309   1 
   5   9  23 4748.14 582.549   4 
   5   9  24 2620.97 439.523   4 
   5   9  24 2680.64 593.840   3 
  -5   9 -24 1828.32 492.859   1 
   5   9  25 3836.67 540.443   4 
   5   9  25 3852.23 657.402   3 
  -5   9 -25 4609.02 745.735   1 
   5   9  26 980.586 263.979   4 
   5   9  26 1089.88 400.999   3 
  -5   9 -26 1230.95 421.428   1 
  -5   9 -27 4953.92 782.969   1 
  -5 -10   0-18.2311 76.2391   2 
   5  10   0-289.187 226.169   3 
  -5 -10  -1 515.998 134.678   2 
   5  10  -1-102.214 205.861   3 
   5  10   1 139.287 189.763   3 
  -5 -10   1 318.285 97.9054   2 
   5  10  -2 1634.79 351.072   3 
   5  10   2 1255.19 313.242   3 
   5  10  -3 56675.8 1810.52   3 
   5  10   3 55723.2 1872.63   3 
   5  10  -4 22255.6 1100.47   3 
   5  10   4 22517.9 1169.38   3 
  -5  10   4 20025.5 1134.86   2 
   5  10  -5 231.104 207.411   3 
   5  10   5 196.873 207.961   3 
  -5  10   5 157.442 254.387   2 
  -5  10  -5-238.914 307.569   1 
   5  10  -6 25687.3 1161.83   3 
   5  10   6 23371.1 1225.27   3 
  -5  10  -6 24569.8 1328.00   1 
  -5  10   6 25235.0 1305.57   2 
   5  10  -7 41196.5 1336.17   4 
   5  10  -7 42387.1 1529.60   3 
   5  10   7 42639.9 1695.00   3 
  -5  10  -7 43857.6 1807.09   1 
  -5  10   7 45294.0 1785.51   2 
  -5  10   8-361.589 295.907   2 
   5  10  -8 42.4572 146.383   4 
  -5  10  -8 216.386 249.363   1 
   5  10  -8 7.24181 207.360   3 
   5  10   8 232.455 243.165   3 
   5  10  -9 11161.1 701.186   4 
   5  10  -9 11157.1 761.111   3 
   5  10   9 11810.2 905.305   3 
  -5  10  -9 11067.3 920.733   1 
  -5  10   9 10503.2 870.785   2 
   5  10 -10 2462.57 335.696   4 
   5 -10  10 3551.81 302.071   3 
  -5  10  10 3280.94 469.588   2 
   5  10 -10 3034.85 399.088   3 
  -5  10 -10 3799.78 558.577   1 
   5  10  10 3580.79 510.133   3 
   5  10 -11-78.0962 193.245   3 
  -5  10  11-51.4314 267.068   2 
   5 -10  11 33.8633 81.3382   3 
   5  10  11-94.7945 116.973   2 
  -5  10 -11-274.181 329.095   1 
   5  10  11-84.8938 222.825   3 
   5  10 -12 3263.80 443.149   3 
   5 -10  12 2896.82 244.068   3 
  -5  10  12 2314.28 448.046   2 
   5  10  12 3164.32 323.602   2 
   5  10  12 3994.05 549.192   3 
  -5  10 -12 2503.84 433.732   1 
   5  10  13 261.850 118.000   2 
  -5  10 -13 371.865 232.773   1 
  -5  10  13 392.044 225.743   2 
   5 -10  13 252.705 87.9627   3 
   5  10  13 432.095 242.690   3 
  -5  10 -14 4045.73 590.410   1 
  -5  10  14 4422.95 655.737   2 
   5 -10  14 3789.48 241.181   3 
   5  10  14 4386.35 403.787   2 
   5  10  14 3477.33 534.162   3 
   5  10  15 1522.87 375.170   3 
   5  10  15 1971.13 284.716   2 
  -5  10  15 1288.23 337.804   2 
  -5  10 -15 1531.98 390.563   1 
   5 -10  15 1691.03 141.513   3 
   5  10  16 1223.47 346.800   3 
   5  10  16 1215.57 257.582   2 
  -5  10 -16 832.468 317.779   1 
   5  10  17 1662.49 415.447   3 
   5  10  17 2069.93 332.183   2 
  -5  10 -17 2063.46 477.321   1 
   5  10  18 3261.56 599.802   3 
   5  10  18 3182.50 398.147   4 
  -5  10 -18 2575.12 485.528   1 
   5  10  19 463.968 213.495   4 
  -5  10 -19-308.250 277.375   1 
   5  10  19 258.203 280.738   3 
   5  10  20 77.5026 136.676   4 
  -5  10 -20 12.5953 239.898   1 
   5  10  20 529.756 300.112   3 
   5  10  21 210.615 169.461   4 
   5  10  21 379.328 230.817   3 
  -5  10 -21 130.805 306.098   1 
   5  10  22 171.815 183.778   4 
   5  10  22 146.784 294.631   3 
  -5  10 -22 140.300 295.498   1 
   5  10  23 4928.23 718.416   3 
  -5  10 -23 4153.49 692.863   1 
   5  10  23 4630.73 560.170   4 
   5  10  24-119.190 330.098   3 
  -5  10 -24 149.954 226.235   1 
   5  10  25 380.147 310.346   3 
  -5  10 -25 559.353 337.819   1 
  -5  10 -26 209.079 328.113   1 
  -5 -11   0 14.0337 119.904   2 
   5  11   0 888.913 364.481   3 
  -5 -11  -1 81955.3 1672.84   2 
   5  11  -1 79971.4 2283.56   3 
   5  11   1 85743.8 2370.37   3 
  -5 -11   1 78960.4 1727.43   2 
   5  11  -2 19366.2 1059.29   3 
   5  11   2 20304.2 1117.70   3 
  -5 -11   2 16931.7 741.272   2 
   5  11  -3 57086.8 1437.57   4 
   5  11  -3 57967.2 1870.10   3 
   5  11   3 59165.6 1962.32   3 
   5  11  -4 1163.80 330.883   3 
  -5  11   4 1428.17 428.774   2 
   5  11   4 931.821 324.443   3 
   5  11  -5 58712.2 1874.74   3 
   5  11   5 58457.1 2018.08   3 
  -5  11   5 58972.9 2080.14   2 
   5  11  -6 2731.00 451.162   3 
  -5  11  -6 3490.67 599.018   1 
   5  11   6 2585.04 469.280   3 
  -5  11   6 1710.86 437.469   2 
   5  11  -7 78484.7 1903.73   4 
   5  11  -7 80199.3 2198.02   3 
  -5  11  -7 74426.8 2467.86   1 
   5  11   7 76078.9 2385.46   3 
  -5  11   7 78058.1 2483.55   2 
  -5 -11   7 75860.0 1298.18   1 
  -5  11  -8 1737.01 499.878   1 
  -5  11   8 878.986 367.064   2 
   5  11  -8 1691.81 302.596   4 
   5  11  -8 1330.54 354.601   3 
   5  11   8 1753.53 435.710   3 
   5  11  -9 42696.0 1546.48   3 
   5  11   9 42102.9 1750.93   3 
  -5  11  -9 46309.2 1926.81   1 
  -5  11   9 43148.4 1837.31   2 
   5  11  -9 42327.1 1419.27   4 
   5  11 -10 7091.65 617.640   3 
  -5  11 -10 7311.73 789.252   1 
   5  11  10 6116.55 689.022   3 
  -5  11  10 6792.62 743.985   2 
   5  11 -10 6857.50 570.915   4 
  -5  11  11 2066.64 416.346   2 
   5 -11  11 3467.20 275.015   3 
   5  11 -11 2783.86 423.535   3 
  -5  11 -11 3097.81 522.426   1 
   5  11  11 3185.44 522.504   3 
  -5  11  12 1999.96 431.510   2 
   5  11 -12 2102.62 354.353   3 
   5 -11  12 1960.44 193.808   3 
  -5  11 -12 2340.93 469.871   1 
   5  11  12 1762.50 255.815   2 
   5  11  12 1843.75 405.587   3 
   5  11 -13 6748.14 603.867   3 
   5 -11  13 6877.95 317.566   3 
   5  11  13 7243.95 525.487   2 
   5  11  13 6797.20 746.425   3 
  -5  11 -13 7218.10 799.812   1 
  -5  11  13 7168.86 785.498   2 
   5  11  14 5372.67 678.616   3 
  -5  11  14 5486.34 729.192   2 
   5  11 -14 5100.82 525.795   3 
   5  11  14 4880.30 446.491   2 
  -5  11 -14 5091.48 679.725   1 
   5  11  15 1529.73 397.629   3 
   5  11  15 777.553 182.439   2 
   5  11 -15 1201.05 268.442   3 
  -5  11  15 1172.02 359.015   2 
  -5  11 -15 1024.28 333.593   1 
   5  11  16 519.366 273.245   3 
   5  11 -16 396.224 189.480   3 
   5  11  16 75.3277 123.106   2 
  -5  11  16 98.3140 243.107   2 
   5  11  16 353.183 159.179   4 
   5  11  17 2338.84 327.662   4 
   5  11  17 2298.95 475.933   3 
  -5  11 -17 2695.85 532.321   1 
   5  11 -17 3003.40 424.590   3 
   5  11  17 2215.11 344.350   2 
  -5  11  17 3005.75 548.105   2 
   5  11  18 381.507 176.972   4 
   5  11  18 857.010 421.488   3 
  -5  11 -18 465.715 320.684   1 
   5  11  18 664.972 259.192   2 
   5  11  19 325.221 189.910   4 
   5  11  19 104.361 328.637   3 
   5  11  19 196.501 182.099   2 
  -5  11 -19-273.447 316.488   1 
   5  11  20 5855.06 775.813   3 
   5  11  20 6036.15 602.568   2 
  -5  11 -20 6080.60 797.814   1 
   5  11  20 6671.00 595.934   4 
   5  11  21 59.0058 251.564   3 
  -5  11 -21-156.348 273.393   1 
   5  11  22 1522.95 425.282   3 
  -5  11 -22 1603.72 428.718   1 
   5  11  23 483.112 278.344   3 
  -5  11 -23 597.389 331.166   1 
   5  11  24 1958.03 489.293   3 
  -5  11 -24 2300.19 511.783   1 
  -5  11 -25 563.177 359.943   1 
  -5 -12   0-22.2967 104.470   2 
   5  12   0-177.777 177.450   3 
  -5 -12  -1 3702.08 331.085   2 
   5  12  -1 3864.45 306.352   4 
   5  12  -1 2881.29 416.844   3 
   5  12   1 3212.50 456.950   3 
  -5 -12   1 3340.18 332.864   2 
   5  12  -2 1915.31 234.416   4 
   5  12  -2 1335.16 323.914   3 
   5  12   2 1669.80 364.102   3 
  -5 -12   2 1517.67 238.903   2 
   5  12  -3 4600.86 370.964   4 
   5  12  -3 4322.48 512.542   3 
   5  12   3 4537.24 566.268   3 
   5  12  -4 38600.3 1155.67   4 
   5  12  -4 37674.5 1496.69   3 
   5  12   4 39703.9 1645.43   3 
   5  12  -5 9658.45 758.804   3 
  -5  12   5 8463.55 805.217   2 
   5  12   5 9037.02 813.617   3 
   5  12  -6 25758.7 1206.47   3 
  -5  12   6 25200.9 1384.39   2 
   5  12   6 25530.9 1335.11   3 
   5  12  -7 14446.4 902.551   3 
  -5  12   7 14026.2 1042.17   2 
   5  12   7 13840.3 992.241   3 
  -5 -12   7 14290.8 511.615   1 
   5  12  -7 14879.5 762.190   4 
   5  12  -8 1145.54 238.616   4 
   5  12  -8 834.319 255.990   3 
  -5  12  -8 1007.92 390.993   1 
   5  12   8 591.035 269.919   3 
  -5 -12   8 1026.31 111.114   1 
  -5  12   8 1066.58 338.152   2 
  -5  12   9 292.790 279.244   2 
   5  12  -9 141.201 143.462   4 
   5  12  -9 149.391 229.340   3 
   5  12   9-142.180 202.210   3 
  -5  12  -9 448.611 252.239   1 
  -5  12 -10 6053.95 719.335   1 
   5  12 -10 6498.80 589.864   3 
  -5  12  10 5525.73 688.738   2 
   5  12  10 6051.97 694.704   3 
   5  12 -10 6187.20 539.679   4 
  -5  12 -11 261.454 247.793   1 
  -5  12  11-353.941 330.327   2 
   5 -12  11 90.6398 67.6097   3 
   5  12 -11 113.596 170.287   3 
   5 -12  11 103.353 72.7937   3 
   5  12  11-154.769 233.446   3 
   5  12 -12 15968.3 924.441   3 
   5 -12  12 14245.4 476.990   3 
  -5  12 -12 14986.1 1146.84   1 
   5  12  12 15124.9 1106.61   3 
  -5  12  12 14543.9 1127.79   2 
   5  12  13 1084.99 391.377   3 
  -5  12  13 777.090 319.452   2 
  -5  12 -13 325.739 258.829   1 
   5  12 -13 482.816 269.361   3 
   5  12  13 665.414 199.542   2 
   5  12  14 1486.18 371.236   3 
  -5  12  14 1600.76 334.024   2 
   5  12 -14 1975.63 335.946   3 
  -5  12 -14 2127.99 463.158   1 
   5  12  14 1812.84 287.049   2 
   5  12  14 1979.87 274.025   4 
   5  12  15 296.947 137.702   4 
   5  12  15 575.014 249.781   3 
   5  12 -15 175.472 167.138   3 
  -5  12  15-11.2684 312.885   2 
  -5  12 -15 9.85563 308.812   1 
   5  12  15 487.201 199.789   2 
   5  12  16 1874.46 279.503   4 
   5  12  16 2350.32 328.856   2 
   5  12  16 2605.80 508.979   3 
   5  12 -16 2215.92 359.640   3 
  -5  12  16 1742.80 481.165   2 
  -5  12 -16 2162.65 439.519   1 
   5  12  17 955.509 249.428   4 
   5  12  17 868.614 337.145   3 
   5  12  17 1136.87 279.618   2 
   5  12 -17 1233.95 316.896   3 
  -5  12  17 801.183 367.863   2 
  -5  12 -17 882.056 347.327   1 
  -5  12  18 34489.4 1908.51   2 
   5  12 -18 30692.9 1323.28   3 
  -5  12 -18 31469.5 1776.49   1 
   5  12  18 29913.8 1303.97   2 
   5  12  18 30613.3 1737.94   3 
   5  12  19 8446.43 937.213   3 
  -5  12  19 9505.26 1056.43   2 
   5  12 -19 6792.39 621.312   3 
  -5  12 -19 6489.10 836.721   1 
  -5  12 -20 1220.82 447.857   1 
   5  12  20 1661.50 459.711   3 
  -5  12  20 2500.47 581.781   2 
   5  12  21 7725.04 935.658   3 
  -5  12  21 8095.71 1000.40   2 
  -5  12 -21 7110.02 889.911   1 
  -5  12 -22 587.713 319.478   1 
   5  12  22 1790.62 492.867   3 
  -5  12 -23-149.104 361.547   1 
   5  12  23-69.9566 232.579   3 
  -5  12 -24 827.871 371.105   1 
  -5  12 -25-611.176 406.341   1 
   5  13   0 140.948 92.8341   4 
  -5 -13   0-91.8086 105.927   2 
   5  13   0 57.1374 186.716   3 
   5  13  -1 4209.08 308.148   4 
   5  13   1 3562.25 265.376   4 
   5  13  -1 3736.98 493.934   3 
   5  13   1 3632.00 486.692   3 
  -5 -13   1 3444.40 355.785   2 
   5  13  -2 5559.82 373.075   4 
   5  13   2 5758.14 320.576   4 
   5  13  -2 5261.13 582.611   3 
   5  13   2 5803.06 628.590   3 
  -5 -13   2 5850.91 484.051   2 
   5  13  -3 97.9481 84.6610   4 
   5  13  -3-183.160 228.233   3 
   5  13   3 213.356 162.573   3 
  -5 -13   3 253.273 148.630   2 
   5  13  -4 4421.31 515.983   3 
   5  13   4 5623.21 640.080   3 
   5  13  -4 4907.78 387.768   4 
   5  13  -5 5457.75 562.228   3 
   5  13   5 6499.66 691.323   3 
   5  13  -6 1962.23 363.984   3 
   5 -13   6 1733.14 267.039   3 
  -5  13   6 1760.98 428.007   2 
   5  13   6 1766.98 388.334   3 
   5 -13   7 4406.78 374.463   3 
   5  13  -7 4119.12 493.998   3 
  -5 -13   7 4060.66 294.563   1 
  -5  13   7 3745.26 573.697   2 
   5  13   7 4138.00 561.399   3 
   5  13  -8 674.473 160.131   4 
  -5 -13   8 916.792 127.495   1 
   5 -13   8 753.590 161.438   3 
   5  13  -8 640.409 222.342   3 
  -5  13   8 478.415 283.057   2 
   5  13   8 737.330 305.275   3 
   5 -13   9 570.862 139.537   3 
   5  13  -9 205.900 168.797   3 
   5  13   9 183.306 231.545   3 
  -5  13   9 777.324 292.121   2 
   5  13  -9 520.077 174.282   4 
  -5  13  10 2164.01 460.748   2 
   5  13 -10 2517.83 375.536   3 
  -5  13 -10 2108.84 461.616   1 
   5  13  10 2735.43 490.821   3 
   5  13 -10 2719.11 362.951   4 
  -5  13  11-178.757 296.348   2 
   5 -13  11-24.1011 59.3552   3 
   5  13 -11-54.4004 177.412   3 
  -5  13 -11-143.553 239.402   1 
   5  13  11 40.0265 213.018   3 
   5  13  12 1668.45 480.395   3 
  -5  13  12 420.247 266.622   2 
   5  13 -12 1099.74 284.584   3 
  -5  13 -12 1164.14 382.277   1 
   5  13  12 858.816 154.013   4 
   5  13 -13 18532.4 1016.81   3 
  -5  13 -13 21367.2 1421.60   1 
  -5  13  13 21808.6 1429.23   2 
   5  13  13 19088.7 1294.14   3 
   5  13  14 788.180 344.311   3 
  -5  13 -14 252.629 249.118   1 
  -5  13  14-28.5951 307.337   2 
   5  13 -14 172.669 192.387   3 
   5  13  14 287.626 162.045   2 
   5  13  15 3691.25 594.546   3 
  -5  13 -15 3940.49 643.934   1 
  -5  13  15 4141.34 645.371   2 
   5  13 -15 3688.83 463.323   3 
   5  13  15 3601.31 424.542   2 
   5  13  16 1261.00 402.176   3 
  -5  13 -16 966.899 346.280   1 
  -5  13  16 169.111 220.434   2 
   5  13 -16 1463.75 310.691   3 
   5  13  16 905.953 204.491   2 
   5  13  17 471.412 330.945   3 
  -5  13  17 322.334 241.634   2 
   5  13 -17 8.91429 185.641   3 
  -5  13 -17 17.8267 276.396   1 
   5  13  17 36.2798 185.555   2 
   5  13  18 166.065 249.712   3 
  -5  13  18 130.188 304.019   2 
  -5  13 -18-254.625 399.234   1 
  -5  13  19 7306.22 936.108   2 
   5  13  19 6778.94 863.182   3 
  -5  13 -19 5987.35 794.417   1 
   5  13  20 463.777 283.946   3 
  -5  13  20 909.480 429.645   2 
  -5  13 -20 858.821 401.489   1 
   5  13  21 9107.34 1045.97   3 
  -5  13  21 8526.92 1042.26   2 
  -5  13 -21 7604.72 947.109   1 
  -5  13 -22 1533.26 488.012   1 
  -5  13 -23 3848.75 665.141   1 
  -5  13 -24-353.858 356.334   1 
   5  14   0 12.9392 60.8963   4 
  -5 -14   0 57.3861 144.335   2 
   5 -14   0-13.2353 129.838   3 
   5  14   0-215.724 220.941   3 
   5  14  -1 185.204 82.5249   4 
   5  14   1 144.324 79.2166   4 
  -5 -14   1 56.6747 119.402   2 
   5 -14   1 25.7199 149.741   3 
   5  14  -1 128.356 221.346   3 
   5  14   1 45.5050 222.151   3 
  -5 -14   2 1798.71 292.953   2 
   5  14  -2 1833.54 212.325   4 
   5 -14   2 1152.12 261.295   3 
   5  14  -2 1727.41 368.108   3 
   5  14   2 1229.68 312.088   3 
   5  14   2 1358.24 135.886   4 
   5  14   3 1308.28 120.081   4 
   5  14  -3 1378.18 195.161   4 
   5 -14   3 758.490 188.301   3 
   5  14  -3 1684.27 334.703   3 
   5  14   3 1408.79 365.723   3 
  -5 -14   3 1180.99 255.317   2 
   5 -14   4 4700.53 428.771   3 
  -5 -14   4 4447.89 453.231   2 
   5  14  -4 4300.70 506.482   3 
   5  14   4 4757.35 608.310   3 
   5  14  -4 4749.69 367.191   4 
   5 -14   5 4039.11 404.106   3 
   5  14  -5 2872.33 441.877   3 
   5  14   5 2448.90 444.069   3 
   5  14  -5 3311.56 326.798   4 
   5 -14   6 9858.46 592.727   3 
   5  14  -6 9762.05 759.635   3 
   5  14   6 10400.7 888.216   3 
   5 -14   7 2478.88 287.643   3 
   5  14  -7 2702.14 416.660   3 
  -5  14   7 2524.17 458.965   2 
   5  14   7 1991.70 398.690   3 
   5  14  -8 2367.31 372.013   3 
  -5  14   8 1767.95 460.467   2 
   5  14   8 1653.90 410.264   3 
   5  14  -9 1615.55 336.914   3 
  -5  14   9 1199.75 402.965   2 
   5  14   9 1334.61 390.795   3 
   5  14 -10 524.943 215.958   3 
  -5  14  10 701.638 277.413   2 
   5  14  10 932.745 335.076   3 
   5  14  11 1965.07 443.262   3 
   5  14 -11 1536.01 321.736   3 
  -5  14  11 1876.88 399.961   2 
   5  14 -12 8670.87 701.493   3 
  -5  14 -12 9048.39 927.639   1 
  -5  14  12 8162.66 934.250   2 
   5  14  12 8140.70 860.487   3 
   5  14  13 5653.87 724.448   3 
  -5  14  13 5286.33 756.943   2 
   5  14 -13 5779.73 579.583   3 
  -5  14 -13 5951.06 774.213   1 
   5  14  14 593.288 325.567   3 
  -5  14  14 337.095 274.121   2 
   5  14 -14 716.221 249.525   3 
  -5  14 -14 462.577 303.789   1 
   5  14  15 48.0960 271.996   3 
  -5  14  15-537.446 406.553   2 
   5  14 -15-1.92993 198.505   3 
   5  14  15-3.58138 195.814   2 
  -5  14 -15 351.881 224.819   1 
  -5  14 -16-49.6646 290.408   1 
   5  14  16 110.873 228.128   3 
  -5  14  16 348.045 279.986   2 
   5  14 -16-127.739 195.752   3 
  -5  14 -17 964.540 405.191   1 
   5  14  17 776.928 308.917   3 
  -5  14  17 1122.01 381.883   2 
   5  14  18 8338.13 956.304   3 
  -5  14 -18 6931.81 878.338   1 
  -5  14  18 6683.80 872.976   2 
  -5  14 -19 435.157 385.990   1 
   5  14  19 1581.48 490.414   3 
  -5  14  19 951.859 430.791   2 
  -5  14 -20 1002.95 413.268   1 
   5  14  20 815.112 341.896   3 
  -5  14  20 729.001 396.270   2 
  -5  14 -21 751.524 396.743   1 
  -5  14 -22-397.370 408.439   1 
  -5  14 -23 3583.42 721.376   1 
  -5 -15   0 178.127 172.454   2 
   5  15   0 454.166 294.768   3 
   5 -15   1 21103.2 1048.84   3 
   5  15  -1 23090.4 1274.03   3 
   5  15   1 23366.3 1287.27   3 
  -5 -15   1 22393.6 1007.07   2 
  -5 -15   2 410.800 201.932   2 
   5 -15   2 7.34874 135.439   3 
   5  15  -2 392.737 290.723   3 
   5  15   2 311.436 291.646   3 
   5 -15   3 29573.7 1175.93   3 
   5  15  -3 28544.7 1375.14   3 
  -5 -15   3 26622.3 1173.23   2 
   5  15   3 29206.3 1483.20   3 
   5 -15   4 12114.9 714.366   3 
   5  15  -4 12164.4 896.804   3 
  -5 -15   4 11332.5 762.576   2 
   5  15   4 12872.1 993.917   3 
   5 -15   5 9503.02 612.736   3 
   5  15  -5 8942.22 768.538   3 
  -5 -15   5 8681.63 682.617   2 
   5  15   5 8429.79 825.292   3 
   5  15  -6 1236.07 323.426   3 
   5  15   6 1757.33 416.402   3 
   5  15  -7 7413.30 668.870   3 
   5  15   7 7139.26 784.512   3 
   5  15  -8 2789.53 440.647   3 
  -5  15   8 3655.21 625.620   2 
   5  15   8 2927.34 513.612   3 
   5  15  -9 15507.1 960.408   3 
  -5  15   9 15592.3 1230.58   2 
   5  15   9 17691.8 1228.06   3 
   5  15  10 666.097 351.853   3 
   5  15 -10 463.117 236.156   3 
  -5  15  10 785.237 324.586   2 
   5  15 -11 5590.49 577.373   3 
  -5  15  11 7039.50 876.310   2 
   5  15  11 7730.95 862.663   3 
   5  15  12-156.969 249.955   3 
   5  15 -12 139.108 171.011   3 
  -5  15  12-266.519 220.884   2 
  -5  15  13 281.187 310.330   2 
   5  15  13 487.354 316.631   3 
   5  15 -13 722.703 237.108   3 
  -5  15  14 764.045 364.655   2 
   5  15  14 912.101 343.877   3 
   5  15 -14 846.464 235.324   3 
  -5  15  15 1880.93 463.670   2 
   5  15  15 2428.09 498.154   3 
  -5  15 -15 2452.01 525.114   1 
   5  15 -15 1901.44 340.039   3 
  -5  15  16 103.731 266.189   2 
   5  15  16 901.570 397.156   3 
  -5  15 -16 672.550 308.484   1 
  -5  15  17 2098.23 542.820   2 
   5  15  17 2403.60 573.410   3 
  -5  15 -17 1422.00 453.790   1 
  -5  15  18-344.341 367.958   2 
   5  15  18 51.6668 285.189   3 
  -5  15 -18-137.022 348.274   1 
  -5  15  19 493.498 316.825   2 
  -5  15 -19-9.34108 345.257   1 
  -5  15 -20-6.82382 332.749   1 
  -5  15 -21 867.846 355.525   1 
  -5  15 -22-87.9584 318.633   1 
   5  16   0-9.45749 179.173   3 
   5  16  -1 167.571 201.624   3 
   5  16   1 90.2886 198.513   3 
   5  16  -2 1512.82 372.799   3 
   5  16   2 880.476 296.628   3 
   5  16  -3 4357.80 565.541   3 
   5  16   3 4111.20 562.756   3 
   5  16  -4 200.096 247.667   3 
   5  16   4 34.0032 211.498   3 
   5  16  -5 147.942 169.303   3 
   5  16   5-186.772 256.659   3 
   5  16  -6 980.477 314.305   3 
   5  16   6 365.547 256.098   3 
   5  16  -7 811.812 257.261   3 
   5  16   7 1128.39 330.007   3 
   5  16  -8 2586.58 418.969   3 
   5  16   8 2506.28 466.681   3 
   5  16   9 6084.91 749.687   3 
   5  16  -9 6062.88 605.519   3 
  -5  16   9 6947.55 859.791   2 
   5  16  10 2207.33 515.076   3 
   5  16 -10 1598.97 367.342   3 
  -5  16  10 1772.85 504.546   2 
   5  16  11 1299.09 368.903   3 
   5  16 -11 1806.79 339.943   3 
  -5  16  11 1351.05 408.341   2 
   5  16  12 1175.21 372.032   3 
   5  16 -12 781.928 217.625   3 
  -5  16  12 1486.32 463.440   2 
   5  16  13 321.846 301.585   3 
   5  16 -13 200.653 170.750   3 
  -5  16  13 132.066 351.304   2 
   5  16  14 725.686 310.829   3 
  -5  16  14 1013.87 403.623   2 
  -5  16  15 618.279 348.487   2 
   5  16  15 743.110 364.065   3 
  -5  16  16 1708.00 514.086   2 
   5  16  16 742.065 384.907   3 
  -5  16  17 1340.12 455.402   2 
   5  16  17 1809.30 517.315   3 
  -5  16 -20 2205.66 554.866   1 
   5  17   0 623.864 331.905   3 
   5  17  -1 3098.97 496.126   3 
   5  17   1 3661.37 558.325   3 
   5  17  -2 3987.01 557.891   3 
   5  17   2 3875.42 565.358   3 
   5  17  -3 91.3235 185.180   3 
   5  17   3 264.572 215.212   3 
   5  17  -4 109.377 223.543   3 
   5  17   4-80.5103 247.104   3 
   5  17  -5 309.683 221.983   3 
   5  17   5 381.408 281.831   3 
   5  17  -6 484.945 242.732   3 
   5  17   6 931.305 312.350   3 
   5  17   7-265.630 288.115   3 
   5  17  -7 504.718 243.661   3 
   5  17   8 2099.59 455.676   3 
   5  17  -8 1627.42 349.863   3 
   5  17   9 656.756 327.249   3 
   5  17  -9 1042.83 289.461   3 
   5  17  10-25.4077 304.367   3 
  -5  17  10-12.7711 265.450   2 
   5  17 -10 37.5719 158.707   3 
   5  17  11 497.537 328.090   3 
   5  17 -11 708.753 265.038   3 
  -5  17  11-10.4475 312.375   2 
   5  17  12 73.0274 304.407   3 
   5  17 -12 442.459 241.478   3 
  -5  17  12 211.753 291.505   2 
   5  17  13-160.104 346.498   3 
  -5  17  13 585.896 321.824   2 
   5  17  14 283.797 298.422   3 
  -5  17  14 809.436 420.983   2 
   5  17  15-577.154 371.715   3 
  -5  17  15 138.496 289.949   2 
   5  18   0-34.1563 199.550   3 
   5  18  -1-1.85475 234.613   3 
   5  18   1 367.526 272.710   3 
   5  18  -2 2639.46 455.327   3 
   5  18   2 1927.51 375.487   3 
   5  18  -3-47.7325 245.673   3 
   5  18   3 79.5997 217.851   3 
   5  18  -4-171.786 245.979   3 
   5  18   4-206.927 284.376   3 
   5  18   5 170.155 211.996   3 
   5  18  -5 595.387 249.662   3 
   5  18   6 920.624 333.750   3 
   5  18  -6 357.944 258.072   3 
   5  18   7 2435.91 497.305   3 
   5  18  -7 2551.12 450.840   3 
   5  18   8 5262.57 723.426   3 
   5  18  -8 5375.10 607.995   3 
   5  18   9-285.641 329.575   3 
   5  18  -9 572.370 234.487   3 
   5  18  10 150.128 253.471   3 
   5  18 -10 465.946 256.492   3 
   5  18  11-27.3532 284.330   3 
  -5  18  11 750.024 323.515   2 
   5  18  12 551.614 303.358   3 
  -5  18  12 978.783 389.423   2 
   5  18  13 186.407 250.885   3 
  -5  18  13-67.4668 310.810   2 
   5  18  14 1836.12 481.874   3 
   5  19   0 401.757 309.008   3 
   5  19  -1 11989.1 1002.65   3 
   5  19   1 11040.4 977.353   3 
   5  19  -2 108.346 230.209   3 
   5  19   2 125.394 224.151   3 
   5  19   3 3709.36 621.494   3 
   5  19  -3 3505.21 535.846   3 
   5  19   4 527.890 246.243   3 
   5  19  -4 11.7778 239.994   3 
   5  19   5 203.419 228.312   3 
   5  19  -5 965.152 294.254   3 
   5  19   6 1310.41 404.008   3 
   5  19  -6 1167.65 331.270   3 
   5  19   7 988.579 370.156   3 
   5  19  -7 955.595 310.732   3 
   5  19   8 1938.49 510.877   3 
   5  19  -8 2255.14 430.562   3 
   5  19   9 2083.06 544.572   3 
   5  19  10 3870.28 669.167   3 
   5  19  11 1936.68 491.137   3 
   5  19  12 4121.55 718.669   3 
   5  20   0-16.6849 253.199   3 
   5  20  -1 3928.26 592.756   3 
   5  20   1 4111.27 620.187   3 
   5  20   2 451.197 273.858   3 
   5  20  -2 824.611 274.485   3 
   5  20   3 252.796 222.728   3 
   5  20  -3 853.715 332.162   3 
   5  20   4 96.2778 250.162   3 
   5  20  -4 208.547 196.005   3 
   5  20   5-137.360 270.219   3 
   5  20  -5-261.809 297.025   3 
   5  20   6 30.0685 248.016   3 
   5  20  -6-148.669 252.559   3 
   5  20   7 204.741 283.252   3 
   5  20  -7 185.358 187.145   3 
   5  20   8 2385.73 545.686   3 
   5  20   9 2573.83 569.297   3 
   5  20  10 1756.37 477.545   3 
   5  21   0 476.535 320.975   3 
   5  21  -1 8037.80 853.796   3 
   5  21   1 7421.47 844.373   3 
   5  21  -2 715.670 353.627   3 
   5  21   2 411.138 277.720   3 
   5  21  -3 4108.58 605.121   3 
   5  21   3 3454.24 580.920   3 
   5  21  -4-74.0042 230.224   3 
   5  21   4-332.153 284.144   3 
   5  21  -5 8271.07 822.569   3 
   5  21   5 7712.21 903.174   3 
   5  21   6 964.023 426.530   3 
   5  21   7 5861.49 812.463   3 
   5  22   0 147.516 291.761   3 
   5  22  -1 668.214 309.719   3 
   5  22   1 827.492 321.980   3 
   5  22  -2-233.043 253.465   3 
   5  22   2-58.4775 297.871   3 
   5  22  -3 997.487 309.207   3 
   5  22   3 314.449 258.053   3 
   5  22   4-36.4623 328.639   3 
   5  22   5-171.099 243.892   3 
   5  23   0-520.709 366.031   3 
   5  23   1 960.777 340.835   3 
   5  23   2-237.302 259.686   3 
  -6   0   0 175617. 3232.08   1 
  -6   0  -1 566.864 215.627   1 
  -6   0   1 94.1831 85.7945   2 
  -6   0   1 794.372 242.111   1 
  -6   0   2 171712. 3137.80   1 
  -6   0   2 174987. 2784.23   2 
  -6   0   3 3.40259 116.173   2 
  -6   0   3 8.19416 128.861   1 
  -6   0   4 9176.19 546.502   1 
   6   0   5 72.2703 167.622   3 
   6   0   6 13505.2 800.556   3 
   6   0   6 13014.9 482.929   2 
   6   0   7 186.585 203.038   3 
   6   0   7-50.6864 84.3756   2 
   6   0   8 75926.9 2026.13   3 
   6   0   8 72997.4 1455.07   2 
   6   0   9 215.264 180.147   3 
   6   0  10 64602.9 1882.53   3 
   6   0  11 129.909 205.236   3 
   6   0  12 76970.4 2099.77   3 
   6   0 -13 243.861 141.045   1 
   6   0  13 884.979 329.830   3 
   6   0  14 76812.5 2148.47   3 
   6   0 -14 77161.1 1652.18   1 
   6   0  15 402.158 220.034   3 
   6   0 -15-91.9185 95.1238   1 
   6   0 -16 9389.50 517.442   1 
   6   0  16 10336.6 754.998   3 
   6   0 -17 58.6322 101.480   1 
   6   0  17-25.6812 155.396   3 
   6   0  18 10830.1 801.300   3 
   6   0  19-128.230 222.744   3 
   6   0  20 288.649 184.401   3 
   6   0  21-334.605 241.015   3 
   6   0  22 11.3856 182.571   3 
   6   0  23-260.543 228.753   3 
   6   0  24 262.740 186.743   3 
   6   0  25-80.7475 233.258   3 
  -6   1   0 11417.1 696.256   1 
  -6   1   1 34410.2 1218.32   1 
  -6   1   1 35338.2 1000.84   2 
  -6  -1   1 33262.5 834.614   2 
  -6   1  -1 35888.8 1275.60   1 
  -6  -1   1 31506.6 1102.20   1 
  -6  -1   2 10820.0 614.562   1 
  -6   1  -2 10906.8 706.027   1 
  -6   1   2 9836.95 529.142   2 
  -6   1   2 10338.8 637.660   1 
  -6  -1   2 10631.7 469.589   2 
  -6   1   3 139.530 118.130   2 
  -6  -1   3 190.388 142.417   1 
   6   1   4 2627.39 381.294   3 
  -6  -1   4 2463.14 287.104   1 
  -6   1   4 2280.97 277.311   2 
  -6   1   4 1933.89 259.969   1 
   6  -1   5 51237.3 1174.72   2 
   6   1   5 51462.7 1635.35   3 
  -6  -1   5 50481.1 1308.79   1 
   6  -1   6 5895.88 525.384   3 
   6   1   6 6159.52 560.136   3 
   6  -1   6 5639.77 358.642   2 
   6   1   7 144.973 67.1098   2 
   6  -1   7-32.1725 182.743   3 
   6   1   7 245.837 164.282   3 
   6  -1   7 25.7052 81.2634   2 
   6  -1   8 2581.35 352.310   3 
   6   1   8 2673.70 380.492   3 
   6  -1   8 2741.79 275.239   2 
   6   1   8 2772.51 214.486   2 
   6  -1   9 2194.87 349.573   3 
   6   1   9 1880.79 342.605   3 
   6  -1  10 114.153 161.003   3 
   6   1  10 392.548 207.521   3 
   6  -1 -11 34843.8 1097.07   1 
   6  -1  11 36762.7 1355.47   3 
   6   1  11 38002.8 1433.09   3 
   6  -1  12 20812.4 1011.11   3 
   6   1  12 21841.7 1085.07   3 
   6  -1 -12 21251.2 837.461   1 
   6  -1 -13 59391.9 1518.79   1 
   6  -1  13 62095.7 1828.09   3 
   6   1  13 63653.3 1944.54   3 
   6  -1 -14 30880.6 1044.82   1 
   6  -1  14 31688.1 1279.99   3 
   6   1  14 33470.2 1382.88   3 
   6  -1  15 9658.56 699.516   3 
   6   1  15 8847.65 708.403   3 
   6  -1 -15 8242.37 527.306   1 
   6  -1  16 3019.38 400.208   3 
   6   1  16 3546.78 453.669   3 
   6  -1 -16 3126.46 327.517   1 
   6   1 -16 2969.89 252.784   1 
   6  -1  17 19057.2 1008.98   3 
   6   1  17 19326.2 1062.50   3 
   6  -1 -17 19347.7 840.203   1 
   6  -1  18 96.2719 149.739   3 
   6   1  18 25.1291 181.911   3 
   6  -1  19 11388.1 803.475   3 
   6   1  19 11133.4 836.439   3 
   6  -1  20 8570.63 702.846   3 
   6   1  20 9112.45 777.193   3 
   6   1  21 787.112 299.303   3 
   6  -1  21 1198.77 294.865   3 
   6   1  22 939.136 274.237   3 
   6  -1  22 1574.54 342.599   3 
   6   1  23-232.586 232.156   3 
   6  -1  23 39.1244 162.494   3 
   6   1  24 1116.12 341.356   3 
   6  -1  24 2389.99 419.639   3 
   6   1  25 8470.43 800.722   3 
   6   1  26 989.722 333.814   3 
  -6   2   0 28541.0 1153.61   1 
  -6   2   1 903.495 218.683   1 
  -6   2   1 1255.30 204.206   2 
  -6   2  -1 1132.39 264.749   1 
  -6  -2   1 1093.89 130.285   2 
  -6  -2   2 14651.7 522.011   2 
  -6   2   2 14924.9 693.955   2 
  -6   2   2 14919.3 791.520   1 
  -6   2  -2 14015.0 830.108   1 
  -6  -2   2 14297.0 677.978   1 
  -6   2   3 653.517 158.927   2 
   6   2   3 601.615 239.968   3 
  -6  -2   3 780.869 188.310   1 
  -6   2  -3 1040.62 267.230   1 
  -6   2   3 413.901 132.575   1 
   6  -2   4 3951.89 317.269   2 
   6   2   4 3084.76 419.285   3 
  -6  -2   4 2745.63 284.055   1 
  -6   2   4 3902.06 378.494   2 
   6  -2   5 472.078 135.865   2 
   6   2   5 553.129 231.982   3 
  -6  -2   5 342.279 112.417   1 
   6   2   6 4406.11 476.944   3 
   6  -2   6 3319.00 301.756   2 
   6  -2   7 4299.47 436.100   3 
   6   2   7 4220.11 472.519   3 
   6  -2   7 4553.93 360.217   2 
   6  -2   8 583.221 215.899   3 
   6   2   8 366.658 204.989   3 
   6  -2   8 290.852 115.060   2 
   6   2   8 578.090 88.9479   2 
   6  -2  -9 7229.24 505.420   1 
   6  -2   9 6410.62 536.472   3 
   6   2   9 7191.36 616.581   3 
   6  -2  10 5399.69 498.357   3 
   6   2  10 6139.32 582.722   3 
   6  -2 -10 5019.98 424.720   1 
   6  -2 -11 979.320 225.003   1 
   6  -2  11 1532.45 303.380   3 
   6   2  11 1510.03 330.983   3 
   6  -2 -12 11193.1 648.231   1 
   6  -2  12 12387.6 755.325   3 
   6   2  12 11809.1 818.843   3 
   6  -2 -13 9263.67 600.546   1 
   6  -2  13 10210.7 711.655   3 
   6   2  13 10437.5 781.486   3 
   6  -2  14 14681.7 840.034   3 
   6   2  14 13623.6 892.023   3 
   6  -2 -14 14273.4 745.480   1 
   6  -2 -15 2496.58 313.820   1 
   6  -2  15 2708.46 373.869   3 
   6   2  15 2330.75 393.258   3 
   6  -2 -16 134.448 127.863   1 
   6  -2  16 224.717 169.820   3 
   6   2  16 426.683 238.492   3 
   6  -2 -17 13.8692 108.935   1 
   6  -2  17 97.3927 139.995   3 
   6   2  17-47.6552 161.136   3 
   6  -2  18 4297.08 473.641   3 
   6   2  18 4246.82 544.953   3 
   6  -2  19 1621.92 311.270   3 
   6   2  19 1345.76 327.893   3 
   6   2  20 4638.17 558.987   3 
   6  -2  20 4778.25 517.295   3 
   6   2  21 2829.98 455.104   3 
   6  -2  21 3069.58 423.849   3 
   6   2  22 4850.45 585.230   3 
   6  -2  22 5735.00 569.423   3 
   6   2  23 1612.52 392.306   3 
   6  -2  23 1765.65 343.118   3 
   6   2  24 3638.23 554.576   3 
   6   2  25 511.309 267.811   3 
   6   2  26 1623.71 412.363   3 
   6   2  27 726.252 297.439   3 
  -6   3   0 30540.7 1236.17   1 
  -6  -3   1 285.487 65.8473   2 
  -6   3  -1 455.518 208.971   1 
  -6   3   1-14.6399 176.338   1 
  -6   3   1 203.166 131.007   2 
   6   3   2 8690.70 658.389   3 
  -6   3  -2 7806.86 629.369   1 
  -6   3   2 7058.38 565.508   1 
  -6   3   2 8009.59 539.501   2 
   6   3   3 4569.38 493.284   3 
  -6   3  -3 5012.55 516.922   1 
  -6   3   3 4275.97 407.661   2 
  -6  -3   3 4275.94 352.239   1 
   6  -3   4 6187.96 429.976   2 
  -6  -3   4 6734.64 419.403   1 
   6   3   4 6217.83 578.730   3 
  -6   3  -4 7265.12 630.020   1 
   6   3   5 4692.65 497.137   3 
  -6   3  -5 5533.19 562.542   1 
  -6  -3   5 4418.80 324.443   1 
   6  -3   5 5225.51 397.609   2 
   6  -3   6 2413.43 283.879   2 
   6   3   6 2177.03 356.313   3 
   6  -3   7 17334.0 861.920   3 
   6   3   7 17434.4 960.070   3 
   6  -3  -7 15918.5 799.432   1 
   6  -3   7 17200.1 761.840   2 
   6  -3  -8 131.113 130.740   1 
   6  -3   8 58.5635 136.397   3 
   6   3   8 115.386 173.124   3 
   6  -3   8 8.67554 92.4849   2 
   6  -3   9 3628.69 401.853   3 
   6   3   9 2991.03 424.336   3 
   6  -3  -9 3628.04 387.183   1 
   6  -3  10 39545.4 1352.63   3 
   6  -3 -10 40110.8 1330.88   1 
   6   3  10 41578.7 1549.18   3 
   6  -3  11 1548.98 270.850   3 
   6  -3 -11 1562.41 254.222   1 
   6   3  11 1622.38 325.156   3 
   6  -3 -12 2021.35 302.806   1 
   6  -3  12 2265.80 327.644   3 
   6   3  12 1992.50 376.000   3 
   6  -3  13 8579.98 626.474   3 
   6   3  13 8147.06 700.731   3 
   6  -3 -13 8612.66 602.239   1 
   6  -3  14 4399.96 454.089   3 
   6   3  14 3937.88 498.278   3 
   6  -3 -14 3813.38 408.467   1 
   6  -3 -15-211.102 184.183   1 
   6  -3  15-137.015 166.367   3 
   6   3  15-28.5065 176.886   3 
   6  -3  16 10181.8 688.028   3 
   6   3  16 9497.61 776.270   3 
   6  -3 -16 10245.9 675.184   1 
   6  -3 -17 584.111 137.077   1 
   6  -3  17 430.182 195.743   3 
   6   3  17 481.306 197.876   3 
   6  -3  18 929.381 230.697   3 
   6  -3 -18 337.636 143.558   1 
   6   3  18 638.023 234.720   3 
   6  -3  19 453.944 205.079   3 
   6   3  19 62.5253 212.265   3 
   6  -3  20 17993.7 952.745   3 
   6   3  20 15357.3 1046.70   3 
   6   3  21 224.600 226.573   3 
   6  -3  21 109.110 152.193   3 
   6   3  22 3976.69 563.531   3 
   6  -3  22 3473.12 434.420   3 
   6   3  23 175.019 250.386   3 
   6   3  24 6248.71 729.723   3 
   6   3  25 1113.67 357.791   3 
   6   3  26 3351.32 555.411   3 
   6   3  27 2044.28 448.151   3 
   6   3  27 1833.47 436.733   4 
   6   3  28 869.891 336.312   3 
  -6   4   0 570.215 241.420   1 
  -6   4   1 525.993 232.638   1 
  -6  -4   1 492.295 67.3833   2 
   6   4   1 525.940 189.956   3 
  -6   4  -1 369.202 193.490   1 
   6   4   2 15546.9 906.920   3 
  -6   4   2 16098.0 882.248   1 
  -6   4  -2 16312.9 942.274   1 
   6  -4   3 2809.58 312.980   2 
   6   4   3 2331.31 380.359   3 
  -6   4  -3 2549.25 405.291   1 
   6   4   4 52943.2 1743.61   3 
  -6   4  -4 52104.8 1772.28   1 
  -6  -4   4 52845.0 1239.78   1 
   6  -4   4 53177.3 1449.86   2 
   6  -4   5 2713.96 309.751   2 
   6   4   5 3573.37 469.415   3 
  -6   4  -5 2824.26 409.625   1 
  -6  -4   5 3313.33 271.463   1 
  -6   4  -6 17480.3 1014.69   1 
   6   4   6 19938.2 1041.71   3 
   6  -4  -6 19298.2 914.442   1 
  -6  -4   6 19293.3 610.648   1 
   6  -4   6 18249.7 833.442   2 
  -6   4   7 5723.24 535.317   2 
   6   4   7 4745.81 524.439   3 
  -6   4  -7 5763.10 598.045   1 
   6  -4   7 5164.99 442.101   2 
   6  -4  -7 5396.70 482.725   1 
   6  -4   8 19401.3 907.268   3 
   6   4   8 19222.9 1050.92   3 
   6  -4  -8 19515.1 934.133   1 
   6  -4   8 19782.8 882.433   2 
   6  -4   9 2735.78 345.844   3 
   6   4   9 3413.01 462.361   3 
   6  -4  -9 2896.37 374.152   1 
   6  -4 -10 1126.89 251.116   1 
   6  -4  10 923.163 230.248   3 
   6   4  10 1252.34 360.233   3 
   6  -4  11 5539.85 481.301   3 
   6   4  11 5910.14 610.966   3 
   6  -4 -11 5962.52 533.301   1 
   6  -4  12 7378.18 550.622   3 
   6   4  12 7196.84 668.662   3 
   6  -4 -12 7402.65 591.099   1 
   6  -4  13 9218.63 618.607   3 
   6   4  13 10457.5 799.946   3 
   6  -4 -13 9045.64 652.989   1 
   6  -4 -14 2565.70 345.763   1 
   6  -4  14 3050.64 370.101   3 
   6   4  14 2806.06 441.748   3 
   6  -4  15 17495.1 862.965   3 
   6   4  15 15585.9 1015.25   3 
   6  -4 -15 14582.1 842.628   1 
   6  -4 -16-16.8965 220.834   1 
   6  -4  16 139.721 137.972   3 
   6   4  16-64.4645 181.531   3 
   6  -4  17 1893.46 317.898   3 
   6   4  17 1086.44 331.851   3 
   6  -4 -17 1125.36 248.359   1 
   6  -4 -18 49.3554 160.765   1 
   6  -4  18 145.060 160.287   3 
   6   4  18 433.490 270.269   3 
   6  -4  19 3043.05 385.969   3 
   6   4  19 3829.07 535.184   3 
   6   4  20 1103.05 307.927   3 
   6  -4  20 1652.38 302.414   3 
   6   4  21 10381.7 898.323   3 
   6  -4  21 9684.21 677.403   3 
   6   4  22 5243.58 660.934   3 
   6   4  23 8047.38 822.248   3 
   6   4  24 13977.9 1095.77   3 
   6   4  25 184.096 210.831   3 
   6   4  26 3219.37 570.377   3 
   6   4  26 3472.00 588.754   4 
   6   4  27 257.464 239.623   3 
   6   4  27 677.955 320.472   4 
   6   4  28 5114.57 723.722   4 
   6   4  28 4629.30 709.281   3 
  -6   5   0 3434.47 432.553   1 
   6   5   0 2344.66 362.238   3 
   6   5  -1 2829.33 406.694   3 
   6   5   1 2137.07 351.677   3 
  -6   5  -1 2200.60 368.924   1 
  -6   5   1 2153.40 351.113   1 
   6   5   2 4082.83 477.323   3 
  -6   5  -2 3509.99 437.390   1 
  -6   5  -3 313.823 187.679   1 
   6   5   3 287.672 178.660   3 
   6  -5   3 736.472 171.145   2 
  -6   5  -4 6350.68 625.988   1 
   6   5   4 7297.39 643.503   3 
  -6  -5   4 7478.01 408.251   1 
   6  -5   4 7247.04 530.909   2 
  -6  -5   5 15137.4 556.771   1 
   6   5   5 16661.8 965.248   3 
  -6   5  -5 16352.5 985.384   1 
   6  -5  -5 16483.4 885.373   1 
   6  -5   5 15876.2 801.285   2 
  -6   5   5 16102.9 887.157   2 
   6  -5   6 2341.64 308.638   2 
  -6   5  -6 1971.98 387.306   1 
  -6   5   6 2377.42 343.043   2 
   6   5   6 2311.12 363.408   3 
  -6  -5   6 2347.68 190.349   1 
   6  -5  -6 2125.66 322.978   1 
  -6   5   7 29494.9 1254.54   2 
   6   5   7 27107.5 1267.18   3 
   6  -5  -7 29224.7 1199.87   1 
   6  -5   7 28793.5 1121.35   2 
  -6   5  -7 28647.9 1364.00   1 
  -6   5  -8 7214.64 699.402   1 
  -6   5   8 8385.65 684.719   2 
   6  -5  -8 8009.78 626.227   1 
   6   5   8 8156.22 711.182   3 
   6  -5   8 7190.92 557.143   2 
   6  -5  -9 33016.4 1307.34   1 
   6  -5   9 35015.9 1219.91   3 
  -6   5  -9 34883.7 1540.57   1 
   6   5   9 33511.1 1430.80   3 
   6  -5  10 12227.9 708.853   3 
   6   5  10 10949.2 812.698   3 
  -6   5 -10 11912.4 904.726   1 
   6  -5 -10 11181.8 748.186   1 
   6   5  10 9742.61 292.676   2 
   6  -5  11 9.29648 127.240   3 
   6   5  11 83.9836 213.690   3 
   6  -5 -11 310.864 200.595   1 
   6  -5  12 13722.5 747.392   3 
   6   5  12 13287.3 918.689   3 
   6  -5 -12 13368.9 825.900   1 
   6  -5  13 8088.14 567.182   3 
   6   5  13 8021.64 732.765   3 
   6  -5 -13 8050.11 637.850   1 
   6  -5  14 4649.13 429.633   3 
   6  -5 -14 4737.21 493.302   1 
   6   5  14 4741.20 561.193   3 
   6  -5  15 5284.25 469.335   3 
   6  -5 -15 5397.95 539.360   1 
   6   5  15 5525.95 625.572   3 
   6  -5  16 1642.99 266.879   3 
   6   5  16 1308.56 349.611   3 
   6  -5 -16 1281.28 274.149   1 
   6  -5 -17 1070.70 254.885   1 
   6  -5  17 1291.62 243.613   3 
   6   5  17 1530.13 329.268   3 
   6  -5  18 4222.07 421.919   3 
   6   5  18 2792.19 474.595   3 
   6   5  19-240.603 267.928   3 
   6  -5  19 74.6820 136.999   3 
   6   5  20 250.783 237.132   3 
   6  -5  20 136.848 178.970   3 
   6   5  21 17327.1 1186.12   3 
   6   5  22 4405.00 645.619   3 
   6   5  23 10150.8 950.830   3 
   6   5  24 11034.5 1009.36   3 
   6   5  25 206.494 212.622   3 
   6   5  26 289.638 302.763   3 
   6   5  26 39.4873 260.268   4 
   6   5  27 1251.29 462.331   4 
   6   5  27 137.298 266.975   3 
   6   5  28 3134.36 607.016   4 
   6   5  28 2894.18 573.558   3 
   6   6   0 20460.0 1064.39   3 
  -6   6   0 18710.5 1038.48   1 
  -6   6  -1 1543.63 330.497   1 
   6   6  -1 2133.13 380.609   3 
   6   6   1 1587.43 359.315   3 
   6   6  -2 58783.4 1861.53   3 
   6   6   2 56789.2 1864.36   3 
  -6   6   2 54354.5 1681.84   2 
  -6   6  -2 56914.7 1914.62   1 
   6  -6   3 4319.15 442.496   2 
   6   6   3 4293.25 521.656   3 
  -6   6  -3 3497.48 508.081   1 
  -6   6   3 4583.35 469.413   2 
   6   6   4 33066.3 1402.70   3 
   6  -6  -4 34964.2 1363.58   1 
  -6   6   4 35031.3 1372.06   2 
  -6   6  -4 35492.4 1511.98   1 
   6  -6   4 34758.3 1253.76   2 
  -6   6  -5 17900.6 1078.20   1 
   6   6   5 16453.0 998.525   3 
  -6   6   5 17808.4 974.075   2 
   6  -6   5 17531.4 889.905   2 
  -6  -6   5 18266.6 588.635   1 
   6  -6  -5 18719.4 987.632   1 
   6  -6   6 2303.57 321.402   2 
  -6   6   6 2007.30 357.535   2 
   6  -6  -6 1922.32 328.330   1 
   6   6   6 1791.30 351.124   3 
  -6   6  -6 2429.70 425.678   1 
  -6  -6   6 2382.50 180.722   1 
  -6   6   7 2397.78 376.797   2 
   6   6   7 1884.40 368.489   3 
   6  -6  -7 2207.45 346.697   1 
   6  -6   7 1688.51 299.207   2 
  -6   6  -7 1944.18 416.758   1 
  -6   6   8 64733.9 2042.60   2 
   6  -6  -8 61725.1 1906.66   1 
   6   6   8 68225.5 2116.13   3 
  -6   6  -8 61346.3 2124.65   1 
   6  -6   8 63690.8 1841.26   2 
  -6   6   9 7033.82 662.605   2 
   6  -6   9 7277.08 543.201   3 
   6   6   9 5752.44 622.651   3 
   6  -6   9 7330.36 597.905   2 
  -6   6  -9 7167.20 717.201   1 
   6  -6  -9 7211.86 625.185   1 
  -6   6 -10 15496.9 1048.76   1 
   6  -6  10 16573.6 802.224   3 
   6   6  10 16232.4 1019.29   3 
   6  -6 -10 15260.8 905.576   1 
   6  -6  11 1412.03 262.698   3 
   6  -6 -11 1304.53 266.506   1 
   6   6  11 1063.98 278.887   3 
  -6   6 -11 1668.73 395.142   1 
   6   6  11 1077.68 117.424   2 
   6  -6 -12 767.771 253.155   1 
   6  -6  12 792.967 210.401   3 
   6   6  12 1162.44 318.459   3 
  -6   6 -12 963.558 338.070   1 
   6  -6  13 3658.51 375.695   3 
  -6   6 -13 3620.45 533.830   1 
   6  -6 -13 4048.38 481.983   1 
   6   6  13 3597.72 505.380   3 
   6  -6  14 6296.82 489.298   3 
   6   6  14 6543.94 685.226   3 
   6  -6 -14 5923.97 570.610   1 
   6  -6  15 1140.97 240.719   3 
   6   6  15 893.076 317.700   3 
   6  -6  16 114.998 130.210   3 
   6   6  16-376.733 287.781   3 
   6  -6  17 295.700 141.686   3 
   6   6  17 392.946 255.379   3 
   6  -6  18 2886.18 340.035   3 
   6   6  18 2316.16 423.479   3 
   6  -6  19 259.707 153.499   3 
   6   6  19 200.856 239.613   3 
   6   6  20 837.318 301.637   3 
   6   6  21 108.796 237.314   3 
   6   6  22 894.285 344.643   3 
   6   6  23 202.903 270.166   3 
   6   6  24 547.449 235.832   3 
   6   6  25 394.175 316.801   3 
   6   6  25 242.357 250.933   4 
   6   6  26 922.040 401.119   4 
   6   6  26 1360.41 445.678   3 
   6   6  27 1565.80 383.406   4 
   6   6  27 1344.74 422.384   3 
   6   6  28 3127.85 566.755   4 
   6   6  28 3636.89 652.604   3 
   6   7   0 205.548 211.496   3 
   6   7  -1 9396.71 737.118   3 
   6   7   1 10832.3 802.939   3 
  -6   7  -1 11251.6 831.663   1 
  -6  -7   1 9000.47 297.058   2 
  -6   7  -2 1936.36 370.127   1 
   6   7  -2 2365.43 397.021   3 
   6   7   2 2016.91 367.176   3 
   6  -7   2 2250.90 345.060   2 
  -6   7  -3 3183.29 478.080   1 
   6   7  -3 2219.40 393.601   3 
   6  -7   3 2264.65 329.997   2 
   6   7   3 2526.62 422.849   3 
   6  -7  -3 3240.55 421.690   1 
  -6   7   3 2300.75 366.901   2 
   6  -7  -4 1107.28 270.318   1 
   6  -7   4 1993.64 307.743   2 
   6   7  -4 2221.51 395.281   3 
  -6   7  -4 1394.56 343.010   1 
   6   7   4 1571.15 337.921   3 
  -6   7   4 1298.85 305.438   2 
   6   7   5 19988.9 1102.71   3 
   6  -7  -5 19636.2 1042.83   1 
  -6   7   5 21092.6 1107.99   2 
   6  -7   5 20269.2 1001.58   2 
  -6   7  -5 19765.9 1158.40   1 
  -6   7  -6 2598.00 448.815   1 
   6  -7   6 3492.15 433.473   2 
  -6  -7   6 3166.13 200.733   1 
  -6   7   6 2584.63 401.371   2 
   6   7   6 3364.69 479.972   3 
   6  -7  -6 2901.89 399.966   1 
  -6   7   7 1535.58 332.899   2 
  -6   7  -7 1942.17 426.233   1 
   6   7   7 1779.71 358.294   3 
   6  -7  -7 1659.67 328.726   1 
   6  -7   7 1637.57 298.950   2 
   6  -7  -8 10415.6 789.103   1 
  -6   7  -8 9932.50 871.773   1 
   6   7   8 11616.0 873.258   3 
   6  -7   8 10091.7 727.825   2 
  -6   7   8 9770.76 787.948   2 
  -6   7   9 34622.7 1518.30   2 
   6  -7   9 34459.1 1176.13   3 
  -6   7  -9 32781.7 1568.33   1 
   6   7   9 33702.6 1510.11   3 
   6  -7   9 35848.8 1403.91   2 
  -6   7 -10 3378.17 514.046   1 
   6  -7  10 2781.05 333.205   3 
  -6   7  10 2779.45 431.823   2 
   6   7  10 3570.29 504.855   3 
   6  -7  11 1707.13 255.598   3 
  -6   7  11 1865.10 399.304   2 
  -6   7 -11 1750.55 401.304   1 
   6   7  11 1753.02 146.087   2 
   6   7  11 2064.93 407.546   3 
   6  -7  12 10440.5 617.723   3 
   6   7  12 10958.2 881.258   3 
   6   7  12 10684.7 429.946   2 
  -6   7 -12 10072.0 894.444   1 
   6   7  13 2357.17 222.835   2 
  -6   7 -13 2254.52 448.517   1 
   6  -7  13 2130.61 274.721   3 
   6   7  13 2050.83 416.256   3 
   6  -7  14 105.832 114.293   3 
  -6   7 -14-202.861 255.698   1 
   6   7  14 60.9593 229.520   3 
  -6   7 -15 29410.1 1567.10   1 
   6  -7  15 27989.7 1010.94   3 
   6   7  15 29736.5 1499.79   3 
  -6   7 -16 3479.14 548.148   1 
   6  -7  16 4339.99 394.902   3 
   6   7  16 5153.63 649.098   3 
  -6   7 -17 377.583 289.136   1 
   6  -7  17 990.969 207.585   3 
   6   7  17 1075.77 332.367   3 
   6  -7  18 7.85865 114.593   3 
   6   7  18 155.136 249.704   3 
   6   7  19-8.99525 209.196   3 
   6   7  20 891.402 338.526   3 
   6   7  21 9106.05 911.469   3 
   6   7  22 271.016 269.067   3 
   6   7  23 1857.93 431.719   3 
   6   7  24 179.879 306.504   3 
   6   7  24-108.113 199.164   4 
   6   7  25 3882.03 580.217   4 
   6   7  25 4027.98 647.805   3 
   6   7  26 455.030 327.959   4 
   6   7  26 199.295 267.747   3 
   6   7  27 1228.67 399.980   4 
   6   7  27 628.755 391.419   3 
   6   7  28 2349.86 526.387   4 
   6   8   0 145.920 210.756   3 
   6   8  -1 2602.40 428.274   3 
   6   8   1 2496.39 419.806   3 
  -6  -8   1 2169.82 165.337   2 
   6   8  -2 303.724 226.914   3 
   6   8   2-78.0866 158.263   3 
   6  -8   2 245.328 174.562   2 
  -6   8  -2-205.480 193.418   1 
   6   8  -3 6820.06 633.418   3 
   6   8   3 6594.75 647.478   3 
  -6   8   3 8220.64 682.368   2 
  -6   8  -3 7897.20 732.888   1 
   6  -8   3 9236.90 694.751   2 
  -6   8  -4-1.61722 263.050   1 
   6  -8   4-10.4164 154.119   2 
   6   8  -4 22.9352 152.799   3 
   6   8   4 25.9429 175.133   3 
  -6   8   4 1.37798 229.765   2 
   6  -8   5 128.332 162.704   2 
   6   8  -5 261.476 229.098   3 
  -6   8  -5-536.604 321.172   1 
   6   8   5-221.398 279.881   3 
  -6   8   5-75.6605 223.781   2 
  -6   8   6 1055.49 298.047   2 
   6  -8   6 1707.34 330.962   2 
   6   8  -6 1764.90 366.067   3 
   6   8   6 1558.38 358.332   3 
  -6   8  -6 1795.61 383.254   1 
  -6  -8   6 1782.97 149.626   1 
  -6   8   7-5.28583 212.418   2 
   6   8   7 318.275 239.262   3 
  -6   8  -7-116.220 295.862   1 
   6  -8   7 387.836 220.006   2 
  -6   8  -8 1156.93 316.060   1 
  -6   8   8 1613.70 369.255   2 
   6   8   8 2377.51 433.979   3 
   6  -8   8 1739.76 336.332   2 
  -6   8   9 1913.14 376.752   2 
  -6   8  -9 946.051 304.116   1 
   6   8   9 1364.04 350.656   3 
   6  -8  10 211.994 151.933   3 
  -6   8  10-1.66378 192.946   2 
  -6   8 -10 146.000 236.109   1 
   6   8  10 49.7768 165.357   3 
   6  -8  11 1515.55 245.597   3 
  -6   8  11 1443.99 387.457   2 
   6   8  11 2460.14 448.306   3 
  -6   8 -11 1257.55 379.345   1 
  -6   8  12 15355.6 1087.38   2 
   6  -8  12 16216.7 756.035   3 
  -6   8 -12 15479.3 1121.94   1 
   6   8  12 17633.8 1129.66   3 
   6   8  12 15963.2 546.604   2 
   6   8  13 455.757 109.263   2 
  -6   8 -13 665.104 343.864   1 
   6  -8  13 533.319 159.156   3 
   6   8  13 1074.28 317.974   3 
   6   8  14 979.276 172.447   2 
  -6   8 -14 924.360 375.956   1 
   6  -8  14 1056.61 201.344   3 
   6   8  14 625.052 277.876   3 
   6   8  15 264.637 131.703   2 
   6  -8  15 257.690 149.067   3 
  -6   8 -15-27.9260 206.634   1 
   6   8  15 389.751 303.008   3 
   6  -8  16 377.873 133.581   3 
   6   8  16 758.866 331.577   3 
  -6   8 -16 504.185 329.744   1 
   6  -8  17 4642.51 373.150   3 
   6   8  17 4368.69 619.558   3 
   6   8  18 4067.63 604.359   3 
  -6   8 -18 4459.17 660.210   1 
   6   8  19 2796.01 534.913   3 
  -6   8 -19 1829.60 505.336   1 
  -6   8 -20 4594.34 689.064   1 
   6   8  20 5164.32 693.078   3 
   6   8  21-9.95300 313.091   3 
  -6   8 -21 199.245 310.945   1 
   6   8  22 1577.56 387.284   3 
  -6   8 -22 1852.29 509.196   1 
   6   8  23 75.9718 223.045   3 
  -6   8 -23 300.614 320.443   1 
   6   8  23 171.108 187.335   4 
   6   8  24 1798.40 376.697   4 
   6   8  24 1874.17 463.774   3 
  -6   8 -24 1432.53 460.992   1 
   6   8  25 204.910 184.750   4 
   6   8  25 304.115 269.775   3 
  -6   8 -25-345.166 392.169   1 
   6   8  26 1986.18 420.563   4 
   6   8  26 1747.23 460.647   3 
   6   9   0 26478.7 1294.46   3 
  -6  -9   1 198.688 74.8893   2 
   6   9  -1 414.916 186.411   3 
   6   9   1 377.864 247.192   3 
   6   9  -2 7014.74 662.215   3 
   6   9   2 6694.97 657.637   3 
   6   9  -3 2176.36 389.268   3 
   6   9   3 1996.79 372.839   3 
  -6   9  -3 1946.21 419.205   1 
   6   9  -4 2216.90 385.376   3 
   6   9   4 1719.75 369.098   3 
  -6   9   4 1656.03 335.049   2 
  -6   9  -4 1717.07 413.885   1 
  -6   9  -5 388.192 251.685   1 
   6   9  -5 473.294 206.740   3 
   6   9   5 382.009 237.113   3 
  -6   9   5 110.409 214.593   2 
   6   9  -6 35172.0 1471.48   3 
   6   9   6 33576.4 1530.03   3 
  -6   9   6 38988.2 1632.97   2 
  -6   9  -6 38729.9 1725.41   1 
  -6   9   7 1502.10 360.249   2 
   6   9  -7 1078.70 312.164   3 
  -6   9  -7 1332.06 383.123   1 
   6   9   7 985.725 292.695   3 
   6   9  -8 17786.5 928.221   4 
   6   9  -8 18760.1 1065.86   3 
   6   9   8 18445.8 1133.77   3 
  -6   9   8 19428.9 1178.63   2 
  -6   9  -8 19443.2 1237.03   1 
   6   9  -9 36108.5 1502.17   3 
   6   9   9 38027.2 1669.38   3 
  -6   9  -9 39175.6 1785.32   1 
  -6   9   9 38723.7 1690.46   2 
  -6   9 -10 3172.50 532.281   1 
   6  -9  10 2413.00 301.086   3 
  -6   9  10 2490.41 445.467   2 
   6   9  10 2360.04 442.701   3 
  -6   9 -11 14070.1 1086.62   1 
   6  -9  11 15240.8 722.669   3 
   6   9  11 13991.7 1033.31   3 
  -6   9  11 15435.9 1093.09   2 
  -6   9  12 165.294 235.835   2 
  -6   9 -12 49.4151 222.114   1 
   6  -9  12 295.504 135.217   3 
   6   9  12 193.800 187.566   3 
  -6   9  13 172.348 234.564   2 
   6  -9  13 50.7103 121.910   3 
  -6   9 -13-15.4330 248.817   1 
   6   9  13 66.0364 71.6807   2 
   6   9  13-149.751 220.159   3 
   6  -9  14 3858.27 337.734   3 
  -6   9  14 4321.17 655.270   2 
   6   9  14 3816.40 316.522   2 
  -6   9 -14 3477.62 551.082   1 
   6   9  14 3619.96 572.589   3 
   6   9  15 2438.22 271.058   2 
   6  -9  15 2871.05 285.485   3 
   6   9  15 2359.34 467.046   3 
  -6   9 -15 2267.67 473.546   1 
  -6   9 -16 5484.86 728.932   1 
   6   9  16 5577.02 697.881   3 
   6   9  16 6310.69 462.437   2 
  -6   9 -17 3358.99 597.719   1 
   6   9  17 3076.45 551.916   3 
   6   9  18 63.9107 209.818   3 
  -6   9 -18-216.385 199.847   1 
   6   9  19 3311.16 600.431   3 
  -6   9 -19 2828.49 585.754   1 
   6   9  20 1725.85 446.291   3 
  -6   9 -20 408.033 312.980   1 
   6   9  21 4362.99 652.776   3 
  -6   9 -21 4641.49 729.707   1 
   6   9  22 204.338 250.864   3 
  -6   9 -22-144.631 387.720   1 
   6   9  22 384.575 227.014   4 
   6   9  23 1586.52 345.798   4 
   6   9  23 1717.44 491.318   3 
  -6   9 -23 1935.19 501.452   1 
   6   9  24 2845.65 475.353   4 
   6   9  24 1942.10 489.211   3 
  -6   9 -24 1749.63 502.592   1 
   6  10   0 15401.7 989.536   3 
  -6 -10   1 1016.28 146.358   2 
   6  10  -1 1197.08 331.167   3 
   6  10   1 1051.60 319.373   3 
   6  10  -2 21733.6 1174.82   3 
   6  10   2 21215.9 1181.68   3 
  -6 -10   2 21379.8 716.730   2 
   6  10  -3 6877.44 669.638   3 
   6  10   3 9189.00 782.948   3 
   6  10  -4 23748.4 1220.21   3 
   6  10   4 22232.1 1233.41   3 
  -6  10   4 21688.4 1222.14   2 
   6  10  -5 3369.49 477.890   3 
   6  10   5 3813.24 519.298   3 
  -6  10   5 3022.69 453.630   2 
  -6  10  -5 3401.58 525.433   1 
  -6  10  -6 1566.32 367.700   1 
   6  10  -6 1352.23 242.820   4 
   6  10  -6 1660.14 329.148   3 
   6  10   6 1533.68 353.368   3 
  -6  10   6 1810.92 378.924   2 
  -6  10  -7 465.654 227.054   1 
   6  10  -7 1351.51 261.796   4 
   6  10  -7 1365.25 316.769   3 
   6  10   7 1019.71 324.080   3 
  -6  10   8 3141.03 514.293   2 
   6  10  -8 2795.52 369.478   4 
  -6  10  -8 3188.19 545.156   1 
   6  10  -8 2964.00 441.924   3 
   6  10   8 2826.99 501.531   3 
  -6  10   9 4316.20 587.345   2 
   6  10  -9 5077.24 570.489   3 
  -6  10  -9 5264.09 670.510   1 
   6  10   9 4931.95 626.605   3 
   6 -10  10 11593.5 627.719   3 
   6  10 -10 11668.5 854.258   3 
   6  10  10 11185.8 919.470   3 
  -6  10 -10 11276.5 984.338   1 
  -6  10  10 10850.8 931.082   2 
  -6  10  11 370.839 227.394   2 
   6  10 -11 708.772 232.238   3 
   6 -10  11 480.200 164.712   3 
  -6  10 -11 403.476 274.998   1 
   6  10  11 221.002 209.204   3 
   6  10 -12 3779.10 504.099   3 
   6 -10  12 3255.16 317.097   3 
  -6  10  12 3589.39 556.885   2 
   6  10  12 3306.57 534.815   3 
  -6  10 -12 3772.10 587.374   1 
  -6  10 -13 562.032 261.588   1 
  -6  10  13 154.921 221.317   2 
   6 -10  13 552.146 137.909   3 
   6  10  13 486.844 286.565   3 
  -6  10 -14 2508.19 501.134   1 
  -6  10  14 2201.98 443.920   2 
   6 -10  14 3191.07 297.712   3 
   6  10  14 2972.54 286.295   2 
  -6  10 -15 3674.35 606.903   1 
  -6  10  15 4005.39 620.456   2 
   6  10  15 2798.84 506.736   3 
  -6  10  16 2106.35 493.247   2 
  -6  10 -16 3374.02 610.754   1 
   6  10  16 2633.02 496.914   3 
   6  10  17 444.834 276.174   3 
  -6  10  17 389.793 286.999   2 
  -6  10 -17 1.17442 256.487   1 
   6  10  18 921.684 316.283   3 
  -6  10 -18 437.701 305.778   1 
   6  10  19 2642.26 542.149   3 
  -6  10 -19 2126.46 505.999   1 
   6  10  20 1123.07 349.746   3 
  -6  10 -20 540.137 229.464   1 
  -6  10 -21 13.0290 342.086   1 
   6  10  21-325.312 324.148   3 
   6  10  21 135.741 173.987   4 
  -6  10 -22-215.193 392.861   1 
   6  10  22 219.983 280.844   3 
  -6  10 -23-384.661 383.750   1 
   6  10  23-387.902 420.880   3 
   6  11   0 2296.93 399.422   3 
  -6 -11   1-10.2947 74.1151   2 
   6  11  -1 53.5956 193.882   3 
   6  11   1-215.609 205.126   3 
   6  11  -2 23144.7 1231.52   3 
   6  11   2 23832.5 1282.19   3 
  -6 -11   2 22033.4 789.575   2 
   6  11  -3 1071.04 333.275   3 
   6  11   3 927.349 328.167   3 
   6  11  -4 5162.84 591.494   3 
   6  11   4 4145.07 549.180   3 
   6  11  -5 13203.3 733.317   4 
   6  11  -5 13883.3 934.518   3 
   6  11   5 13589.8 970.550   3 
  -6  11   5 13184.0 990.813   2 
   6  11  -6 4631.85 439.684   4 
   6  11  -6 4201.52 536.508   3 
  -6  11  -6 4502.98 640.809   1 
  -6  11   6 5397.68 642.330   2 
   6  11   6 4643.34 576.320   3 
   6  11  -7 3741.28 418.092   4 
   6  11  -7 3543.61 499.813   3 
   6  11   7 3897.78 569.440   3 
  -6  11   7 3167.58 523.481   2 
  -6  11  -7 3022.58 502.703   1 
  -6  11  -8 437.013 267.689   1 
   6  11  -8 629.134 206.702   4 
   6  11  -8 510.689 249.127   3 
   6  11   8 646.518 332.330   3 
  -6  11   8 2.82765 261.828   2 
  -6  11   9-208.256 316.527   2 
  -6  11  -9 262.560 265.886   1 
   6  11  -9 458.360 202.563   3 
   6  11   9 521.906 270.476   3 
  -6  11  10 1197.48 344.506   2 
  -6  11 -10 2085.74 462.234   1 
   6  11 -10 1306.55 328.881   3 
   6  11  10 1462.11 371.906   3 
   6 -11  11 12423.1 621.363   3 
   6  11 -11 13453.5 927.598   3 
   6  11  11 12503.4 1004.41   3 
  -6  11 -11 13121.4 1098.60   1 
  -6  11  11 12880.8 1055.83   2 
  -6  11  12 38.5689 269.021   2 
   6  11 -12 442.408 240.693   3 
   6 -11  12 133.248 102.655   3 
  -6  11 -12 404.657 261.931   1 
   6  11  12 482.595 245.816   3 
  -6  11  13 3137.43 534.529   2 
   6  11 -13 4100.50 513.097   3 
   6 -11  13 3294.57 295.053   3 
  -6  11 -13 2581.71 527.260   1 
   6  11  13 3013.32 558.348   3 
   6  11 -14 831.649 258.714   3 
  -6  11  14 1029.87 349.000   2 
  -6  11 -14 721.006 261.408   1 
   6  11  14 667.640 251.711   3 
   6  11 -15 85.4755 183.677   3 
  -6  11  15-133.470 290.766   2 
  -6  11 -15-250.269 255.075   1 
   6  11  15-138.452 226.820   3 
   6  11  16 4026.27 642.463   3 
  -6  11 -16 4593.84 678.515   1 
   6  11 -16 3901.18 526.178   3 
  -6  11  16 4275.13 681.551   2 
  -6  11  17 7677.72 918.935   2 
   6  11 -17 8741.36 759.345   3 
   6  11  17 8627.73 922.587   3 
  -6  11 -17 8315.21 949.843   1 
   6  11  18 1535.10 513.806   3 
  -6  11 -18 958.988 396.097   1 
  -6  11  18 904.068 410.203   2 
  -6  11 -19 9797.71 1018.03   1 
  -6  11  19 9251.08 1051.82   2 
   6  11  19 11181.5 1070.73   3 
   6  11  20 948.513 380.612   3 
  -6  11 -20 799.528 351.617   1 
  -6  11  20 699.271 353.411   2 
   6  11  21-191.664 410.247   3 
  -6  11 -21-743.204 462.087   1 
   6  11  22 438.764 258.048   3 
  -6  11 -22 127.120 322.191   1 
  -6  11 -23-181.523 261.874   1 
   6  12   0 3540.93 498.910   3 
  -6 -12   1 572.219 129.990   2 
   6  12  -1 984.979 313.309   3 
   6  12   1 561.299 277.114   3 
   6  12  -2-108.386 173.049   3 
   6  12   2-34.0080 235.086   3 
  -6 -12   2 176.030 115.353   2 
   6  12  -3 749.532 287.097   3 
   6  12   3 113.917 175.743   3 
  -6 -12   3 450.962 150.793   2 
   6  12  -4 8776.76 776.769   3 
   6  12   4 6998.46 723.561   3 
   6  12  -5 1716.57 272.422   4 
   6  12  -5 1758.58 389.776   3 
   6  12   5 2132.84 404.021   3 
   6  12  -6 3655.71 397.732   4 
   6  12  -6 3625.50 506.039   3 
   6  12   6 3929.45 547.482   3 
  -6  12   6 3749.70 567.344   2 
   6  12  -7 688.700 197.540   4 
   6  12  -7 660.741 261.404   3 
   6  12   7 566.723 288.886   3 
  -6  12   7 286.826 205.813   2 
   6  12  -8 5451.47 505.534   4 
   6  12  -8 5815.88 617.201   3 
  -6  12  -8 4560.66 649.704   1 
   6  12   8 5623.45 692.773   3 
  -6  12   8 4834.16 669.580   2 
   6  12  -9 104.103 209.242   3 
   6  12   9-211.143 271.581   3 
  -6  12  -9-614.987 358.970   1 
  -6  12   9 370.258 273.914   2 
  -6  12  10 1106.88 337.247   2 
  -6  12 -10 1750.04 434.767   1 
   6  12 -10 713.618 257.624   3 
   6  12  10 953.168 321.802   3 
  -6  12  11 154.689 245.095   2 
  -6  12 -11 863.206 349.466   1 
   6 -12  11 493.886 142.398   3 
   6  12 -11 528.590 265.634   3 
   6  12  11 537.455 316.891   3 
  -6  12  12 1109.24 371.195   2 
  -6  12 -12 747.565 335.049   1 
   6  12 -12 1015.39 315.489   3 
   6  12  12 650.442 324.823   3 
  -6  12  13-76.9086 270.391   2 
  -6  12 -13 661.678 318.878   1 
   6  12 -13 91.8250 177.083   3 
   6  12  13 351.296 282.562   3 
  -6  12  14-111.831 265.039   2 
   6  12 -14 74.0356 192.599   3 
  -6  12 -14-274.924 364.643   1 
   6  12  14-2.18892 288.991   3 
   6  12  15 5651.36 733.195   3 
   6  12 -15 6697.54 639.485   3 
  -6  12  15 6646.89 830.501   2 
  -6  12 -15 5652.87 768.608   1 
   6  12  16 2346.15 495.286   3 
   6  12 -16 2487.20 441.097   3 
  -6  12  16 1422.03 415.189   2 
  -6  12 -16 2038.21 507.952   1 
   6  12  17 4060.60 698.561   3 
   6  12 -17 3787.70 531.187   3 
  -6  12  17 3719.63 689.089   2 
  -6  12 -17 3499.74 674.950   1 
   6  12  18 6965.09 860.388   3 
   6  12 -18 5753.97 626.593   3 
  -6  12  18 6338.19 889.958   2 
  -6  12 -18 5001.33 750.299   1 
   6  12  19 1036.52 357.215   3 
   6  12 -19 1704.25 384.860   3 
  -6  12  19 1028.59 487.784   2 
  -6  12 -19 1192.43 483.779   1 
  -6  12  20 4744.05 775.991   2 
  -6  12 -20 4345.05 735.498   1 
  -6  12 -21-273.183 436.642   1 
   6  12  21-112.067 378.544   3 
  -6  12 -22 1771.07 487.617   1 
   6  13   0 17329.6 1121.15   3 
   6  13  -1 1233.11 218.225   4 
  -6 -13   1 734.500 166.697   2 
   6  13  -1 511.681 260.481   3 
   6  13   1 1269.67 376.541   3 
   6  13  -2 7731.50 747.077   3 
   6  13   2 7640.18 762.529   3 
  -6 -13   2 7937.38 521.439   2 
   6  13  -3 4005.65 534.087   3 
  -6 -13   3 3226.70 347.250   2 
   6  13   3 3978.81 550.151   3 
   6  13  -4 283.486 262.487   3 
  -6 -13   4-319.284 161.615   2 
   6  13   4 82.3263 197.646   3 
   6  13  -5 21731.6 929.692   4 
   6  13  -5 19907.4 1168.62   3 
   6  13   5 22341.5 1318.92   3 
   6  13  -6 3777.30 401.785   4 
   6  13  -6 2800.08 449.366   3 
  -6  13   6 3368.49 556.163   2 
   6  13   6 4140.42 590.203   3 
   6  13  -7 555.868 252.977   3 
  -6  13   7 1191.25 369.970   2 
   6  13   7 534.646 243.936   3 
   6  13  -8 509.144 234.005   3 
  -6  13   8 419.721 257.015   2 
   6  13   8 246.651 285.912   3 
   6  13  -9 937.941 272.181   3 
   6  13   9 663.253 289.411   3 
  -6  13   9 450.969 269.149   2 
   6  13 -10 608.993 258.285   3 
  -6  13 -10 515.370 217.491   1 
   6  13  10 410.052 283.152   3 
  -6  13  10 702.123 306.268   2 
   6  13 -11 10293.2 837.045   3 
  -6  13 -11 11415.2 1058.26   1 
  -6  13  11 10629.8 1017.37   2 
   6  13  11 10145.6 955.611   3 
  -6  13 -12 507.188 317.475   1 
  -6  13  12 566.762 322.022   2 
   6  13 -12 248.134 169.822   3 
   6  13  12 380.468 248.355   3 
  -6  13 -13 2379.26 502.503   1 
  -6  13  13 1616.98 431.195   2 
   6  13 -13 1920.22 394.006   3 
   6  13  13 1707.34 433.586   3 
   6  13  14 767.777 314.327   3 
  -6  13 -14 952.819 387.891   1 
  -6  13  14 6.13423 370.149   2 
   6  13 -14 260.459 177.489   3 
   6  13  15 2248.32 499.837   3 
  -6  13  15 1498.96 408.776   2 
   6  13 -15 1692.74 350.162   3 
  -6  13  16 747.345 310.379   2 
  -6  13 -16 136.375 292.026   1 
   6  13 -16 681.872 285.684   3 
   6  13  17 4109.15 679.671   3 
  -6  13  17 4518.76 730.451   2 
   6  13 -17 4268.15 540.120   3 
  -6  13 -17 3384.59 614.650   1 
   6  13  18 473.048 342.344   3 
  -6  13  18 401.804 349.796   2 
  -6  13 -18 324.330 341.558   1 
  -6  13 -19 10481.1 1122.17   1 
   6  13  19 12603.4 1185.84   3 
  -6  13  19 12530.6 1231.15   2 
  -6  13 -20 280.877 357.511   1 
  -6  13 -21 3719.86 654.088   1 
   6  14   0 21803.9 1287.41   3 
   6  14  -1 833.312 340.415   3 
   6  14   1 703.301 356.954   3 
   6  14  -2 10781.5 885.366   3 
   6  14   2 8462.31 812.421   3 
   6  14  -3 938.499 303.561   3 
   6  14   3 1286.42 350.273   3 
   6  14  -4 845.724 314.902   3 
   6  14   4 492.010 294.796   3 
   6  14  -5 219.056 196.786   3 
   6  14   5-196.160 251.997   3 
   6  14  -6 7310.85 720.634   3 
   6  14   6 8121.98 823.227   3 
   6  14  -7 384.238 271.423   3 
  -6  14   7 607.834 312.946   2 
   6  14   7-106.469 213.663   3 
   6  14  -8 6609.99 673.896   3 
  -6  14   8 6922.05 821.289   2 
   6  14   8 6167.76 750.160   3 
   6  14  -9 673.686 246.961   3 
  -6  14   9 1481.70 423.402   2 
   6  14   9 676.313 269.352   3 
   6  14 -10 466.842 254.400   3 
  -6  14  10-337.497 326.511   2 
   6  14  10-43.3027 317.093   3 
   6  14 -11 1602.92 394.578   3 
  -6  14  11 1213.38 409.068   2 
   6  14  11 1808.27 445.252   3 
   6  14 -12 396.526 227.109   3 
  -6  14 -12-108.524 261.448   1 
  -6  14  12 469.955 290.278   2 
   6  14  12-4.56162 245.733   3 
   6  14  13-42.0961 250.468   3 
  -6  14  13-190.512 317.923   2 
   6  14 -13 191.147 182.226   3 
  -6  14 -13-261.234 351.259   1 
   6  14  14-32.4266 235.109   3 
  -6  14  14-730.863 468.129   2 
   6  14 -14-370.067 250.852   3 
  -6  14 -14 1.27870 284.813   1 
  -6  14 -15 747.040 372.288   1 
   6  14  15 1335.39 457.337   3 
  -6  14  15 1032.68 393.577   2 
   6  14 -15 981.610 272.844   3 
  -6  14 -16 273.555 320.235   1 
   6  14  16 521.823 341.788   3 
   6  14 -16 129.526 202.487   3 
  -6  14 -17-61.1002 275.439   1 
   6  14  17 153.980 254.681   3 
  -6  14  17 381.842 425.012   2 
   6  14  18 2238.18 518.961   3 
  -6  14 -18 2099.14 510.582   1 
  -6  14  18 1571.68 496.645   2 
  -6  14 -19 384.597 343.760   1 
  -6  14 -20 88.3964 381.650   1 
   6  15   0 20171.5 1261.31   3 
   6  15  -1 260.801 283.375   3 
   6  15   1 442.258 293.281   3 
   6  15  -2 494.531 287.920   3 
   6  15   2 236.529 249.889   3 
   6  15  -3 408.441 269.121   3 
   6  15   3 332.427 322.600   3 
   6  15  -4 3925.17 567.168   3 
   6  15   4 4765.80 647.253   3 
   6  15  -5 3249.15 511.112   3 
   6  15   5 3997.14 607.876   3 
   6  15  -6 9223.40 818.745   3 
   6  15   6 9828.75 929.226   3 
   6  15  -7-251.407 190.301   3 
   6  15   7 465.923 304.717   3 
  -6  15   8 2694.33 538.898   2 
   6  15  -8 1808.24 384.221   3 
   6  15   8 2904.18 558.088   3 
   6  15  -9 855.850 281.964   3 
  -6  15   9 429.256 229.258   2 
   6  15   9 172.754 214.207   3 
   6  15 -10 5575.19 637.099   3 
  -6  15  10 5727.50 782.500   2 
   6  15  10 6224.96 779.566   3 
   6  15 -11 4517.57 568.364   3 
  -6  15  11 4152.72 678.382   2 
   6  15  11 4408.87 676.618   3 
   6  15  12 1019.62 301.676   3 
   6  15 -12 1659.38 366.554   3 
  -6  15  12 1326.74 486.888   2 
   6  15  13 2329.59 529.310   3 
   6  15 -13 2596.79 414.017   3 
  -6  15  13 2272.69 535.049   2 
   6  15  14-281.386 318.060   3 
   6  15 -14 464.712 194.842   3 
  -6  15  14 4.11392 294.073   2 
  -6  15  15 3197.37 661.339   2 
   6  15  15 4133.33 655.533   3 
   6  15 -15 3585.93 480.999   3 
  -6  15 -15 2962.09 617.057   1 
  -6  15  16 1527.62 491.544   2 
   6  15  16 1838.24 464.379   3 
  -6  15 -16 1629.59 475.746   1 
  -6  15  17 5442.38 873.729   2 
  -6  15 -17 5592.64 811.178   1 
  -6  15 -18 973.431 515.226   1 
   6  16   0 1566.32 391.473   3 
   6  16  -1 339.456 288.842   3 
   6  16   1-0.97870 214.641   3 
   6  16  -2 7929.41 795.397   3 
   6  16   2 9011.71 873.734   3 
   6  16  -3 1348.49 366.297   3 
   6  16   3 912.654 351.621   3 
   6  16  -4 16899.0 1146.13   3 
   6  16   4 17697.0 1252.19   3 
   6  16  -5 3469.56 588.645   3 
   6  16   5 3085.96 566.261   3 
   6  16  -6 20998.0 1249.04   3 
   6  16   6 22591.7 1451.63   3 
   6  16  -7 6378.85 705.717   3 
   6  16   7 6123.77 785.596   3 
   6  16  -8 20929.7 1230.23   3 
   6  16   8 22164.1 1468.92   3 
   6  16  -9 1372.67 384.521   3 
   6  16   9 335.005 234.404   3 
   6  16 -10 7089.49 709.493   3 
  -6  16  10 6432.93 853.103   2 
   6  16  10 5912.99 787.172   3 
   6  16  11-42.6649 255.439   3 
   6  16 -11 109.268 198.503   3 
  -6  16  11 427.552 293.330   2 
   6  16  12 176.403 268.072   3 
   6  16 -12 1013.06 302.229   3 
  -6  16  12 745.849 393.351   2 
   6  16 -13 7063.18 694.351   3 
  -6  16  13 6916.18 907.337   2 
   6  16  13 8047.55 938.680   3 
   6  16  14 750.438 351.062   3 
  -6  16  14 219.520 248.417   2 
   6  16  15 3492.52 682.760   3 
  -6  16  15 2492.15 527.619   2 
   6  17   0 228.529 247.977   3 
   6  17  -1 2066.29 435.204   3 
   6  17   1 1594.59 409.598   3 
   6  17  -2 478.639 319.681   3 
   6  17   2 252.408 316.676   3 
   6  17  -3 857.820 310.740   3 
   6  17   3 1161.24 358.403   3 
   6  17  -4 219.693 230.023   3 
   6  17   4-195.661 208.906   3 
   6  17  -5-128.994 248.757   3 
   6  17   5 96.5919 232.883   3 
   6  17  -6 8868.02 835.301   3 
   6  17   6 9614.81 951.462   3 
   6  17  -7 212.107 258.164   3 
   6  17   7 375.831 327.482   3 
   6  17  -8 5996.23 693.338   3 
   6  17   8 6024.32 792.422   3 
   6  17  -9 239.741 240.338   3 
   6  17   9 472.419 325.825   3 
   6  17  10-97.1635 319.119   3 
   6  17 -10 300.506 247.331   3 
   6  17  11 449.479 282.725   3 
  -6  17  11-150.983 347.704   2 
   6  17 -11 474.469 274.346   3 
   6  17  12 507.364 360.028   3 
   6  17 -12-152.141 222.603   3 
  -6  17  12 318.952 290.384   2 
   6  17  13-60.1210 246.943   3 
  -6  17  13-576.450 403.626   2 
   6  18   0 230.631 269.603   3 
   6  18  -1 166.880 214.364   3 
   6  18   1 329.373 218.813   3 
   6  18  -2 78.5845 234.436   3 
   6  18   2 108.006 218.633   3 
   6  18  -3-244.490 284.412   3 
   6  18   3 135.856 222.567   3 
   6  18  -4 316.397 232.551   3 
   6  18   4 114.857 259.773   3 
   6  18  -5 178.024 199.488   3 
   6  18   5 338.551 311.686   3 
   6  18  -6-56.6138 186.107   3 
   6  18   6 80.9807 243.777   3 
   6  18  -7 1950.02 451.985   3 
   6  18   7 2125.46 513.110   3 
   6  18   8-261.310 258.627   3 
   6  18  -8 365.261 280.510   3 
   6  18   9 2104.12 507.397   3 
   6  18  -9 2682.90 494.687   3 
   6  18  10 1497.51 417.649   3 
   6  18 -10 1896.60 407.482   3 
   6  18  11 2084.10 565.103   3 
   6  19   0 3002.68 517.280   3 
   6  19  -1 1118.19 369.478   3 
   6  19   1 1041.08 378.896   3 
   6  19  -2 2196.57 465.521   3 
   6  19   2 2025.54 485.846   3 
   6  19  -3 398.580 234.553   3 
   6  19   3 581.384 302.295   3 
   6  19  -4 414.421 251.163   3 
   6  19   4 690.404 341.927   3 
   6  19  -5-188.985 257.934   3 
   6  19   5-421.463 372.625   3 
   6  19   6-490.237 425.711   3 
   6  19  -6 185.956 186.907   3 
   6  19   7 5617.97 797.623   3 
   6  19  -7 5085.25 662.749   3 
   6  19   8 998.944 403.827   3 
   6  19  -8 1193.07 392.310   3 
   6  19   9 7951.36 944.214   3 
   6  20   0 13803.4 1153.42   3 
   6  20  -1-120.973 260.920   3 
   6  20   1 613.558 383.943   3 
   6  20  -2 11812.3 1067.04   3 
   6  20   2 11640.8 1071.45   3 
   6  20  -3 244.845 289.767   3 
   6  20   3-91.4076 232.292   3 
   6  20  -4 8156.72 856.068   3 
   6  20   4 7215.19 876.910   3 
   6  20   5-135.018 214.804   3 
   6  20  -5-176.410 289.650   3 
   6  20   6 2962.87 580.971   3 
   6  20  -6 2129.14 466.658   3 
   6  20  -7 424.651 243.316   3 
   6  21   0 798.797 335.754   3 
   6  21   1 1022.41 377.902   3 
   6  21  -1 660.750 359.048   3 
   6  21   2 240.372 253.568   3 
   6  21  -2-100.591 277.830   3 
   6  21   3 2328.55 527.464   3 
   6  21  -3 2484.30 497.567   3 
   6  21   4 280.732 305.323   3 
   6  21  -4 106.276 227.117   3 
   6  21  -5 447.582 223.332   3 
   6  22   0 760.451 379.458   3 
   6  22  -1 797.859 325.856   3 
   6  22   1 243.991 303.473   3 
   6  22  -2 331.430 264.756   3 
   6  22  -3 555.613 258.573   3 
  -7   0   0 48.8337 143.093   1 
  -7   0  -1 377.199 228.240   1 
  -7   0   1 40.2057 138.090   1 
  -7   0  -2 44057.0 1543.91   1 
  -7   0   2 44097.7 1167.55   2 
  -7   0   2 42682.9 1424.50   1 
  -7   0   3-49.4056 103.987   2 
  -7   0   3-6.92277 122.845   1 
  -7   0   4 1573.99 234.259   2 
  -7   0   4 1374.61 251.187   1 
   7   0   5-38.0061 155.799   3 
  -7   0   5 0.82562 148.093   2 
   7   0   6 900.250 272.443   3 
   7   0   7 384.370 227.076   3 
   7   0   8 83738.5 2314.83   3 
   7   0   8 83430.8 1563.25   2 
   7   0   9-67.4858 85.0013   2 
   7   0   9 91.9627 205.957   3 
   7   0  10 8048.77 684.049   3 
   7   0  10 8239.79 450.557   2 
   7   0  11 110.722 164.812   3 
   7   0  12 7748.24 670.385   3 
   7   0  13 402.813 229.983   3 
   7   0  14 474.719 244.289   3 
   7   0  15 16.5574 186.365   3 
   7   0  16 4724.37 557.221   3 
   7   0  17-250.963 233.204   3 
   7   0  18 1520.79 349.281   3 
   7   0  19-227.093 294.673   3 
   7   0  20 918.720 306.354   3 
   7   0  21 169.098 270.946   3 
   7   0  22 9451.31 813.939   3 
   7   0  23-153.986 214.673   3 
   7   0  24-218.865 228.167   3 
  -7  -1   0-157.572 160.871   1 
  -7   1   0-73.2154 160.056   1 
  -7   1  -1 11804.9 783.096   1 
  -7  -1   1 10304.2 671.722   1 
  -7  -1  -1 10711.2 707.614   1 
  -7   1   1 11909.5 760.909   1 
  -7  -1   2 1476.93 277.577   1 
  -7   1   2 1770.25 296.451   1 
  -7   1   2 1706.34 252.406   2 
  -7   1  -2 1634.30 312.795   1 
  -7  -1   2 1385.73 174.679   2 
  -7   1  -3 4643.41 514.556   1 
  -7   1   3 4628.58 457.308   1 
  -7   1   3 5595.25 434.733   2 
  -7  -1   3 4345.96 417.050   1 
  -7  -1   3 4352.48 336.943   2 
  -7  -1   4 200.766 127.208   1 
  -7   1   4 555.606 173.173   2 
   7   1   4 332.375 247.753   3 
  -7  -1   4 491.211 125.784   2 
  -7   1   4 241.392 139.241   1 
   7   1   5-91.9540 240.312   3 
   7  -1   6 556.325 213.958   3 
   7   1   6 1169.76 312.272   3 
   7  -1   7 20419.7 723.637   2 
   7  -1   7 20195.1 1052.66   3 
   7   1   7 21109.6 1116.28   3 
   7  -1   8 2242.30 380.681   3 
   7   1   8 2674.27 437.389   3 
   7  -1   8 2249.12 251.236   2 
   7   1   9 157.558 65.5968   2 
   7  -1   9 131.444 186.630   3 
   7   1   9 52.5997 177.923   3 
   7  -1   9 54.0690 108.278   2 
   7  -1  10 2188.13 364.126   3 
   7   1  10 2875.37 443.524   3 
   7   1  10 2405.27 216.065   2 
   7  -1  10 2076.92 259.695   2 
   7  -1  11 2917.60 433.136   3 
   7   1  11 2493.55 406.027   3 
   7  -1  12 1961.96 348.814   3 
   7   1  12 2253.93 381.487   3 
   7  -1  13 23049.5 1159.01   3 
   7   1  13 26088.1 1266.57   3 
   7  -1  14 5689.20 574.470   3 
   7   1  14 4825.42 561.185   3 
   7  -1  15 859.736 247.613   3 
   7   1  15 981.832 313.381   3 
   7  -1  16 2754.96 408.758   3 
   7   1  16 3059.56 470.605   3 
   7  -1  17 3017.18 446.461   3 
   7   1  17 2236.01 417.036   3 
   7  -1  18 3179.02 453.472   3 
   7   1  18 3463.06 496.005   3 
   7  -1  19 1459.46 317.637   3 
   7   1  19 470.421 197.778   3 
   7  -1  20 529.987 259.893   3 
   7   1  20 925.502 301.975   3 
   7  -1  21 4942.30 586.739   3 
   7   1  21 4124.70 564.261   3 
   7   1  22 198.485 261.562   3 
   7  -1  22-109.328 177.342   3 
   7   1  23 129.859 191.666   3 
   7  -1  23 63.3158 172.614   3 
   7   1  24 1481.62 345.272   3 
   7   1  25 776.655 307.392   3 
  -7   2   0-192.571 202.975   1 
  -7  -2   1 4879.79 446.827   1 
  -7   2  -1 5058.90 524.095   1 
  -7   2   1 4690.85 502.573   1 
  -7  -2   2 5748.34 478.825   1 
  -7   2  -2 5026.58 532.117   1 
  -7   2   2 5109.18 420.826   2 
  -7  -2   2 5398.35 325.581   2 
  -7   2   2 4600.95 484.720   1 
   7   2   3 7152.82 633.824   3 
  -7   2   3 6640.38 563.167   1 
  -7   2  -3 7022.54 646.397   1 
  -7  -2   3 7563.72 416.629   2 
  -7  -2   3 7693.07 529.279   1 
  -7   2  -4 7484.07 674.251   1 
   7   2   4 6520.83 617.062   3 
  -7  -2   4 6615.84 489.427   1 
   7   2   5 3138.93 446.392   3 
  -7   2  -5 2552.44 427.956   1 
  -7  -2   5 3183.61 336.159   1 
   7  -2   6-180.948 238.274   3 
   7   2   6 342.403 265.678   3 
   7  -2   6 50.2685 107.727   2 
   7  -2   7 13145.3 835.019   3 
   7   2   7 13122.1 905.127   3 
   7  -2   7 12357.9 610.041   2 
   7  -2   8 29176.7 1268.28   3 
   7   2   8 29565.8 1359.13   3 
   7  -2   8 30355.2 1007.43   2 
   7  -2   9 109.849 193.067   3 
   7   2   9-245.961 220.963   3 
   7  -2   9-20.8183 115.632   2 
   7  -2  10 3356.22 430.412   3 
   7   2  10 3522.89 472.057   3 
   7  -2  10 4205.97 383.762   2 
   7   2  10 3539.23 215.678   2 
   7  -2  11 19643.3 1030.97   3 
   7   2  11 18701.3 1080.80   3 
   7   2  11 18913.9 590.903   2 
   7  -2  12 2041.48 364.104   3 
   7   2  12 2425.03 407.335   3 
   7  -2  13 7054.83 622.698   3 
   7   2  13 7902.39 718.665   3 
   7  -2 -14 21163.2 936.333   1 
   7  -2  14 20322.5 1062.00   3 
   7   2  14 22467.0 1220.34   3 
   7  -2  15 268.124 176.358   3 
   7   2  15-187.491 181.904   3 
   7  -2  16 6382.25 607.559   3 
   7   2  16 8071.41 755.975   3 
   7  -2  17 16068.5 974.180   3 
   7   2  17 16768.9 1080.77   3 
   7  -2  18 1327.78 327.360   3 
   7   2  18 481.597 217.670   3 
   7  -2  19 1444.73 332.283   3 
   7   2  19 1050.09 332.159   3 
   7  -2  20 4327.15 541.270   3 
   7   2  20 5212.66 627.930   3 
   7   2  21 1782.88 404.497   3 
   7  -2  21 1901.02 379.648   3 
   7   2  22 6098.40 697.506   3 
   7  -2  22 6978.47 665.411   3 
   7   2  23 2700.08 507.709   3 
   7   2  24 993.212 301.135   3 
   7   2  25 444.070 270.680   3 
   7   2  26 3502.93 578.270   3 
  -7   3   0-122.628 191.230   1 
  -7   3   1 13889.9 866.406   1 
  -7   3  -1 13994.9 899.317   1 
   7   3   2 1960.92 365.684   3 
  -7   3  -2 1743.86 351.235   1 
  -7  -3   2 1796.21 168.421   2 
  -7  -3   2 2415.67 318.066   1 
  -7   3   2 2125.82 352.194   1 
  -7  -3   3 25990.1 753.052   2 
   7   3   3 24814.5 1227.28   3 
  -7  -3   3 24816.8 956.838   1 
  -7   3  -3 27262.1 1286.12   1 
   7   3   4 2628.97 417.656   3 
  -7   3  -4 2644.47 419.542   1 
  -7  -3   4 2093.56 279.142   1 
   7   3   5 46120.7 1704.94   3 
  -7  -3   5 44726.5 1238.30   1 
   7  -3   6 6074.56 458.091   2 
  -7   3  -6 5160.10 601.796   1 
   7   3   6 6095.27 610.318   3 
  -7   3   6 6281.44 550.201   2 
  -7   3  -7 217.578 216.378   1 
   7  -3   7 6.61361 204.317   3 
   7  -3   7 41.0096 123.682   2 
  -7   3   7-114.901 155.068   2 
   7   3   7 424.636 216.454   3 
   7  -3   8 2408.14 294.831   2 
   7  -3   8 2737.18 399.338   3 
   7   3   8 2096.75 386.716   3 
   7  -3   9 244.266 175.903   3 
   7   3   9 151.933 225.645   3 
   7  -3   9 620.372 186.519   2 
   7  -3  10-159.100 222.326   3 
   7   3  10-7.43033 242.080   3 
   7  -3  10 93.7948 130.202   2 
   7  -3  11 7007.27 603.114   3 
   7   3  11 6989.12 670.366   3 
   7  -3 -11 7428.62 575.511   1 
   7   3  11 6665.56 271.443   2 
   7  -3 -12 2442.91 360.620   1 
   7  -3  12 3353.35 440.001   3 
   7   3  12 2984.01 486.568   3 
   7  -3  13 5364.20 535.646   3 
   7   3  13 6420.71 682.629   3 
   7  -3 -13 6058.21 528.906   1 
   7   3  14 4911.54 590.156   3 
   7  -3 -14 3883.75 441.974   1 
   7  -3  14 3925.52 463.025   3 
   7  -3  15-186.772 170.800   3 
   7   3  15-285.860 230.924   3 
   7  -3 -15 191.939 148.383   1 
   7  -3  16 3835.93 453.890   3 
   7   3  16 4282.22 556.076   3 
   7  -3  17 1192.91 296.062   3 
   7   3  17 346.882 257.334   3 
   7  -3  18 2522.25 403.878   3 
   7   3  18 2401.57 469.241   3 
   7  -3  19 6929.49 640.254   3 
   7   3  19 7472.11 764.822   3 
   7  -3  20 973.093 277.460   3 
   7   3  20 780.771 350.579   3 
   7  -3  21 479.198 221.735   3 
   7   3  21 338.540 268.463   3 
   7   3  22 408.566 243.164   3 
   7   3  23 228.834 204.985   3 
   7   3  24 383.269 262.945   3 
   7   3  25 2552.86 509.117   3 
   7   3  26 301.088 249.756   3 
   7   4   0 374.388 292.615   3 
  -7   4   0 125.846 182.927   1 
   7   4   1 10075.1 783.544   3 
  -7   4   1 11881.2 829.616   1 
  -7   4  -1 10781.3 811.357   1 
   7   4   2 2073.45 391.287   3 
  -7   4   2 1153.81 282.961   1 
  -7  -4   2 1330.51 131.941   2 
  -7   4  -2 1345.46 325.254   1 
  -7   4  -3 8097.36 715.564   1 
   7   4   3 8762.63 736.337   3 
  -7  -4   3 7930.77 510.275   1 
  -7  -4   4 9494.89 544.208   1 
  -7   4  -4 9160.82 762.959   1 
   7   4   4 10400.2 802.651   3 
  -7   4  -5 4830.70 575.799   1 
   7  -4   5 4751.03 431.342   2 
   7   4   5 5473.21 612.183   3 
  -7   4   5 4948.84 500.295   2 
  -7  -4   5 4859.01 368.532   1 
   7   4   6 21383.5 1174.97   3 
  -7   4  -6 20488.2 1185.95   1 
  -7   4   6 21004.6 1044.72   2 
   7  -4   6 21688.0 922.324   2 
   7   4   7 27850.2 1348.71   3 
   7  -4   7 27645.8 1067.46   2 
  -7   4  -7 30205.1 1450.23   1 
  -7   4   7 28171.1 1240.53   2 
  -7   4   8 5183.82 534.538   2 
   7  -4   8 5555.09 525.069   3 
   7   4   8 4606.27 542.441   3 
   7  -4   8 5388.58 467.523   2 
  -7   4  -8 4733.34 602.413   1 
   7  -4   9 2164.41 355.443   3 
  -7   4   9 1846.29 342.617   2 
   7   4   9 1762.60 336.457   3 
  -7   4  -9 1855.54 364.771   1 
   7  -4   9 2245.79 313.152   2 
   7  -4  10 16159.8 901.283   3 
   7  -4 -10 15418.2 866.304   1 
   7   4  10 13664.0 947.261   3 
   7  -4  10 15487.5 823.262   2 
   7  -4  11 17299.0 937.090   3 
   7   4  11 17021.2 1071.27   3 
   7  -4  11 17603.2 899.866   2 
   7  -4 -11 17562.5 933.668   1 
   7  -4  12 51010.0 1653.71   3 
   7   4  12 50902.9 1917.48   3 
   7  -4 -12 49947.3 1630.14   1 
   7  -4 -13 2294.48 377.323   1 
   7  -4  13 2029.14 371.063   3 
   7   4  13 2049.04 435.203   3 
   7  -4 -14 20193.8 1019.99   1 
   7  -4  14 20348.7 1020.22   3 
   7   4  14 20091.0 1201.61   3 
   7  -4 -15 361.794 172.087   1 
   7  -4  15-45.8338 153.253   3 
   7   4  15 483.360 266.555   3 
   7  -4  16 2461.75 368.701   3 
   7   4  16 2405.24 444.737   3 
   7  -4  17 10.3965 150.195   3 
   7   4  17 402.869 244.360   3 
   7  -4  18 11532.4 780.962   3 
   7   4  18 9978.94 907.652   3 
   7  -4  19 10901.8 770.270   3 
   7   4  19 10188.3 911.516   3 
   7  -4  20 3298.84 436.548   3 
   7   4  20 2649.47 470.801   3 
   7   4  21 2834.27 498.343   3 
   7   4  22 264.684 259.382   3 
   7   4  23 2598.61 495.151   3 
   7   4  24 1662.89 415.135   3 
   7   4  25 28.0304 233.084   3 
   7   4  26 1442.48 455.479   3 
   7   4  27 3259.60 581.617   3 
  -7   5   0 255.989 222.527   1 
   7   5   0 323.225 239.375   3 
   7   5  -1 527.963 251.892   3 
  -7   5  -1 581.607 290.268   1 
   7   5   1 557.132 288.851   3 
  -7   5   1 148.381 159.456   1 
  -7  -5   2 284.906 60.4817   2 
  -7   5  -2 296.141 190.801   1 
   7   5   3 10731.2 829.679   3 
  -7  -5   3 10239.6 570.329   1 
  -7   5   3 10448.3 707.453   2 
  -7   5  -3 9873.07 803.734   1 
  -7  -5   4 2404.41 275.213   1 
  -7   5  -4 2105.10 412.002   1 
   7   5   4 2715.21 458.098   3 
  -7   5   4 2313.85 351.263   2 
  -7   5   5 22.5677 185.112   2 
   7  -5   5-120.052 128.313   2 
   7   5   5-165.560 245.354   3 
  -7   5  -5 104.766 227.915   1 
  -7  -5   5-37.7220 109.066   1 
  -7   5   6 188.532 191.690   2 
   7  -5   6 261.963 171.466   2 
   7   5   6 371.275 256.283   3 
  -7   5  -6 226.937 240.171   1 
  -7  -5   6 154.540 79.0393   1 
   7  -5   7 2934.44 371.780   2 
  -7   5  -7 3376.00 506.513   1 
  -7   5   7 2235.32 401.287   2 
   7   5   7 2682.15 446.261   3 
   7  -5   8 6064.31 560.057   3 
   7   5   8 5182.81 603.028   3 
   7  -5  -8 6201.47 576.771   1 
   7  -5   8 5926.64 522.048   2 
  -7   5  -8 6117.31 691.523   1 
  -7   5   8 5245.26 555.135   2 
  -7   5   9 24167.9 1242.31   2 
   7  -5  -9 24592.3 1146.57   1 
   7  -5   9 23116.2 1076.60   3 
   7   5   9 26220.8 1336.82   3 
   7  -5   9 25534.1 1104.16   2 
  -7   5  -9 22919.6 1328.89   1 
   7  -5  10 362.420 160.038   3 
  -7   5  10 333.561 193.795   2 
   7   5  10 279.366 189.287   3 
  -7   5 -10 345.083 245.153   1 
   7  -5 -10 896.144 252.689   1 
   7  -5  10 482.614 181.080   2 
   7  -5 -11 193.208 196.845   1 
   7  -5  11-82.4169 217.244   3 
   7   5  11-56.4232 220.966   3 
   7  -5  11 315.983 218.499   2 
  -7   5 -11-301.922 313.387   1 
  -7   5 -12-24.8580 245.611   1 
   7  -5  12 150.512 166.190   3 
   7   5  12-163.933 228.109   3 
   7  -5 -12 75.5214 178.134   1 
   7  -5  13 2381.96 334.744   3 
   7  -5 -13 3172.31 423.880   1 
   7   5  13 2375.24 436.011   3 
   7  -5 -14 864.800 256.095   1 
   7  -5  14 793.853 213.609   3 
   7   5  14 1308.07 367.155   3 
   7  -5  15 6680.13 578.935   3 
   7   5  15 6396.97 704.221   3 
   7  -5  16-184.425 192.810   3 
   7   5  16 158.659 197.735   3 
   7  -5  17 2051.40 327.102   3 
   7   5  17 1968.50 444.276   3 
   7  -5  18 272.338 172.086   3 
   7   5  18 354.833 224.968   3 
   7  -5  19 1221.37 286.587   3 
   7   5  19 1293.66 358.363   3 
   7   5  20 1596.30 412.017   3 
   7   5  21 2277.24 483.639   3 
   7   5  22 2930.88 544.500   3 
   7   5  23 2183.87 493.497   3 
   7   5  24-214.335 297.239   3 
   7   5  25 2308.85 515.477   3 
   7   5  26 1773.93 469.607   3 
   7   5  27 1650.90 519.134   3 
   7   6   0 212.728 280.070   3 
  -7   6   0 64.7446 181.596   1 
   7   6  -1 25029.5 1279.77   3 
   7   6   1 25936.9 1305.20   3 
  -7   6  -1 26514.4 1337.17   1 
  -7  -6   2 3097.49 152.789   2 
  -7   6  -2 3389.97 488.312   1 
   7   6  -2 3506.40 527.247   3 
   7   6   2 4353.08 555.716   3 
   7   6  -3 17162.0 1049.29   3 
   7   6   3 16821.4 1057.08   3 
  -7   6   3 16233.0 929.755   2 
  -7   6  -3 16412.3 1074.35   1 
  -7  -6   4 35726.9 1049.01   1 
   7  -6   4 39643.2 1407.56   2 
   7   6   4 37995.7 1609.88   3 
  -7   6   4 37400.4 1463.09   2 
  -7   6  -4 38552.0 1675.71   1 
   7  -6   5 8870.78 645.063   2 
  -7  -6   5 8710.97 456.228   1 
   7   6   5 10055.2 827.724   3 
  -7   6   5 8132.63 681.724   2 
  -7   6  -5 8499.75 803.983   1 
  -7   6  -6 12904.4 975.589   1 
   7   6   6 13810.8 978.559   3 
  -7  -6   6 13152.3 508.987   1 
  -7   6   6 12229.5 854.416   2 
   7  -6   6 12770.6 783.704   2 
  -7   6  -7 13216.1 1011.47   1 
   7   6   7 13970.2 978.952   3 
   7  -6   7 13843.3 818.991   2 
  -7   6   7 14265.2 932.524   2 
   7  -6   8 212.569 161.439   2 
  -7   6   8-48.9131 215.705   2 
  -7   6  -8 19.0356 274.628   1 
  -7   6  -9-175.686 195.920   1 
   7  -6   9 347.821 174.980   3 
  -7   6   9 294.897 201.491   2 
   7   6   9 494.819 247.443   3 
   7  -6   9 381.912 184.800   2 
  -7   6  10 28974.8 1416.22   2 
   7  -6  10 29336.3 1197.44   3 
   7   6  10 28658.0 1437.70   3 
   7  -6  10 29383.5 1265.80   2 
  -7   6 -10 28475.9 1522.59   1 
  -7   6  11 9921.59 844.568   2 
   7  -6  11 11033.0 727.203   3 
   7   6  11 9256.92 840.040   3 
   7  -6  11 10082.0 739.860   2 
  -7   6 -11 10011.4 925.405   1 
  -7   6 -12 34390.1 1723.47   1 
   7  -6  12 34028.0 1294.01   3 
   7   6  12 36038.6 1646.55   3 
   7  -6  13 406.718 205.118   3 
   7   6  13 49.1154 214.612   3 
  -7   6 -13 645.415 324.333   1 
   7  -6  14 4353.09 449.094   3 
  -7   6 -14 4136.37 631.448   1 
   7   6  14 5073.21 645.622   3 
  -7   6 -15 163.126 234.884   1 
   7  -6  15-167.973 166.683   3 
   7   6  15 44.8923 233.016   3 
  -7   6 -16 6322.37 780.618   1 
   7  -6  16 5402.00 502.544   3 
   7   6  16 6747.44 746.273   3 
   7  -6  17 927.346 240.004   3 
   7   6  17 1388.48 396.754   3 
   7  -6  18 24404.0 1068.29   3 
   7   6  18 23345.9 1432.06   3 
   7   6  19 1289.39 423.531   3 
   7   6  20 2041.69 465.252   3 
   7   6  21 1574.11 441.681   3 
   7   6  22 1325.94 392.627   3 
   7   6  23 2362.26 511.953   3 
   7   6  24 3550.89 626.110   3 
   7   6  25-58.9628 228.655   3 
   7   6  26 6508.57 852.127   3 
   7   6  27 2587.31 525.482   4 
   7   7   0 286.113 195.672   3 
   7   7  -1 5023.92 595.721   3 
   7   7   1 4272.86 556.439   3 
  -7   7  -1 5048.90 592.784   1 
  -7   7  -2 4167.47 547.424   1 
   7   7  -2 4801.03 578.186   3 
   7   7   2 4427.62 559.623   3 
   7   7  -3 8300.57 747.417   3 
   7   7   3 8703.63 774.573   3 
  -7   7   3 8718.89 699.457   2 
  -7   7  -3 7952.93 774.212   1 
   7  -7   4 9298.56 687.975   2 
   7   7  -4 10380.2 834.250   3 
   7   7   4 8372.24 760.466   3 
  -7   7   4 9897.64 761.263   2 
  -7   7  -4 8922.68 820.042   1 
   7   7   5 25027.9 1330.67   3 
  -7  -7   5 25010.4 774.892   1 
  -7   7   5 28011.3 1307.31   2 
  -7   7  -5 28198.2 1469.23   1 
   7  -7   5 28379.1 1227.02   2 
  -7   7   6-250.424 269.242   2 
   7  -7   6 41.5994 138.551   2 
  -7  -7   6-36.1700 64.5191   1 
   7   7   6 223.332 250.872   3 
  -7   7  -6 26.4097 233.144   1 
   7   7   7 34558.8 1590.44   3 
  -7   7   7 37987.0 1592.47   2 
   7  -7   7 36613.9 1434.59   2 
  -7   7  -7 36790.2 1728.05   1 
  -7   7   8 3991.79 519.633   2 
  -7   7  -8 4919.17 629.555   1 
   7   7   8 5274.45 632.122   3 
   7  -7   8 4382.46 489.375   2 
   7  -7   9 4189.61 442.684   3 
  -7   7   9 4353.87 565.686   2 
   7   7   9 4995.80 617.530   3 
  -7   7  -9 4288.07 616.668   1 
   7  -7   9 4652.12 512.047   2 
   7  -7  10 661.350 235.146   3 
  -7   7  10 1316.57 329.287   2 
   7   7  10 1412.51 364.590   3 
  -7   7 -10 1457.28 428.945   1 
  -7   7  11 5304.36 660.219   2 
  -7   7 -11 5582.27 716.941   1 
   7  -7  11 6561.28 547.314   3 
   7   7  11 5331.46 664.589   3 
  -7   7 -12 1001.31 433.016   1 
   7  -7  12 607.629 248.589   3 
  -7   7  12 572.087 312.147   2 
   7   7  12 628.803 311.986   3 
   7  -7  13 2178.98 329.317   3 
  -7   7  13 2648.95 490.242   2 
  -7   7 -13 1671.44 416.303   1 
   7   7  13 2834.13 524.520   3 
   7  -7  14 109.046 153.831   3 
   7   7  14 51.5435 228.159   3 
  -7   7 -14 141.139 278.539   1 
  -7   7 -15 594.047 309.709   1 
   7  -7  15 583.179 150.813   3 
   7   7  15 990.497 326.736   3 
  -7   7 -16 892.434 318.158   1 
   7  -7  16 1129.97 235.183   3 
   7   7  16 1117.64 373.747   3 
   7  -7  17 2569.13 353.684   3 
  -7   7 -17 2414.83 537.758   1 
   7   7  17 2906.57 569.417   3 
  -7   7 -18 2250.00 575.177   1 
   7   7  18 1722.63 477.685   3 
  -7   7 -19 1562.30 441.505   1 
   7   7  19 2228.84 478.923   3 
   7   7  20 2064.59 486.156   3 
  -7   7 -20 1170.48 397.174   1 
   7   7  21 1028.33 350.721   3 
  -7   7 -21 1599.57 434.888   1 
  -7   7 -22 844.148 366.503   1 
   7   7  22 1415.66 405.593   3 
   7   7  23 592.019 391.138   3 
   7   7  24 17.3476 272.530   3 
   7   7  25 315.728 302.474   3 
   7   7  26 1520.39 406.762   4 
   7   8   0 53.6670 202.150   3 
   7   8  -1 2933.84 454.345   3 
   7   8   1 3325.09 519.577   3 
   7   8  -2-11.8747 206.809   3 
   7   8   2-50.2360 202.511   3 
  -7   8  -2-25.4248 272.649   1 
   7   8   3 62.1011 218.229   3 
  -7   8  -3-322.091 264.182   1 
   7   8  -4 10028.0 825.595   3 
   7   8   4 10785.1 878.564   3 
  -7   8   4 12330.8 879.922   2 
  -7   8  -4 11389.6 938.544   1 
   7   8  -5 12876.6 946.407   3 
  -7  -8   5 11351.1 490.513   1 
   7   8   5 12623.0 952.840   3 
  -7   8   5 10544.0 811.929   2 
  -7   8  -5 10852.9 938.282   1 
   7   8  -6 18387.8 1116.87   3 
   7   8   6 17572.0 1136.18   3 
  -7   8   6 17565.8 1094.34   2 
  -7   8  -6 18278.2 1210.14   1 
  -7  -8   6 16417.6 523.829   1 
   7   8  -7 18483.7 1131.76   3 
   7   8   7 17795.3 1147.73   3 
  -7   8   7 18338.3 1140.56   2 
  -7   8  -7 17786.3 1209.16   1 
  -7   8   8 2869.91 466.965   2 
   7   8   8 3203.10 501.521   3 
  -7   8  -8 3154.05 520.745   1 
  -7   8  -9 400.820 217.480   1 
  -7   8   9 1022.85 310.920   2 
   7   8   9 892.279 336.054   3 
   7  -8  10 5568.15 506.599   3 
  -7   8  10 5113.25 634.556   2 
  -7   8 -10 5840.72 734.090   1 
   7   8  10 5809.34 688.058   3 
  -7   8 -11 11529.9 1017.96   1 
   7  -8  11 12256.6 741.875   3 
   7   8  11 11443.8 956.285   3 
  -7   8  11 11378.3 948.781   2 
   7  -8  12 21303.2 980.428   3 
  -7   8 -12 20630.7 1382.63   1 
   7   8  12 21546.6 1326.09   3 
  -7   8  12 20926.8 1312.20   2 
   7  -8  13 3628.74 402.701   3 
  -7   8  13 3577.59 570.078   2 
   7   8  13 4545.59 640.953   3 
  -7   8 -13 3142.40 551.014   1 
  -7   8 -14 2171.80 504.995   1 
  -7   8  14 1978.89 429.067   2 
   7  -8  14 2422.75 325.293   3 
   7   8  14 2250.69 475.813   3 
  -7   8 -15 5594.01 756.979   1 
   7  -8  15 6060.85 508.800   3 
  -7   8  15 5950.70 748.854   2 
   7   8  15 5178.78 700.501   3 
  -7   8 -16 1396.36 392.433   1 
   7   8  16 1089.04 312.592   3 
  -7   8 -17 3119.34 615.063   1 
   7   8  17 3339.26 587.953   3 
   7   8  18 13513.1 1126.24   3 
  -7   8 -18 12820.1 1174.67   1 
  -7   8 -19 4470.49 688.862   1 
   7   8  19 3790.78 636.515   3 
   7   8  20 1205.97 363.996   3 
  -7   8 -20 979.381 424.790   1 
   7   8  21 1207.49 385.097   3 
  -7   8 -21 1542.16 479.119   1 
   7   8  22 140.621 253.499   3 
  -7   8 -22 841.078 452.996   1 
   7   8  23 15542.3 1282.28   3 
   7   9   0 16.5045 211.031   3 
   7   9  -1 2505.79 441.289   3 
   7   9   1 2026.22 409.650   3 
  -7  -9   2 189.352 62.5079   2 
   7   9  -2 250.321 242.717   3 
   7   9   2 35.2186 193.909   3 
   7   9  -3 1793.52 393.989   3 
   7   9   3 1941.78 409.408   3 
  -7   9  -3 1536.44 375.972   1 
   7   9  -4 2168.47 375.252   3 
   7   9   4 2016.97 416.579   3 
  -7   9   4 1570.14 337.531   2 
  -7   9  -4 1406.25 326.250   1 
  -7   9  -5 2686.22 470.441   1 
   7   9  -5 2006.66 408.777   3 
   7   9   5 2121.18 413.521   3 
  -7   9   5 2042.36 363.312   2 
  -7   9  -6 1350.47 389.595   1 
   7   9  -6 1869.37 394.637   3 
  -7  -9   6 1497.82 145.850   1 
   7   9   6 1569.68 378.408   3 
  -7   9   6 1263.47 322.612   2 
   7   9  -7 2568.09 451.296   3 
  -7   9  -7 2246.22 472.050   1 
   7   9   7 1929.27 405.281   3 
  -7   9   7 1956.06 408.025   2 
  -7   9   8 895.572 269.836   2 
   7   9  -8 787.586 276.488   3 
  -7   9  -8 225.413 193.742   1 
   7   9   8-27.3332 217.654   3 
  -7   9   9 96.8190 259.146   2 
   7   9  -9 197.851 216.434   3 
   7   9   9 363.294 292.583   3 
  -7   9  -9-11.6152 316.322   1 
  -7   9  10 100.850 287.358   2 
   7  -9  10 290.158 140.271   3 
   7   9  10 398.653 240.341   3 
  -7   9 -10 590.113 283.993   1 
  -7   9 -11 492.901 300.958   1 
  -7   9  11 207.703 209.697   2 
   7  -9  11 94.6902 136.326   3 
   7   9  11 232.996 267.541   3 
  -7   9 -12 4460.75 652.749   1 
   7  -9  12 4635.52 450.842   3 
  -7   9  12 4828.79 670.344   2 
   7   9  12 5303.58 675.214   3 
  -7   9  13-350.582 305.362   2 
  -7   9 -13-17.3067 215.191   1 
   7  -9  13-43.7565 134.169   3 
   7   9  13-103.538 257.067   3 
  -7   9  14 579.300 274.638   2 
   7  -9  14 1083.22 214.067   3 
  -7   9 -14 773.877 320.265   1 
   7   9  14 1179.97 424.569   3 
  -7   9  15 433.195 326.369   2 
  -7   9 -15 299.032 309.385   1 
   7   9  15 306.181 260.235   3 
  -7   9  16 138.541 272.466   2 
  -7   9 -16 997.954 402.231   1 
   7   9  16 829.845 465.893   3 
  -7   9  17 81.6071 235.588   2 
   7   9  17 103.313 227.744   3 
  -7   9 -17-158.773 307.253   1 
  -7   9 -18 49.0712 312.290   1 
   7   9  18 603.373 297.870   3 
   7   9  19-124.209 271.304   3 
  -7   9 -19-26.5233 302.322   1 
   7   9  20 354.877 239.582   3 
  -7   9 -20 104.590 302.265   1 
   7   9  21 593.061 391.933   3 
  -7   9 -21 96.2896 295.214   1 
   7   9  22 915.062 353.402   3 
   7  10   0-193.636 213.206   3 
   7  10  -1 1533.15 354.509   3 
   7  10   1 1869.79 405.744   3 
   7  10   2 4302.79 576.534   3 
   7  10  -2 3956.95 550.686   3 
   7  10  -3 3591.60 495.413   3 
   7  10   3 3181.55 494.990   3 
  -7 -10   3 3721.05 272.505   2 
   7  10  -4 545.042 227.182   3 
   7  10   4 201.445 234.517   3 
   7  10  -5 18.3635 181.449   3 
  -7  10   5-304.532 277.385   2 
   7  10   5-79.6628 215.260   3 
  -7  10  -5 117.827 292.600   1 
  -7 -10   6 3488.25 218.155   1 
   7  10  -6 3687.14 530.898   3 
   7  10   6 3293.86 518.905   3 
  -7  10   6 3212.47 515.938   2 
  -7  10  -6 3771.45 573.171   1 
   7  10  -7 15042.7 1038.30   3 
   7  10   7 14743.5 1088.05   3 
  -7  10   7 17211.7 1159.37   2 
  -7  10  -7 17415.7 1259.85   1 
  -7  10  -8 3734.81 574.126   1 
   7  10  -8 3723.32 527.936   3 
   7  10   8 3750.35 563.936   3 
  -7  10   8 3277.10 517.737   2 
  -7  10   9 505.628 291.061   2 
   7  10  -9 392.871 253.995   3 
  -7  10  -9-42.7813 295.348   1 
   7  10   9 898.072 383.569   3 
   7 -10  10 6542.13 528.207   3 
   7  10 -10 6434.70 695.483   3 
  -7  10 -10 6253.70 764.604   1 
   7  10  10 6490.30 758.193   3 
  -7  10  10 5735.73 715.174   2 
  -7  10  11 1696.66 419.440   2 
   7  10 -11 1416.20 359.214   3 
   7 -10  11 2218.30 314.252   3 
  -7  10 -11 1893.65 445.636   1 
   7  10  11 1248.56 382.624   3 
   7  10 -12 9272.78 825.613   3 
   7 -10  12 10744.8 661.070   3 
   7  10  12 10586.5 977.969   3 
  -7  10 -12 10752.5 1039.33   1 
  -7  10  12 10186.9 953.407   2 
   7 -10  13 10015.5 620.401   3 
   7  10  13 9865.77 940.023   3 
  -7  10 -13 10252.0 1021.42   1 
  -7  10  13 9960.77 958.469   2 
   7  10  14 18971.8 1331.77   3 
  -7  10  14 19084.7 1345.73   2 
  -7  10 -14 17707.6 1359.24   1 
  -7  10 -15 595.569 259.270   1 
  -7  10  15 866.189 379.903   2 
   7  10  15 1127.30 425.641   3 
  -7  10  16 11545.2 1099.02   2 
  -7  10 -16 11172.3 1105.93   1 
   7  10  16 10599.1 1023.39   3 
  -7  10  17 14862.8 1275.92   2 
  -7  10 -17 14689.3 1278.83   1 
   7  10  17 16283.1 1274.90   3 
  -7  10  18 13668.5 1225.66   2 
  -7  10 -18 11736.8 1155.34   1 
   7  10  18 14018.4 1203.17   3 
   7  10  19 207.723 298.039   3 
  -7  10  19 601.437 424.911   2 
  -7  10 -19 510.574 342.586   1 
  -7  10  20 9918.93 1118.05   2 
  -7  10 -20 8915.45 1051.61   1 
   7  10  20 9000.27 1006.45   3 
   7  10  21 265.746 299.635   3 
  -7  10 -21 146.730 313.642   1 
   7  11   0-72.5610 212.164   3 
   7  11  -1 1384.22 352.597   3 
   7  11   1 1085.16 311.795   3 
   7  11  -2 3397.33 526.721   3 
   7  11   2 2541.61 460.631   3 
   7  11  -3 3190.33 480.374   3 
   7  11   3 2559.42 459.715   3 
   7  11  -4 142.266 200.313   3 
   7  11   4 240.463 172.030   3 
   7  11  -5 1883.90 410.762   3 
   7  11   5 1973.87 412.757   3 
   7  11  -6 892.244 341.800   3 
  -7  11  -6 380.785 287.245   1 
   7  11   6 720.329 329.928   3 
  -7  11   6 563.401 275.193   2 
   7  11  -7 493.667 273.786   3 
   7  11   7 584.423 296.403   3 
  -7  11   7 335.752 210.439   2 
  -7  11  -7 349.905 191.224   1 
  -7  11  -8 762.451 389.370   1 
   7  11  -8 197.244 232.525   3 
   7  11   8 13.9520 194.059   3 
  -7  11   8 329.886 248.425   2 
  -7  11  -9 865.750 424.392   1 
   7  11  -9 385.681 253.124   3 
   7  11   9 1095.91 402.318   3 
  -7  11   9 451.386 281.751   2 
  -7  11  10 284.617 228.260   2 
  -7  11 -10 1018.23 397.328   1 
   7 -11  10 820.584 217.578   3 
   7  11 -10 596.297 260.567   3 
   7  11  10 515.776 274.057   3 
  -7  11  11-455.252 344.076   2 
   7 -11  11 209.340 119.330   3 
   7  11 -11 166.507 211.769   3 
  -7  11 -11-66.6784 240.361   1 
   7  11  11 246.543 181.360   3 
  -7  11  12 397.494 243.899   2 
   7  11 -12 170.785 191.885   3 
   7 -11  12 213.554 128.482   3 
  -7  11 -12 859.644 390.877   1 
   7  11  12 825.117 285.422   3 
  -7  11  13 3824.49 621.207   2 
   7  11 -13 5839.40 668.135   3 
  -7  11 -13 5850.51 810.568   1 
   7  11  13 4464.05 644.858   3 
  -7  11  14 468.950 263.557   2 
   7  11 -14 395.844 265.120   3 
  -7  11 -14 218.017 285.574   1 
   7  11  14 649.286 375.899   3 
  -7  11  15 1644.05 424.311   2 
   7  11 -15 2321.29 442.243   3 
  -7  11 -15 1768.04 484.002   1 
   7  11  15 1062.98 424.624   3 
   7  11 -16 92.2021 215.308   3 
  -7  11  16-307.377 335.027   2 
  -7  11 -16-268.949 395.310   1 
   7  11  16 154.192 253.003   3 
   7  11 -17 7.15008 202.218   3 
  -7  11  17 515.742 381.908   2 
  -7  11 -17-629.904 426.710   1 
   7  11  17 540.300 393.568   3 
   7  11  18 4128.32 707.858   3 
  -7  11 -18 3439.54 660.152   1 
   7  11 -18 3631.36 560.985   3 
  -7  11  18 3752.13 678.590   2 
   7  11  19 1095.79 425.077   3 
  -7  11 -19-1.41845 352.926   1 
  -7  11  19 687.792 395.154   2 
   7  11  20 1468.32 428.663   3 
  -7  11 -20 1631.87 494.061   1 
  -7  11  20 1948.51 571.168   2 
   7  12   0 591.700 367.761   3 
   7  12  -1 18029.4 1181.49   3 
   7  12   1 19159.7 1232.92   3 
   7  12  -2 25148.5 1392.04   3 
   7  12   2 25772.7 1443.09   3 
   7  12  -3-118.859 203.377   3 
   7  12   3 498.533 325.107   3 
   7  12  -4 220.232 218.833   3 
   7  12   4 527.281 307.040   3 
   7  12  -5 416.770 216.160   3 
   7  12   5 584.100 252.584   3 
   7  12  -6 95.8467 176.454   3 
   7  12   6 191.807 251.393   3 
   7  12  -7 1977.50 423.641   3 
   7  12   7 2239.20 530.171   3 
  -7  12   7 1173.23 363.631   2 
   7  12  -8 25517.5 1388.24   3 
  -7  12  -8 26271.1 1616.83   1 
   7  12   8 25325.1 1501.85   3 
  -7  12   8 25311.4 1531.86   2 
   7  12  -9 106.962 207.299   3 
   7  12   9 411.486 300.894   3 
  -7  12   9 765.341 381.951   2 
  -7  12  -9 217.607 277.994   1 
  -7  12 -10 2543.38 547.863   1 
   7  12 -10 3108.86 499.133   3 
   7  12  10 3531.52 597.814   3 
  -7  12  10 3165.93 616.936   2 
  -7  12  11-386.038 395.028   2 
  -7  12 -11-200.041 327.980   1 
   7  12 -11-160.235 249.710   3 
   7  12  11 69.3973 225.027   3 
  -7  12  12-543.547 408.598   2 
  -7  12 -12 152.761 263.719   1 
   7  12 -12 82.5144 212.044   3 
   7  12  12 63.1880 256.642   3 
  -7  12  13 1039.36 330.213   2 
  -7  12 -13 384.892 314.681   1 
   7  12 -13 1155.42 381.013   3 
   7  12  13 697.037 355.637   3 
   7  12 -14 14730.2 1047.07   3 
  -7  12 -14 14364.3 1272.82   1 
   7  12  14 15771.9 1263.45   3 
  -7  12  14 16268.1 1305.92   2 
  -7  12  15 3225.33 626.315   2 
   7  12 -15 3500.97 551.229   3 
  -7  12 -15 2951.85 646.128   1 
   7  12  15 3278.25 641.573   3 
   7  12 -16 7873.56 779.816   3 
  -7  12 -16 6463.92 868.029   1 
  -7  12  16 7168.25 903.747   2 
   7  12  16 7198.48 880.292   3 
   7  12  17 463.813 305.613   3 
  -7  12  17 99.5062 236.847   2 
   7  12 -17-194.339 212.792   3 
  -7  12 -17-572.363 381.855   1 
   7  12  18 330.422 349.295   3 
   7  12 -18 559.210 249.995   3 
  -7  12  18 252.188 227.281   2 
   7  12 -19-142.195 227.259   3 
  -7  12  19 85.8443 290.503   2 
  -7  12 -19 24.8630 333.477   1 
   7  13   0 398.898 277.177   3 
   7  13  -1 8865.94 846.008   3 
   7  13   1 7087.06 775.733   3 
   7  13  -2 1228.40 385.101   3 
   7  13   2 2231.56 448.299   3 
   7  13  -3 5941.75 690.852   3 
   7  13   3 7064.90 788.766   3 
   7  13  -4 697.417 350.521   3 
   7  13   4 795.953 328.493   3 
   7  13  -5 11740.1 953.159   3 
   7  13   5 13753.8 1084.35   3 
   7  13  -6 2713.23 486.080   3 
   7  13   6 3021.19 544.944   3 
   7  13  -7 6323.73 707.710   3 
  -7  13   7 8173.76 876.543   2 
   7  13   7 7286.05 832.242   3 
   7  13  -8 187.612 230.054   3 
  -7  13   8 165.142 202.461   2 
   7  13   8 584.873 325.011   3 
   7  13  -9 5797.45 682.228   3 
  -7  13   9 5931.17 801.544   2 
   7  13   9 6075.16 789.811   3 
   7  13 -10 1691.52 393.614   3 
  -7  13 -10 1385.61 437.138   1 
   7  13  10 1159.40 397.979   3 
  -7  13  10 1002.39 351.404   2 
   7  13 -11 4078.48 573.850   3 
   7  13  11 5056.54 727.375   3 
  -7  13 -11 3439.12 657.984   1 
  -7  13  11 3759.28 653.088   2 
   7  13 -12 0.89571 208.248   3 
   7  13  12 135.906 337.858   3 
  -7  13 -12 70.6895 289.168   1 
  -7  13  12-426.089 393.436   2 
  -7  13  13 249.782 250.229   2 
  -7  13 -13 1283.92 380.117   1 
   7  13 -13 723.700 229.121   3 
   7  13  13 823.575 407.903   3 
  -7  13  14 480.763 347.569   2 
  -7  13 -14 544.572 357.171   1 
   7  13 -14 844.969 334.009   3 
   7  13  14 904.787 386.831   3 
  -7  13  15-185.740 300.281   2 
  -7  13 -15-294.502 299.604   1 
   7  13 -15 769.272 311.031   3 
   7  13  15 322.849 277.867   3 
   7  13  16 664.819 396.998   3 
  -7  13  16 47.2067 375.790   2 
  -7  13 -16-26.9242 338.679   1 
   7  13 -16 405.825 241.916   3 
   7  13  17-89.4593 404.903   3 
  -7  13  17-69.8825 350.463   2 
  -7  13 -17-222.692 346.170   1 
   7  13 -17 163.809 194.719   3 
   7  14   0 82.7224 250.081   3 
   7  14  -1 3755.06 558.443   3 
   7  14   1 4372.58 608.777   3 
   7  14  -2 710.801 291.780   3 
   7  14   2 1568.09 394.888   3 
   7  14  -3-63.1121 218.199   3 
   7  14   3 113.576 259.634   3 
   7  14  -4 5173.77 645.086   3 
   7  14   4 6151.21 750.591   3 
   7  14  -5 2131.92 452.130   3 
   7  14   5 3074.54 549.081   3 
   7  14  -6 361.772 290.831   3 
   7  14   6 423.060 324.944   3 
   7  14  -7 11275.4 946.046   3 
   7  14   7 11432.0 1052.77   3 
   7  14  -8 21655.6 1300.83   3 
  -7  14   8 23157.9 1522.22   2 
   7  14   8 19775.5 1393.55   3 
   7  14  -9 1707.89 429.886   3 
  -7  14   9 1013.20 385.436   2 
   7  14   9 1410.89 468.874   3 
   7  14 -10 18666.5 1210.78   3 
  -7  14  10 19263.5 1414.95   2 
   7  14  10 19290.7 1378.82   3 
   7  14 -11-98.3919 239.454   3 
  -7  14  11-321.791 324.449   2 
   7  14  11 33.7924 308.060   3 
   7  14 -12 2999.12 497.280   3 
  -7  14 -12 3121.51 602.539   1 
  -7  14  12 3693.55 656.547   2 
   7  14  12 3279.56 588.551   3 
   7  14 -13 1269.99 335.810   3 
  -7  14 -13 1599.51 503.819   1 
  -7  14  13 1463.86 440.366   2 
   7  14  13 1214.95 463.255   3 
  -7  14  14 7400.50 956.189   2 
   7  14 -14 6411.55 706.593   3 
   7  14  14 7507.58 913.525   3 
  -7  14 -14 6222.77 857.216   1 
   7  14  15 174.967 281.534   3 
  -7  14  15 80.2768 290.774   2 
   7  14 -15 167.770 230.030   3 
  -7  14 -15 272.842 340.957   1 
  -7  14 -16 7665.06 1003.67   1 
   7  14 -16 7814.60 778.568   3 
  -7  14  16 8752.54 1054.78   2 
   7  15   0 194.192 297.904   3 
   7  15  -1 3193.97 560.168   3 
   7  15   1 2901.26 538.095   3 
   7  15  -2 924.578 319.195   3 
   7  15   2 1291.43 393.109   3 
   7  15  -3 630.939 286.497   3 
   7  15   3 1705.56 428.035   3 
   7  15  -4 1656.28 392.706   3 
   7  15   4 1140.20 432.313   3 
   7  15  -5-128.052 267.132   3 
   7  15   5-163.047 270.217   3 
   7  15  -6 488.589 274.472   3 
   7  15   6 27.2625 245.024   3 
   7  15  -7 1109.77 348.705   3 
   7  15   7 1365.86 370.681   3 
   7  15  -8-114.387 249.183   3 
   7  15   8 566.390 342.134   3 
   7  15  -9 396.956 266.364   3 
   7  15   9 259.988 282.932   3 
   7  15 -10 262.037 255.097   3 
  -7  15  10 924.441 453.971   2 
   7  15  10 308.384 208.026   3 
   7  15 -11-355.363 279.972   3 
  -7  15  11 483.736 285.391   2 
   7  15  11 499.114 253.672   3 
   7  15 -12-248.154 270.945   3 
  -7  15  12 53.6316 368.918   2 
   7  15  12-266.221 352.363   3 
   7  15 -13 284.864 226.713   3 
  -7  15  13-14.0887 322.140   2 
   7  15  13 248.466 322.382   3 
   7  15 -14-126.514 196.979   3 
  -7  15  14-99.8233 346.562   2 
   7  16   0-71.8424 316.658   3 
   7  16  -1-203.367 235.929   3 
   7  16   1 49.9980 260.212   3 
   7  16  -2 625.184 315.582   3 
   7  16   2 852.792 354.228   3 
   7  16  -3 2933.44 544.303   3 
   7  16   3 2166.95 462.083   3 
   7  16  -4 3488.88 564.149   3 
   7  16   4 3545.79 601.028   3 
   7  16  -5 296.525 292.398   3 
   7  16   5 352.312 292.913   3 
   7  16  -6 7777.31 828.315   3 
   7  16   6 6327.04 821.985   3 
   7  16  -7 4368.98 640.886   3 
   7  16   7 3845.54 673.064   3 
   7  16  -8 11177.8 967.693   3 
   7  16   8 11164.6 1090.43   3 
   7  16  -9 1452.78 409.283   3 
   7  16   9 1157.31 425.288   3 
   7  16 -10 18304.3 1222.78   3 
   7  16  10 17360.5 1373.18   3 
   7  16 -11 3008.86 527.023   3 
  -7  16  11 3644.64 713.499   2 
   7  16  11 3470.13 693.037   3 
   7  16 -12 6210.21 720.163   3 
  -7  16  12 5899.62 875.740   2 
   7  16 -13-78.4819 248.466   3 
   7  17   0 193.475 224.676   3 
   7  17  -1 479.069 214.349   3 
   7  17   1 1041.18 376.751   3 
   7  17  -2 429.176 251.979   3 
   7  17   2 256.541 242.945   3 
   7  17  -3 1726.40 421.306   3 
   7  17   3 1989.56 471.865   3 
   7  17  -4 154.378 196.944   3 
   7  17   4 477.377 321.692   3 
   7  17  -5 3082.67 557.851   3 
   7  17   5 3465.33 633.402   3 
   7  17  -6 149.511 294.615   3 
   7  17   6 375.456 380.432   3 
   7  17  -7 4943.52 661.706   3 
   7  17   7 5457.18 764.142   3 
   7  17  -8 542.367 327.035   3 
   7  17   8 550.461 407.286   3 
   7  17  -9 2332.41 470.973   3 
   7  17   9 1697.19 499.149   3 
   7  17 -10 2473.00 477.960   3 
   7  17 -11 209.857 210.364   3 
   7  18   0 133.168 239.386   3 
   7  18  -1-140.328 253.578   3 
   7  18   1 883.741 395.849   3 
   7  18  -2-91.0248 281.726   3 
   7  18   2 316.414 311.239   3 
   7  18  -3-32.1945 233.900   3 
   7  18   3 66.9824 245.150   3 
   7  18  -4 2700.16 517.783   3 
   7  18   4 3695.24 635.709   3 
   7  18  -5-88.0903 271.377   3 
   7  18   5 64.6528 223.127   3 
   7  18  -6 2596.77 526.854   3 
   7  18   6 3035.69 607.639   3 
   7  18  -7 461.364 288.194   3 
   7  18   7 327.321 309.141   3 
   7  18  -8 885.354 321.989   3 
   7  18  -9 360.441 279.340   3 
   7  18 -10 931.042 341.660   3 
   7  19   0 150.046 263.377   3 
   7  19  -1 2786.41 541.654   3 
   7  19   1 2555.61 537.641   3 
   7  19  -2-201.345 300.057   3 
   7  19   2-189.890 300.065   3 
   7  19  -3 436.515 282.614   3 
   7  19   3 888.015 358.490   3 
   7  19  -4-113.963 225.188   3 
   7  19   4 102.399 218.920   3 
   7  19  -5-76.7500 220.401   3 
   7  19  -6 483.398 363.264   3 
   7  19  -7-51.9687 232.282   3 
   7  19  -8-151.087 206.956   3 
   7  20   0-121.583 269.927   3 
   7  20  -1 573.826 284.776   3 
   7  20   1 1489.41 442.868   3 
   7  20  -2 693.573 333.832   3 
   7  20  -3-269.879 302.726   3 
   7  20  -4 569.293 254.327   3 
   7  20  -5 770.366 391.491   3 
   7  20  -6 1224.44 378.187   3 
   7  21  -2-105.350 351.229   3 
   7  21  -3-241.356 298.138   3 
  -8   0   0 6502.63 604.835   1 
  -8   0  -1 147.792 190.358   1 
  -8   0   1-31.0594 177.666   1 
  -8   0   2-148.804 196.728   1 
  -8   0  -2-181.762 226.037   1 
  -8   0   3-228.998 186.422   1 
  -8   0   3-223.052 145.858   2 
  -8   0  -3 225.791 196.165   1 
   8   0   4 4240.07 530.632   3 
  -8   0   4 3620.79 422.213   1 
  -8   0   4 4213.86 388.268   2 
   8   0   5-84.0186 213.869   3 
   8   0   6 763.871 359.653   3 
   8   0   7-69.3428 184.124   3 
   8   0   8 2413.07 445.823   3 
   8   0   9-275.246 255.065   3 
   8   0  10-151.317 225.434   3 
   8   0  11 126.094 197.768   3 
   8   0  12 128.588 213.351   3 
   8   0  13 68.7373 200.936   3 
   8   0  14 213.233 204.836   3 
   8   0  15 623.421 329.826   3 
   8   0  16 30541.3 1478.80   3 
   8   0  17-52.0117 178.925   3 
   8   0  18 6651.92 707.965   3 
   8   0  19 181.121 196.124   3 
   8   0  20 866.934 279.871   3 
   8   0  21-444.706 283.143   3 
   8   0  22 2682.56 470.067   3 
   8   0  23-10.5053 214.734   3 
  -8  -1   0 33241.8 1357.16   1 
  -8   1   0 32081.2 1389.63   1 
  -8  -1   1 3954.87 464.403   1 
  -8   1  -1 3649.75 494.679   1 
  -8   1   1 4570.68 523.570   1 
  -8  -1  -1 3585.17 444.291   1 
  -8   1  -2 311.089 251.891   1 
  -8   1   2 89.2323 170.304   1 
  -8  -1  -2 87.4675 177.661   1 
  -8  -1   2 98.0391 158.453   1 
   8   1   3 382.686 203.976   3 
  -8  -1   3 493.288 160.489   1 
  -8   1  -3 615.717 245.606   1 
  -8   1   3 457.461 167.101   2 
  -8  -1   3 318.636 99.7659   2 
  -8   1   3 328.974 166.528   1 
  -8  -1   4 2925.58 372.646   1 
   8   1   4 2980.43 483.068   3 
  -8   1  -4 2495.45 441.610   1 
  -8  -1   4 2774.68 294.606   2 
  -8   1  -5 1894.54 380.994   1 
   8  -1   5 2206.67 415.808   3 
  -8  -1   5 2252.05 284.173   2 
   8   1   5 1705.20 365.965   3 
   8  -1   6 33117.2 1477.24   3 
   8   1   6 33580.4 1512.37   3 
  -8   1   7 5688.51 531.695   2 
   8  -1   7 5227.98 609.408   3 
   8   1   7 5759.58 649.798   3 
   8  -1   8 15585.2 1003.63   3 
   8   1   8 15983.6 1034.62   3 
   8  -1   9 941.202 319.685   3 
   8   1   9 606.437 273.798   3 
   8  -1  10 701.958 141.048   2 
   8  -1  10 1123.58 291.580   3 
   8   1  10 612.866 232.638   3 
   8  -1  11 17453.2 1066.06   3 
   8   1  11 17669.2 1102.01   3 
   8  -1  12 3725.59 510.823   3 
   8   1  12 3841.92 542.005   3 
   8  -1  13 22639.9 1233.66   3 
   8   1  13 24160.2 1314.33   3 
   8  -1  14 1593.08 376.881   3 
   8   1  14 1393.76 375.692   3 
   8  -1  15 7078.66 697.550   3 
   8   1  15 5873.36 654.625   3 
   8  -1  16 735.013 307.872   3 
   8   1  16 750.951 306.250   3 
   8  -1  17 2251.27 430.774   3 
   8   1  17 3176.47 529.375   3 
   8  -1  18 1094.41 359.297   3 
   8   1  18 864.752 321.217   3 
   8  -1  19 12819.1 952.775   3 
   8   1  19 11814.8 969.587   3 
   8  -1  20 17.1817 219.531   3 
   8   1  20 304.129 266.847   3 
   8  -1  21-80.5180 186.117   3 
   8   1  21-1.92476 219.733   3 
   8  -1  22 63.2695 234.976   3 
   8   1  22 209.417 242.548   3 
   8   1  23 241.791 232.176   3 
   8   1  24 376.258 311.381   3 
  -8   2   0 48391.1 1752.48   1 
  -8  -2   0 42266.9 1521.88   1 
  -8  -2   1 125.102 165.665   1 
  -8   2  -1 16.2967 201.864   1 
  -8   2   1-134.604 218.316   1 
  -8  -2  -1 132.551 194.735   1 
  -8  -2   2 20819.1 997.514   1 
  -8   2  -2 20572.9 1152.87   1 
   8   2   2 21526.2 1212.77   3 
  -8   2   2 20518.8 1089.61   1 
   8   2   3 3197.23 491.053   3 
  -8   2   3 3856.96 470.112   1 
  -8  -2   3 3650.88 296.018   2 
  -8  -2   3 3695.56 418.544   1 
  -8   2  -3 4200.23 535.838   1 
   8   2   4 69687.5 2247.57   3 
  -8   2  -4 63845.7 2176.14   1 
  -8  -2   4 66662.7 1801.83   1 
  -8  -2   4 66630.5 1501.32   2 
   8   2   5 886.656 349.489   3 
  -8  -2   5 552.369 190.083   2 
  -8  -2   5 446.016 199.558   1 
  -8   2  -5 307.360 249.640   1 
   8  -2   6 65270.6 2092.52   3 
   8   2   6 68102.4 2229.17   3 
  -8   2  -6 62294.4 2182.28   1 
  -8   2   6 63383.0 1845.91   2 
   8  -2   7 1902.55 402.642   3 
  -8   2   7 1259.51 266.340   2 
   8   2   7 1580.18 430.059   3 
  -8   2  -7 1774.88 438.625   1 
  -8   2   8 8666.27 689.285   2 
   8  -2   8 9396.58 777.445   3 
   8   2   8 9449.84 815.557   3 
   8  -2   9 25727.3 1277.58   3 
   8   2   9 24340.3 1317.51   3 
   8  -2   9 24837.8 913.760   2 
   8  -2  10 8072.11 713.332   3 
   8   2  10 8497.10 779.409   3 
   8  -2  10 7922.83 516.411   2 
   8  -2  11 690.839 251.176   3 
   8   2  11 240.055 176.413   3 
   8  -2  12 6020.38 613.659   3 
   8   2  12 6602.87 699.286   3 
   8  -2  13 772.886 242.752   3 
   8   2  13 206.221 193.605   3 
   8  -2  14 194.533 164.458   3 
   8   2  14 125.981 204.434   3 
   8  -2  15 40.2543 194.459   3 
   8   2  15-39.0894 231.822   3 
   8  -2  16 2271.89 395.920   3 
   8   2  16 1435.80 305.169   3 
   8  -2  17 422.834 181.869   3 
   8   2  17 570.119 282.116   3 
   8  -2  18 1005.21 314.876   3 
   8   2  18 1242.84 342.589   3 
   8  -2  19 433.831 275.494   3 
   8   2  19 2.87538 246.994   3 
   8  -2  20 1170.98 305.265   3 
   8   2  20 1206.12 370.900   3 
   8  -2  21 2234.81 425.971   3 
   8   2  21 2883.54 537.455   3 
   8   2  22 192.453 277.053   3 
   8   2  23 765.433 307.074   3 
   8   2  24 2267.05 491.767   3 
  -8   3   0 3236.80 478.797   1 
  -8  -3   0 2549.10 370.263   1 
  -8   3   1 1935.94 362.598   1 
   8   3   1 1555.59 346.409   3 
  -8   3  -1 1899.40 391.717   1 
  -8  -3   1 1634.76 279.473   1 
   8   3   2 4292.89 551.943   3 
  -8  -3   2 3777.70 410.901   1 
  -8   3   2 3337.88 458.088   1 
  -8   3  -2 4701.78 568.694   1 
  -8  -3   3 2448.17 328.099   1 
   8   3   3 2955.43 474.191   3 
  -8   3  -3 2974.59 485.567   1 
  -8  -3   3 2194.88 212.003   2 
   8   3   4 3045.96 478.633   3 
  -8  -3   4 3441.50 384.515   1 
  -8   3  -4 3258.68 521.698   1 
  -8  -3   4 3219.02 279.952   2 
  -8   3   5-258.296 254.069   2 
  -8   3  -5 330.198 290.823   1 
   8   3   5 426.796 271.148   3 
  -8  -3   5-29.5113 101.620   2 
  -8  -3   5-103.492 167.178   1 
   8   3   6 37872.7 1661.93   3 
  -8   3   6 37112.5 1413.47   2 
  -8   3  -6 35118.8 1636.18   1 
  -8   3   7 2499.30 379.077   2 
   8  -3   7 1974.57 378.318   3 
   8   3   7 3285.61 511.312   3 
  -8   3  -8 10.0376 186.960   1 
   8  -3   8 74.6680 175.421   3 
  -8   3   8 318.638 201.637   2 
   8  -3   8 153.536 105.431   2 
   8   3   8 50.9095 231.854   3 
   8  -3   9 701.377 174.815   2 
   8  -3   9 804.880 283.213   3 
  -8   3   9 626.269 252.556   2 
   8   3   9 669.697 282.614   3 
  -8   3  -9 158.307 269.172   1 
  -8   3  10 23514.9 1218.51   2 
   8  -3  10 22092.3 1174.11   3 
   8   3  10 23274.9 1299.34   3 
   8  -3  10 21081.7 918.706   2 
   8  -3  11 1872.22 385.602   3 
   8   3  11 2157.92 445.046   3 
   8  -3  12 1760.52 358.379   3 
   8   3  12 1684.00 392.975   3 
   8  -3  13-223.234 222.476   3 
   8   3  13 467.073 258.179   3 
   8  -3  14 2593.51 416.565   3 
   8   3  14 2528.61 449.960   3 
   8  -3  15 924.448 252.081   3 
   8   3  15 694.583 288.041   3 
   8  -3  16 5729.03 604.149   3 
   8   3  16 5634.96 683.869   3 
   8  -3  17 690.707 254.481   3 
   8   3  17 621.611 251.750   3 
   8  -3  18 359.938 210.863   3 
   8   3  18 616.445 272.555   3 
   8  -3  19 83.3379 175.493   3 
   8   3  19 215.244 209.106   3 
   8  -3  20 8493.13 756.672   3 
   8   3  20 8284.08 851.165   3 
   8   3  21 658.814 326.368   3 
   8   3  22 656.101 349.101   3 
   8   3  23 97.8827 228.928   3 
   8   3  24 5992.61 772.163   3 
   8   3  25-46.9190 220.187   3 
  -8   4   0-0.78677 266.407   1 
   8   4   0-371.232 308.929   3 
   8   4   1 258.663 215.607   3 
  -8  -4   1 315.180 178.684   1 
  -8   4  -1-169.473 289.387   1 
  -8   4   1 104.296 201.584   1 
   8   4   2 5777.68 649.394   3 
  -8   4  -2 4851.71 589.137   1 
  -8  -4   2 6164.78 507.275   1 
   8   4   3 629.059 288.958   3 
  -8  -4   3 96.0533 127.861   1 
  -8  -4   3 397.374 95.4479   2 
  -8   4  -3 472.091 240.809   1 
  -8   4  -4 44837.3 1857.97   1 
   8   4   4 47351.5 1863.04   3 
  -8   4   4 44429.1 1550.08   2 
  -8  -4   4 47046.3 1402.12   1 
  -8  -4   4 45832.2 1082.24   2 
  -8   4  -5 13731.0 1011.96   1 
   8   4   5 13328.8 993.816   3 
  -8   4   5 12258.2 818.669   2 
  -8  -4   5 12734.3 665.046   1 
   8   4   6 19011.5 1178.71   3 
  -8   4  -6 19262.6 1222.40   1 
  -8   4   6 21241.0 1097.25   2 
  -8   4   7-282.216 230.256   2 
   8  -4   7 206.541 192.814   3 
  -8   4  -7 533.739 300.353   1 
   8   4   7 160.310 175.662   3 
   8  -4   8 7666.51 675.806   3 
   8   4   8 7638.22 764.451   3 
  -8   4  -8 7315.12 784.228   1 
  -8   4   8 8296.17 704.779   2 
   8  -4   8 9266.65 623.378   2 
  -8   4  -9 3014.98 535.710   1 
   8  -4   9 2465.38 396.131   3 
  -8   4   9 3893.54 510.261   2 
   8   4   9 3335.17 496.336   3 
   8  -4   9 3392.04 383.048   2 
  -8   4  10 14517.2 1005.26   2 
   8  -4  10 14295.4 921.410   3 
  -8   4 -10 12336.1 1020.89   1 
   8   4  10 14902.4 1043.67   3 
   8  -4  10 14646.8 806.951   2 
  -8   4 -11-36.6579 266.920   1 
   8  -4  11 82.3802 185.480   3 
  -8   4  11 356.899 261.776   2 
   8   4  11-18.7934 243.385   3 
   8  -4  12 4535.32 518.365   3 
   8   4  12 2965.05 478.535   3 
  -8   4 -12 3853.56 622.216   1 
   8  -4  13 1488.42 328.517   3 
   8   4  13 1408.86 345.896   3 
   8  -4  14 9.09132 182.608   3 
   8   4  14-71.5341 192.686   3 
   8  -4  15 1013.81 306.021   3 
   8   4  15 498.096 274.443   3 
   8  -4  16 2915.80 443.340   3 
   8   4  16 2731.17 502.809   3 
   8  -4  17 198.094 196.621   3 
   8   4  17 550.145 312.670   3 
   8  -4  18 836.507 279.086   3 
   8   4  18 105.988 241.211   3 
   8  -4  19 2525.55 421.935   3 
   8   4  19 2365.52 490.145   3 
   8   4  20 1305.85 370.335   3 
   8   4  21-348.071 329.421   3 
   8   4  22 4488.47 686.851   3 
   8   4  23 827.106 396.945   3 
   8   4  24 4595.96 705.213   3 
   8   4  25 277.687 247.961   3 
   8   5   0 17299.5 1115.59   3 
  -8   5   0 13017.5 956.462   1 
  -8   5  -1 2569.56 432.164   1 
   8   5  -1 3482.63 518.657   3 
   8   5   1 3077.01 487.496   3 
   8   5  -2 8641.85 804.256   3 
  -8  -5   2 8532.52 585.638   1 
   8   5   2 9665.18 841.007   3 
  -8   5  -2 8073.35 784.894   1 
  -8  -5   3 1296.17 237.316   1 
   8   5   3 1520.99 385.054   3 
  -8   5  -3 1607.21 354.331   1 
  -8  -5   3 1320.40 125.550   2 
  -8  -5   4 3118.67 243.695   2 
   8   5   4 3256.05 514.671   3 
  -8   5   4 3435.33 447.652   2 
  -8   5  -4 3531.71 534.922   1 
  -8  -5   4 3773.20 374.642   1 
  -8   5  -5 3341.71 527.291   1 
  -8  -5   5 2739.23 293.319   1 
   8   5   5 3086.33 504.654   3 
  -8   5   5 3157.86 430.681   2 
  -8   5  -6 11319.0 964.409   1 
   8   5   6 10148.8 880.911   3 
  -8   5   6 11881.4 844.798   2 
  -8   5   7 15.4386 225.934   2 
   8  -5   7 309.365 142.003   2 
   8   5   7 305.921 209.771   3 
  -8   5  -7 13.5387 240.235   1 
  -8   5  -8 2340.79 456.597   1 
  -8   5   8 2520.54 434.204   2 
   8  -5   8 2904.66 409.991   3 
   8  -5   8 2939.16 382.658   2 
   8   5   8 3179.12 510.375   3 
   8  -5   9 3795.57 471.758   3 
  -8   5  -9 4255.15 623.652   1 
   8   5   9 4434.68 597.538   3 
   8  -5   9 3859.36 429.638   2 
  -8   5   9 5047.35 588.930   2 
   8  -5  10 6862.47 636.441   3 
   8   5  10 7859.38 782.903   3 
   8  -5  10 8033.31 631.124   2 
  -8   5 -10 8327.97 860.413   1 
  -8   5  10 6452.06 677.835   2 
  -8   5 -11 3192.11 571.090   1 
   8  -5  11 4243.30 502.847   3 
  -8   5  11 3371.99 502.023   2 
   8   5  11 3811.84 557.560   3 
   8  -5  12 3912.11 491.694   3 
  -8   5  12 4251.13 586.209   2 
  -8   5 -12 4350.72 644.038   1 
   8   5  12 4095.74 577.671   3 
  -8   5 -13 2983.10 549.581   1 
   8  -5  13 2678.55 410.430   3 
   8   5  13 2691.99 500.096   3 
   8  -5  14 2578.88 394.025   3 
   8   5  14 2204.03 456.262   3 
  -8   5 -14 2232.75 460.969   1 
   8  -5  15 4337.10 517.530   3 
  -8   5 -15 3103.53 568.583   1 
   8   5  15 4417.35 623.762   3 
   8  -5  16 2751.84 407.227   3 
   8   5  16 2989.45 531.747   3 
   8  -5  17-22.3783 191.374   3 
   8   5  17 332.911 315.228   3 
   8  -5  18 301.144 238.768   3 
   8   5  18 303.966 262.137   3 
   8   5  19-135.204 242.365   3 
   8   5  20 6216.37 768.781   3 
   8   5  21 3254.98 588.631   3 
   8   5  22 2899.75 596.481   3 
   8   5  23 162.509 273.102   3 
   8   5  24 2417.03 531.572   3 
   8   6   0 2272.87 452.109   3 
  -8   6   0 1919.12 395.286   1 
   8   6  -1 13.8778 210.754   3 
   8   6   1 79.2788 204.168   3 
  -8   6  -1-410.465 363.171   1 
   8   6  -2 18701.6 1193.87   3 
   8   6   2 17526.6 1141.87   3 
  -8   6  -2 18987.2 1222.91   1 
   8   6  -3 641.202 292.288   3 
  -8   6  -3 75.7971 210.837   1 
   8   6   3 876.341 288.527   3 
  -8  -6   3 283.351 147.293   1 
  -8  -6   4 11936.8 628.743   1 
   8   6   4 11302.8 923.534   3 
  -8   6   4 13049.1 872.417   2 
  -8   6  -4 10902.6 940.840   1 
   8   6   5 808.641 326.493   3 
  -8  -6   5 913.985 189.869   1 
  -8   6  -5 937.684 272.899   1 
  -8   6   5 1001.16 273.961   2 
   8   6   6 137.518 236.899   3 
  -8  -6   6 74.9939 92.8065   1 
  -8   6   6 132.164 186.932   2 
  -8   6  -6 280.496 269.977   1 
  -8   6   7 3584.59 489.757   2 
  -8   6  -7 2518.03 478.978   1 
   8  -6   7 2948.17 382.410   2 
   8   6   7 2957.22 498.101   3 
  -8   6   8 413.758 199.100   2 
   8  -6   8 90.2227 202.100   3 
   8  -6   8 833.929 232.158   2 
   8   6   8 852.133 278.966   3 
  -8   6  -8 358.187 261.760   1 
  -8   6   9-129.704 253.495   2 
   8  -6   9-132.955 200.916   2 
   8  -6   9-170.717 168.982   3 
   8   6   9-158.348 317.156   3 
  -8   6  -9 280.678 260.824   1 
  -8   6 -10 241.882 310.306   1 
  -8   6  10 636.902 239.616   2 
   8  -6  10 509.768 239.852   3 
   8   6  10 492.018 221.110   3 
  -8   6 -11 2163.65 518.266   1 
  -8   6  11 1567.50 404.936   2 
   8  -6  11 1172.73 302.403   3 
   8   6  11 2021.71 458.353   3 
  -8   6  12-311.640 248.695   2 
   8  -6  12 244.177 215.623   3 
  -8   6 -12 280.922 262.142   1 
   8   6  12 507.524 252.698   3 
  -8   6  13 2470.71 484.885   2 
   8  -6  13 3036.97 418.897   3 
   8   6  13 3170.83 511.226   3 
  -8   6 -13 2918.73 573.825   1 
  -8   6 -14 755.133 368.380   1 
  -8   6  14 524.949 281.274   2 
   8  -6  14 546.786 228.936   3 
   8   6  14 778.181 303.780   3 
  -8   6 -15 752.895 363.438   1 
   8  -6  15 1364.03 299.315   3 
   8   6  15 1226.70 390.930   3 
   8  -6  16 7000.54 622.194   3 
  -8   6 -16 4962.62 746.267   1 
   8   6  16 5894.36 735.358   3 
  -8   6 -17 4180.91 717.433   1 
   8  -6  17 5133.95 528.838   3 
   8   6  17 4286.70 638.401   3 
  -8   6 -18 7476.75 911.733   1 
   8   6  18 7409.82 854.999   3 
  -8   6 -19 303.693 301.449   1 
   8   6  19 481.447 329.666   3 
  -8   6 -20 2183.75 582.578   1 
   8   6  20 954.251 330.254   3 
   8   6  21 473.301 311.734   3 
   8   6  22 1507.22 447.537   3 
   8   6  23-249.121 394.420   3 
   8   7   0 4016.23 561.859   3 
   8   7  -1 4924.76 613.148   3 
   8   7   1 4804.62 614.338   3 
  -8   7  -1 4317.87 574.722   1 
   8   7  -2 262.086 240.453   3 
   8   7   2-96.6677 228.179   3 
  -8   7  -2-104.858 286.800   1 
  -8   7  -3 124.145 233.643   1 
   8   7  -3 203.693 241.754   3 
   8   7   3 178.749 263.748   3 
  -8  -7   4 394.571 147.794   1 
  -8   7  -4 83.7016 261.601   1 
   8   7   4 631.402 279.725   3 
   8   7  -5 10819.0 913.073   3 
   8   7   5 11324.7 957.273   3 
  -8   7   5 11544.6 874.865   2 
  -8   7  -5 12065.5 1008.71   1 
  -8  -7   5 11056.0 550.397   1 
   8  -7   6 2033.34 362.520   2 
   8   7   6 2684.60 486.535   3 
  -8   7  -6 1760.93 428.880   1 
  -8   7   6 1635.59 358.588   2 
  -8  -7   6 1726.95 196.194   1 
   8   7   7 729.323 267.054   3 
  -8   7  -7 265.462 242.797   1 
  -8   7   7 653.170 279.863   2 
  -8   7  -8 122.284 242.206   1 
  -8   7   8 79.2008 192.200   2 
   8   7   8 670.015 269.555   3 
  -8   7   9 1664.63 359.240   2 
   8  -7   9 2082.35 357.137   3 
  -8   7  -9 1639.68 445.541   1 
   8   7   9 1791.59 405.893   3 
  -8   7  10 3646.32 541.217   2 
   8  -7  10 3410.61 452.342   3 
  -8   7 -10 2661.84 520.196   1 
   8   7  10 3849.77 570.675   3 
   8  -7  11 8799.52 706.670   3 
  -8   7 -11 8567.93 916.732   1 
   8   7  11 7601.00 818.259   3 
  -8   7  11 8396.75 833.042   2 
  -8   7  12 1535.83 374.826   2 
   8  -7  12 1352.87 287.277   3 
   8   7  12 1764.34 421.110   3 
  -8   7 -12 1243.93 410.616   1 
  -8   7 -13 654.853 390.211   1 
  -8   7  13 334.539 299.794   2 
   8  -7  13 887.426 257.880   3 
   8   7  13 316.647 217.675   3 
  -8   7 -14 194.101 269.594   1 
  -8   7  14 967.387 335.510   2 
   8  -7  14 633.101 214.336   3 
   8   7  14 1420.24 435.299   3 
  -8   7  15 2485.00 525.233   2 
  -8   7 -15 2510.64 559.381   1 
   8  -7  15 3291.18 453.347   3 
   8   7  15 2861.50 517.084   3 
  -8   7  16 1166.98 415.864   2 
  -8   7 -16 1821.99 486.012   1 
   8   7  16 488.188 359.773   3 
  -8   7 -17 4216.62 706.490   1 
   8   7  17 3275.39 570.966   3 
  -8   7 -18 658.263 354.289   1 
   8   7  18 1994.03 514.821   3 
  -8   7 -19 602.776 327.588   1 
   8   7  19 647.530 324.428   3 
  -8   7 -20-193.822 303.936   1 
   8   7  20 138.299 269.413   3 
   8   7  21 4208.56 665.293   3 
   8   7  22 296.202 302.044   3 
   8   8   0 34336.8 1652.85   3 
   8   8  -1 218.106 236.050   3 
   8   8   1 471.167 345.945   3 
   8   8  -2 32366.7 1591.60   3 
   8   8   2 29584.1 1546.19   3 
  -8   8  -2 29052.7 1564.52   1 
   8   8  -3 212.856 208.067   3 
   8   8   3 255.168 227.222   3 
  -8   8  -3-208.858 237.354   1 
  -8  -8   4 12095.1 605.778   1 
   8   8  -4 11855.8 961.296   3 
   8   8   4 11073.8 942.472   3 
  -8   8  -4 11540.3 1006.10   1 
  -8   8  -5 1036.90 372.855   1 
   8   8  -5 1244.51 375.020   3 
  -8  -8   5 963.728 169.498   1 
   8   8   5 1896.93 448.455   3 
  -8   8   5 1326.44 327.543   2 
   8   8  -6 14501.1 1064.70   3 
   8   8   6 11801.4 998.151   3 
  -8   8   6 12663.2 967.877   2 
  -8  -8   6 12818.9 500.825   1 
  -8   8  -6 12904.4 1077.42   1 
   8   8  -7 609.810 349.899   3 
  -8   8  -7 461.106 330.319   1 
   8   8   7 1008.00 374.020   3 
  -8   8   7 813.062 324.528   2 
   8   8   8 4134.55 592.072   3 
  -8   8  -8 4312.35 631.766   1 
  -8   8   8 4364.86 590.056   2 
  -8   8   9-319.598 329.900   2 
   8  -8   9-154.752 178.420   3 
   8   8   9-246.882 260.817   3 
  -8   8  -9 251.303 285.124   1 
  -8   8 -10 5196.57 724.758   1 
  -8   8  10 5259.75 656.360   2 
   8  -8  10 6055.45 574.749   3 
   8   8  10 5634.78 707.861   3 
  -8   8  11-258.622 306.291   2 
  -8   8 -11 35.6286 224.359   1 
   8  -8  11 95.0709 186.109   3 
   8   8  11 96.4479 176.734   3 
  -8   8  12 3083.50 551.170   2 
  -8   8 -12 2179.85 511.045   1 
   8  -8  12 2723.79 382.459   3 
   8   8  12 2666.27 512.121   3 
  -8   8  13-4.26838 233.162   2 
   8  -8  13 369.865 194.189   3 
  -8   8 -13-129.999 218.569   1 
   8   8  13 380.058 237.025   3 
   8  -8  14-51.1624 140.971   3 
  -8   8 -14-74.5551 301.874   1 
   8   8  14 183.897 240.725   3 
  -8   8  15 3956.97 669.337   2 
   8   8  15 4147.59 639.746   3 
  -8   8 -15 3296.66 636.999   1 
  -8   8 -16 2454.44 566.380   1 
  -8   8  16 2191.40 531.839   2 
   8   8  16 2134.84 471.994   3 
  -8   8 -17 138.382 229.895   1 
  -8   8  17 146.438 291.076   2 
   8   8  17 331.466 244.718   3 
  -8   8 -18-66.6472 294.641   1 
  -8   8  18 106.537 337.094   2 
   8   8  18 287.385 257.909   3 
  -8   8 -19-193.863 279.040   1 
  -8   8  19 383.860 288.697   2 
   8   8  19-4.93537 285.852   3 
   8   8  20 674.187 382.692   3 
   8   8  21 2515.98 570.703   3 
   8   9   0 3447.00 549.519   3 
   8   9  -1 2896.04 520.308   3 
   8   9   1 2237.47 459.046   3 
   8   9  -2 134.469 234.736   3 
   8   9   2 389.728 275.595   3 
   8   9  -3 1112.19 346.820   3 
   8   9   3 1386.27 383.745   3 
   8   9  -4 118.832 230.462   3 
   8   9   4 52.4659 173.357   3 
  -8   9  -4-59.8173 311.316   1 
  -8  -9   5 54.5721 85.5862   1 
   8   9  -5 29.9902 298.627   3 
   8   9   5 357.885 275.381   3 
  -8   9  -5-209.116 222.203   1 
   8   9  -6 25970.3 1448.82   3 
   8   9   6 26368.5 1496.55   3 
  -8   9   6 26120.0 1420.16   2 
  -8   9  -6 24728.8 1550.38   1 
  -8   9  -7 3206.54 589.511   1 
   8   9  -7 3327.27 555.545   3 
   8   9   7 3728.57 598.895   3 
  -8   9   7 3265.62 537.306   2 
   8   9  -8 2549.44 488.055   3 
  -8   9  -8 2926.90 570.957   1 
   8   9   8 3643.62 575.959   3 
  -8   9   8 2592.21 505.572   2 
   8   9  -9 257.925 278.314   3 
  -8   9  -9 123.840 210.514   1 
   8   9   9 51.8824 211.457   3 
  -8   9   9-66.5224 253.842   2 
  -8   9  10 4268.37 625.700   2 
   8   9 -10 4316.88 590.509   3 
   8  -9  10 4361.75 477.045   3 
   8   9  10 3684.72 589.860   3 
  -8   9 -10 5765.35 804.211   1 
  -8   9  11 1.06319 247.508   2 
   8  -9  11 617.925 220.270   3 
   8   9  11 294.991 235.100   3 
  -8   9 -11 546.048 331.591   1 
  -8   9  12 2002.37 479.642   2 
   8  -9  12 1575.41 289.821   3 
   8   9  12 1408.79 417.309   3 
  -8   9 -12 1329.09 454.188   1 
  -8   9 -13 240.335 273.468   1 
  -8   9  13 1251.77 379.793   2 
   8  -9  13 978.835 262.984   3 
   8   9  13 449.006 293.699   3 
  -8   9  14 1047.22 336.776   2 
  -8   9 -14 1747.18 506.393   1 
   8   9  14 1702.09 418.835   3 
  -8   9  15 1249.88 420.684   2 
  -8   9 -15 1043.00 397.473   1 
   8   9  15 803.638 317.344   3 
  -8   9  16 3704.82 644.477   2 
  -8   9 -16 3522.15 644.658   1 
   8   9  16 3234.82 553.708   3 
  -8   9  17 215.493 336.687   2 
  -8   9 -17 53.3290 304.962   1 
   8   9  17-145.559 233.370   3 
  -8   9  18 732.087 399.586   2 
  -8   9 -18 711.988 384.627   1 
   8   9  18 664.160 362.943   3 
  -8   9  19 1167.38 433.777   2 
   8   9  19 338.979 228.281   3 
  -8   9  20 4364.69 780.244   2 
   8  10   0 5254.52 665.815   3 
   8  10  -1 32.9410 250.547   3 
   8  10   1-24.4938 231.755   3 
   8  10  -2 1546.54 375.918   3 
   8  10   2 1833.47 434.390   3 
   8  10  -3 515.190 299.736   3 
   8  10   3 601.314 325.525   3 
   8  10  -4 1454.90 387.479   3 
   8  10   4 1210.00 408.194   3 
   8  10  -5 71.0902 238.618   3 
  -8  10  -5-208.574 301.587   1 
   8  10   5 82.6387 215.785   3 
   8  10  -6 215.893 262.805   3 
  -8  10   6 473.430 241.764   2 
   8  10   6-30.8768 275.996   3 
  -8  10  -6 379.439 330.229   1 
  -8  10  -7 335.993 302.851   1 
   8  10  -7 107.739 213.566   3 
  -8  10   7 38.6247 253.155   2 
  -8  10  -8 1235.80 400.566   1 
   8  10  -8 1552.97 397.126   3 
   8  10   8 1520.77 410.106   3 
  -8  10   8 1019.81 306.197   2 
  -8  10  -9 107.725 279.218   1 
   8  10  -9 9.65723 195.121   3 
   8  10   9-102.755 196.763   3 
  -8  10   9 347.085 273.478   2 
   8 -10  10 1440.26 291.454   3 
   8  10 -10 1155.46 375.256   3 
  -8  10 -10 1169.59 362.847   1 
   8  10  10 1365.86 388.080   3 
  -8  10  10 1137.99 332.769   2 
  -8  10  11-244.158 313.621   2 
   8  10 -11 320.828 250.314   3 
   8 -10  11 161.548 157.224   3 
  -8  10 -11 108.265 320.807   1 
   8  10  11-131.209 300.262   3 
  -8  10  12-398.482 364.320   2 
   8  10 -12-298.520 277.581   3 
   8 -10  12 5.77884 159.728   3 
  -8  10 -12-33.8027 316.237   1 
   8  10  12 241.043 250.025   3 
  -8  10  13-123.082 269.160   2 
   8  10 -13-128.843 287.519   3 
  -8  10 -13 140.716 324.309   1 
   8  10  13-148.102 284.749   3 
   8  10 -14 197.787 254.610   3 
  -8  10  14-287.454 331.170   2 
   8  10  14 353.660 278.703   3 
  -8  10 -14-221.162 413.872   1 
  -8  10  15 472.754 282.940   2 
   8  10  15 1405.02 425.076   3 
  -8  10 -15 913.559 393.979   1 
  -8  10 -16-231.186 313.145   1 
  -8  10  16-15.4860 321.081   2 
   8  10  16 163.057 299.062   3 
  -8  10 -17 89.8762 333.747   1 
  -8  10  17-252.187 316.263   2 
   8  10  17 7.63776 292.440   3 
  -8  10  18 1277.78 477.241   2 
   8  10  18 1824.21 488.368   3 
  -8  10  19 187.817 280.405   2 
   8  11   0 760.338 261.056   3 
   8  11  -1-163.602 256.382   3 
   8  11   1-104.083 202.611   3 
   8  11  -2 4520.17 643.348   3 
   8  11   2 3583.24 594.274   3 
   8  11  -3 430.170 281.615   3 
   8  11   3 933.459 370.784   3 
   8  11  -4 18970.5 1266.75   3 
   8  11   4 20891.9 1370.04   3 
   8  11  -5 44.4356 210.934   3 
   8  11   5 347.622 274.639   3 
   8  11  -6 621.629 297.270   3 
   8  11   6-11.7403 217.800   3 
   8  11  -7 681.170 276.795   3 
  -8  11   7 387.254 279.773   2 
   8  11   7 896.853 388.852   3 
  -8  11  -7 748.924 285.803   1 
   8  11  -8 219.314 228.463   3 
   8  11   8 191.257 234.276   3 
  -8  11   8 231.433 289.605   2 
  -8  11  -8-81.0222 310.683   1 
  -8  11  -9 511.027 343.758   1 
   8  11  -9 21.6890 200.927   3 
   8  11   9 95.8037 243.470   3 
  -8  11   9-107.748 223.684   2 
  -8  11 -10 5399.00 767.366   1 
   8 -11  10 5052.90 516.943   3 
   8  11 -10 3889.06 595.520   3 
   8  11  10 4758.96 698.993   3 
  -8  11  10 4640.07 689.382   2 
  -8  11 -11 3245.07 617.863   1 
   8  11 -11 2377.76 503.721   3 
   8  11  11 3447.49 612.583   3 
  -8  11  11 2169.68 452.176   2 
  -8  11  12 377.126 284.233   2 
   8  11 -12 408.374 298.785   3 
  -8  11 -12 926.050 446.232   1 
   8  11  12 101.108 230.233   3 
  -8  11  13 350.760 273.966   2 
   8  11 -13 45.0635 268.342   3 
  -8  11 -13-302.824 371.630   1 
   8  11  13 196.008 261.949   3 
  -8  11  14 1609.39 486.190   2 
   8  11 -14 1450.22 412.234   3 
  -8  11 -14 1118.56 385.629   1 
   8  11  14 1484.32 427.103   3 
  -8  11  15 1861.43 535.200   2 
   8  11 -15 1044.42 351.789   3 
  -8  11 -15 1382.46 385.345   1 
   8  11  15 1195.44 418.254   3 
  -8  11  16-342.839 352.326   2 
   8  11 -16 217.651 221.472   3 
  -8  11 -16-296.679 381.998   1 
   8  11  16 417.264 302.374   3 
  -8  11  17-317.979 321.666   2 
   8  11 -17-51.4884 216.308   3 
   8  11 -18 1108.58 341.711   3 
  -8  11  18 1592.19 535.953   2 
   8  11 -19 1096.70 369.587   3 
   8  12   0 17466.3 1237.17   3 
   8  12  -1-236.371 279.275   3 
   8  12   1 92.0483 251.202   3 
   8  12  -2 6120.55 739.796   3 
   8  12   2 6400.98 766.847   3 
   8  12  -3-188.108 221.212   3 
   8  12   3 91.9884 310.332   3 
   8  12  -4 3966.10 601.795   3 
   8  12   4 4593.32 662.036   3 
   8  12  -5 249.442 311.498   3 
   8  12   5-204.267 288.322   3 
   8  12  -6 13467.0 1067.85   3 
   8  12   6 13215.3 1111.72   3 
   8  12  -7 592.811 334.220   3 
   8  12   7 323.326 307.436   3 
   8  12  -8 9819.16 925.796   3 
  -8  12  -8 8538.37 985.839   1 
   8  12   8 9382.13 968.683   3 
  -8  12   8 10230.2 990.965   2 
   8  12  -9 499.208 347.528   3 
   8  12   9 227.435 265.663   3 
  -8  12   9 478.007 294.888   2 
  -8  12  -9 323.836 371.382   1 
   8  12 -10 2641.49 520.382   3 
   8  12  10 3111.18 615.844   3 
  -8  12  10 2741.11 537.740   2 
  -8  12 -10 2696.03 608.539   1 
  -8  12 -11 344.913 358.719   1 
   8  12 -11 266.414 311.047   3 
   8  12  11 160.248 224.233   3 
  -8  12  11 141.108 248.853   2 
   8  12 -12 8203.78 855.730   3 
  -8  12  12 9628.74 1047.16   2 
   8  12  12 9843.93 1021.27   3 
  -8  12 -12 7423.06 963.671   1 
  -8  12  13 132.611 312.316   2 
  -8  12 -13 382.334 404.035   1 
   8  12 -13 421.670 293.608   3 
   8  12  13-158.633 252.793   3 
  -8  12  14 5581.27 839.577   2 
  -8  12 -14 6006.85 890.292   1 
   8  12 -14 4944.44 656.061   3 
   8  12  14 6638.50 841.686   3 
  -8  12  15 576.767 333.573   2 
   8  12 -15 484.955 264.067   3 
  -8  12 -15 144.823 357.400   1 
   8  12  15 153.036 305.078   3 
  -8  12  16 415.962 362.031   2 
   8  12 -16 100.782 239.246   3 
  -8  12  17 74.4812 284.508   2 
   8  12 -17 517.305 312.430   3 
   8  12 -18-443.240 324.769   3 
   8  13   0 184.705 247.189   3 
   8  13  -1 2044.23 467.314   3 
   8  13   1 979.985 307.173   3 
   8  13  -2-43.1934 223.538   3 
   8  13   2-244.552 266.607   3 
   8  13  -3-122.379 236.856   3 
   8  13   3 164.554 216.348   3 
   8  13  -4 851.070 368.466   3 
   8  13   4 848.063 344.629   3 
   8  13  -5 6181.14 770.875   3 
   8  13   5 6699.29 803.923   3 
   8  13  -6 498.501 305.004   3 
   8  13   6 227.767 257.905   3 
   8  13  -7 115.446 275.074   3 
   8  13   7 290.661 313.777   3 
   8  13  -8 328.124 323.615   3 
   8  13   8 458.924 336.395   3 
   8  13  -9 4804.36 642.976   3 
  -8  13   9 5545.43 774.978   2 
   8  13   9 5485.61 768.368   3 
   8  13 -10 1380.45 416.231   3 
  -8  13 -10 832.877 390.856   1 
  -8  13  10 1159.51 395.298   2 
   8  13  10 417.751 319.770   3 
   8  13 -11-169.126 282.692   3 
  -8  13  11 125.853 262.356   2 
   8  13  11 65.4994 238.639   3 
  -8  13 -11-453.787 395.296   1 
   8  13 -12 436.372 281.627   3 
   8  13  12-68.0653 260.561   3 
  -8  13  12-26.6218 300.191   2 
  -8  13 -12 273.424 316.590   1 
   8  13 -13 1618.01 432.692   3 
   8  13  13 596.614 304.019   3 
  -8  13  13 2356.75 610.295   2 
  -8  13 -13 1764.57 534.102   1 
   8  13 -14 786.769 355.117   3 
  -8  13  14 35.4954 277.818   2 
  -8  13  15 1805.24 540.995   2 
   8  13 -15 2915.58 562.496   3 
   8  13 -16 755.213 348.210   3 
   8  13 -17 1158.11 372.764   3 
   8  14   0 21437.3 1419.50   3 
   8  14  -1 759.902 385.151   3 
   8  14   1 553.461 398.668   3 
   8  14  -2 12325.5 1073.78   3 
   8  14   2 13420.1 1136.08   3 
   8  14  -3 2240.13 480.554   3 
   8  14   3 2391.23 488.214   3 
   8  14  -4 1824.49 458.935   3 
   8  14   4 1333.80 407.403   3 
   8  14  -5 2238.34 496.274   3 
   8  14   5 2839.90 560.878   3 
   8  14  -6 453.406 275.457   3 
   8  14   6 597.002 323.777   3 
   8  14  -7 356.305 297.886   3 
   8  14   7-4.91463 303.960   3 
   8  14  -8 212.475 275.102   3 
   8  14   8-100.913 306.210   3 
   8  14  -9-154.422 308.252   3 
   8  14   9 207.656 339.030   3 
   8  14 -10 242.125 233.108   3 
  -8  14  10 454.258 331.011   2 
   8  14  10 954.296 433.349   3 
   8  14 -11 2075.45 452.118   3 
  -8  14  11 2200.70 527.480   2 
   8  14  11 2500.69 579.178   3 
   8  14 -12 570.587 306.481   3 
  -8  14  12 139.330 295.473   2 
   8  14 -13-254.334 287.023   3 
  -8  14  13-91.6444 313.523   2 
   8  14 -14-226.050 214.633   3 
  -8  14  14-64.7402 349.533   2 
   8  14 -15-62.9252 237.775   3 
   8  14 -16 150.028 288.800   3 
   8  15   0 6629.62 817.003   3 
   8  15  -1-74.7575 253.011   3 
   8  15   1-3.48946 221.948   3 
   8  15  -2 838.911 360.822   3 
   8  15   2 906.615 383.149   3 
   8  15  -3-184.085 295.643   3 
   8  15   3 364.276 307.158   3 
   8  15  -4 305.481 272.689   3 
   8  15   4 788.806 388.517   3 
   8  15  -5 689.955 342.082   3 
   8  15   5 761.306 395.894   3 
   8  15  -6 6626.88 792.376   3 
   8  15   6 5956.76 812.936   3 
   8  15  -7 816.862 364.013   3 
   8  15   7 418.680 300.750   3 
   8  15  -8-246.467 244.116   3 
   8  15   8 40.1088 277.240   3 
   8  15  -9 4157.13 646.195   3 
   8  15   9 5383.21 811.172   3 
   8  15 -10 3217.59 561.311   3 
   8  15 -11-89.5526 232.412   3 
  -8  15  11 75.2309 328.819   2 
   8  15 -12 221.809 246.579   3 
  -8  15  12 388.486 388.687   2 
   8  15 -13 1730.55 423.612   3 
   8  15 -14 265.456 245.499   3 
   8  16   0 763.896 383.893   3 
   8  16  -1 283.556 248.373   3 
   8  16   1-168.235 243.517   3 
   8  16  -2 3368.49 578.707   3 
   8  16   2 3437.80 617.015   3 
   8  16  -3 63.0885 318.941   3 
   8  16   3 231.410 301.938   3 
   8  16  -4 2020.66 488.412   3 
   8  16   4 2771.89 594.937   3 
   8  16  -5 47.3183 283.413   3 
   8  16   5-140.986 278.364   3 
   8  16  -6 100.941 245.711   3 
   8  16   6-314.801 321.506   3 
   8  16  -7 14.4756 229.094   3 
   8  16  -8 81.8378 237.872   3 
   8  16  -9 118.497 217.443   3 
   8  16 -10-284.587 325.185   3 
   8  16 -11 1408.63 404.076   3 
   8  16 -12 385.918 233.403   3 
   8  16 -13-508.225 323.406   3 
   8  17   0 10948.9 1071.20   3 
   8  17  -1 905.739 380.171   3 
   8  17   1 789.386 468.813   3 
   8  17  -2 1581.76 433.418   3 
   8  17   2 1576.94 450.083   3 
   8  17  -3 1086.01 369.984   3 
   8  17   3 1207.06 439.900   3 
   8  17  -4-143.566 272.863   3 
   8  17   4 68.0837 285.485   3 
   8  17  -5 6052.11 771.566   3 
   8  17  -6 4026.80 669.012   3 
   8  17  -7-1.13868 248.838   3 
   8  17  -8 1333.90 393.287   3 
   8  17  -9 651.858 320.461   3 
   8  17 -10-218.600 257.735   3 
   8  17 -11 49.8129 246.110   3 
   8  18   0 7980.29 941.529   3 
   8  18  -1 501.197 390.823   3 
   8  18  -2 14602.6 1236.89   3 
   8  18  -3 735.218 398.939   3 
   8  18  -4 17243.1 1337.44   3 
   8  18  -5 481.438 345.471   3 
   8  18  -6 8352.84 914.635   3 
   8  18  -7 605.467 349.739   3 
   8  18  -8 4473.53 683.334   3 
   8  18  -9 1934.84 530.221   3 
   8  19  -5 181.212 268.583   3 
   8  19  -6 2339.26 543.954   3 
  -9   0   0-180.146 194.594   1 
  -9   0  -1 461.924 257.895   1 
  -9   0   1 139.329 178.055   1 
  -9   0  -2 6944.99 699.371   1 
  -9   0   2 6619.36 628.031   1 
  -9   0  -3 46.5265 240.110   1 
  -9   0   3 64.3754 220.569   1 
   9   0   4 13806.8 1020.91   3 
  -9   0  -4 13335.7 995.894   1 
   9   0   5 571.680 317.692   3 
  -9   0  -5 665.091 372.832   1 
   9   0   6 22115.9 1294.63   3 
  -9   0  -6 21090.4 1273.71   1 
  -9   0   7-143.815 166.523   2 
   9   0   7 213.569 242.828   3 
  -9   0   8 1469.07 307.436   2 
   9   0   8 1510.91 378.670   3 
   9   0   9 77.6709 201.541   3 
  -9   0   9-149.331 198.053   2 
   9   0  10 7309.44 744.048   3 
   9   0  11 237.393 243.279   3 
   9   0  12 10194.7 900.125   3 
   9   0  13 117.009 256.514   3 
   9   0  14 2405.53 470.780   3 
   9   0  15 610.158 341.894   3 
   9   0  16 4049.30 581.630   3 
   9   0  17 133.848 229.045   3 
   9   0  18 13873.1 1071.16   3 
   9   0  19-10.8834 236.318   3 
   9   0  20 3196.47 532.882   3 
   9   0  21-196.180 203.729   3 
  -9  -1   0-64.3836 183.869   1 
  -9   1   0 40.3451 173.514   1 
  -9  -1  -1 6528.69 659.792   1 
  -9   1   1 6509.50 653.499   1 
  -9  -1   1 6661.40 629.304   1 
  -9   1  -1 6640.33 674.530   1 
  -9   1  -2 4947.54 608.522   1 
  -9   1   2 5243.64 585.432   1 
  -9  -1  -2 5750.64 622.077   1 
  -9  -1   2 5447.62 567.948   1 
  -9  -1  -3 5000.60 585.348   1 
   9   1   3 4809.25 621.966   3 
  -9   1  -3 5896.25 660.550   1 
  -9   1   3 5562.70 599.332   1 
  -9  -1   3 5292.48 545.365   1 
  -9   1  -4 714.434 326.592   1 
   9   1   4 1887.56 456.429   3 
  -9  -1   4 844.379 251.914   1 
  -9  -1  -4 1638.08 400.953   1 
  -9  -1   4 648.272 159.533   2 
   9  -1   5 22092.8 1290.33   3 
   9   1   5 22515.2 1318.99   3 
  -9  -1   5 21856.0 902.720   2 
  -9   1  -5 23514.0 1345.35   1 
  -9   1  -6 6699.71 752.990   1 
   9  -1   6 7272.80 745.903   3 
   9   1   6 6933.68 748.546   3 
  -9   1   6 6809.55 571.889   2 
  -9   1   7 571.130 216.489   2 
   9  -1   7 570.308 310.423   3 
   9   1   7 116.668 293.865   3 
  -9   1  -7 264.693 268.343   1 
  -9  -1   8 10999.9 723.520   2 
   9  -1   8 9340.86 836.322   3 
   9   1   8 11101.9 933.170   3 
  -9   1   8 8968.13 688.405   2 
  -9   1   9 594.552 205.931   2 
   9  -1   9 804.023 331.370   3 
   9   1   9 202.455 201.876   3 
   9  -1  10-455.111 282.805   3 
  -9   1  10 101.035 168.414   2 
   9   1  10-309.602 281.168   3 
   9  -1  11 292.814 215.159   3 
   9   1  11 333.335 247.545   3 
   9  -1  12 1989.85 457.083   3 
   9   1  12 2008.89 417.008   3 
   9  -1  13 5982.86 683.668   3 
   9   1  13 5444.58 663.869   3 
   9  -1  14-132.640 179.548   3 
   9   1  14 200.773 247.782   3 
   9  -1  15 7597.03 775.333   3 
   9   1  15 7167.00 772.753   3 
   9  -1  16 1219.91 387.717   3 
   9   1  16 1342.68 389.855   3 
   9  -1  17 123.958 211.115   3 
   9   1  17 263.275 270.226   3 
   9  -1  18 3981.20 602.389   3 
   9   1  18 3668.33 600.664   3 
   9  -1  19 316.548 256.737   3 
   9   1  19 293.140 274.782   3 
   9  -1  20 1107.31 352.723   3 
   9   1  20 1036.44 401.674   3 
   9   1  21 1295.61 396.389   3 
   9   1  22 71.7057 206.140   3 
  -9   2   0-399.607 301.378   1 
  -9  -2   0-196.295 198.210   1 
  -9   2   1 90.1347 192.161   1 
  -9  -2   1 107.367 160.377   1 
  -9  -2  -1-83.9720 218.955   1 
  -9   2  -1 335.167 232.059   1 
  -9   2  -2-350.032 322.828   1 
   9   2   2 119.017 256.330   3 
  -9  -2  -2-71.8288 211.246   1 
  -9  -2   2-175.428 184.205   1 
  -9   2   2-126.020 169.747   1 
  -9   2  -3 5577.03 648.113   1 
   9   2   3 5878.92 670.298   3 
  -9  -2  -3 5110.55 584.117   1 
  -9  -2   3 5506.57 536.782   1 
   9   2   4 20667.2 1275.39   3 
  -9   2  -4 18752.8 1229.04   1 
  -9  -2   4 18999.4 734.352   2 
  -9  -2   4 18756.9 971.730   1 
  -9   2  -5 4599.89 647.594   1 
   9  -2   5 5082.99 636.622   3 
   9   2   5 6068.40 710.498   3 
  -9   2   5 5115.54 501.332   2 
  -9  -2   5 5592.62 426.217   2 
   9  -2   6 25133.5 1348.40   3 
   9   2   6 24326.1 1389.13   3 
  -9   2  -6 23864.1 1395.60   1 
  -9   2   6 25263.7 1155.24   2 
   9  -2   7 5936.26 672.589   3 
   9   2   7 5062.09 649.460   3 
  -9   2   7 5869.53 566.043   2 
  -9   2  -7 5640.15 700.298   1 
  -9   2   8 50.5175 168.917   2 
   9  -2   8 118.721 211.325   3 
   9   2   8 85.7337 231.539   3 
  -9   2  -8 457.968 272.693   1 
  -9   2   9 282.204 148.112   2 
   9  -2   9 694.751 307.630   3 
   9   2   9 304.472 246.747   3 
  -9   2  -9 711.118 294.460   1 
  -9   2 -10 2539.65 532.424   1 
  -9   2  10 1955.04 358.676   2 
   9  -2  10 2531.87 452.391   3 
   9   2  10 1783.94 396.709   3 
   9  -2  11 2056.87 421.063   3 
  -9   2  11 2164.19 398.814   2 
   9   2  11 1911.06 431.833   3 
   9  -2  12 11513.3 911.925   3 
   9   2  12 11533.4 958.965   3 
   9  -2  13 680.370 277.302   3 
   9   2  13 840.703 296.248   3 
   9  -2  14 5852.91 666.075   3 
   9   2  14 5877.22 713.033   3 
   9  -2  15 242.296 238.351   3 
   9   2  15 133.073 265.992   3 
   9  -2  16 7142.31 732.297   3 
   9   2  16 6790.81 759.755   3 
   9  -2  17 923.285 309.467   3 
   9   2  17 1928.68 444.528   3 
   9  -2  18 10722.6 917.904   3 
   9   2  18 10850.6 992.365   3 
   9  -2  19 552.625 276.290   3 
   9   2  19 425.429 346.649   3 
   9   2  20 747.636 340.976   3 
   9   2  21 805.831 362.824   3 
   9   2  22 293.387 237.012   3 
   9   2  23 3750.27 644.569   3 
  -9   3   0 79.0847 206.407   1 
   9   3   0 83.5189 264.117   3 
  -9  -3   0-262.496 234.712   1 
  -9  -3  -1 10985.5 806.902   1 
   9   3   1 11284.5 945.908   3 
  -9  -3   1 10722.9 769.581   1 
  -9   3   1 10923.1 881.786   1 
  -9   3  -1 10471.8 891.076   1 
  -9  -3   2 994.902 248.113   1 
   9   3   2 819.783 325.619   3 
  -9   3  -2 1068.57 293.479   1 
  -9  -3  -2 942.061 280.580   1 
   9   3   3 1909.92 436.157   3 
  -9  -3   3 1352.05 278.478   1 
  -9   3  -3 1165.30 353.111   1 
  -9   3  -4 10093.9 907.909   1 
   9   3   4 11203.7 942.562   3 
  -9  -3   4 9855.28 681.994   1 
  -9  -3   5 2015.45 244.740   2 
   9   3   5 2218.12 461.578   3 
  -9   3  -5 2615.74 512.977   1 
  -9   3   5 2706.21 400.322   2 
   9  -3   6 419.653 207.587   3 
  -9  -3   6-25.6687 155.751   2 
   9   3   6 0.94649 225.347   3 
  -9   3   6 225.937 187.287   2 
  -9   3  -6 461.083 231.830   1 
  -9   3   7-105.398 188.495   2 
  -9   3  -7 224.334 306.769   1 
   9  -3   7 94.8456 243.730   3 
   9   3   7 32.3176 211.487   3 
   9  -3   8 13496.0 984.875   3 
   9   3   8 12457.9 1007.67   3 
  -9   3   8 12977.7 885.289   2 
  -9   3  -8 12694.7 1063.68   1 
  -9   3  -9 1234.04 359.143   1 
  -9   3   9 1221.81 308.293   2 
   9  -3   9 2175.25 428.677   3 
   9   3   9 1990.51 420.845   3 
  -9   3 -10 10365.2 974.647   1 
   9  -3  10 11989.2 930.620   3 
   9   3  10 10530.4 935.232   3 
  -9   3  10 12483.2 919.040   2 
  -9   3  11 616.307 264.913   2 
  -9   3 -11 314.615 259.293   1 
   9  -3  11 453.896 222.945   3 
   9   3  11 574.423 240.290   3 
  -9   3  12 1590.34 340.321   2 
   9  -3  12 2250.68 400.573   3 
   9   3  12 1547.79 362.217   3 
  -9   3 -12 1438.16 429.720   1 
   9  -3  13 3837.16 532.558   3 
  -9   3  13 4778.09 625.509   2 
   9   3  13 4898.33 653.747   3 
   9  -3  14 1790.89 391.051   3 
   9   3  14 1783.53 433.041   3 
   9  -3  15 236.806 212.130   3 
   9   3  15 70.4683 252.889   3 
   9  -3  16-161.026 192.759   3 
   9   3  16 223.765 308.206   3 
   9  -3  17 1144.40 318.838   3 
   9   3  17 1840.87 459.674   3 
   9  -3  18 543.518 298.584   3 
   9   3  18-76.3608 212.391   3 
   9   3  19 632.128 328.986   3 
   9   3  20 3162.25 577.980   3 
   9   3  21 922.570 392.658   3 
   9   3  22 5720.75 770.354   3 
   9   3  23 86.4408 248.579   3 
  -9   4   0-386.682 325.125   1 
  -9  -4   0-138.554 155.501   1 
   9   4   0 290.244 325.900   3 
  -9   4  -1 1232.81 337.282   1 
   9   4  -1 1997.66 449.661   3 
  -9  -4   1 1378.50 306.075   1 
   9   4   1 2029.47 449.015   3 
  -9   4   1 1267.80 302.254   1 
  -9  -4  -1 1009.06 273.414   1 
   9   4   2 766.486 287.765   3 
  -9   4  -2 389.043 227.436   1 
  -9  -4   2 468.491 196.424   1 
   9   4   3 239.149 209.124   3 
  -9   4  -3 31.8476 198.688   1 
  -9  -4   3-50.5862 161.597   1 
  -9  -4   4 3127.72 381.389   1 
   9   4   4 3123.33 529.103   3 
  -9   4  -4 2986.46 512.724   1 
  -9   4  -5 11280.5 972.680   1 
   9   4   5 11120.2 973.764   3 
  -9  -4   5 11357.5 680.173   1 
  -9   4   5 11905.7 818.956   2 
   9   4   6 2382.21 486.867   3 
  -9   4  -6 3480.19 585.050   1 
  -9   4   6 2827.59 445.308   2 
   9  -4   7 16855.6 1087.32   3 
   9   4   7 17689.9 1208.06   3 
  -9   4  -7 16545.6 1223.38   1 
  -9   4   7 18096.1 1068.14   2 
  -9   4  -8 3357.34 601.918   1 
  -9   4   8 4068.58 537.972   2 
   9  -4   8 4265.53 552.000   3 
   9   4   8 3445.69 572.020   3 
  -9   4   9 304.565 218.138   2 
   9  -4   9 180.262 198.603   3 
  -9   4  -9 158.123 235.835   1 
   9   4   9 39.6417 197.089   3 
  -9   4  10 2775.41 476.624   2 
   9  -4  10 2658.67 455.260   3 
   9   4  10 3169.83 534.880   3 
  -9   4 -10 2651.13 516.722   1 
  -9   4  11 2465.52 442.349   2 
   9  -4  11 3205.15 477.786   3 
   9   4  11 2640.15 484.964   3 
  -9   4 -11 2787.15 535.407   1 
  -9   4 -12-43.7800 298.798   1 
  -9   4  12-538.949 357.234   2 
   9  -4  12-90.2361 206.922   3 
   9   4  12-274.727 333.102   3 
   9  -4  13 5568.61 628.671   3 
  -9   4  13 5183.93 665.892   2 
   9   4  13 5533.69 712.416   3 
  -9   4 -13 4152.96 663.450   1 
   9  -4  14 5199.45 605.483   3 
  -9   4  14 4978.82 666.676   2 
  -9   4 -14 4671.78 718.926   1 
   9   4  14 4406.91 656.069   3 
   9  -4  15 1077.44 298.294   3 
  -9   4 -15 1162.75 430.099   1 
   9   4  15 675.320 344.182   3 
  -9   4 -16 4957.16 768.081   1 
   9  -4  16 4095.90 541.497   3 
   9   4  16 3666.28 622.146   3 
   9  -4  17 1220.74 318.474   3 
   9   4  17 1738.36 425.070   3 
   9   4  18 173.080 247.295   3 
   9   4  19 8073.24 875.697   3 
   9   4  20 1844.77 481.891   3 
   9   4  21 2727.97 574.687   3 
   9   4  22 2904.89 598.395   3 
   9   5   0-140.387 210.515   3 
  -9  -5   0 207.177 186.234   1 
  -9   5   0-155.784 258.073   1 
  -9   5  -1-37.3637 269.187   1 
   9   5  -1 485.848 257.593   3 
   9   5   1 90.6047 243.183   3 
  -9  -5   1 139.818 163.788   1 
  -9   5  -2 2082.44 419.713   1 
   9   5  -2 2738.23 492.269   3 
   9   5   2 2471.82 466.661   3 
  -9  -5   2 2118.30 343.260   1 
  -9  -5   3 304.926 154.667   1 
   9   5   3 2.94420 190.057   3 
   9   5   4 3593.22 571.484   3 
  -9  -5   4 2467.44 333.262   1 
  -9   5  -4 3639.45 620.189   1 
   9   5   5 1586.52 393.422   3 
  -9   5   5 1364.06 310.535   2 
  -9   5  -5 1201.38 356.998   1 
  -9  -5   5 1759.94 275.695   1 
  -9   5  -6 475.731 273.232   1 
   9   5   6 477.406 275.087   3 
  -9   5   6 767.588 261.494   2 
   9  -5   7 5053.00 597.363   3 
   9   5   7 4608.20 654.840   3 
  -9   5   7 4840.01 566.581   2 
  -9   5   8 1738.05 370.796   2 
   9  -5   8 2096.98 435.793   3 
   9   5   8 1667.22 431.985   3 
  -9   5  -8 1682.35 457.505   1 
  -9   5   9 4522.23 576.257   2 
   9  -5   9 4576.67 569.469   3 
   9   5   9 5107.11 678.382   3 
  -9   5  -9 5195.64 720.205   1 
  -9   5 -10 3357.04 609.705   1 
  -9   5  10 2883.59 496.083   2 
   9  -5  10 3263.57 491.297   3 
   9   5  10 3217.86 537.642   3 
   9  -5  11 7831.96 735.034   3 
   9   5  11 8701.67 877.599   3 
  -9   5 -11 7647.72 883.349   1 
  -9   5  11 8352.07 804.916   2 
  -9   5  12 1218.96 355.618   2 
   9  -5  12 800.696 262.504   3 
  -9   5 -12 812.482 380.316   1 
   9   5  12 777.387 291.662   3 
  -9   5  13 83.6450 218.645   2 
   9  -5  13 237.677 248.100   3 
   9   5  13-273.313 310.558   3 
  -9   5 -13-141.808 309.556   1 
  -9   5 -14 5229.48 767.151   1 
  -9   5  14 6011.53 756.441   2 
   9  -5  14 5039.45 594.429   3 
   9   5  14 4727.00 694.836   3 
  -9   5 -15 135.072 314.372   1 
  -9   5  15 343.347 227.382   2 
   9  -5  15 157.066 228.596   3 
   9   5  15-99.0975 319.037   3 
  -9   5  16 366.784 329.274   2 
   9  -5  16 274.597 229.040   3 
  -9   5 -16-549.533 323.585   1 
   9   5  16 234.116 292.184   3 
  -9   5 -17 6389.36 849.476   1 
   9   5  17 7090.28 832.957   3 
   9   5  18 3337.38 602.311   3 
   9   5  19-223.516 248.386   3 
   9   5  20 3259.98 639.357   3 
   9   5  21 564.555 339.424   3 
   9   6   0-56.9551 275.187   3 
   9   6  -1 3754.74 586.075   3 
   9   6   1 3268.32 518.762   3 
  -9  -6   1 4001.25 454.008   1 
  -9   6  -1 3319.54 515.915   1 
  -9   6  -2 1195.99 340.922   1 
   9   6  -2 1687.23 428.048   3 
   9   6   2 1428.46 409.490   3 
  -9  -6   2 1424.46 286.836   1 
  -9   6  -3 5867.00 710.077   1 
  -9  -6   3 5851.39 506.192   1 
   9   6  -3 5643.18 707.321   3 
   9   6   3 7178.46 795.204   3 
   9   6  -4 33.2227 182.313   3 
  -9   6  -4 105.348 217.190   1 
   9   6   4 34.3996 221.266   3 
  -9  -6   4 131.540 145.918   1 
  -9  -6   5 2689.80 308.939   1 
   9   6   5 2454.20 507.982   3 
  -9   6  -5 1914.99 441.065   1 
  -9   6  -6-59.9988 313.111   1 
  -9   6   6 542.746 193.688   2 
   9   6   7 1140.34 399.555   3 
  -9   6   7 991.468 301.515   2 
  -9   6  -7 828.718 295.519   1 
   9  -6   8 17967.4 1111.18   3 
   9   6   8 18999.9 1296.64   3 
  -9   6   8 18510.7 1176.14   2 
  -9   6  -8 17488.1 1321.88   1 
  -9   6   9 1164.69 319.406   2 
   9  -6   9 1200.46 345.858   3 
  -9   6  -9 1102.63 379.909   1 
   9   6   9 1404.55 460.710   3 
  -9   6 -10 9923.06 1009.13   1 
   9  -6  10 10992.2 860.596   3 
   9   6  10 10711.5 993.900   3 
  -9   6  10 11395.5 955.424   2 
  -9   6  11 335.172 214.847   2 
   9  -6  11 154.847 201.653   3 
   9   6  11-61.3030 252.158   3 
  -9   6 -11 399.228 327.024   1 
  -9   6  12-68.5021 291.086   2 
   9  -6  12 201.072 236.992   3 
   9   6  12 123.432 266.035   3 
  -9   6 -12-133.891 281.169   1 
  -9   6 -13-64.6688 284.011   1 
  -9   6  13-322.322 263.652   2 
   9  -6  13 477.035 249.879   3 
   9   6  13 202.576 277.944   3 
  -9   6  14 4720.34 675.866   2 
  -9   6 -14 4492.78 741.254   1 
   9  -6  14 4740.08 573.051   3 
   9   6  14 3834.76 643.182   3 
  -9   6  15 4055.60 642.866   2 
   9  -6  15 3064.00 445.438   3 
  -9   6 -15 3952.72 703.571   1 
   9   6  15 4693.76 723.312   3 
  -9   6  16 10096.4 1006.70   2 
   9   6  16 9903.25 994.850   3 
  -9   6 -16 8310.92 1010.33   1 
  -9   6  17 4974.45 736.351   2 
   9   6  17 5875.56 789.330   3 
  -9   6 -17 4342.69 747.796   1 
  -9   6  18-257.383 287.350   2 
   9   6  18 295.120 241.320   3 
   9   6  19 930.929 368.955   3 
   9   6  20 4940.53 760.190   3 
   9   7   0 205.373 265.183   3 
   9   7  -1 5396.16 698.457   3 
   9   7   1 6154.46 750.011   3 
   9   7  -2 1106.16 394.900   3 
  -9  -7   2 607.777 183.770   1 
   9   7   2 320.804 254.703   3 
  -9   7  -2 584.112 288.379   1 
   9   7  -3 8229.49 850.456   3 
   9   7   3 8926.49 889.475   3 
  -9  -7   3 8454.57 583.428   1 
  -9   7  -3 7077.30 812.328   1 
  -9   7  -4 554.425 352.343   1 
   9   7  -4 808.179 373.708   3 
   9   7   4 628.042 380.751   3 
   9   7  -5 9026.81 904.574   3 
   9   7   5 7872.05 832.474   3 
  -9   7  -5 8314.71 901.577   1 
   9   7  -6 68.3227 201.704   3 
  -9   7  -6-65.4938 272.179   1 
   9   7   6-25.2945 227.578   3 
  -9   7   6-223.043 235.685   2 
   9   7   7 8309.31 877.902   3 
  -9   7   7 7471.50 764.859   2 
  -9   7  -7 7886.15 894.565   1 
   9  -7   8 3964.85 535.910   3 
   9   7   8 4400.12 678.682   3 
  -9   7  -8 2295.38 533.758   1 
  -9   7   8 4161.56 601.650   2 
   9  -7   9 949.448 305.946   3 
   9   7   9 1106.93 365.662   3 
  -9   7  -9 41.7603 336.993   1 
  -9   7   9 949.558 360.097   2 
  -9   7  10 5.01607 220.301   2 
  -9   7 -10-505.273 345.437   1 
   9  -7  10 79.7680 204.539   3 
   9   7  10 285.173 298.429   3 
  -9   7  11 3489.58 581.049   2 
  -9   7 -11 3208.36 622.233   1 
   9  -7  11 4014.46 509.546   3 
   9   7  11 4313.96 649.955   3 
  -9   7  12-62.5250 268.443   2 
   9  -7  12-172.152 196.494   3 
  -9   7 -12 613.844 339.502   1 
   9   7  12 97.4233 245.356   3 
  -9   7 -13 9976.87 1071.13   1 
   9  -7  13 11956.4 863.797   3 
   9   7  13 11174.4 1042.54   3 
  -9   7  13 12271.2 1068.85   2 
  -9   7  14-139.292 269.391   2 
   9  -7  14-161.782 257.905   3 
   9   7  14 80.9346 231.252   3 
  -9   7 -14 62.8131 276.098   1 
  -9   7  15 415.957 312.810   2 
   9   7  15 1074.15 388.213   3 
  -9   7 -15 465.958 265.542   1 
  -9   7 -16 227.057 296.200   1 
  -9   7  16 431.187 318.796   2 
   9   7  16 822.083 341.486   3 
  -9   7  17-219.162 328.404   2 
   9   7  17 522.648 269.385   3 
  -9   7  18-259.625 286.923   2 
   9   7  18-434.148 316.692   3 
  -9   7  19 149.474 276.859   2 
  -9   7  20 580.578 402.923   2 
   9   8   0-196.588 207.797   3 
   9   8  -1 580.394 284.222   3 
   9   8   1 349.287 239.616   3 
   9   8  -2 2717.42 503.300   3 
   9   8   2 1912.76 423.434   3 
   9   8  -3 3278.90 561.918   3 
   9   8   3 3278.97 570.352   3 
  -9   8  -3 3478.18 586.569   1 
   9   8  -4 86.7349 230.414   3 
   9   8   4 236.917 300.702   3 
  -9   8  -4 206.482 297.851   1 
  -9   8  -5 934.329 342.211   1 
   9   8  -5 1895.44 440.568   3 
   9   8   5 898.184 322.633   3 
  -9   8  -6 859.905 288.834   1 
   9   8  -6 1444.59 418.145   3 
   9   8   6 1636.66 428.474   3 
   9   8  -7 433.370 373.984   3 
  -9   8  -7-358.065 375.710   1 
   9   8   7 385.652 327.493   3 
  -9   8   7-67.7620 252.334   2 
   9   8  -8 21168.4 1403.32   3 
   9   8   8 23039.8 1471.46   3 
  -9   8   8 23131.7 1391.12   2 
  -9   8  -8 23422.8 1571.18   1 
   9   8  -9 3921.70 662.023   3 
   9  -8   9 3786.38 517.676   3 
   9   8   9 3913.65 611.377   3 
  -9   8  -9 3222.36 634.243   1 
  -9   8   9 3666.73 612.496   2 
   9  -8  10 8369.38 735.200   3 
   9   8  10 8061.98 876.748   3 
  -9   8  10 7287.91 810.966   2 
  -9   8 -10 6530.46 876.204   1 
  -9   8  11 3105.68 546.677   2 
   9  -8  11 3403.79 475.395   3 
   9   8  11 4305.78 676.117   3 
  -9   8 -11 2735.68 513.527   1 
  -9   8 -12 4002.06 700.556   1 
  -9   8  12 4118.70 626.082   2 
   9  -8  12 3036.73 449.382   3 
   9   8  12 3024.09 561.217   3 
  -9   8  13-71.5225 319.045   2 
  -9   8 -13-277.857 349.674   1 
   9  -8  13 47.6980 173.860   3 
   9   8  13-560.469 366.149   3 
  -9   8  14 4364.38 671.337   2 
  -9   8 -14 4573.41 779.920   1 
   9   8  14 4534.95 726.025   3 
  -9   8  15 211.550 259.770   2 
  -9   8 -15-112.296 355.453   1 
   9   8  15-44.6072 269.936   3 
   9   8  16 9763.79 1018.52   3 
  -9   8  16 10290.7 1033.05   2 
  -9   8  17 1206.62 405.042   2 
   9   8  17 976.612 391.025   3 
  -9   8  18 1885.96 488.975   2 
  -9   8  19 197.170 268.591   2 
   9   9   0-122.874 270.477   3 
   9   9  -1 3975.05 627.648   3 
   9   9   1 5039.76 692.013   3 
   9   9  -2 623.557 343.246   3 
   9   9   2 442.095 273.907   3 
   9   9  -3 1978.03 454.638   3 
   9   9   3 1919.35 437.848   3 
   9   9  -4 2769.63 550.845   3 
   9   9   4 3191.97 577.382   3 
  -9   9  -4 2162.92 474.424   1 
   9   9  -5 553.531 320.754   3 
   9   9   5 266.971 284.089   3 
  -9   9  -5 369.662 237.192   1 
  -9   9  -6 4788.39 730.023   1 
   9   9  -6 5101.22 691.187   3 
   9   9   6 4846.32 699.212   3 
  -9   9  -7 2233.10 518.857   1 
   9   9  -7 2494.23 510.277   3 
  -9   9   7 2598.09 500.650   2 
   9   9   7 3503.76 614.063   3 
  -9   9  -8 213.639 278.449   1 
   9   9  -8 878.981 360.974   3 
   9   9   8 536.988 369.875   3 
  -9   9   8 569.915 270.097   2 
   9  -9   9 3316.61 472.215   3 
   9   9  -9 3053.95 562.920   3 
  -9   9  -9 2325.26 555.255   1 
   9   9   9 3192.09 570.441   3 
  -9   9   9 2783.47 529.471   2 
   9   9 -10 1806.81 457.467   3 
   9  -9  10 2239.11 414.173   3 
  -9   9 -10 1742.91 539.317   1 
   9   9  10 2192.59 533.265   3 
  -9   9  10 1772.21 456.113   2 
   9   9 -11 4580.95 688.590   3 
   9  -9  11 5566.93 581.156   3 
  -9   9 -11 4683.01 742.314   1 
   9   9  11 5152.57 733.839   3 
  -9   9  11 4140.19 665.571   2 
  -9   9  12 847.908 381.384   2 
   9   9 -12 455.932 305.544   3 
   9   9  12 618.191 369.598   3 
  -9   9 -12 157.582 360.283   1 
  -9   9  13 2.43892 296.537   2 
   9   9  13 307.614 338.285   3 
  -9   9 -13-745.204 547.170   1 
  -9   9  14 391.889 317.175   2 
   9   9  14 541.382 301.639   3 
  -9   9 -14-69.8528 369.342   1 
  -9   9  15-81.0404 261.762   2 
   9   9  15-198.886 255.576   3 
  -9   9  16 23.9298 293.474   2 
  -9   9  17 1212.25 333.363   2 
  -9   9  18 2213.41 505.682   2 
   9  10   0-193.531 299.237   3 
   9  10  -1 396.363 297.357   3 
   9  10   1 102.097 231.546   3 
   9  10  -2 534.603 343.759   3 
   9  10   2 207.966 259.818   3 
   9  10  -3 7349.35 848.798   3 
   9  10   3 6488.25 801.876   3 
   9  10  -4 236.004 297.493   3 
   9  10   4 499.920 289.755   3 
   9  10  -5 173.322 224.515   3 
   9  10   5 89.2785 258.686   3 
   9  10  -6 206.073 236.525   3 
   9  10   6 157.492 213.159   3 
  -9  10  -6-201.116 290.775   1 
   9  10  -7 968.141 354.200   3 
   9  10   7 1077.14 409.789   3 
  -9  10  -7 1109.75 431.214   1 
  -9  10  -8 614.569 305.771   1 
   9  10  -8 1291.01 375.844   3 
   9  10   8 1369.11 449.552   3 
  -9  10   8 789.223 360.269   2 
  -9  10  -9 1187.62 444.683   1 
   9 -10   9 951.921 249.055   3 
   9  10  -9 1247.01 386.918   3 
   9  10   9 1628.12 455.648   3 
  -9  10   9 1188.28 371.380   2 
   9 -10  10 10843.9 823.817   3 
   9  10 -10 9675.05 962.269   3 
   9  10  10 11234.8 1089.66   3 
  -9  10  10 10773.5 1038.83   2 
  -9  10 -10 9700.21 1056.40   1 
   9  10 -11 3699.57 624.837   3 
  -9  10 -11 3440.52 667.885   1 
   9  10  11 3031.41 581.599   3 
  -9  10  11 2747.64 542.205   2 
   9  10 -12 6478.78 802.237   3 
  -9  10 -12 5990.95 860.972   1 
   9  10  12 6650.46 845.504   3 
  -9  10  12 5740.17 785.138   2 
  -9  10  13 845.776 365.041   2 
   9  10 -13 92.7926 266.766   3 
  -9  10 -13-10.2827 307.850   1 
   9  10  13 144.010 317.843   3 
  -9  10  14 2235.02 574.584   2 
   9  10 -14 1821.02 460.757   3 
   9  10  14 1429.82 436.714   3 
  -9  10  15 55.4463 266.214   2 
   9  10 -15-332.880 446.298   3 
  -9  10  16 3230.10 644.473   2 
   9  10 -16 2689.94 544.818   3 
  -9  10  17 920.818 361.014   2 
   9  11   0 299.159 237.605   3 
   9  11  -1 4534.09 677.808   3 
   9  11   1 3256.33 587.026   3 
   9  11  -2 241.179 305.576   3 
   9  11   2 389.639 232.083   3 
   9  11  -3 7240.60 851.540   3 
   9  11   3 6834.31 812.755   3 
   9  11  -4 133.717 247.088   3 
   9  11   4-96.1300 220.650   3 
   9  11  -5 1828.73 460.536   3 
   9  11   5 1016.89 339.016   3 
   9  11  -6 188.813 258.335   3 
   9  11   6 114.619 202.229   3 
   9  11  -7 185.476 261.803   3 
  -9  11  -7 672.607 349.371   1 
   9  11   7 389.765 249.065   3 
   9  11  -8 723.447 317.989   3 
   9  11   8 1163.98 395.757   3 
  -9  11  -8 548.137 326.161   1 
   9  11  -9 228.541 257.548   3 
   9  11   9 266.635 280.265   3 
  -9  11   9 279.775 268.841   2 
  -9  11  -9 492.812 276.923   1 
  -9  11 -10 203.336 251.700   1 
   9  11 -10 519.824 334.479   3 
   9  11  10 317.144 322.247   3 
  -9  11  10 47.4948 265.552   2 
  -9  11 -11 1489.37 522.331   1 
   9  11 -11 1040.45 398.787   3 
   9  11  11 1013.47 395.513   3 
  -9  11  11 641.515 279.827   2 
  -9  11 -12 188.805 261.561   1 
   9  11 -12 125.171 328.698   3 
   9  11  12 1108.87 479.375   3 
  -9  11  12 237.880 347.142   2 
   9  11 -13 3071.47 600.329   3 
  -9  11  13 2615.92 539.691   2 
  -9  11  14-269.675 436.496   2 
   9  11 -14-104.803 341.551   3 
  -9  11  15 2222.39 578.615   2 
   9  11 -15 2152.22 492.054   3 
  -9  11  16 372.474 272.069   2 
   9  11 -16 40.8199 264.259   3 
   9  11 -17 2146.04 463.852   3 
   9  11 -18 268.690 297.865   3 
   9  12   0 22.1923 257.400   3 
   9  12  -1 460.930 258.708   3 
   9  12   1 230.697 232.068   3 
   9  12  -2 463.329 360.842   3 
   9  12   2-79.5109 254.768   3 
   9  12  -3 1676.03 463.875   3 
   9  12   3 969.872 396.515   3 
   9  12  -4 8013.12 888.337   3 
   9  12   4 7998.73 914.440   3 
   9  12  -5 2290.82 548.693   3 
   9  12   5 1512.24 476.194   3 
   9  12  -6 4172.80 679.889   3 
   9  12   6 4648.84 705.872   3 
   9  12  -7 679.425 342.910   3 
   9  12   7 1150.17 399.111   3 
   9  12  -8-507.992 439.164   3 
   9  12   8-129.774 236.956   3 
   9  12  -9 382.902 290.613   3 
   9  12   9 578.802 328.922   3 
   9  12 -10 7210.47 860.095   3 
  -9  12  10 8960.91 985.658   2 
  -9  12 -10 9212.77 1073.32   1 
   9  12  10 7782.83 943.311   3 
   9  12 -11 1323.67 449.609   3 
  -9  12  11 845.370 410.715   2 
   9  12 -12 10762.0 1032.68   3 
  -9  12  12 13725.9 1270.73   2 
   9  12 -13 1645.22 459.883   3 
  -9  12  13 1560.12 499.918   2 
   9  12 -14 2965.36 556.502   3 
  -9  12  14 2694.80 619.146   2 
   9  12 -15 141.783 323.227   3 
   9  12 -16 4542.31 698.017   3 
   9  12 -17 862.649 365.140   3 
   9  13   0-251.787 273.093   3 
   9  13  -1 4025.81 660.429   3 
   9  13   1 3691.88 651.559   3 
   9  13  -2 400.334 304.891   3 
   9  13   2 394.707 356.699   3 
   9  13  -3 14633.5 1208.85   3 
   9  13   3 14668.0 1238.30   3 
   9  13  -4 951.027 429.422   3 
   9  13   4 290.426 303.122   3 
   9  13  -5 7296.27 877.752   3 
   9  13   5 9106.46 983.375   3 
   9  13  -6 2056.29 505.016   3 
   9  13   6 1786.51 493.710   3 
   9  13  -7 2879.29 570.780   3 
   9  13   7 2913.81 593.423   3 
   9  13  -8 499.251 318.690   3 
   9  13  -9 4272.64 688.926   3 
   9  13 -10 303.452 354.269   3 
  -9  13  10 617.784 327.954   2 
   9  13 -11 4016.25 642.340   3 
  -9  13  11 4288.48 739.247   2 
   9  13 -12-239.920 281.903   3 
  -9  13  12 285.922 328.813   2 
   9  13 -13-1.17766 333.801   3 
  -9  13  13-233.988 345.390   2 
   9  13 -14 827.530 313.477   3 
   9  13 -15-69.7817 268.813   3 
   9  13 -16 102.015 276.208   3 
   9  14   0-216.371 331.683   3 
   9  14  -1 1239.07 440.784   3 
   9  14   1 2364.89 542.965   3 
   9  14  -2 674.214 377.618   3 
   9  14   2 869.217 330.959   3 
   9  14  -3-318.500 262.419   3 
   9  14   3 203.015 300.559   3 
   9  14  -4 752.695 296.310   3 
   9  14   4 1414.96 448.851   3 
   9  14  -5 931.643 331.897   3 
   9  14   5 1640.45 513.669   3 
   9  14  -6 1599.70 440.359   3 
   9  14  -7 4451.90 678.571   3 
   9  14  -8 387.624 303.045   3 
   9  14  -9-31.0038 269.975   3 
   9  14 -10 6209.81 801.164   3 
   9  14 -11 962.475 428.935   3 
   9  14 -12 7630.22 889.219   3 
   9  14 -13-315.903 261.628   3 
   9  14 -14 876.606 309.596   3 
   9  15   0-660.558 415.154   3 
   9  15  -1-123.014 263.499   3 
   9  15   1-182.184 271.843   3 
   9  15  -2 2848.99 566.834   3 
   9  15  -3-503.357 379.406   3 
   9  15  -4 740.358 358.052   3 
   9  15  -5 377.956 263.916   3 
   9  15  -6 2832.65 558.859   3 
   9  15  -7-54.9866 227.348   3 
   9  15  -8-244.551 270.510   3 
   9  15  -9-51.0783 260.062   3 
   9  15 -10 623.426 320.280   3 
   9  15 -11 1212.41 415.090   3 
   9  15 -12 376.195 269.522   3 
   9  16  -6-146.281 408.469   3 
   9  16  -7 1062.09 418.253   3 
   9  16  -8-32.3772 292.573   3 
   9  16  -9 113.964 346.892   3 
 -10   0   0 3820.03 535.121   1 
 -10   0   1 265.948 238.218   1 
 -10   0  -1 293.198 188.632   1 
 -10   0  -2 23372.5 1362.99   1 
 -10   0   2 23274.1 1271.59   1 
  10   0   3 593.231 376.218   3 
 -10   0   3 202.197 211.190   1 
 -10   0  -3 298.828 306.961   1 
  10   0   4 21495.8 1359.61   3 
 -10   0  -4 21507.8 1331.70   1 
  10   0   5 95.0941 287.068   3 
 -10   0  -5 10.0423 236.437   1 
  10   0   6 10688.5 972.466   3 
 -10   0  -6 9457.23 906.977   1 
  10   0   7 286.243 333.517   3 
 -10   0  -7-12.6606 238.908   1 
  10   0   8 11140.8 999.609   3 
 -10   0  -8 11100.4 1009.76   1 
  10   0   9 498.838 338.744   3 
 -10   0  -9 646.615 430.806   1 
  10   0  10 13579.7 1091.36   3 
  10   0  11 213.713 226.564   3 
  10   0  12 1790.86 402.716   3 
  10   0  13 56.0892 238.807   3 
  10   0  14 4069.03 639.463   3 
  10   0  15 101.251 215.871   3 
  10   0  16 1567.62 408.989   3 
  10   0  17-121.953 261.733   3 
  10   0  18 478.575 330.729   3 
  10   0  19 260.145 276.098   3 
  10   0  20 988.251 397.697   3 
 -10   1   0-167.259 296.981   1 
 -10  -1   0-57.6834 201.451   1 
 -10   1   1 208.387 259.530   1 
 -10  -1  -1 114.428 201.147   1 
 -10  -1   1 31.3559 172.376   1 
 -10   1  -1-385.938 300.543   1 
  10   1   2 7691.43 838.417   3 
 -10  -1  -2 6405.01 717.187   1 
 -10   1   2 5463.29 628.748   1 
 -10  -1   2 6050.93 637.104   1 
 -10   1  -2 5174.74 655.163   1 
 -10  -1  -3 3467.54 549.876   1 
 -10   1  -3 3260.18 548.489   1 
  10   1   3 3759.15 604.720   3 
 -10  -1   3 3231.80 472.334   1 
  10  -1   4 6439.89 760.504   3 
 -10   1  -4 6549.32 790.946   1 
  10   1   4 5749.16 732.773   3 
 -10  -1  -4 5420.03 676.048   1 
 -10  -1  -5 888.391 323.552   1 
  10  -1   5 1020.21 397.438   3 
  10   1   5 994.050 350.740   3 
 -10   1  -5 1005.77 344.008   1 
  10  -1   6 5472.75 695.293   3 
 -10  -1  -6 5537.89 690.297   1 
  10   1   6 5682.23 695.467   3 
 -10   1  -6 5778.86 751.327   1 
  10  -1   7 9702.37 913.619   3 
  10   1   7 8065.00 868.212   3 
 -10  -1  -7 9165.02 891.635   1 
 -10   1  -7 9694.62 962.150   1 
 -10   1  -8 2132.48 507.148   1 
  10  -1   8 1550.10 419.293   3 
  10   1   8 2109.06 502.642   3 
 -10   1  -9 18557.5 1342.07   1 
  10  -1   9 19054.1 1283.95   3 
  10   1   9 21097.9 1371.20   3 
  10  -1  10 417.689 283.047   3 
  10   1  10-70.0346 240.345   3 
 -10   1 -10-125.870 262.688   1 
  10  -1  11 7830.68 814.493   3 
  10   1  11 7098.42 803.501   3 
 -10   1 -11 7325.27 870.989   1 
  10  -1  12 1866.01 441.232   3 
  10   1  12 1131.09 350.527   3 
  10  -1  13 7834.36 818.573   3 
  10   1  13 7346.76 837.615   3 
  10  -1  14 2845.52 520.775   3 
  10   1  14 3519.62 606.585   3 
  10  -1  15 4893.62 665.925   3 
  10   1  15 5180.30 706.347   3 
  10  -1  16-118.700 192.486   3 
  10   1  16 332.033 265.026   3 
  10  -1  17 212.079 236.176   3 
  10   1  17 544.869 258.544   3 
  10  -1  18 525.813 243.995   3 
  10   1  18-39.6484 317.407   3 
  10  -1  19 351.289 280.782   3 
  10   1  19 77.9175 245.040   3 
  10   1  20 6627.93 824.720   3 
 -10  -2   0 90.3644 186.855   1 
 -10   2   0 478.778 253.499   1 
  10   2   1 2796.93 494.055   3 
 -10   2  -1 2424.23 452.051   1 
 -10  -2  -1 3441.15 507.623   1 
 -10  -2   1 3097.44 460.809   1 
 -10   2   1 2311.05 432.250   1 
 -10  -2  -2 82.8876 227.329   1 
  10   2   2 253.166 266.047   3 
 -10  -2   2 225.420 194.027   1 
 -10   2  -2 51.4209 238.781   1 
 -10  -2   3 4041.17 504.846   1 
  10   2   3 4998.72 719.289   3 
 -10  -2  -3 4464.94 599.169   1 
 -10   2  -3 3534.61 586.136   1 
 -10   2  -4 474.976 274.523   1 
  10  -2   4 120.348 253.706   3 
 -10  -2  -4 143.916 253.884   1 
  10   2   4 86.2288 208.467   3 
  10  -2   5 343.302 271.509   3 
  10   2   5-44.1372 232.993   3 
 -10  -2  -5-295.739 265.014   1 
 -10   2  -5 446.164 265.541   1 
  10  -2   6 436.220 318.070   3 
  10   2   6 664.092 344.794   3 
 -10   2  -6 324.819 242.915   1 
 -10   2  -7 4514.69 670.901   1 
  10   2   7 5633.59 729.416   3 
  10  -2   7 5621.79 702.816   3 
  10  -2   8 1054.68 368.570   3 
 -10   2  -8 1135.91 384.821   1 
  10   2   8 1272.60 375.732   3 
 -10   2   8 1203.71 316.199   2 
 -10   2   9 3623.81 493.168   2 
  10   2   9 5555.27 731.505   3 
  10  -2   9 5109.85 662.449   3 
 -10   2  -9 4822.48 721.146   1 
 -10   2 -10 2485.65 548.099   1 
 -10   2  10 1947.17 373.523   2 
  10  -2  10 2578.32 473.050   3 
  10   2  10 2333.84 529.941   3 
 -10   2  11-55.2559 199.941   2 
  10  -2  11 183.268 223.658   3 
  10   2  11 301.714 315.886   3 
 -10   2 -11 88.2550 243.789   1 
 -10   2  12-1.76892 202.472   2 
 -10   2 -12 97.1297 282.149   1 
  10  -2  12 342.160 263.509   3 
  10   2  12 11.9652 247.522   3 
 -10   2  13-158.519 206.241   2 
 -10   2 -13 189.980 380.928   1 
  10  -2  13-107.248 264.097   3 
  10   2  13 280.402 314.054   3 
 -10   2  14 3229.36 537.519   2 
  10  -2  14 3269.69 560.971   3 
  10   2  14 3468.98 605.481   3 
 -10   2 -14 3269.93 644.438   1 
 -10   2  15 230.648 243.357   2 
  10  -2  15-19.9274 223.059   3 
  10   2  15 313.752 270.899   3 
  10  -2  16 456.285 277.872   3 
  10   2  16-30.7276 293.412   3 
  10  -2  17-324.378 321.492   3 
  10   2  17 107.356 275.009   3 
  10  -2  18 1106.94 341.383   3 
  10   2  18 1740.98 473.341   3 
  10   2  19 874.252 326.549   3 
  10   2  20 3796.49 658.828   3 
  10   3   0 496.420 263.723   3 
 -10  -3   0 438.453 230.734   1 
 -10   3   0 23.2659 294.063   1 
 -10   3  -1-777.186 403.270   1 
  10   3  -1-193.415 296.774   3 
  10   3   1 381.481 283.456   3 
 -10   3   1-362.668 317.332   1 
 -10  -3   1-269.912 237.984   1 
 -10  -3  -1-95.3916 234.343   1 
  10   3   2-38.5148 274.380   3 
 -10   3  -2-392.247 361.310   1 
 -10  -3   2-218.297 225.830   1 
 -10  -3  -2-51.9061 190.206   1 
 -10  -3   3-25.4631 155.318   1 
 -10  -3  -3 204.904 223.806   1 
  10   3   3 121.120 216.845   3 
 -10   3  -3 100.839 225.982   1 
  10   3   4 4993.13 686.751   3 
 -10  -3   4 4641.31 502.888   1 
 -10   3  -4 3644.96 569.814   1 
 -10  -3  -4 4249.97 592.574   1 
 -10   3  -5 3160.10 568.587   1 
  10  -3   5 3400.56 517.659   3 
  10   3   5 3158.83 569.688   3 
  10  -3   6 836.519 272.738   3 
 -10   3  -6 824.856 318.824   1 
  10   3   6 1158.20 383.950   3 
 -10   3   6 944.499 271.482   2 
  10  -3   7 5677.27 710.690   3 
 -10   3  -7 7388.45 863.902   1 
  10   3   7 6555.64 803.996   3 
 -10   3   7 6506.30 634.874   2 
  10  -3   8 3123.76 557.278   3 
  10   3   8 3463.35 597.008   3 
 -10   3   8 2599.99 422.144   2 
 -10   3  -8 2328.26 497.396   1 
  10  -3   9 10837.8 960.809   3 
  10   3   9 11844.4 1062.58   3 
 -10   3  -9 10949.3 1066.79   1 
 -10   3   9 13380.1 961.371   2 
 -10   3  10 2020.78 407.397   2 
  10  -3  10 1588.16 379.899   3 
 -10   3 -10 1409.97 407.685   1 
  10   3  10 835.300 357.196   3 
  10  -3  11 7414.12 788.875   3 
  10   3  11 6031.01 748.922   3 
 -10   3 -11 5743.29 797.990   1 
 -10   3  11 7169.51 725.680   2 
 -10   3 -12-77.8379 248.636   1 
 -10   3  12-6.48471 216.746   2 
  10  -3  12 24.9212 255.092   3 
  10   3  12 61.6231 207.236   3 
 -10   3  13 4793.41 676.058   2 
 -10   3 -13 5613.34 800.524   1 
  10  -3  13 4309.10 592.060   3 
  10   3  13 3697.07 611.910   3 
 -10   3  14 3340.49 538.485   2 
  10  -3  14 3524.58 568.451   3 
  10   3  14 2969.08 589.207   3 
 -10   3 -14 3187.87 661.404   1 
 -10   3  15 11076.5 1003.78   2 
 -10   3 -15 9891.74 1101.92   1 
  10  -3  15 9418.19 879.290   3 
  10   3  15 10081.8 990.512   3 
 -10   3  16 126.458 224.064   2 
  10  -3  16-316.622 293.297   3 
  10   3  16-315.768 284.650   3 
  10  -3  17 4514.76 619.777   3 
  10   3  17 4252.43 675.558   3 
  10   3  18 404.658 249.940   3 
  10   3  19 1482.75 473.605   3 
  10   4   0 16962.9 1255.89   3 
 -10  -4   0 16770.4 1043.85   1 
 -10   4   0 17934.8 1237.71   1 
 -10   4  -1 564.455 320.087   1 
 -10  -4   1-91.3522 181.258   1 
  10   4  -1 274.064 326.419   3 
  10   4   1 301.028 311.965   3 
 -10  -4  -1 32.8362 187.918   1 
 -10   4  -2 3740.72 599.476   1 
  10   4  -2 3742.97 602.615   3 
 -10  -4  -2 4040.77 531.559   1 
  10   4   2 3166.99 568.395   3 
 -10  -4   2 3783.84 468.844   1 
 -10  -4  -3-48.7859 177.006   1 
 -10  -4   3-36.2995 159.473   1 
  10   4   3 3.27656 201.852   3 
 -10   4  -3-253.732 311.799   1 
  10   4   4 850.156 318.241   3 
 -10   4  -4-349.571 357.022   1 
  10   4   5 1872.30 463.727   3 
 -10   4  -5 1887.81 472.440   1 
 -10   4  -6 1779.25 465.202   1 
  10  -4   6 2658.05 502.039   3 
  10   4   6 3115.24 598.363   3 
 -10   4  -7-179.332 228.132   1 
  10  -4   7 30.3163 220.095   3 
  10   4   7 287.755 334.089   3 
 -10   4   7-179.012 175.828   2 
  10  -4   8 1106.29 356.230   3 
  10   4   8 840.744 337.337   3 
 -10   4  -8 1086.95 400.981   1 
 -10   4   8 1243.60 346.238   2 
  10  -4   9 2248.80 480.730   3 
  10   4   9 2220.57 479.238   3 
 -10   4  -9 1582.26 459.882   1 
 -10   4   9 2825.56 483.050   2 
 -10   4  10 2279.35 443.285   2 
  10  -4  10 1170.17 354.199   3 
  10   4  10 1558.65 420.336   3 
 -10   4 -10 1620.65 482.758   1 
 -10   4  11 1700.65 401.491   2 
 -10   4 -11 839.978 358.104   1 
  10  -4  11 1412.08 376.761   3 
  10   4  11 493.367 333.891   3 
 -10   4  12-303.151 217.118   2 
 -10   4 -12-32.0430 298.740   1 
  10  -4  12 68.4612 240.892   3 
  10   4  12 210.899 305.580   3 
 -10   4  13-14.2314 237.940   2 
  10  -4  13 300.945 257.312   3 
  10   4  13-12.7850 259.076   3 
 -10   4 -13-139.163 308.683   1 
 -10   4  14-27.6611 240.286   2 
  10  -4  14-208.586 308.861   3 
  10   4  14 377.704 364.554   3 
 -10   4 -14-475.419 372.923   1 
 -10   4  15 2528.08 503.118   2 
  10  -4  15 2057.46 415.624   3 
  10   4  15 2991.94 580.579   3 
 -10   4  16 184.666 306.565   2 
  10  -4  16-81.5319 258.953   3 
  10   4  16-72.8885 320.272   3 
 -10   4  17 509.186 317.746   2 
  10   4  17 527.288 353.969   3 
 -10   4  18-217.794 256.367   2 
  10   5   0 9578.15 960.784   3 
 -10  -5   0 9547.61 765.710   1 
 -10  -5  -1 1862.34 385.672   1 
  10   5  -1 2227.64 549.603   3 
  10   5   1 2886.63 577.830   3 
 -10  -5   1 2454.55 406.248   1 
 -10   5  -1 2358.90 531.923   1 
 -10  -5   2-39.2290 158.016   1 
 -10   5  -2 64.9303 230.329   1 
 -10  -5  -2 183.247 240.051   1 
  10   5  -2-210.315 256.588   3 
  10   5   2 211.743 330.695   3 
 -10   5  -3 2416.76 492.630   1 
  10   5  -3 1995.84 467.635   3 
  10   5   3 1600.34 403.659   3 
  10   5  -4 5563.07 748.565   3 
  10   5   4 6722.47 825.658   3 
 -10   5  -4 4638.20 667.643   1 
  10   5   5 11555.1 1051.42   3 
 -10   5  -5 10347.9 1021.94   1 
  10  -5   6 17.9167 250.891   3 
  10   5   6-93.6574 264.582   3 
 -10   5  -6-350.281 379.004   1 
  10  -5   7-14.9628 231.099   3 
  10   5   7 22.6722 238.171   3 
 -10   5   7 201.698 177.425   2 
 -10   5  -7-49.2890 277.193   1 
  10  -5   8 159.027 243.973   3 
  10   5   8 416.037 302.917   3 
 -10   5   8-13.8499 175.614   2 
 -10   5  -9-198.460 387.132   1 
  10  -5   9 470.712 273.006   3 
  10   5   9-113.768 284.225   3 
 -10   5   9 212.152 210.771   2 
  10  -5  10 1207.73 343.444   3 
  10   5  10 1245.51 346.028   3 
 -10   5 -10 1635.22 502.342   1 
 -10   5  10 1384.93 350.968   2 
  10  -5  11 4912.90 626.079   3 
  10   5  11 5026.49 722.711   3 
 -10   5  11 6133.52 719.127   2 
 -10   5 -11 4320.89 724.423   1 
 -10   5  12-133.368 209.938   2 
  10  -5  12 137.417 215.257   3 
  10   5  12-312.500 306.484   3 
 -10   5 -12-258.903 303.664   1 
 -10   5 -13 1217.21 471.065   1 
 -10   5  13 1577.36 384.890   2 
  10  -5  13 1294.14 358.948   3 
  10   5  13 1623.62 483.118   3 
 -10   5 -14 648.746 398.443   1 
 -10   5  14 991.977 372.417   2 
  10  -5  14 744.535 294.620   3 
  10   5  14-114.511 281.816   3 
 -10   5  15 992.114 285.111   2 
  10  -5  15 1003.14 303.643   3 
  10   5  15 1521.93 456.976   3 
 -10   5  16 534.622 305.679   2 
  10   5  16-121.916 285.984   3 
 -10   5  17 5307.97 788.188   2 
 -10   5  18 3978.33 654.541   2 
 -10   5  19 325.852 358.387   2 
  10   6   0 12694.9 1119.15   3 
 -10  -6   0 12451.1 862.663   1 
 -10  -6   1 1194.09 298.643   1 
  10   6  -1 1326.13 431.630   3 
  10   6   1 1345.21 469.088   3 
 -10  -6  -1 1082.18 317.566   1 
  10   6  -2 3037.58 568.166   3 
  10   6   2 2738.27 542.606   3 
 -10   6  -2 2071.89 509.929   1 
  10   6  -3 347.528 261.379   3 
  10   6   3-168.538 304.675   3 
 -10   6  -3-304.950 323.001   1 
 -10   6  -4 337.312 280.901   1 
  10   6  -4 305.185 337.512   3 
  10   6   4 473.253 327.042   3 
  10   6  -5 589.451 370.679   3 
 -10   6  -5-70.5711 261.910   1 
  10   6   5 75.9724 316.228   3 
  10   6  -6 10821.3 1032.99   3 
  10   6   6 10582.0 1025.89   3 
 -10   6  -6 8083.61 909.399   1 
  10  -6   7 370.517 263.237   3 
  10   6   7-282.020 272.355   3 
 -10   6   7 211.517 254.447   2 
 -10   6  -7 38.1036 269.979   1 
  10  -6   8 4219.52 572.332   3 
  10   6   8 3415.84 595.439   3 
 -10   6  -8 3887.81 651.164   1 
 -10   6   8 3833.03 540.912   2 
  10  -6   9 194.846 206.274   3 
  10   6   9-28.3800 306.528   3 
 -10   6   9 4.79606 218.217   2 
 -10   6  -9 320.006 342.862   1 
 -10   6 -10-462.939 378.015   1 
  10  -6  10-28.0857 264.978   3 
  10   6  10 4.78498 258.229   3 
 -10   6  10 87.3906 259.483   2 
 -10   6  11 58.0534 248.551   2 
 -10   6 -11 106.772 323.058   1 
  10  -6  11 104.815 212.181   3 
  10   6  11 358.902 327.685   3 
 -10   6  12 3637.14 559.000   2 
  10  -6  12 3244.98 544.177   3 
 -10   6 -12 3889.36 742.094   1 
  10   6  12 3901.58 663.495   3 
 -10   6  13 167.903 242.036   2 
  10  -6  13 257.057 207.939   3 
  10   6  13 540.109 351.705   3 
 -10   6 -13 322.598 390.532   1 
 -10   6  14 2378.44 503.821   2 
  10   6  14 2541.48 506.585   3 
 -10   6  15 32.4654 249.438   2 
 -10   6  16 59.7140 237.525   2 
 -10   6  17 648.488 329.196   2 
 -10   6  18 692.848 346.077   2 
 -10   6  19 536.222 356.014   2 
  10   7   0 12.8092 304.881   3 
 -10  -7   0 216.587 147.989   1 
  10   7  -1 2994.90 585.344   3 
  10   7   1 1358.94 431.826   3 
  10   7  -2 358.446 258.841   3 
  10   7   2-360.586 297.483   3 
  10   7  -3 4018.74 667.023   3 
  10   7   3 2702.34 530.199   3 
 -10   7  -3 2990.87 557.617   1 
  10   7  -4 1242.86 395.172   3 
  10   7   4 714.607 363.937   3 
 -10   7  -4 1064.02 409.938   1 
  10   7  -5 10769.0 1034.87   3 
  10   7   5 11438.6 1085.51   3 
 -10   7  -5 12247.6 1149.41   1 
 -10   7  -6 804.209 341.425   1 
  10   7  -6 1323.35 445.850   3 
  10   7   6 1558.57 459.810   3 
  10  -7   7 304.361 278.872   3 
  10   7  -7 125.890 281.252   3 
 -10   7  -7 128.194 281.298   1 
  10   7   7-64.5122 319.549   3 
  10   7  -8 2500.90 531.819   3 
  10  -7   8 2387.74 424.181   3 
 -10   7  -8 2357.15 512.692   1 
  10   7   8 2595.75 560.539   3 
 -10   7   8 2902.41 561.659   2 
  10  -7   9 1648.38 399.160   3 
  10   7   9 659.649 336.134   3 
 -10   7  -9 1022.48 347.913   1 
 -10   7   9 1493.63 399.885   2 
  10  -7  10 2558.71 463.160   3 
  10   7  10 2908.58 570.001   3 
 -10   7 -10 1970.12 511.916   1 
 -10   7  10 3662.00 571.236   2 
  10  -7  11 3906.32 569.608   3 
  10   7  11 4511.95 729.867   3 
 -10   7 -11 4080.93 703.858   1 
 -10   7  11 3330.20 580.534   2 
 -10   7  12-225.731 304.044   2 
 -10   7 -12 371.929 390.812   1 
  10  -7  12-10.5232 237.722   3 
  10   7  12 133.360 317.203   3 
  10   7  13 6630.59 853.395   3 
 -10   7  13 7254.77 859.493   2 
 -10   7  14-332.048 353.230   2 
 -10   7  15 363.093 309.601   2 
 -10   7  16 743.551 375.235   2 
 -10   7  17 5262.65 770.152   2 
 -10   7  18 283.592 355.574   2 
  10   8   0 7186.62 860.455   3 
  10   8  -1 288.195 359.527   3 
  10   8   1 316.328 288.229   3 
  10   8  -2-71.3965 228.873   3 
  10   8   2 409.842 311.050   3 
  10   8  -3 1930.70 509.717   3 
  10   8   3 2333.24 511.304   3 
  10   8  -4 1289.52 449.740   3 
  10   8   4 1155.53 440.878   3 
 -10   8  -4 605.048 320.957   1 
  10   8  -5 2316.54 498.351   3 
  10   8   5 2032.44 477.913   3 
 -10   8  -5 2650.15 547.772   1 
 -10   8  -6 4220.86 699.716   1 
  10   8  -6 4026.11 660.041   3 
  10   8   6 5183.21 761.459   3 
 -10   8  -7 130.974 269.161   1 
  10   8  -7 469.510 357.714   3 
  10   8   7-471.030 402.433   3 
  10  -8   8 1687.20 379.944   3 
 -10   8  -8 2189.22 561.440   1 
  10   8  -8 2166.04 510.489   3 
 -10   8   8 2275.39 494.769   2 
  10   8   8 1392.63 468.882   3 
  10   8  -9 3697.96 638.873   3 
  10  -8   9 3800.37 535.572   3 
 -10   8  -9 4319.19 694.157   1 
  10   8   9 3848.47 656.210   3 
 -10   8   9 3937.56 601.235   2 
  10   8 -10 852.113 382.250   3 
  10  -8  10 626.186 282.528   3 
 -10   8 -10-34.5135 365.950   1 
  10   8  10 248.169 301.261   3 
 -10   8  10 497.045 329.216   2 
  10   8 -11 2448.49 539.570   3 
  10  -8  11 2196.25 417.887   3 
 -10   8 -11 2213.65 581.649   1 
  10   8  11 2032.93 487.489   3 
 -10   8  11 2336.70 521.502   2 
 -10   8  12 740.149 318.440   2 
 -10   8  13 128.766 244.093   2 
 -10   8  14-74.3145 274.433   2 
 -10   8  15 566.088 255.935   2 
 -10   8  16-1313.79 448.836   2 
 -10   8  17-64.5012 324.915   2 
  10   9   0 5319.82 772.902   3 
  10   9  -1-278.130 315.223   3 
  10   9   1 307.669 301.689   3 
  10   9  -2 183.912 257.120   3 
  10   9   2-160.366 307.254   3 
  10   9  -3 2941.95 607.232   3 
  10   9   3 2845.87 585.165   3 
  10   9  -4 2423.79 570.386   3 
  10   9   4 1932.22 486.953   3 
  10   9  -5 2142.05 509.401   3 
  10   9   5 3175.77 575.096   3 
 -10   9  -5 3582.06 679.024   1 
  10   9  -6 501.187 357.249   3 
  10   9   6 1008.24 393.858   3 
 -10   9  -6 801.146 415.207   1 
  10   9  -7 845.243 381.803   3 
  10   9   7-16.4916 368.637   3 
 -10   9  -7 444.303 364.336   1 
  10  -9   8 113.705 192.338   3 
  10   9  -8-39.3424 290.189   3 
  10   9   8 144.195 296.897   3 
 -10   9  -9-158.497 357.895   1 
  10  -9   9-124.920 214.722   3 
  10   9  -9-316.366 284.650   3 
 -10   9   9 506.474 297.499   2 
  10   9   9 134.264 388.091   3 
 -10   9 -10 831.455 380.023   1 
  10   9 -10 1216.51 425.520   3 
  10  -9  10 984.201 271.551   3 
 -10   9  10 1370.23 390.552   2 
  10   9 -11 572.967 357.929   3 
 -10   9  11 348.545 351.177   2 
  10   9 -12 511.860 327.968   3 
 -10   9  12 704.367 326.162   2 
  10   9 -13 1167.45 417.836   3 
 -10   9  13 1021.65 396.614   2 
 -10   9  14 3067.52 604.995   2 
 -10   9  15 994.946 314.759   2 
 -10   9  16-570.955 419.941   2 
  10  10   0 15829.2 1292.19   3 
  10  10  -1 1083.74 386.724   3 
  10  10   1 901.943 340.858   3 
  10  10  -2 9900.73 1045.26   3 
  10  10   2 10540.3 1050.78   3 
  10  10  -3 332.583 276.670   3 
  10  10   3 254.926 312.534   3 
  10  10  -4 6622.17 863.520   3 
  10  10   4 6872.02 874.355   3 
  10  10  -5 695.941 362.411   3 
  10  10   5-47.4321 245.307   3 
  10  10  -6 5435.23 782.445   3 
  10  10   6 5191.24 781.074   3 
  10  10  -7 481.242 325.168   3 
 -10  10  -7-27.4007 273.883   1 
  10 -10   8 3702.65 525.400   3 
  10  10  -8 4285.83 695.451   3 
 -10  10  -8 4258.87 714.770   1 
  10  10  -9 368.503 286.254   3 
  10  10 -10 1810.47 500.706   3 
 -10  10  10 2555.08 574.181   2 
  10  10 -11 141.958 289.602   3 
 -10  10  11 249.421 278.517   2 
 -10  10  12 396.765 346.233   2 
 -10  10  13-16.1924 307.046   2 
 -10  10  14 613.214 448.585   2 
 -10  10  15 1321.31 467.151   2 
  10  11   0-157.486 312.106   3 
  10  11  -1 1043.18 389.111   3 
  10  11   1 1356.75 423.154   3 
  10  11  -2 653.896 373.304   3 
  10  11   2-250.260 304.915   3 
  10  11  -3 230.991 250.645   3 
  10  11   3 428.771 274.412   3 
  10  11  -4 674.574 406.813   3 
  10  11  -5 43.2653 321.201   3 
  10  11  -6 939.049 403.908   3 
  10  11  -7 464.752 379.647   3 
  10  11  -8 318.726 347.621   3 
  10  11  -9 10015.6 1058.55   3 
 -10  11  11 2641.62 557.886   2 
 -10  11  12 1264.72 504.295   2 
 -10  11  13-109.753 284.329   2 
 -10  12  12 9621.16 1070.63   2 
 -11   0   0 61.4388 209.603   1 
  11   0   1-209.750 293.901   3 
 -11   0  -1 119.774 212.992   1 
 -11   0   1-135.215 203.682   1 
  11   0   2 1290.95 356.142   3 
 -11   0   2 1288.93 324.345   1 
 -11   0  -2 1087.54 360.748   1 
  11   0   3 3.47857 294.674   3 
 -11   0  -3-120.401 286.780   1 
 -11   0  -4 4526.89 654.968   1 
  11   0   4 6278.78 809.066   3 
  11   0   5-309.940 331.228   3 
 -11   0  -5-11.3646 269.589   1 
  11   0   6 478.752 244.661   3 
 -11   0  -6 124.463 257.434   1 
 -11   0  -7 503.984 324.194   1 
  11   0   7-238.271 247.597   3 
  11   0   8 7292.74 862.165   3 
 -11   0  -8 7154.28 859.157   1 
  11   0   9 134.142 214.072   3 
 -11   0  -9 276.191 330.520   1 
  11   0  10 7243.20 875.393   3 
 -11   0 -10 6542.10 832.614   1 
 -11   0 -11 677.112 351.662   1 
  11   0  11-136.144 281.685   3 
  11   0  12 999.500 338.681   3 
 -11   0 -12 1079.03 474.020   1 
  11   0  13-454.919 320.852   3 
  11   0  14 2179.39 474.166   3 
  11   0  15-176.564 302.476   3 
  11   0  16 1729.53 443.515   3 
 -11   1   0 207.103 229.320   1 
  11   1   0 562.688 335.893   3 
 -11  -1   0-246.149 246.112   1 
  11   1   1 6922.08 834.926   3 
 -11   1   1 5969.94 713.220   1 
 -11  -1   1 7138.63 740.604   1 
 -11   1  -1 6433.17 776.787   1 
 -11  -1  -1 6159.16 721.103   1 
  11  -1   2 3691.23 627.887   3 
  11   1   2 5116.81 744.953   3 
 -11   1  -2 3494.28 590.591   1 
 -11  -1   2 3051.19 483.922   1 
 -11  -1  -2 3643.64 580.901   1 
  11  -1   3 412.118 313.617   3 
  11   1   3 251.702 376.073   3 
 -11  -1  -3-296.871 241.350   1 
 -11   1  -3 66.3714 228.961   1 
  11  -1   4 1436.70 417.547   3 
  11   1   4 1453.10 459.280   3 
 -11  -1  -4 1381.46 382.731   1 
 -11   1  -4 1042.66 359.590   1 
 -11   1  -5 4529.99 700.055   1 
  11  -1   5 4342.27 644.103   3 
  11   1   5 5604.50 767.824   3 
 -11  -1  -5 6233.54 771.259   1 
 -11  -1  -6 434.917 285.163   1 
  11  -1   6 181.743 265.983   3 
  11   1   6 582.554 388.452   3 
 -11   1  -6 234.707 251.853   1 
  11  -1   7 9472.92 968.446   3 
  11   1   7 10317.1 1016.58   3 
 -11   1  -7 7694.29 896.375   1 
 -11  -1  -7 8725.89 924.715   1 
 -11   1  -8 492.525 285.504   1 
 -11  -1  -8 491.292 299.901   1 
  11  -1   8 805.378 362.823   3 
  11   1   8 422.197 309.763   3 
 -11   1  -9 1613.93 443.261   1 
  11  -1   9 2053.95 459.217   3 
  11   1   9 1494.09 440.517   3 
 -11  -1  -9 2489.77 530.811   1 
 -11  -1 -10-45.2272 265.696   1 
  11  -1  10-302.152 209.958   3 
 -11   1 -10 29.0380 243.706   1 
  11  -1  11 391.125 344.170   3 
  11   1  11 210.616 264.978   3 
 -11   1 -11 62.1515 228.316   1 
 -11   1 -12 742.301 390.499   1 
  11  -1  12 1218.33 395.679   3 
  11   1  12 906.395 398.521   3 
  11  -1  13 160.160 239.021   3 
  11   1  13 185.379 245.237   3 
  11  -1  14 173.810 271.688   3 
  11   1  14 882.546 333.769   3 
  11  -1  15-103.696 317.137   3 
  11   1  15 92.4227 232.536   3 
  11  -1  16-560.366 390.587   3 
  11   2   0 104.881 243.892   3 
 -11  -2   0-670.877 311.526   1 
 -11   2   0-45.9190 216.521   1 
 -11   2  -1 252.738 308.085   1 
 -11  -2   1 183.109 222.453   1 
  11   2  -1 569.343 348.991   3 
  11   2   1 46.8304 359.267   3 
 -11  -2  -1 481.387 269.159   1 
 -11  -2  -2 3105.86 521.357   1 
 -11   2  -2 1803.51 444.336   1 
  11   2   2 3783.12 638.061   3 
  11  -2   3 486.438 274.024   3 
  11   2   3 564.054 325.947   3 
 -11   2  -3 39.9010 305.217   1 
 -11  -2  -3 548.191 283.010   1 
 -11  -2  -4 414.920 211.520   1 
  11  -2   4 1175.76 420.829   3 
  11   2   4 1070.75 443.847   3 
 -11   2  -4 277.460 237.452   1 
  11   2   5 818.601 347.322   3 
 -11  -2  -5 763.235 345.533   1 
 -11   2  -5 304.378 219.310   1 
 -11   2  -6-72.7746 333.634   1 
  11  -2   6 486.018 290.565   3 
  11   2   6 163.147 265.127   3 
 -11  -2  -6-23.2124 245.964   1 
  11  -2   7 729.253 313.831   3 
 -11   2  -7 373.589 287.110   1 
  11   2   7 1170.26 436.076   3 
 -11  -2  -7 601.670 329.378   1 
  11  -2   8 2270.39 480.769   3 
  11   2   8 1796.96 507.147   3 
 -11  -2  -8 2784.32 560.644   1 
 -11   2  -8 1979.48 513.106   1 
 -11  -2  -9 856.278 349.675   1 
  11  -2   9-16.7745 318.069   3 
  11   2   9 375.707 271.660   3 
 -11   2  -9-13.1962 280.363   1 
 -11   2 -10 1487.41 420.977   1 
  11  -2  10 2468.47 530.848   3 
  11   2  10 1811.01 504.063   3 
 -11   2 -11-428.454 334.721   1 
  11  -2  11 452.809 284.609   3 
  11   2  11-6.07499 254.511   3 
  11  -2  12 995.092 410.113   3 
  11   2  12-30.6014 222.790   3 
  11  -2  13 461.017 275.367   3 
  11   2  13 248.111 226.540   3 
  11  -2  14 194.974 243.638   3 
  11  -2  15-53.8383 247.071   3 
  11  -2  16 235.223 245.123   3 
  11   3   0 501.427 309.364   3 
 -11   3   0 85.5717 236.882   1 
 -11  -3   0-244.799 266.623   1 
  11   3  -1 9861.17 1015.14   3 
  11   3   1 11587.8 1106.72   3 
 -11   3  -1 9069.10 929.155   1 
 -11  -3  -1 8862.15 836.745   1 
  11   3  -2 7755.35 911.860   3 
 -11  -3  -2 6557.59 736.915   1 
  11   3   2 6762.39 854.606   3 
 -11   3  -2 7043.01 836.950   1 
 -11  -3  -3 398.231 256.521   1 
 -11   3  -3 55.2632 297.633   1 
  11   3   3 491.432 354.588   3 
  11  -3   4 687.626 324.537   3 
  11   3   4 1238.05 423.921   3 
 -11  -3  -4 1337.79 392.919   1 
 -11   3  -4 477.541 318.385   1 
  11  -3   5 103.014 212.658   3 
  11   3   5 70.8371 212.926   3 
 -11   3  -5 206.512 254.235   1 
 -11  -3  -5 77.6707 247.147   1 
  11  -3   6-225.077 272.969   3 
  11   3   6 190.618 311.763   3 
 -11  -3  -6-76.4574 290.604   1 
 -11   3  -6-327.079 379.475   1 
 -11   3  -7 643.206 270.675   1 
  11  -3   7 949.797 378.549   3 
 -11  -3  -7 1448.70 436.393   1 
  11   3   7 1607.93 436.312   3 
 -11   3  -8 238.101 284.484   1 
  11  -3   8 725.202 296.762   3 
  11   3   8 322.907 287.360   3 
  11  -3   9 114.175 262.261   3 
  11   3   9 72.7646 270.529   3 
 -11   3  -9 43.4376 352.753   1 
  11  -3  10 856.766 357.599   3 
  11   3  10 448.785 246.370   3 
 -11   3 -10 1341.26 466.327   1 
  11  -3  11-325.599 358.350   3 
  11   3  11 161.941 281.443   3 
 -11   3 -11-387.253 329.164   1 
  11  -3  12 4277.48 655.130   3 
  11  -3  13-166.767 238.710   3 
  11  -3  14 405.243 291.464   3 
  11  -3  15 543.421 224.884   3 
  11   4   0-127.897 246.363   3 
  11   4  -1 4089.15 689.902   3 
  11   4   1 3420.92 605.038   3 
 -11  -4  -1 4442.40 593.810   1 
 -11   4  -1 3914.77 638.923   1 
  11   4  -2 1239.65 404.825   3 
  11   4   2 2064.67 528.790   3 
 -11  -4  -2 1566.76 397.237   1 
 -11   4  -2 1171.07 412.981   1 
 -11   4  -3 516.862 355.758   1 
  11   4  -3 251.572 299.301   3 
  11   4   3 409.640 346.618   3 
 -11  -4  -3 796.558 328.399   1 
 -11  -4  -4 285.145 294.714   1 
  11   4  -4 348.553 288.278   3 
 -11   4  -4 57.1829 333.498   1 
  11   4   4 1224.11 405.757   3 
  11  -4   5 1406.86 409.658   3 
 -11   4  -5 580.409 248.420   1 
  11   4   5 1458.50 479.993   3 
 -11  -4  -5 1870.82 440.863   1 
 -11  -4  -6 527.367 288.972   1 
  11  -4   6 358.676 298.355   3 
  11   4   6 117.047 280.846   3 
 -11   4  -6 437.805 288.140   1 
  11  -4   7 2366.63 482.903   3 
  11   4   7 2389.05 563.084   3 
 -11   4  -7 2201.00 514.570   1 
  11  -4   8-73.5451 223.465   3 
  11   4   8-23.8574 240.376   3 
 -11   4  -8-644.372 448.111   1 
 -11   4  -9-44.7012 306.766   1 
  11  -4   9 201.829 295.024   3 
  11   4   9-196.348 308.102   3 
 -11   4 -10-77.2383 272.261   1 
  11  -4  10-522.997 326.643   3 
  11  -4  11 932.197 350.886   3 
  11  -4  12-133.524 261.664   3 
  11  -4  13 4155.92 643.077   3 
  11  -4  14 545.333 320.304   3 
  11   5   0-342.958 343.958   3 
  11   5  -1 10610.1 1084.22   3 
  11   5   1 10725.3 1086.47   3 
  11   5  -2 6568.03 860.661   3 
 -11  -5  -2 5169.91 636.353   1 
  11   5   2 5432.21 808.804   3 
 -11   5  -2 5342.25 779.148   1 
  11   5  -3 16214.5 1322.77   3 
  11   5   3 14897.5 1266.83   3 
 -11   5  -3 14258.2 1235.14   1 
 -11  -5  -3 14971.4 1099.17   1 
 -11  -5  -4 971.160 401.938   1 
 -11   5  -4 914.506 417.269   1 
  11   5  -4 465.536 389.430   3 
  11   5   4 368.996 370.896   3 
 -11   5  -5 5952.49 805.988   1 
  11  -5   5 6730.95 792.668   3 
  11   5  -5 6898.58 885.128   3 
  11   5   5 6243.89 831.733   3 
  11   5  -6 731.233 393.921   3 
  11  -5   6 1060.25 379.314   3 
 -11   5  -6 384.025 271.010   1 
  11  -5   7 5347.10 702.536   3 
  11   5   7 5057.84 748.217   3 
 -11   5  -7 4757.39 791.621   1 
  11  -5   8-7.47590 214.127   3 
 -11   5  -8-192.037 324.321   1 
  11  -5   9 6635.53 791.738   3 
 -11   5  -9 5154.54 772.380   1 
  11  -5  10 1114.50 352.393   3 
  11  -5  11 6897.25 791.303   3 
  11  -5  12 3945.52 605.655   3 
  11  -5  13 676.354 332.804   3 
  11   6   0-424.693 352.879   3 
  11   6  -1 668.598 381.049   3 
  11   6   1 566.850 349.869   3 
  11   6  -2-151.531 240.048   3 
  11   6   2-134.432 305.523   3 
  11   6  -3 1594.81 504.893   3 
  11   6   3 2294.51 552.370   3 
 -11   6  -3 1770.79 474.376   1 
  11   6   4 1283.97 460.160   3 
 -11   6  -4 301.443 391.881   1 
 -11   6  -5 232.588 289.829   1 
 -11   6  -6 993.451 443.756   1 
  11  -6   6 688.387 349.787   3 
  11  -6   7 3.17999 226.024   3 
 -11   6  -7 544.617 341.698   1 
  11  -6   8 2812.47 551.717   3 
 -11   6  -8 2676.52 614.812   1 
  11  -6   9 2831.38 548.133   3 
  11  -6  10-267.639 242.802   3 
  11  -6  11 2891.61 531.457   3 
 -11   7  -4 141.778 263.593   1 
 -11   7  -5 1526.66 516.163   1 
 -11   7  -6 388.781 360.746   1 
  11  -7   6 169.856 240.873   3 
 -11   7  -7-372.340 300.893   1 
  11  -7   7-257.000 297.530   3 
  11  -7   8 2423.43 463.431   3 
  11  -7   9-388.252 346.217   3 
  11  -7  10 132.088 274.240   3 
 -11   8  -5 2874.91 616.825   1 
  11  -8   7 1386.23 358.390   3 
  11  -8   8 1879.20 437.138   3 
  11  -8   9 1531.32 445.747   3 
  11  -9   7 2771.00 499.256   3 
 -12   0  -2 1065.65 364.640   1 
 -12   0  -3-498.549 311.237   1 
 -12   0  -4 3554.81 639.560   1 
 -12   0  -5 31.7530 290.025   1 
 -12   0  -6 967.454 361.360   1 
 -12   0  -7-472.885 367.004   1 
 -12   0  -8 1410.71 485.663   1 
 -12   1  -1-123.633 282.584   1 
 -12   1  -2 1094.96 421.909   1 
 -12   1  -3-259.412 350.388   1 
 -12  -1  -3 481.852 299.223   1 
 -12   1  -4-122.730 332.586   1 
 -12  -1  -4 151.533 213.666   1 
 -12  -1  -5 3587.15 641.885   1 
 -12   1  -5 2832.65 582.956   1 
 -12  -1  -6 668.779 349.557   1 
 -12   1  -6 617.914 354.745   1 
 -12   1  -7 161.889 275.588   1 
 -12  -1  -7 1257.75 408.046   1 
 -12  -1  -8 2072.20 557.288   1 
 -12   2  -1 661.117 323.750   1 
 -12   2  -2 169.511 308.568   1 
 -12   2  -3-281.356 301.472   1 
 -12  -2  -4 464.498 257.717   1 
 -12   2  -4-219.699 393.804   1 
 -12   2  -5 129.473 268.252   1 
 -12  -2  -5 746.976 394.055   1 
 -12   2  -6 145.213 250.642   1 
 -12  -2  -6-321.896 298.798   1 
 -12  -2  -7 320.670 255.405   1 
 -12   2  -7 164.424 301.534   1 
 -12  -2  -8 255.188 291.068   1 
 -12  -2  -9 86.4594 319.596   1 
 -12   3  -2 2662.96 577.582   1 
 -12   3  -3 1673.84 508.732   1 
 -12   3  -4 497.213 340.965   1 
 -12   3  -5-102.803 306.143   1 
 -12  -3  -5 605.228 307.407   1 
 -12  -3  -6 436.433 300.150   1 
 -12   3  -6-134.857 266.465   1 
 -12  -3  -7 241.029 242.915   1 
 -12  -3  -8 289.171 267.183   1 
 -12  -3  -9 1552.07 499.725   1 
 -12   4  -3 186.085 266.480   1 
 -12   4  -4 78.4458 278.009   1 
 -12   4  -5 545.056 262.339   1 
 -12  -4  -6 2936.38 561.901   1 
 -12  -4  -7-112.817 252.416   1 
 -12  -4  -8 57.7867 245.914   1 
 -12  -4  -9 300.231 349.161   1 
 -12   5  -4 60.7277 323.139   1 
   0   0   0    0.00    0.00   0 
TITL 01141A in Pbca 
REM Pbca (#61 in standard setting) 
CELL 0.71073   9.170204  18.410093  24.338569  90.0000  90.0000  90.0000 
ZERR    9.00   0.000439   0.000850   0.001149   0.0000   0.0000   0.0000 
LATT  1 
SYMM -x+1/2,-y, z+1/2 
SYMM -x, y+1/2,-z+1/2 
SYMM  x+1/2,-y+1/2,-z 
SFAC C H N O S Cl 
UNIT 180.00 180.00 18.00 18.00 9.00 9.00 
TREF 
HKLF 4 
END 
;
_shelx_hkl_checksum              97184
loop_
_space_group_symop_operation_xyz
'x, y, z'
'-x+1/2, -y, z+1/2'
'-x, y+1/2, -z+1/2'
'x+1/2, -y+1/2, -z'
'-x, -y, -z'
'x-1/2, y, -z-1/2'
'x, -y-1/2, z-1/2'
'-x-1/2, y-1/2, z'
loop_
_atom_site_label
_atom_site_type_symbol
_atom_site_fract_x
_atom_site_fract_y
_atom_site_fract_z
_atom_site_U_iso_or_equiv
_atom_site_adp_type
_atom_site_occupancy
_atom_site_site_symmetry_order
_atom_site_calc_flag
_atom_site_refinement_flags_posn
_atom_site_refinement_flags_adp
_atom_site_refinement_flags_occupancy
_atom_site_disorder_assembly
_atom_site_disorder_group
S1 S 0.46264(9) 0.07954(5) 0.64991(3) 0.0351(2) Uani 1 1 d . . . . .
Cl1 Cl 0.48891(10) 0.30313(4) 0.50650(4) 0.0438(2) Uani 1 1 d . . . . .
N1 N 0.6344(3) 0.03743(12) 0.56652(10) 0.0273(5) Uani 1 1 d . . . . .
S2 S 0.81400(8) 0.00143(4) 0.48252(3) 0.0303(2) Uani 1 1 d . . . . .
N2 N 0.6652(3) 0.09429(12) 0.42475(9) 0.0250(5) Uani 1 1 d . . . . .
C3 C 0.5250(3) 0.07940(15) 0.58254(11) 0.0254(6) Uani 1 1 d . . . . .
C4 C 0.4839(3) 0.13598(15) 0.49366(11) 0.0232(5) Uani 1 1 d . . . . .
C5 C 0.4468(3) 0.12960(15) 0.54944(11) 0.0247(5) Uani 1 1 d . . . . .
C6 C 0.6699(3) 0.04629(14) 0.51424(11) 0.0240(5) Uani 1 1 d . . . . .
C7 C 0.6020(3) 0.09367(14) 0.47630(11) 0.0232(5) Uani 1 1 d . . . . .
C8 C 0.7776(3) 0.05046(15) 0.42243(12) 0.0268(6) Uani 1 1 d . . . . .
O9 O 0.7142(3) 0.12082(15) 0.32024(11) 0.0527(7) Uani 1 1 d . . . . .
H9O H 0.671(5) 0.122(3) 0.3474(19) 0.059(14) Uiso 1 1 d . . . . .
C10 C 0.8706(3) 0.04332(17) 0.37446(13) 0.0328(7) Uani 1 1 d . . . . .
C11 C 0.3330(3) 0.1467(2) 0.63457(12) 0.0385(7) Uani 1 1 d . . . . .
C12 C 0.3363(3) 0.16607(19) 0.58109(12) 0.0338(7) Uani 1 1 d . . . . .
H12A H 0.2726 0.2000 0.5660 0.041 Uiso 1 1 calc R U . . .
C13 C 0.3986(3) 0.18072(16) 0.45440(11) 0.0283(6) Uani 1 1 d . . . . .
C14 C 0.8357(4) 0.07961(18) 0.32554(14) 0.0384(7) Uani 1 1 d . . . . .
C15 C 0.3204(3) 0.14492(19) 0.41220(12) 0.0361(7) Uani 1 1 d . . . . .
H15A H 0.3281 0.0948 0.4085 0.043 Uiso 1 1 calc R U . . .
C16 C 0.3888(4) 0.25555(17) 0.45731(12) 0.0347(7) Uani 1 1 d . . . . .
C17 C 0.3017(4) 0.29434(19) 0.42078(14) 0.0465(9) Uani 1 1 d . . . . .
H17A H 0.2963 0.3447 0.4234 0.056 Uiso 1 1 calc R U . . .
C18 C 0.2326(4) 0.1838(2) 0.37643(14) 0.0463(9) Uani 1 1 d . . . . .
H18A H 0.1798 0.1596 0.3495 0.056 Uiso 1 1 calc R U . . .
C19 C 0.9267(4) 0.0730(2) 0.27976(15) 0.0478(9) Uani 1 1 d . . . . .
H19A H 0.9034 0.0967 0.2472 0.057 Uiso 1 1 calc R U . . .
C20 C 0.2235(5) 0.2584(2) 0.38077(14) 0.0515(10) Uani 1 1 d . . . . .
H20A H 0.1645 0.2844 0.3567 0.062 Uiso 1 1 calc R U . . .
C21 C 1.0877(4) -0.0054(3) 0.33118(16) 0.0598(12) Uani 1 1 d . . . . .
H21A H 1.1716 -0.0337 0.3330 0.072 Uiso 1 1 calc R U . . .
C23 C 1.0516(4) 0.0311(3) 0.28303(16) 0.0544(11) Uani 1 1 d . . . . .
H23A H 1.1124 0.0273 0.2526 0.065 Uiso 1 1 calc R U . . .
C24 C 0.9978(4) 0.0009(2) 0.37606(15) 0.0497(10) Uani 1 1 d . . . . .
H24A H 1.0218 -0.0235 0.4083 0.060 Uiso 1 1 calc R U . . .
C22 C 0.2409(15) 0.1765(16) 0.6813(5) 0.0679(19) Uani 0.644(5) 1 d D . P A 1
H22A H 0.2954 0.2191 0.6940 0.081 Uiso 0.644(5) 1 calc R U P A 1
C25 C 0.1042(7) 0.2071(4) 0.6596(2) 0.0582(11) Uani 0.644(5) 1 d D . P A 1
H25A H 0.0479 0.2269 0.6893 0.087 Uiso 0.644(5) 1 calc R U P A 1
H25B H 0.0493 0.1695 0.6417 0.087 Uiso 0.644(5) 1 calc R U P A 1
H25C H 0.1262 0.2448 0.6336 0.087 Uiso 0.644(5) 1 calc R U P A 1
C26 C 0.2286(8) 0.1325(4) 0.7291(2) 0.0582(11) Uani 0.644(5) 1 d . . P A 1
H26A H 0.1693 0.1569 0.7558 0.087 Uiso 0.644(5) 1 calc R U P A 1
H26B H 0.3239 0.1239 0.7441 0.087 Uiso 0.644(5) 1 calc R U P A 1
H26C H 0.1844 0.0869 0.7195 0.087 Uiso 0.644(5) 1 calc R U P A 1
C22' C 0.242(3) 0.181(3) 0.6776(11) 0.0679(19) Uani 0.356(5) 1 d D . P A 2
H22B H 0.1977 0.2228 0.6597 0.081 Uiso 0.356(5) 1 calc R U P A 2
C25' C 0.1203(13) 0.1401(7) 0.7000(4) 0.0582(11) Uani 0.356(5) 1 d D . P A 2
H25D H 0.0876 0.1629 0.7333 0.087 Uiso 0.356(5) 1 calc R U P A 2
H25E H 0.1504 0.0913 0.7077 0.087 Uiso 0.356(5) 1 calc R U P A 2
H25F H 0.0420 0.1395 0.6738 0.087 Uiso 0.356(5) 1 calc R U P A 2
C26' C 0.3242(13) 0.2111(8) 0.7238(4) 0.0582(11) Uani 0.356(5) 1 d D . P A 2
H26D H 0.2575 0.2292 0.7509 0.087 Uiso 0.356(5) 1 calc R U P A 2
H26E H 0.3847 0.2501 0.7109 0.087 Uiso 0.356(5) 1 calc R U P A 2
H26F H 0.3843 0.1740 0.7398 0.087 Uiso 0.356(5) 1 calc R U P A 2
loop_
_atom_site_aniso_label
_atom_site_aniso_U_11
_atom_site_aniso_U_22
_atom_site_aniso_U_33
_atom_site_aniso_U_23
_atom_site_aniso_U_13
_atom_site_aniso_U_12
S1 0.0358(4) 0.0489(5) 0.0207(4) 0.0077(3) -0.0011(3) -0.0074(3)
Cl1 0.0510(5) 0.0319(4) 0.0483(5) -0.0065(3) 0.0015(4) 0.0029(4)
N1 0.0277(12) 0.0257(11) 0.0285(12) 0.0035(9) -0.0059(10) -0.0050(10)
S2 0.0236(4) 0.0296(4) 0.0376(4) -0.0025(3) -0.0045(3) 0.0048(3)
N2 0.0232(11) 0.0256(11) 0.0261(11) -0.0036(9) 0.0025(9) 0.0001(9)
C3 0.0253(13) 0.0276(13) 0.0233(13) 0.0022(10) -0.0034(10) -0.0068(11)
C4 0.0232(13) 0.0251(13) 0.0211(12) 0.0005(10) 0.0003(10) -0.0006(10)
C5 0.0232(13) 0.0304(13) 0.0205(13) 0.0003(10) -0.0002(10) -0.0044(11)
C6 0.0217(12) 0.0215(12) 0.0289(14) 0.0000(10) -0.0037(10) -0.0017(10)
C7 0.0224(12) 0.0223(12) 0.0251(13) -0.0012(9) 0.0005(10) -0.0027(10)
C8 0.0235(13) 0.0269(13) 0.0300(14) -0.0066(10) -0.0015(11) -0.0034(11)
O9 0.0642(18) 0.0580(16) 0.0359(13) 0.0087(12) 0.0179(13) 0.0254(14)
C10 0.0248(14) 0.0406(16) 0.0330(15) -0.0145(12) 0.0002(12) -0.0018(13)
C11 0.0261(14) 0.066(2) 0.0229(14) -0.0001(14) 0.0018(12) 0.0000(15)
C12 0.0258(14) 0.0496(18) 0.0259(14) 0.0001(12) -0.0003(11) 0.0038(13)
C13 0.0301(14) 0.0334(14) 0.0216(13) 0.0028(10) 0.0055(11) 0.0093(12)
C14 0.0381(17) 0.0396(17) 0.0374(17) -0.0094(13) 0.0084(14) -0.0010(14)
C15 0.0366(17) 0.0429(17) 0.0288(15) 0.0044(12) 0.0015(13) 0.0122(14)
C16 0.0387(17) 0.0377(16) 0.0277(15) -0.0011(12) 0.0057(12) 0.0100(14)
C17 0.061(2) 0.0375(17) 0.0409(19) 0.0026(14) 0.0045(17) 0.0233(17)
C18 0.055(2) 0.054(2) 0.0294(16) -0.0041(14) -0.0089(15) 0.0185(18)
C19 0.049(2) 0.061(2) 0.0335(17) -0.0101(16) 0.0116(16) -0.0022(18)
C20 0.067(2) 0.054(2) 0.0336(17) 0.0055(15) -0.0049(17) 0.030(2)
C21 0.0293(17) 0.107(4) 0.044(2) -0.030(2) -0.0037(16) 0.016(2)
C23 0.0347(18) 0.085(3) 0.044(2) -0.029(2) 0.0116(16) -0.0045(19)
C24 0.0295(17) 0.080(3) 0.0394(19) -0.0223(18) -0.0037(14) 0.0146(17)
C22 0.046(2) 0.137(5) 0.021(2) 0.001(3) 0.0096(18) 0.023(3)
C25 0.055(2) 0.087(3) 0.0333(18) -0.0026(18) 0.0083(16) 0.022(2)
C26 0.055(2) 0.087(3) 0.0333(18) -0.0026(18) 0.0083(16) 0.022(2)
C22' 0.046(2) 0.137(5) 0.021(2) 0.001(3) 0.0096(18) 0.023(3)
C25' 0.055(2) 0.087(3) 0.0333(18) -0.0026(18) 0.0083(16) 0.022(2)
C26' 0.055(2) 0.087(3) 0.0333(18) -0.0026(18) 0.0083(16) 0.022(2)
loop_
_atom_type_symbol
_atom_type_description
_atom_type_scat_dispersion_real
_atom_type_scat_dispersion_imag
_atom_type_scat_source
C C 0.0033 0.0016 'International Tables Vol C Tables 4.2.6.8 and 6.1.1.4'
H H 0.0000 0.0000 'International Tables Vol C Tables 4.2.6.8 and 6.1.1.4'
N N 0.0061 0.0033 'International Tables Vol C Tables 4.2.6.8 and 6.1.1.4'
O O 0.0106 0.0060 'International Tables Vol C Tables 4.2.6.8 and 6.1.1.4'
S S 0.1246 0.1234 'International Tables Vol C Tables 4.2.6.8 and 6.1.1.4'
Cl Cl 0.1484 0.1585 'International Tables Vol C Tables 4.2.6.8 and 6.1.1.4'
loop_
_geom_angle_atom_site_label_1
_geom_angle_atom_site_label_2
_geom_angle_atom_site_label_3
_geom_angle
C3 S1 C11 91.33(14)
C6 N1 C3 113.4(2)
C6 S2 C8 88.93(13)
C8 N2 C7 111.3(2)
N1 C3 C5 126.5(3)
N1 C3 S1 121.9(2)
C5 C3 S1 111.6(2)
C7 C4 C5 115.6(2)
C7 C4 C13 121.5(2)
C5 C4 C13 122.7(2)
C4 C5 C3 118.7(3)
C4 C5 C12 130.5(3)
C3 C5 C12 110.8(2)
N1 C6 C7 126.6(3)
N1 C6 S2 123.7(2)
C7 C6 S2 109.7(2)
N2 C7 C4 126.4(2)
N2 C7 C6 114.4(2)
C4 C7 C6 119.1(2)
N2 C8 C10 123.5(3)
N2 C8 S2 115.5(2)
C10 C8 S2 120.9(2)
C14 O9 H9O 111(3)
C14 C10 C24 118.5(3)
C14 C10 C8 120.4(3)
C24 C10 C8 121.1(3)
C12 C11 C22' 126(2)
C12 C11 C22 129.8(11)
C12 C11 S1 112.1(2)
C22' C11 S1 122(2)
C22 C11 S1 118.1(10)
C11 C12 C5 114.1(3)
C11 C12 H12A 122.9
C5 C12 H12A 122.9
C16 C13 C15 117.9(3)
C16 C13 C4 123.7(3)
C15 C13 C4 118.4(3)
O9 C14 C19 117.7(3)
O9 C14 C10 122.4(3)
C19 C14 C10 120.0(3)
C18 C15 C13 120.7(3)
C18 C15 H15A 119.7
C13 C15 H15A 119.7
C13 C16 C17 121.0(3)
C13 C16 Cl1 120.1(2)
C17 C16 Cl1 118.9(3)
C20 C17 C16 120.2(3)
C20 C17 H17A 119.9
C16 C17 H17A 119.9
C20 C18 C15 120.1(3)
C20 C18 H18A 120.0
C15 C18 H18A 120.0
C23 C19 C14 119.8(4)
C23 C19 H19A 120.1
C14 C19 H19A 120.1
C17 C20 C18 120.0(3)
C17 C20 H20A 120.0
C18 C20 H20A 120.0
C24 C21 C23 119.1(4)
C24 C21 H21A 120.4
C23 C21 H21A 120.4
C19 C23 C21 121.0(3)
C19 C23 H23A 119.5
C21 C23 H23A 119.5
C21 C24 C10 121.5(4)
C21 C24 H24A 119.2
C10 C24 H24A 119.2
C26 C22 C25 116.4(10)
C26 C22 C11 117(2)
C25 C22 C11 110.0(9)
C26 C22 H22A 103.9
C25 C22 H22A 103.9
C11 C22 H22A 103.9
C22 C25 H25A 109.5
C22 C25 H25B 109.5
H25A C25 H25B 109.5
C22 C25 H25C 109.5
H25A C25 H25C 109.5
H25B C25 H25C 109.5
C22 C26 H26A 109.5
C22 C26 H26B 109.5
H26A C26 H26B 109.5
C22 C26 H26C 109.5
H26A C26 H26C 109.5
H26B C26 H26C 109.5
C25' C22' C26' 107.8(18)
C25' C22' C11 119(3)
C26' C22' C11 115(2)
C25' C22' H22B 104.7
C26' C22' H22B 104.7
C11 C22' H22B 104.7
C22' C25' H25D 109.5
C22' C25' H25E 109.5
H25D C25' H25E 109.5
C22' C25' H25F 109.5
H25D C25' H25F 109.5
H25E C25' H25F 109.5
C22' C26' H26D 109.5
C22' C26' H26E 109.5
H26D C26' H26E 109.5
C22' C26' H26F 109.5
H26D C26' H26F 109.5
H26E C26' H26F 109.5
loop_
_geom_bond_atom_site_label_1
_geom_bond_atom_site_label_2
_geom_bond_distance
S1 C3 1.737(3)
S1 C11 1.756(4)
Cl1 C16 1.745(3)
N1 C6 1.323(4)
N1 C3 1.325(4)
S2 C6 1.739(3)
S2 C8 1.751(3)
N2 C8 1.310(4)
N2 C7 1.382(3)
C3 C5 1.421(4)
C4 C7 1.399(4)
C4 C5 1.405(4)
C4 C13 1.484(4)
C5 C12 1.439(4)
C6 C7 1.415(4)
C8 C10 1.451(4)
O9 C14 1.354(4)
O9 H9O 0.77(5)
C10 C14 1.402(5)
C10 C24 1.405(5)
C11 C12 1.350(4)
C11 C22' 1.48(3)
C11 C22 1.519(16)
C12 H12A 0.9300
C13 C16 1.382(4)
C13 C15 1.415(4)
C14 C19 1.397(5)
C15 C18 1.385(4)
C15 H15A 0.9300
C16 C17 1.392(5)
C17 C20 1.379(5)
C17 H17A 0.9300
C18 C20 1.380(5)
C18 H18A 0.9300
C19 C23 1.383(6)
C19 H19A 0.9300
C20 H20A 0.9300
C21 C24 1.373(5)
C21 C23 1.391(6)
C21 H21A 0.9300
C23 H23A 0.9300
C24 H24A 0.9300
C22 C26 1.42(2)
C22 C25 1.47(2)
C22 H22A 0.9800
C25 H25A 0.9600
C25 H25B 0.9600
C25 H25C 0.9600
C26 H26A 0.9600
C26 H26B 0.9600
C26 H26C 0.9600
C22' C25' 1.45(2)
C22' C26' 1.463(19)
C22' H22B 0.9800
C25' H25D 0.9600
C25' H25E 0.9600
C25' H25F 0.9600
C26' H26D 0.9600
C26' H26E 0.9600
C26' H26F 0.9600
loop_
_geom_hbond_atom_site_label_D
_geom_hbond_atom_site_label_H
_geom_hbond_atom_site_label_A
_geom_hbond_distance_DH
_geom_hbond_distance_HA
_geom_hbond_distance_DA
_geom_hbond_angle_DHA
_geom_hbond_site_symmetry_A
O9 H9O N2 0.77(5) 1.95(5) 2.629(3) 146(5) .
C17 H17A N1 0.93 2.64 3.470(4) 148.8 4_456
loop_
_geom_torsion_atom_site_label_1
_geom_torsion_atom_site_label_2
_geom_torsion_atom_site_label_3
_geom_torsion_atom_site_label_4
_geom_torsion
C6 N1 C3 C5 0.7(4)
C6 N1 C3 S1 -178.0(2)
C11 S1 C3 N1 178.5(2)
C11 S1 C3 C5 -0.4(2)
C7 C4 C5 C3 -3.0(4)
C13 C4 C5 C3 173.2(3)
C7 C4 C5 C12 177.9(3)
C13 C4 C5 C12 -5.9(5)
N1 C3 C5 C4 1.4(4)
S1 C3 C5 C4 -179.9(2)
N1 C3 C5 C12 -179.4(3)
S1 C3 C5 C12 -0.6(3)
C3 N1 C6 C7 -1.0(4)
C3 N1 C6 S2 177.2(2)
C8 S2 C6 N1 -176.7(2)
C8 S2 C6 C7 1.7(2)
C8 N2 C7 C4 177.4(3)
C8 N2 C7 C6 -0.7(3)
C5 C4 C7 N2 -175.2(3)
C13 C4 C7 N2 8.6(4)
C5 C4 C7 C6 2.8(4)
C13 C4 C7 C6 -173.4(3)
N1 C6 C7 N2 177.4(3)
S2 C6 C7 N2 -1.0(3)
N1 C6 C7 C4 -0.8(4)
S2 C6 C7 C4 -179.2(2)
C7 N2 C8 C10 -176.1(2)
C7 N2 C8 S2 2.1(3)
C6 S2 C8 N2 -2.3(2)
C6 S2 C8 C10 176.0(2)
N2 C8 C10 C14 -5.5(4)
S2 C8 C10 C14 176.3(2)
N2 C8 C10 C24 173.7(3)
S2 C8 C10 C24 -4.5(4)
C3 S1 C11 C12 1.3(3)
C3 S1 C11 C22' -174.0(12)
C3 S1 C11 C22 -176.2(7)
C22' C11 C12 C5 173.2(10)
C22 C11 C12 C5 175.2(8)
S1 C11 C12 C5 -1.9(4)
C4 C5 C12 C11 -179.2(3)
C3 C5 C12 C11 1.6(4)
C7 C4 C13 C16 -117.8(3)
C5 C4 C13 C16 66.3(4)
C7 C4 C13 C15 63.5(4)
C5 C4 C13 C15 -112.4(3)
C24 C10 C14 O9 179.1(3)
C8 C10 C14 O9 -1.7(5)
C24 C10 C14 C19 0.1(5)
C8 C10 C14 C19 179.3(3)
C16 C13 C15 C18 -2.4(5)
C4 C13 C15 C18 176.3(3)
C15 C13 C16 C17 1.7(5)
C4 C13 C16 C17 -177.1(3)
C15 C13 C16 Cl1 -177.2(2)
C4 C13 C16 Cl1 4.1(4)
C13 C16 C17 C20 -0.1(5)
Cl1 C16 C17 C20 178.8(3)
C13 C15 C18 C20 1.7(5)
O9 C14 C19 C23 -179.6(3)
C10 C14 C19 C23 -0.5(5)
C16 C17 C20 C18 -0.7(6)
C15 C18 C20 C17 0.0(6)
C14 C19 C23 C21 0.6(6)
C24 C21 C23 C19 -0.4(6)
C23 C21 C24 C10 -0.1(6)
C14 C10 C24 C21 0.2(5)
C8 C10 C24 C21 -179.0(4)
C12 C11 C22 C26 161.9(6)
S1 C11 C22 C26 -21.1(10)
C12 C11 C22 C25 26.4(18)
S1 C11 C22 C25 -156.7(11)
C12 C11 C22' C25' 109(4)
S1 C11 C22' C25' -76(3)
C12 C11 C22' C26' -121(3)
S1 C11 C22' C26' 53(4)
