#------------------------------------------------------------------------------
#$Date: 2016-03-04 14:04:52 +0200 (Fri, 04 Mar 2016) $
#$Revision: 177533 $
#$URL: svn://www.crystallography.net/cod/cif/1/54/24/1542484.cif $
#------------------------------------------------------------------------------
#
# This file is available in the Crystallography Open Database (COD),
# http://www.crystallography.net/
#
# All data on this site have been placed in the public domain by the
# contributors.
#
data_1542484
loop_
_publ_author_name
'Nageshwari, M.'
'Kumaresan, S.'
'Caroline, M. Lydia'
'Mani, G.'
'Kumari, C. Rathika Thaya'
'Sudha, S.'
'Jayaprakash, P.'
_publ_section_title
;
 <small>L</small>-Methionine--succinic acid (2/1)
;
_journal_issue                   1
_journal_name_full               IUCrData
_journal_page_first              x152459
_journal_paper_doi               10.1107/S2414314615024591
_journal_volume                  1
_journal_year                    2016
_chemical_formula_iupac          '2C5 H11 N O2 S, C4 H6 O4'
_chemical_formula_moiety         '2(C5 H11 N O2 S), C4 H6 O4'
_chemical_formula_sum            'C14 H28 N2 O8 S2'
_chemical_formula_weight         416.50
_chemical_name_systematic
;
<i>L</i>-Methionine--succinic acid (2/1)
;
_space_group_crystal_system      triclinic
_space_group_IT_number           1
_space_group_name_Hall           'P 1'
_space_group_name_H-M_alt        'P 1'
_symmetry_space_group_name_Hall  'P 1'
_symmetry_space_group_name_H-M   'P 1'
_atom_sites_solution_hydrogens   mixed
_atom_sites_solution_primary     direct
_atom_sites_solution_secondary   difmap
_audit_creation_method           SHELXL-2014/7
_cell_angle_alpha                86.645(2)
_cell_angle_beta                 83.338(3)
_cell_angle_gamma                68.908(5)
_cell_formula_units_Z            1
_cell_length_a                   5.0283(4)
_cell_length_b                   5.0580(4)
_cell_length_c                   20.8394(18)
_cell_measurement_reflns_used    5997
_cell_measurement_temperature    293(2)
_cell_measurement_theta_max      28.30
_cell_measurement_theta_min      2.95
_cell_volume                     491.08(7)
_computing_cell_refinement
;
APEX2 and SAINT (Bruker, 2004)
;
_computing_data_collection
;
APEX2 (Bruker, 2004)
;
_computing_data_reduction
;
SAINT and XPREP (Bruker, 2004)
;
_computing_molecular_graphics
;
ORTEP-3 for Windows (Farrugia, 2012) and Mercury (Macrae <i>et al.</i>,
2008)
;
_computing_publication_material
;
SHELXL2014 (Sheldrick, 2015)
;
_computing_structure_refinement
;
SHELXL2014 (Sheldrick, 2015)
;
_computing_structure_solution
;
SIR92 (Altomare <i>et al.</i>,  1994)
;
_diffrn_ambient_temperature      293(2)
_diffrn_measured_fraction_theta_full 0.983
_diffrn_measured_fraction_theta_max 0.981
_diffrn_measurement_device_type  'Bruker Kappa APEXII CCD'
_diffrn_measurement_method       '\w and \f scan'
_diffrn_radiation_monochromator  graphite
_diffrn_radiation_source         'fine-focus sealed tube'
_diffrn_radiation_type           MoK\a
_diffrn_radiation_wavelength     0.71073
_diffrn_reflns_av_R_equivalents  0.0350
_diffrn_reflns_limit_h_max       6
_diffrn_reflns_limit_h_min       -6
_diffrn_reflns_limit_k_max       5
_diffrn_reflns_limit_k_min       -6
_diffrn_reflns_limit_l_max       25
_diffrn_reflns_limit_l_min       -25
_diffrn_reflns_number            8433
_diffrn_reflns_theta_full        25.242
_diffrn_reflns_theta_max         25.999
_diffrn_reflns_theta_min         2.953
_exptl_absorpt_coefficient_mu    0.314
_exptl_absorpt_correction_T_max  0.956
_exptl_absorpt_correction_T_min  0.873
_exptl_absorpt_correction_type   multi-scan
_exptl_absorpt_process_details
;
(SADABS; Bruker, 2004)
;
_exptl_crystal_colour            colourless
_exptl_crystal_density_diffrn    1.408
_exptl_crystal_description       block
_exptl_crystal_F_000             222
_exptl_crystal_size_max          0.350
_exptl_crystal_size_mid          0.300
_exptl_crystal_size_min          0.250
_refine_diff_density_max         0.561
_refine_diff_density_min         -0.380
_refine_ls_abs_structure_details
;
Flack <i>x</i> determined using 1325 quotients
[(<i>I</i>^+^)-(<i>I</i>^-^)]/[(<i>I</i>^+^)+(<i>I</i>^-^)]
(Parsons <i>et al.</i>,  2013)
;
_refine_ls_abs_structure_Flack   0.06(4)
_refine_ls_extinction_method     none
_refine_ls_goodness_of_fit_ref   1.114
_refine_ls_hydrogen_treatment    constr
_refine_ls_matrix_type           full
_refine_ls_number_parameters     244
_refine_ls_number_reflns         3428
_refine_ls_number_restraints     9
_refine_ls_restrained_S_all      1.112
_refine_ls_R_factor_all          0.0660
_refine_ls_R_factor_gt           0.0634
_refine_ls_shift/su_max          0.001
_refine_ls_shift/su_mean         0.000
_refine_ls_structure_factor_coef Fsqd
_refine_ls_weighting_details
'w=1/[\s^2^(Fo^2^)+(0.0480P)^2^+1.4388P] where P=(Fo^2^+2Fc^2^)/3'
_refine_ls_weighting_scheme      calc
_refine_ls_wR_factor_gt          0.1697
_refine_ls_wR_factor_ref         0.1711
_reflns_number_gt                3251
_reflns_number_total             3428
_reflns_threshold_expression     'I > 2\s(I)'
_cod_data_source_file            su4005sup1.cif
_cod_data_source_block           I
_cod_depositor_comments          'Adding full bibliography for 1542484.cif.'
_cod_database_code               1542484
_cod_database_fobs_code          1542484
_shelx_space_group_comment
;
The symmetry employed for this shelxl refinement is uniquely defined
by the following loop, which should always be used as a source of
symmetry information in preference to the above space-group names.
They are only intended as comments.
;
_shelx_estimated_absorpt_t_min   0.898
_shelx_estimated_absorpt_t_max   0.926
_shelx_hkl_file
;
  -1   0   0  260.00   11.41
  -1   0   0  219.55   11.47
   1   0   0  219.80   11.47
   1   0   0  249.92   11.40
   1   0   0  262.29   16.24
  -2   0   0  172.28    8.78
  -2   0   0  178.85    8.79
  -2   0   0  195.34    8.70
   2   0   0  195.92    8.70
   2   0   0  174.48   12.39
   2   0   0  189.44    8.79
  -3   0   0   82.89    3.83
  -3   0   0   86.80    3.85
  -3   0   0   69.86    3.77
   3   0   0   71.69    5.36
   3   0   0   70.53    3.77
   3   0   0   83.28    3.84
  -4   0   0   32.44    1.86
   4   0   0   31.77    1.83
   4   0   0   33.09    1.81
  -5   0   0    5.77    0.66
   5   0   0    5.99    0.77
   5   0   0    5.11    0.67
  -6   0   0    1.34    0.50
   5  -1   0    1.64    0.44
   5  -1   0    1.80    0.52
   4  -1   0   14.48    1.04
   3  -1   0   29.07    2.26
   3  -1   0   26.21    1.65
  -3   1   0   26.69    1.64
  -3   1   0   33.14    2.36
  -3   1   0   33.50    1.73
   2  -1   0   54.27    2.89
   2  -1   0   64.27    2.95
   2  -1   0   53.94    4.09
   2  -1   0   60.83    2.97
  -2   1   0   63.96    4.16
  -2   1   0   67.92    2.96
  -2   1   0   52.88    2.88
  -2   1   0   57.31    3.02
  -2   1   0   55.30    2.92
   0  -1   0  122.78    6.35
   0  -1   0  135.36    8.97
   0  -1   0  118.60    6.34
   0   1   0  125.84    6.34
   0   1   0  149.07    6.28
   0   1   0  149.36    8.97
  -1  -1   0  187.31    8.26
   1   1   0  174.77    7.22
  -2  -1   0  287.88   13.50
  -2  -1   0  274.39   13.00
  -2  -1   0  306.02   12.05
   2   1   0  272.45   13.36
   2   1   0  285.23   13.49
  -3  -1   0  119.63    5.84
  -3  -1   0  125.72    5.89
  -3  -1   0  123.70    5.87
  -3  -1   0  125.48    5.70
   3   1   0  117.38    5.87
   3   1   0  124.62    6.20
   3   1   0  123.45    5.89
   3   1   0  118.57    5.84
  -4  -1   0   16.35    1.04
  -4  -1   0   20.23    1.12
   4   1   0   16.38    1.05
   4   1   0   18.46    1.66
   5   1   0    1.89    0.44
  -6  -1   0    2.62    0.59
   6   1   0    2.18    0.53
   4  -2   0    0.24    0.35
   4  -2   0    0.56    0.26
  -4   2   0    0.24    0.53
   3  -2   0   25.05    1.59
   3  -2   0   25.56    1.56
  -3   2   0   29.29    2.30
  -3   2   0   24.67    1.47
   2  -2   0   32.92    2.74
   2  -2   0   36.81    1.96
   2  -2   0   38.12    2.00
  -2   2   0   38.92    2.00
  -2   2   0   38.93    2.82
   1  -2   0  105.51    5.34
   1  -2   0  110.73    7.62
   1  -2   0  116.72    5.42
   1  -2   0  113.46    5.43
  -1   2   0  119.72    7.65
  -1   2   0  107.35    5.39
  -1   2   0  104.83    5.33
  -1   2   0  112.80    5.40
   0  -2   0   86.77    3.98
   0  -2   0   76.37    3.96
   0   2   0   92.13    5.64
   0   2   0   82.35    3.96
   0   2   0   80.46    3.92
   0   2   0   73.43    3.95
  -1  -2   0   24.94    1.30
  -1  -2   0   30.38    1.25
   1   2   0   24.87    1.29
   1   2   0   25.57    1.34
  -2  -2   0   37.31    1.71
  -2  -2   0   36.43    1.81
  -3  -2   0   73.36    3.45
  -3  -2   0   78.28    3.25
   3   2   0   68.21    3.01
   3   2   0   69.42    3.50
  -4  -2   0    3.12    0.43
  -4  -2   0    3.68    0.40
  -4  -2   0    3.54    0.50
   4   2   0    3.31    0.34
   4   2   0    2.86    0.39
   4   2   0    2.84    0.39
  -5  -2   0   30.54    1.71
   5   2   0   29.18    1.73
   5   2   0   32.45    1.96
  -6  -2   0    8.56    0.80
   6   2   0    7.03    0.77
   4  -3   0   21.17    1.43
  -4   3   0   14.35    2.01
   3  -3   0    2.00    0.49
   3  -3   0    2.08    0.47
  -3   3   0    3.24    0.81
   2  -3   0   19.66    1.19
   2  -3   0   13.88    0.89
   1  -3   0  103.00    5.00
  -1   3   0   99.38    7.01
  -1   3   0   98.09    4.95
   0  -3   0   29.10    1.77
   0  -3   0   28.73    1.71
   0   3   0   36.15    2.54
   0   3   0   38.08    1.76
  -1  -3   0    9.83    0.73
   1   3   0   10.86    0.59
   1   3   0    9.84    0.61
  -3  -3   0   35.27    1.66
  -3  -3   0   32.78    1.72
   3   3   0   31.62    1.81
  -4  -3   0   13.52    0.89
  -4  -3   0   14.46    0.93
   4   3   0   13.57    0.88
   4   3   0   14.64    1.01
  -5  -3   0    6.52    0.64
  -5  -3   0    6.39    0.67
   5   3   0    5.84    0.79
   5   3   0    5.59    0.59
  -6  -3   0    2.91    0.62
  -3   4   0   14.71    2.10
   2  -4   0    1.27    0.45
  -2   4   0    1.69    0.64
   1  -4   0   40.76    2.22
  -1   4   0   37.03    3.14
   0  -4   0    8.70    0.82
   0   4   0   12.82    1.33
  -1  -4   0   25.07    1.38
  -1  -4   0   23.93    1.42
   1   4   0   26.84    2.16
  -2  -4   0   46.39    2.29
   2   4   0   47.00    2.48
   2   4   0   49.95    3.67
  -3  -4   0    4.90    0.50
   3   4   0    4.90    0.36
   3   4   0    5.60    0.56
  -4  -4   0    7.38    0.68
  -4  -4   0    7.00    0.70
   4   4   0    7.56    0.63
   4   4   0    7.45    0.74
  -5  -4   0    4.00    0.63
  -5  -4   0    4.76    0.65
   5   4   0    4.74    0.56
  -6  -4   0    2.38    0.60
  -6  -4   0    1.38    0.51
   1  -5   0    4.16    0.68
  -1   5   0    4.62    1.00
   0  -5   0    2.27    0.55
  -1  -5   0   30.70    1.73
  -2  -5   0    5.65    0.62
   2   5   0    4.15    0.42
  -3  -5   0    5.28    0.58
   3   5   0    5.05    0.54
   3   5   0    5.02    0.43
  -4  -5   0   37.36    2.01
   4   5   0   37.48    2.21
  -5  -5   0    3.24    0.59
  -5  -5   0    3.41    0.64
   5   5   0    4.01    0.57
  -6  -5   0    4.51    0.72
  -6  -5   0    6.58    0.83
   0  -6   0    1.87    0.62
  -1  -6   0    5.81    0.85
  -2  -6   0   12.60    1.04
  -3  -6   0    0.96    0.45
  -4  -6   0    4.46    0.75
  -5  -6   0    1.57    0.54
  -5  -6   1    0.51    0.45
  -4  -6   1    0.88    0.46
  -3  -6   1    3.45    0.65
  -2  -6   1    7.16    0.76
  -1  -6   1    8.65    0.86
   0  -6   1    1.90    0.57
  -6  -5   1    2.93    0.61
  -6  -5   1    4.62    0.75
  -5  -5   1    0.78    0.42
  -5  -5   1    1.52    0.52
   4   5  -1   29.42    1.81
  -4  -5   1   28.32    1.65
   3   5  -1    3.52    0.48
  -3  -5   1    3.13    0.55
   2   5  -1   12.35    0.78
  -2  -5   1   11.35    0.87
  -1  -5   1   33.78    1.85
   0  -5   1    4.09    0.66
   1  -5   1    5.67    0.77
  -2   5  -1    1.12    0.72
  -6  -4   1    0.98    0.46
  -6  -4   1    1.33    0.52
   5   4  -1    1.95    0.38
   5   4  -1    1.46    0.47
  -5  -4   1    1.38    0.40
  -5  -4   1    1.79    0.47
   4   4  -1    5.97    0.70
   4   4  -1    6.21    0.56
  -4  -4   1    6.15    0.60
  -4  -4   1    6.29    0.64
   3   4  -1   17.18    0.82
   3   4  -1   17.31    1.13
  -3  -4   1   17.96    1.06
  -2  -4   1   13.45    0.83
  -2  -4   1   12.58    0.85
   1   4  -1    8.89    0.56
   1   4  -1   10.72    1.19
  -1  -4   1    8.95    0.70
  -1  -4   1    7.85    0.67
   0   4  -1   10.81    1.25
   0  -4   1    8.05    0.77
   2  -4   1    4.03    0.64
   3  -4   1    9.22    1.04
  -6  -3   1    5.13    0.68
   5   3  -1    9.14    0.93
   5   3  -1    7.86    0.67
  -5  -3   1    7.32    0.72
  -5  -3   1    7.82    0.71
   4   3  -1   25.43    1.45
   4   3  -1   29.32    1.66
  -4  -3   1   25.79    1.44
  -4  -3   1   27.87    1.51
   3   3  -1   39.18    2.15
  -3  -3   1   38.69    2.01
  -3  -3   1   41.25    1.93
   2   3  -1    9.29    0.67
   2   3  -1   10.27    0.57
   2   3  -1   10.11    0.53
  -2  -3   1   10.55    0.66
  -2  -3   1    9.74    0.60
  -2  -3   1   11.72    0.59
   1   3  -1   36.17    1.89
   1   3  -1   37.86    1.88
   1   3  -1   37.41    2.81
  -1  -3   1   40.63    1.89
  -1  -3   1   38.17    1.79
  -1  -3   1   33.05    1.93
   0   3  -1   87.90    6.66
   0   3  -1   95.25    4.70
   0  -3   1  103.47    4.72
   0  -3   1   97.82    4.75
  -1   3  -1   64.66    4.77
   1  -3   1   67.82    3.37
  -2   3  -1   32.04    2.47
  -2   3  -1   29.98    1.75
   2  -3   1   25.17    1.63
  -3   3  -1   14.61    1.91
   3  -3   1   19.76    1.13
   3  -3   1   17.90    1.33
   3  -3   1   19.09    1.29
  -4   3  -1    6.79    1.16
   4  -3   1    6.71    0.91
  -6  -2   1    6.78    0.74
   5   2  -1   35.12    1.99
   5   2  -1   37.66    2.25
  -5  -2   1   36.46    1.96
   4   2  -1    5.90    0.46
   4   2  -1    4.72    0.62
   4   2  -1    6.32    0.50
   4   2  -1    5.20    0.49
  -4  -2   1    5.39    0.51
  -4  -2   1    4.99    0.50
  -4  -2   1    6.86    0.51
   3   2  -1    1.83    0.32
   3   2  -1    2.66    0.30
   3   2  -1    2.08    0.20
  -3  -2   1    2.77    0.33
  -3  -2   1    2.37    0.33
   2   2  -1  226.41   11.65
   2   2  -1  231.12    9.52
  -2  -2   1  255.56   10.15
  -2  -2   1  241.51   10.92
   1   2  -1   51.15    2.37
   1   2  -1   49.86    2.44
   1   2  -1   50.71    2.36
  -1  -2   1   47.23    2.36
  -1  -2   1   49.01    2.18
  -1  -2   1   44.23    2.38
   0   2  -1   82.80    5.55
   0   2  -1   81.44    3.87
   0   2  -1   78.70    3.91
   0  -2   1   78.64    3.93
   0  -2   1   80.59    3.92
   0  -2   1   82.51    3.94
  -1   2  -1   89.72    4.62
  -1   2  -1  109.12    4.71
  -1   2  -1   96.99    4.68
  -1   2  -1   97.74    6.62
   1  -2   1   94.90    4.69
   1  -2   1   94.13    4.64
   1  -2   1   93.21    6.59
   1  -2   1   93.30    4.71
  -2   2  -1   54.59    3.95
  -2   2  -1   51.85    2.81
   2  -2   1   60.39    2.84
   2  -2   1   57.36    2.79
   2  -2   1   49.74    3.91
  -3   2  -1   34.81    2.00
  -3   2  -1   36.21    2.12
  -3   2  -1   38.53    2.91
   3  -2   1   36.99    2.09
   3  -2   1   36.83    2.03
  -4   2  -1    2.05    0.67
   4  -2   1    2.47    0.56
  -6  -1   1    0.72    0.39
   5   1  -1   22.29    1.54
  -5  -1   1   21.03    1.32
   4   1  -1   20.88    1.17
   4   1  -1   20.63    1.27
   4   1  -1   17.92    1.15
  -4  -1   1   19.48    1.14
  -4  -1   1   20.54    1.20
   3   1  -1   47.39    2.48
   3   1  -1   51.24    2.50
   3   1  -1   50.52    2.59
  -3  -1   1   48.44    2.48
  -3  -1   1   50.43    2.44
  -3  -1   1   49.94    2.50
  -3  -1   1   54.60    2.52
  -2  -1   1    3.22    0.28
  -2  -1   1    4.33    0.30
   1   1  -1  715.17   32.93
   1   1  -1  643.61   33.90
   1   1  -1  749.09   32.92
   1   1  -1  675.17   27.75
  -1  -1   1  673.54   31.71
  -1  -1   1  721.91   32.93
   0   1  -1   86.70    4.34
   0   1  -1   99.01    4.28
   0   1  -1   87.86    4.33
   0   1  -1   85.47    6.12
   0  -1   1  106.81    4.42
   0  -1   1   77.64    4.33
   0  -1   1   89.79    4.33
  -1   1  -1  626.73   42.40
  -1   1  -1  611.56   30.00
  -1   1  -1  701.81   29.76
   1  -1   1  559.71   42.16
   1  -1   1  566.33   29.85
   1  -1   1  690.10   29.76
   1  -1   1  666.11   30.07
  -2   1  -1  147.45    7.51
  -2   1  -1  159.96    7.44
  -2   1  -1  160.54   10.58
  -2   1  -1  162.72    7.92
  -2   1  -1  163.68    7.52
   2  -1   1  149.13   10.56
   2  -1   1  147.65    7.52
   2  -1   1  157.16    7.53
   2  -1   1  158.49    7.44
  -3   1  -1   96.33    6.96
  -3   1  -1  104.11    5.13
  -3   1  -1   96.54    4.98
   3  -1   1  104.67    4.93
   3  -1   1  105.75    5.03
   3  -1   1   97.26    6.96
   4  -1   1   44.19    2.35
   4  -1   1   41.84    2.38
   5  -1   1    3.08    0.61
   6   0  -1    1.05    0.53
  -6   0   1    1.20    0.47
  -5   0   1    6.38    0.69
   4   0  -1    9.88    0.78
   4   0  -1    7.71    0.73
   4   0  -1    9.00    0.78
   3   0  -1  101.98    4.76
   3   0  -1   91.07    6.68
   3   0  -1   91.33    4.67
  -3   0   1  105.12    4.76
  -3   0   1  102.48    4.77
  -3   0   1   89.81    4.67
  -2   0   1   86.15    4.17
   1   0  -1  139.79    6.22
   1   0  -1  118.63    5.45
   1   0  -1  121.07    6.30
   1   0  -1  148.61    8.90
  -1   0   1  147.42    6.22
  -1   0   1  125.98    6.30
  -1   0   1  122.50    6.30
  -1   0  -1  216.75   10.31
  -1   0  -1  182.09   10.35
  -1   0  -1  243.65   11.09
   1   0   1  196.87   10.36
   1   0   1  245.10   14.65
   1   0   1  219.19   10.28
   1   0   1  228.28   11.07
  -2   0  -1   91.01    4.33
  -2   0  -1   82.24    4.32
  -2   0  -1   85.77    4.29
  -2   0  -1   97.92    4.54
   2   0   1   88.00    4.29
   2   0   1   85.19    4.33
   2   0   1   90.71    4.53
   2   0   1  100.00    6.10
   2   0   1   86.32    4.36
  -3   0  -1   33.16    1.65
   3   0   1   31.68    1.67
   3   0   1   30.09    2.33
  -4   0  -1   28.72    1.56
   4   0   1   25.73    1.56
  -5   0  -1    8.29    0.79
   5   0   1    9.66    0.86
  -6   0  -1    2.57    0.62
   6   0   1    0.90    0.50
   5  -1  -1    3.92    0.65
   4  -1  -1   30.18    1.86
   4  -1  -1   36.01    1.98
   3  -1  -1   45.88    2.32
   3  -1  -1   40.86    3.20
   3  -1  -1   44.55    2.28
  -3   1   1   43.10    3.27
  -3   1   1   43.73    2.33
   2  -1  -1   46.75    2.30
   2  -1  -1   46.32    2.33
   2  -1  -1   41.47    3.25
  -2   1   1   46.77    2.33
  -2   1   1   44.74    2.32
  -2   1   1   50.12    3.32
  -2   1   1   45.32    2.29
   1  -1  -1   63.13    4.29
   1  -1  -1   65.82    3.01
   1  -1  -1   55.11    3.05
   1  -1  -1   62.44    3.05
  -1   1   1   57.16    3.04
  -1   1   1   69.69    4.31
  -1   1   1   58.43    3.04
  -1   1   1   67.25    3.01
   0  -1  -1  667.06   30.51
   0  -1  -1  671.92   26.41
   0  -1  -1  594.14   30.43
   0  -1  -1  675.38   43.05
   0   1   1  674.02   30.52
   0   1   1  664.46   43.00
   0   1   1  555.44   30.40
  -1  -1  -1  421.83   19.27
  -2  -1  -1   34.60    1.69
  -3  -1  -1   33.77    1.80
   3   1   1   38.70    1.83
   3   1   1   33.31    1.83
   3   1   1   38.28    1.89
  -4  -1  -1   31.63    1.71
  -4  -1  -1   32.40    1.67
   4   1   1   32.22    1.70
   4   1   1   28.71    2.44
  -5  -1  -1   12.42    0.93
   5   1   1   12.86    0.96
  -6  -1  -1    0.34    0.38
   4  -2  -1    1.66    0.37
  -4   2   1    1.37    0.64
   3  -2  -1   53.74    2.82
   3  -2  -1   49.80    2.72
   3  -2  -1   53.84    2.74
  -3   2   1   51.46    3.95
  -3   2   1   50.34    2.74
   2  -2  -1   13.14    0.94
   2  -2  -1   13.90    0.98
  -2   2   1   17.06    1.06
  -2   2   1   16.84    1.46
   1  -2  -1  173.61    8.00
   1  -2  -1  174.90    7.91
   1  -2  -1  147.41   11.25
   1  -2  -1  164.41    8.01
  -1   2   1  170.53    7.98
  -1   2   1  154.72    7.97
  -1   2   1  175.04    7.90
  -1   2   1  168.96   11.28
   0  -2  -1  206.43    9.58
   0  -2  -1  201.24    9.58
   0  -2  -1  190.22   13.53
   0   2   1  190.21    9.57
   0   2   1  205.46    9.58
   0   2   1  202.65   13.55
   0   2   1  210.89    9.48
  -1  -2  -1   48.09    2.58
  -1  -2  -1   47.77    2.23
  -1  -2  -1   61.41    2.40
   1   2   1   56.41    2.59
   1   2   1   58.38    3.77
   1   2   1   52.00    2.58
  -2  -2  -1   54.19    2.33
  -2  -2  -1   49.33    2.48
  -3  -2  -1   55.94    2.51
  -3  -2  -1   54.84    2.67
   3   2   1   53.71    2.71
  -4  -2  -1    4.62    0.48
  -4  -2  -1    5.87    0.52
  -4  -2  -1    6.30    0.48
   4   2   1    5.08    0.41
   4   2   1    5.60    0.50
   4   2   1    4.97    0.49
  -5  -2  -1    8.01    0.72
  -6  -2  -1    3.20    0.57
  -4   3   1    6.44    1.19
  -3   3   1    2.68    0.81
   2  -3  -1   61.41    3.22
   2  -3  -1   63.02    3.06
  -2   3   1   56.74    4.48
   1  -3  -1   41.97    2.44
  -1   3   1   46.75    3.48
  -1   3   1   51.22    2.45
   0  -3  -1   45.44    2.44
   0  -3  -1   45.91    2.49
   0   3   1   49.04    3.53
   0   3   1   52.60    2.45
  -1  -3  -1   39.40    1.96
  -1  -3  -1   36.30    1.89
  -1  -3  -1   39.14    1.82
   1   3   1   36.84    2.80
  -2  -3  -1  104.22    4.96
  -2  -3  -1  106.84    4.64
   2   3   1  105.64    5.24
  -3  -3  -1   15.60    0.94
  -3  -3  -1   15.92    0.91
   3   3   1   15.27    0.97
  -4  -3  -1    1.85    0.38
  -4  -3  -1    1.29    0.34
   4   3   1    0.69    0.28
  -5  -3  -1    4.82    0.65
  -5  -3  -1    5.65    0.64
   5   3   1    4.59    0.57
   5   3   1    5.65    0.75
  -6  -3  -1    1.93    0.49
  -3   4   1    9.59    1.87
  -1   4   1   41.09    3.31
   0  -4  -1   25.14    1.46
   0   4   1   24.01    2.13
  -1  -4  -1   19.68    1.17
   1   4   1   21.02    1.86
  -2  -4  -1   28.65    1.48
   2   4   1   29.73    2.39
   2   4   1   26.49    1.51
  -3  -4  -1   15.55    0.97
  -3  -4  -1   17.50    1.05
   3   4   1   16.02    1.02
   3   4   1   15.21    0.75
  -4  -4  -1   37.33    2.00
  -4  -4  -1   35.31    1.89
   4   4   1   37.12    2.15
  -5  -4  -1    8.40    0.80
  -5  -4  -1    7.69    0.73
   5   4   1    7.06    0.69
  -6  -4  -1    2.23    0.57
  -6  -4  -1    2.57    0.64
   6   4   1    1.76    0.44
   0  -5  -1    3.13    0.62
  -1  -5  -1   14.63    1.06
   1   5   1   16.93    1.86
  -2  -5  -1    2.83    0.49
  -3  -5  -1    7.32    0.67
   3   5   1    6.41    0.60
  -5  -5  -1    2.63    0.55
  -5  -5  -1    4.33    0.74
   5   5   1    3.74    0.58
  -6  -5  -1    3.05    0.61
  -6  -5  -1    3.90    0.74
   0  -6  -1    2.79    0.70
  -1  -6  -1    3.84    0.69
  -2  -6  -1    1.93    0.52
  -3  -6  -1    0.95    0.41
  -4  -6  -1    1.61    0.51
  -5  -6  -1    0.48    0.42
  -5  -6   2    2.27    0.58
  -4  -6   2    1.54    0.49
  -3  -6   2    1.21    0.45
  -2  -6   2    5.07    0.79
  -1  -6   2    6.30    0.87
   0  -6   2    6.85    0.99
   1  -6   2    0.48    0.47
  -6  -5   2    0.07    0.39
  -6  -5   2    0.69    0.46
  -5  -5   2    6.50    0.85
  -5  -5   2    6.45    0.79
   3   5  -2    1.03    0.31
  -3  -5   2    1.15    0.37
   2   5  -2    4.68    0.47
  -2  -5   2    3.90    0.60
   0  -5   2    2.49    0.57
  -1   5  -2    2.43    0.81
  -2   5  -2    0.94    0.72
   2  -5   2    2.02    0.58
  -6  -4   2    5.80    0.85
  -6  -4   2    3.55    0.66
   5   4  -2    9.90    0.78
   5   4  -2   10.41    1.05
  -5  -4   2   10.11    0.85
  -5  -4   2   10.35    0.88
   4   4  -2    0.82    0.34
   4   4  -2    1.00    0.28
  -4  -4   2    0.89    0.36
  -4  -4   2    0.46    0.32
   3   4  -2   28.75    1.69
   3   4  -2   28.96    1.29
  -3  -4   2   29.68    1.55
   2   4  -2   37.03    1.70
   2   4  -2   38.00    2.05
  -2  -4   2   41.63    2.02
  -2  -4   2   36.90    1.91
   1   4  -2   22.70    2.03
   1   4  -2   22.53    1.21
  -1  -4   2   22.03    1.27
   0   4  -2   21.01    1.91
   0  -4   2   20.06    1.30
  -1   4  -2   13.03    1.43
   1  -4   2    9.25    0.89
   2  -4   2   16.36    1.26
  -3   4  -2    9.40    1.77
   3  -4   2   14.39    1.22
  -6  -3   2    1.99    0.52
   5   3  -2    1.62    0.35
   5   3  -2    1.75    0.48
  -5  -3   2    1.35    0.40
  -5  -3   2    2.45    0.51
   4   3  -2   11.56    0.77
   4   3  -2   13.93    0.97
  -4  -3   2   10.92    0.80
  -4  -3   2   12.79    0.86
   3   3  -2   14.88    0.91
   3   3  -2   12.50    0.60
  -3  -3   2   13.36    0.83
  -3  -3   2   11.92    0.79
   2   3  -2   46.07    2.03
   2   3  -2   36.54    2.12
   2   3  -2   38.21    1.71
   2   3  -2   40.11    1.99
  -2  -3   2   40.46    1.93
  -2  -3   2   42.34    2.01
   1   3  -2   92.85    4.42
   1   3  -2   89.47    4.49
   1   3  -2   85.84    4.39
   1   3  -2   85.70    6.32
  -1  -3   2   94.59    4.03
  -1  -3   2   93.59    4.40
  -1  -3   2   93.17    4.44
   0   3  -2   51.07    3.29
   0   3  -2   40.87    2.25
   0  -3   2   38.52    2.19
   0  -3   2   47.91    2.35
   0  -3   2   44.71    2.28
  -1   3  -2   27.02    1.95
   1  -3   2   21.85    1.19
   1  -3   2   19.66    1.31
  -2   3  -2   18.73    1.26
  -2   3  -2   19.96    1.74
   2  -3   2   16.71    1.22
   2  -3   2   16.57    1.16
  -3   3  -2    1.55    0.69
   3  -3   2    1.64    0.48
   3  -3   2    2.52    0.53
   4  -3   2   15.83    1.31
  -6  -2   2    7.68    0.78
   5   2  -2    7.17    0.64
   5   2  -2    5.75    0.80
  -5  -2   2    6.36    0.63
   4   2  -2   14.09    0.85
   4   2  -2   14.67    0.88
   4   2  -2   15.21    1.05
  -4  -2   2   14.19    0.89
  -4  -2   2   13.50    0.86
  -4  -2   2   14.43    0.89
   3   2  -2   12.40    0.68
   3   2  -2   10.57    0.68
   3   2  -2   10.91    0.81
   3   2  -2   11.69    0.65
  -3  -2   2   11.58    0.71
  -3  -2   2   12.87    0.68
  -3  -2   2   12.06    0.72
   2   2  -2   30.88    1.41
   2   2  -2   27.02    1.54
   2   2  -2   30.77    1.42
   2   2  -2   27.81    1.20
  -2  -2   2   26.43    1.42
  -2  -2   2   31.30    1.42
  -2  -2   2   26.61    1.36
  -2  -2   2   29.09    1.44
   1   2  -2   30.78    1.35
   1   2  -2   31.57    1.64
   1   2  -2   31.11    1.58
   1   2  -2   30.47    1.59
  -1  -2   2   33.24    1.58
  -1  -2   2   31.50    1.47
  -1  -2   2   34.56    1.60
  -1  -2   2   32.62    1.63
   0   2  -2  200.98    8.91
   0   2  -2  178.06   12.73
   0   2  -2  183.22    9.02
   0   2  -2  201.54    9.19
   0   2  -2  180.63    9.00
   0  -2   2  181.38    9.02
   0  -2   2  196.98    9.02
   0  -2   2  188.82    9.18
  -1   2  -2  121.32    8.28
  -1   2  -2  122.14    5.80
  -1   2  -2  117.14    5.86
   1  -2   2  120.73    5.90
   1  -2   2  119.02    8.26
   1  -2   2  123.52    5.81
   1  -2   2  125.06    5.89
  -2   2  -2   12.45    0.90
  -2   2  -2   17.82    1.03
  -2   2  -2   16.32    1.38
   2  -2   2   16.11    1.28
   2  -2   2   12.41    0.97
  -3   2  -2   15.43    1.02
  -3   2  -2   17.47    1.63
   3  -2   2   17.88    1.19
   3  -2   2   14.63    1.08
  -4   2  -2    5.46    0.91
   4  -2   2    5.93    0.76
   4  -2   2    4.31    0.66
   5  -2   2    3.31    0.70
  -6  -1   2    2.87    0.61
   5   1  -2    2.76    0.46
   5   1  -2    2.00    0.48
  -5  -1   2    1.91    0.41
   4   1  -2   16.52    1.04
   4   1  -2   18.80    1.19
  -4  -1   2   18.85    1.11
  -4  -1   2   16.91    1.04
   3   1  -2   13.28    0.82
   3   1  -2   14.00    0.93
   3   1  -2   17.59    0.87
   3   1  -2   15.75    0.84
  -3  -1   2   13.63    0.83
  -3  -1   2   15.81    0.85
  -3  -1   2   13.02    0.81
   2   1  -2  176.53    8.42
   2   1  -2  174.13    8.79
   2   1  -2  169.76    7.37
   2   1  -2  175.02    8.52
   2   1  -2  190.50    8.53
  -2  -1   2  175.81    8.52
  -2  -1   2  180.72    8.21
  -2  -1   2  185.55    8.53
  -2  -1   2  174.20    7.16
  -2  -1   2  190.84    7.63
   1   1  -2   10.86    0.56
   1   1  -2   11.32    0.58
   1   1  -2   10.09    0.47
   1   1  -2    9.89    0.61
  -1  -1   2   10.81    0.61
  -1  -1   2   11.75    0.57
  -1  -1   2   11.62    0.47
  -1  -1   2    9.99    0.47
  -1  -1   2   10.54    0.57
  -1  -1   2   11.09    0.55
   0   1  -2  146.30    6.64
   0   1  -2  136.43    6.72
   0   1  -2  150.09    6.89
   0   1  -2  124.77    6.73
   0  -1   2  151.16    6.88
   0  -1   2  133.16    6.73
   0  -1   2  137.31    6.72
   0  -1   2  152.42    6.64
  -2   1  -2  230.48   11.41
  -2   1  -2  225.16   10.80
  -2   1  -2  222.23   15.17
  -2   1  -2  215.54   10.77
  -2   1  -2  230.75   10.67
   2  -1   2  227.42   10.80
   2  -1   2  230.43   10.67
   2  -1   2  236.66   10.80
   2  -1   2  212.79   15.15
  -3   1  -2   71.02    5.20
  -3   1  -2   74.98    3.77
  -3   1  -2   78.35    3.74
  -3   1  -2   72.18    3.83
   3  -1   2   77.99    3.76
   3  -1   2   72.38    3.70
  -4   1  -2   22.40    1.41
   4  -1   2   19.71    1.34
   5  -1   2    2.23    0.54
  -6   0   2    0.55    0.41
  -5   0   2   17.66    1.17
   4   0  -2   26.54    1.52
   4   0  -2   27.16    1.63
   4   0  -2   26.76    1.60
  -4   0   2   27.47    1.62
   3   0  -2   84.51    4.09
   3   0  -2   86.12    4.20
   3   0  -2   78.38    5.75
   3   0  -2   81.16    4.01
  -3   0   2   83.90    4.08
  -3   0   2   77.92    4.00
  -3   0   2   85.78    4.08
   2   0  -2  370.51   17.71
   2   0  -2  347.41   24.37
   2   0  -2  335.09   17.26
   2   0  -2  364.60   17.27
   2   0  -2  389.05   17.06
  -2   0   2  363.47   17.27
  -2   0   2  390.23   17.06
  -2   0   2  351.95   17.27
   1   0  -2  462.61   28.92
   1   0  -2  426.55   21.00
   1   0  -2  404.77   17.74
   1   0  -2  453.60   20.29
   1   0  -2  438.65   20.54
   1   0  -2  401.95   20.47
  -1   0   2  478.40   20.27
  -1   0   2  416.81   20.52
  -1   0   2  415.38   20.43
  -1   0   2  422.81   17.77
  -1   0  -2  281.93   12.86
  -1   0  -2  237.57   12.06
  -1   0  -2  264.18   12.05
  -1   0  -2  215.21   12.06
   1   0   2  275.36   12.91
   1   0   2  272.54   12.07
   1   0   2  219.32   12.06
   1   0   2  273.99   17.00
  -2   0  -2   71.40    3.64
  -2   0  -2   69.32    3.61
  -2   0  -2   78.61    3.83
  -2   0  -2   76.22    3.65
   2   0   2   78.99    3.83
   2   0   2   75.91    3.65
   2   0   2   72.82    3.62
   2   0   2   78.13    5.11
  -3   0  -2   22.25    1.14
  -3   0  -2   19.12    1.07
   3   0   2   18.72    1.50
   3   0   2   17.38    1.09
   4   0   2    9.06    0.76
  -5   0  -2    2.02    0.49
   5   0   2    1.97    0.49
  -6   0  -2    4.94    0.80
   5  -1  -2    0.51    0.41
   5  -1  -2    1.44    0.47
   4  -1  -2    6.44    0.72
   4  -1  -2    5.50    0.65
   4  -1  -2    4.48    0.63
   3  -1  -2    8.10    0.64
   3  -1  -2    8.94    0.68
  -2   1   2   17.16    0.96
   1  -1  -2   62.52    3.17
   1  -1  -2   64.85    4.47
   1  -1  -2   72.37    3.14
   1  -1  -2   66.40    3.21
   1  -1  -2   58.02    3.17
  -1   1   2   56.43    3.16
  -1   1   2   61.77    3.18
  -1   1   2   70.86    4.49
  -1   1   2   71.82    3.14
   0  -1  -2  162.99    6.29
   0  -1  -2  138.59    7.26
   0  -1  -2  160.30   10.27
   0  -1  -2  154.45    7.27
   0   1   2  156.46    7.42
   0   1   2  154.25   10.27
   0   1   2  152.28    6.29
   0   1   2  149.52    7.26
   0   1   2  146.88    7.26
  -1  -1  -2  900.38   40.98
  -2  -1  -2    7.97    0.49
  -2  -1  -2    8.89    0.47
   2   1   2    8.62    0.51
   2   1   2    8.76    0.52
   2   1   2    7.30    0.45
  -3  -1  -2   10.42    0.56
  -3  -1  -2    8.59    0.59
   3   1   2    7.19    0.58
   3   1   2    9.15    0.57
   3   1   2    8.78    0.56
  -4  -1  -2   15.84    0.99
   4   1   2   15.00    1.00
   4   1   2   16.56    0.93
   4   1   2   17.06    0.99
   4   1   2   17.07    1.50
  -5  -1  -2   12.78    0.93
   5   1   2   11.43    0.92
  -6  -1  -2    6.83    0.93
   4  -2  -2    2.25    0.51
   4  -2  -2    2.08    0.50
  -4   2   2    3.00    0.81
   3  -2  -2   18.62    1.21
   3  -2  -2   17.91    1.14
   3  -2  -2   21.87    1.31
  -3   2   2   17.66    1.08
   2  -2  -2   15.97    1.00
   2  -2  -2   14.40    0.89
   2  -2  -2   14.52    0.97
  -2   2   2   16.75    1.02
  -2   2   2   16.61    1.54
   1  -2  -2   55.46    2.62
   1  -2  -2   54.02    3.70
  -1   2   2   48.17    2.56
  -1   2   2   49.40    2.59
  -1  -2  -2  189.29    7.44
  -1  -2  -2  169.67    7.17
  -1  -2  -2  169.97    8.28
   1   2   2  178.71   11.78
   1   2   2  171.72    8.28
   1   2   2  169.16    7.16
   1   2   2  174.13    8.28
  -2  -2  -2   23.50    1.28
  -2  -2  -2   26.75    1.22
  -3  -2  -2   81.41    3.93
  -3  -2  -2   84.60    3.67
   3   2   2   82.39    4.31
   3   2   2   82.77    4.02
  -4  -2  -2   22.53    1.30
  -4  -2  -2   24.21    1.24
  -4  -2  -2   24.42    1.26
   4   2   2   23.09    1.35
   4   2   2   23.03    1.31
   4   2   2   22.57    1.21
  -5  -2  -2    4.55    0.56
   5   2   2    2.70    0.46
   5   2   2    3.03    0.42
  -6  -2  -2    2.82    0.57
  -4   3   2    5.01    1.06
   3  -3  -2    8.84    0.92
  -3   3   2    8.28    1.30
  -2   3   2   38.36    2.11
  -2   3   2   34.41    2.95
   1  -3  -2   48.09    2.49
  -1   3   2   47.12    3.59
   0  -3  -2   86.04    3.91
   0  -3  -2   76.33    3.95
   0   3   2   80.11    3.88
   0   3   2   73.62    5.56
  -1  -3  -2  129.30    6.23
  -1  -3  -2  130.54    6.20
  -1  -3  -2  137.47    5.64
   1   3   2  123.34    8.85
   1   3   2  126.44    6.19
   1   3   2  129.89    6.20
   1   3   2  128.56    6.31
  -2  -3  -2   55.45    2.64
   2   3   2   60.78    4.19
  -3  -3  -2    1.85    0.35
  -3  -3  -2    1.14    0.26
  -4  -3  -2   11.29    0.80
  -4  -3  -2   11.03    0.76
   4   3   2   10.94    0.86
   4   3   2   10.43    0.76
  -5  -3  -2   18.15    1.18
  -5  -3  -2   17.71    1.12
   5   3   2   17.74    1.33
   5   3   2   18.26    1.16
  -6  -3  -2    4.78    0.72
   6   3   2    4.41    0.64
  -1   4   2   14.80    1.67
   0  -4  -2   21.78    1.41
   0   4   2   25.50    2.12
  -1  -4  -2   20.59    1.24
  -1  -4  -2   22.68    1.27
   1   4   2   23.98    2.03
  -2  -4  -2    4.53    0.47
   2   4   2    3.74    0.38
  -3  -4  -2    8.96    0.68
  -3  -4  -2    8.75    0.72
   3   4   2    8.08    0.68
   3   4   2    8.73    0.48
  -4  -4  -2   14.41    0.98
  -4  -4  -2   13.06    0.92
   4   4   2   12.60    0.99
  -5  -4  -2    7.12    0.76
  -5  -4  -2    7.21    0.71
   5   4   2    6.84    0.68
   5   4   2    6.56    0.84
  -6  -4  -2    1.25    0.50
  -6  -4  -2    1.32    0.47
   6   4   2    1.17    0.38
  -1   5   2    2.50    0.84
   0  -5  -2    7.39    0.74
  -1  -5  -2    5.80    0.68
  -1  -5  -2    6.69    0.68
  -2  -5  -2    5.32    0.58
  -3  -5  -2   14.69    1.03
   3   5   2   15.30    0.99
  -4  -5  -2   16.61    1.13
   4   5   2   17.48    1.23
  -5  -5  -2    0.83    0.41
  -5  -5  -2    1.23    0.50
   5   5   2    1.34    0.41
  -6  -5  -2    0.67    0.48
  -6  -5  -2    0.57    0.40
   0  -6  -2    0.84    0.48
  -1  -6  -2    4.38    0.72
  -2  -6  -2    1.80    0.50
  -3  -6  -2    2.96    0.58
  -4  -6  -2    2.09    0.54
  -5  -6  -2    1.17    0.47
  -5  -6   3    1.64    0.56
  -4  -6   3    1.28    0.52
  -3  -6   3    2.97    0.64
  -2  -6   3    0.99    0.46
  -1  -6   3    2.51    0.59
   0  -6   3    1.97    0.58
  -5  -5   3    8.00    0.85
  -5  -5   3    8.34    0.81
   4   5  -3    4.86    0.68
  -4  -5   3    4.52    0.71
   3   5  -3    0.38    0.25
  -3  -5   3    0.32    0.32
   2   5  -3   13.81    0.90
  -2  -5   3   13.17    0.96
  -1  -5   3   18.24    1.19
   0  -5   3    1.10    0.46
  -2   5  -3    1.05    0.74
   2  -5   3    2.68    0.65
  -6  -4   3    4.06    0.68
  -6  -4   3    4.93    0.76
   5   4  -3    6.66    0.89
  -5  -4   3    5.95    0.77
  -5  -4   3    5.64    0.70
   4   4  -3    1.63    0.42
   4   4  -3    2.35    0.36
  -4  -4   3    2.13    0.45
  -4  -4   3    2.56    0.50
   3   4  -3   21.37    1.32
   3   4  -3   20.52    0.96
  -3  -4   3   19.77    1.19
   2   4  -3    5.01    0.44
  -2  -4   3    6.31    0.52
  -1  -4   3    5.35    0.56
   0   4  -3   25.78    2.24
   0  -4   3   25.90    1.56
  -1   4  -3   16.58    1.73
   1  -4   3   17.64    1.24
  -2   4  -3   14.33    1.66
  -3   4  -3    5.96    1.16
  -6  -3   3    3.17    0.62
   5   3  -3    0.12    0.22
   5   3  -3   -0.02    0.29
  -5  -3   3   -0.14    0.27
  -5  -3   3    0.20    0.31
   4   3  -3   12.30    0.80
   4   3  -3   13.88    1.02
  -4  -3   3   13.00    0.88
  -4  -3   3   13.13    0.88
   3   3  -3    6.36    0.38
   3   3  -3    6.35    0.60
  -3  -3   3    7.31    0.55
  -3  -3   3    6.66    0.55
   2   3  -3   45.44    2.38
   2   3  -3   43.24    1.90
   2   3  -3   48.59    2.25
   2   3  -3   44.18    2.22
  -2  -3   3   46.89    2.24
  -2  -3   3   43.09    2.12
   1   3  -3   29.02    1.58
   1   3  -3   27.53    1.53
  -1  -3   3   31.39    1.57
  -1  -3   3   32.28    1.50
  -1  -3   3   30.87    1.57
   0   3  -3   26.66    1.37
   0   3  -3   23.83    1.90
   0  -3   3   22.30    1.21
   0  -3   3   22.29    1.30
   0  -3   3   22.16    1.38
  -1   3  -3   23.58    1.50
  -1   3  -3   27.74    2.11
   1  -3   3   23.92    1.47
   1  -3   3   23.62    1.42
   1  -3   3   27.86    1.36
   2  -3   3    8.94    0.82
   2  -3   3   10.99    0.74
   2  -3   3    9.68    0.88
  -3   3  -3    1.77    0.68
   3  -3   3    2.26    0.47
   3  -3   3    2.77    0.56
   4  -3   3    7.32    0.95
  -6  -2   3    6.05    0.72
  -6  -2   3    5.68    0.69
   5   2  -3    9.57    0.96
  -5  -2   3    8.85    0.74
   4   2  -3    0.52    0.21
   4   2  -3    0.49    0.29
   4   2  -3    1.12    0.25
  -4  -2   3    0.65    0.27
  -4  -2   3    0.79    0.27
   3   2  -3   37.25    1.84
   3   2  -3   34.72    1.82
   3   2  -3   35.40    1.82
   3   2  -3   37.14    2.00
  -3  -2   3   39.21    1.84
  -3  -2   3   36.64    1.51
  -3  -2   3   36.66    1.75
  -3  -2   3   35.33    1.82
   2   2  -3   97.97    5.08
   2   2  -3  108.38    4.88
   2   2  -3   99.38    4.11
   2   2  -3  104.11    4.87
  -2  -2   3  104.83    4.87
  -2  -2   3   99.04    4.73
  -2  -2   3   98.95    4.43
   1   2  -3   22.32    1.20
   1   2  -3   22.44    1.18
   1   2  -3   22.16    1.23
   1   2  -3   21.62    1.01
  -1  -2   3   25.12    1.21
  -1  -2   3   23.34    1.12
  -1  -2   3   24.56    1.19
  -1  -2   3   24.71    1.24
   0   2  -3   18.81    0.99
   1  -2   3   30.53    1.61
   1  -2   3   33.15    1.68
   1  -2   3   27.50    1.57
  -2   2  -3   26.96    2.03
  -2   2  -3   26.01    1.53
  -2   2  -3   23.16    1.46
   2  -2   3   27.27    1.98
   2  -2   3   25.84    1.50
   2  -2   3   25.26    1.44
  -3   2  -3   18.02    1.58
  -3   2  -3   18.99    1.20
  -3   2  -3   13.91    1.01
   3  -2   3   17.03    1.16
   3  -2   3   14.27    1.08
  -4   2  -3   10.62    1.44
   4  -2   3   14.73    1.11
   4  -2   3   12.08    1.05
   5  -2   3    0.20    0.44
  -6  -1   3    0.59    0.38
   5   1  -3    9.46    0.95
   5   1  -3    8.66    0.78
  -5  -1   3    9.88    0.78
   4   1  -3   14.89    0.98
   4   1  -3   16.52    1.10
   4   1  -3   14.95    0.94
  -4  -1   3   15.61    1.01
  -4  -1   3   15.28    0.94
   3   1  -3   39.76    2.05
   3   1  -3   36.80    2.03
   3   1  -3   39.80    2.00
   3   1  -3   40.36    2.17
  -3  -1   3   43.01    2.06
  -3  -1   3   44.29    2.07
  -3  -1   3   38.19    1.99
  -3  -1   3   39.68    1.98
   2   1  -3   64.59    3.25
   2   1  -3   64.52    3.05
   2   1  -3   66.31    3.12
   2   1  -3   64.68    3.11
  -2  -1   3   62.83    3.11
  -2  -1   3   65.90    3.12
  -2  -1   3   62.85    2.81
  -2  -1   3   63.10    2.60
  -2  -1   3   62.23    2.99
   1   1  -3  296.32   14.31
   1   1  -3  314.17   14.35
   1   1  -3  304.83   14.67
   1   1  -3  302.20   12.04
  -1  -1   3  292.51   12.71
  -1  -1   3  314.96   12.06
  -1  -1   3  285.32   13.75
  -1  -1   3  301.45   14.30
  -1  -1   3  313.22   14.29
  -1  -1   3  285.00   12.40
  -1  -1   3  309.78   14.67
   0   1  -3  117.40    5.76
   0   1  -3  118.73    5.75
   0   1  -3  122.78    4.85
   0   1  -3  122.83    5.67
   0   1  -3  124.79    5.90
   0  -1   3  123.56    5.89
   0  -1   3  127.44    5.67
   0  -1   3  108.95    5.75
   0  -1   3  118.63    5.75
  -1   1  -3  683.72   32.76
  -1   1  -3  665.56   32.81
  -1   1  -3  665.26   46.20
  -1   1  -3  739.76   32.56
  -1   1  -3  737.96   34.83
   1  -1   3  771.43   32.60
   1  -1   3  707.72   32.76
   1  -1   3  619.32   45.99
   1  -1   3  625.28   32.64
   2  -1   3   71.92    4.54
   2  -1   3   69.11    3.31
   2  -1   3   56.80    3.25
   3  -1   3   21.40    1.18
   3  -1   3   15.94    1.10
   4  -1   3    7.04    0.73
   5  -1   3    7.07    0.88
  -6   0   3    0.29    0.38
   5   0  -3    2.10    0.49
  -5   0   3    1.52    0.41
   4   0  -3   23.11    1.47
   4   0  -3   24.99    1.53
   4   0  -3   23.39    1.41
  -4   0   3   26.04    1.50
   3   0  -3   53.19    2.58
   3   0  -3   49.47    2.43
   3   0  -3   48.27    2.50
   3   0  -3   44.61    3.52
  -3   0   3   47.86    2.48
  -3   0   3   48.71    2.49
  -3   0   3   47.73    2.42
   2   0  -3   45.38    3.17
   2   0  -3   42.74    2.17
   2   0  -3   47.14    2.23
   2   0  -3   44.68    2.22
   2   0  -3   41.29    2.28
  -2   0   3   40.73    2.21
  -2   0   3   42.83    2.17
  -2   0   3   50.68    2.24
   1   0  -3   73.34    3.37
   1   0  -3   72.45    3.44
   1   0  -3   63.59    3.42
   1   0  -3   70.93    3.60
   1   0  -3   68.75    2.96
   1   0  -3   74.74    4.87
   1   0  -3   69.79    3.52
  -1   0   3   66.31    2.96
  -1   0   3   78.99    3.60
  -1   0   3   75.61    3.37
  -1   0   3   70.54    3.43
  -1   0   3   70.13    3.52
  -1   0   3   70.49    3.43
   0   0  -3   41.73    2.82
   0   0  -3   43.16    2.13
   0   0  -3   40.07    1.69
   0   0  -3   40.40    2.01
   0   0  -3   40.78    2.01
   0   0  -3   37.60    1.89
   0   0  -3   41.69    2.07
   0   0   3   40.88    2.06
   0   0   3   40.85    2.01
   0   0   3   40.16    1.69
   0   0   3   43.97    2.13
   0   0   3   42.73    2.01
  -1   0  -3   97.92    5.40
  -1   0  -3  122.09    5.74
  -1   0  -3  108.25    5.34
  -1   0  -3  106.21    5.40
  -1   0  -3  112.66    4.55
   1   0   3  112.79    5.40
   1   0   3  120.47    5.74
   1   0   3  114.16    5.41
   1   0   3  124.96    5.35
  -2   0  -3  144.86    6.93
  -2   0  -3  137.32    7.00
  -2   0  -3  156.46    7.40
  -2   0  -3  139.16    6.99
   2   0   3  147.23    7.00
   2   0   3  138.33    9.79
   2   0   3  152.20    6.94
   2   0   3  154.24    7.40
  -3   0  -3   50.43    2.60
  -3   0  -3   52.34    2.57
  -3   0  -3   53.99    2.66
   3   0   3   51.16    2.59
   3   0   3   52.52    2.59
   3   0   3   52.49    2.66
   3   0   3   46.52    3.57
   4   0   3    5.47    0.60
   4   0   3    6.01    0.63
  -5   0  -3    2.75    0.55
   5   0   3    1.62    0.46
  -6   0  -3    2.67    0.63
   6   0   3    1.90    0.56
   5  -1  -3    1.33    0.49
   4  -1  -3    7.65    0.80
   4  -1  -3    8.62    0.79
   4  -1  -3    7.31    0.73
   3  -1  -3   34.05    1.82
   3  -1  -3   34.70    1.90
   3  -1  -3   34.93    1.85
  -3   1   3   32.36    1.87
  -3   1   3   31.92    2.67
   2  -1  -3  102.89    4.79
   2  -1  -3   98.32    4.86
   2  -1  -3   99.83    4.94
   2  -1  -3   85.58    6.82
   2  -1  -3   98.04    4.87
  -2   1   3  105.10    4.79
  -2   1   3  102.54    4.86
  -2   1   3   99.36    6.88
  -2   1   3  102.80    4.86
   1  -1  -3   14.58    1.14
   1  -1  -3   13.40    0.80
   1  -1  -3   14.40    0.77
   1  -1  -3   13.28    0.76
   1  -1  -3   13.88    0.80
  -1   1   3   13.38    0.80
  -1   1   3   17.07    1.20
  -1   1   3   15.27    0.78
  -1   1   3   12.99    0.78
   0  -1  -3  113.69    5.20
   0  -1  -3   97.81    5.09
   0  -1  -3  105.44    7.21
   0  -1  -3  108.09    4.41
   0  -1  -3  104.06    5.10
   0   1   3  107.02    4.41
   0   1   3  114.03    7.21
   0   1   3  103.81    5.09
   0   1   3  108.16    5.19
   0   1   3  103.74    5.10
  -1  -1  -3   16.10    0.76
  -1  -1  -3   14.09    0.76
   1   1   3   16.04    0.75
   1   1   3   14.53    0.75
   1   1   3   14.86    0.85
   1   1   3   14.00    1.09
  -2  -1  -3   30.57    1.55
  -2  -1  -3   34.93    1.45
  -2  -1  -3   28.92    1.56
   2   1   3   31.41    1.55
   2   1   3   33.78    1.69
   2   1   3   34.03    1.61
   2   1   3   29.32    1.57
  -3  -1  -3   26.35    1.35
  -3  -1  -3   25.30    1.07
  -3  -1  -3   23.78    1.35
  -3  -1  -3   26.57    1.34
  -3  -1  -3   25.11    1.32
   3   1   3   25.47    1.37
   3   1   3   26.18    1.34
   3   1   3   26.95    1.41
  -4  -1  -3   22.87    0.99
  -4  -1  -3   22.80    1.28
   4   1   3   21.21    1.29
   4   1   3   22.77    1.26
   4   1   3   22.55    1.83
  -5  -1  -3   30.09    1.70
   5   1   3   29.32    1.76
  -6  -1  -3    3.68    0.68
   5  -2  -3    8.43    0.99
   4  -2  -3   10.99    0.97
   4  -2  -3   10.39    0.98
  -4   2   3    8.80    1.51
   3  -2  -3   21.23    1.34
   3  -2  -3   22.89    1.47
   3  -2  -3   21.47    1.40
  -3   2   3   24.76    1.52
  -3   2   3   25.77    2.21
   2  -2  -3   13.42    0.83
   2  -2  -3   15.06    0.95
   2  -2  -3   14.10    0.92
   1  -2  -3   83.95    3.83
   1  -2  -3   69.53    5.40
   1  -2  -3   70.71    3.81
   1  -2  -3   77.57    3.85
  -1   2   3   77.25    3.81
  -1   2   3   82.19    3.78
  -1   2   3   80.49    5.43
  -1   2   3   78.69    3.81
   0  -2  -3  354.80   17.20
   0  -2  -3  373.65   17.21
   0  -2  -3  340.37   24.30
   0   2   3  355.38   24.31
   0   2   3  392.49   17.21
   0   2   3  359.78   17.20
  -1  -2  -3    7.18    0.38
  -1  -2  -3    7.45    0.45
   1   2   3    6.91    0.37
   1   2   3    8.26    0.43
  -2  -2  -3  107.12    5.01
  -2  -2  -3  107.76    4.65
  -3  -2  -3   18.55    1.13
  -3  -2  -3   18.83    1.07
   3   2   3   24.10    1.26
   3   2   3   22.53    1.18
  -4  -2  -3   48.27    2.40
  -4  -2  -3   49.05    2.28
  -4  -2  -3   46.82    2.43
   4   2   3   47.22    2.48
   4   2   3   49.46    2.60
  -5  -2  -3    6.04    0.63
   5   2   3    4.75    0.53
   5   2   3    5.57    0.61
  -6  -2  -3    2.07    0.53
   6   2   3    1.14    0.44
  -4   3   3    5.96    1.16
   3  -3  -3    4.55    0.69
  -3   3   3    3.14    0.93
   2  -3  -3    8.52    0.57
   1  -3  -3   13.76    1.07
  -1   3   3   18.16    1.65
  -1   3   3   19.28    1.09
   0  -3  -3   49.15    2.61
   0  -3  -3   46.12    2.53
   0   3   3   54.01    2.54
   0   3   3   51.78    3.68
  -1  -3  -3   27.24    1.36
  -1  -3  -3   26.96    1.47
  -1  -3  -3   29.29    1.42
   1   3   3   25.81    1.40
  -2  -3  -3   55.22    2.74
  -2  -3  -3   57.09    2.57
   2   3   3   56.27    4.03
  -3  -3  -3   20.93    1.20
  -3  -3  -3   21.55    1.14
  -4  -3  -3   12.39    0.87
  -4  -3  -3   11.96    0.82
   4   3   3   13.22    0.95
   4   3   3   12.09    0.84
  -5  -3  -3    5.72    0.61
   5   3   3    6.36    0.64
  -6  -3  -3    3.41    0.68
   6   3   3    2.57    0.49
   2  -4  -3    2.62    0.57
  -2   4   3    2.24    0.74
   1  -4  -3   25.32    1.57
  -1   4   3   23.58    2.29
   0   4   3   15.60    1.64
  -1  -4  -3   22.70    1.37
  -1  -4  -3   23.96    1.33
   1   4   3   27.25    2.19
  -2  -4  -3   10.68    0.67
  -2  -4  -3   10.80    0.73
   2   4   3    9.60    0.66
   2   4   3   10.98    1.25
  -3  -4  -3    2.13    0.42
  -3  -4  -3    1.86    0.38
   3   4   3    2.47    0.58
   3   4   3    1.34    0.28
  -4  -4  -3   23.56    1.33
  -4  -4  -3   24.58    1.40
   4   4   3   20.66    1.41
  -5  -4  -3   16.16    1.13
  -5  -4  -3   15.17    1.03
   5   4   3   14.31    1.21
   5   4   3   14.84    1.06
  -6  -4  -3    3.53    0.63
  -6  -4  -3    3.12    0.65
   6   4   3    3.12    0.57
   6   4   3    2.79    0.64
  -1   5   3    1.36    0.69
   0  -5  -3    7.00    0.73
  -1  -5  -3    6.86    0.73
  -3  -5  -3   11.13    0.87
   3   5   3   11.68    0.82
  -4  -5  -3    3.80    0.57
   4   5   3    3.63    0.54
  -5  -5  -3    3.42    0.70
  -5  -5  -3    2.21    0.51
   5   5   3    2.36    0.49
  -6  -5  -3    0.86    0.43
  -6  -5  -3    1.81    0.58
   0  -6  -3    3.80    0.75
  -1  -6  -3    1.65    0.53
  -2  -6  -3    3.10    0.60
  -3  -6  -3    3.45    0.63
  -4  -6  -3    2.13    0.54
  -5  -6  -3    0.91    0.46
  -4  -6   4    2.18    0.56
  -3  -6   4    2.53    0.57
  -2  -6   4    2.58    0.62
  -1  -6   4    1.38    0.53
   0  -6   4    3.97    0.76
  -5  -5   4    4.13    0.71
   4   5  -4    2.14    0.49
  -4  -5   4    2.06    0.50
  -3  -5   4    4.99    0.59
   2   5  -4    6.74    0.61
  -2  -5   4    6.17    0.67
   1   5  -4    7.56    0.66
  -1  -5   4    7.66    0.75
   0  -5   4    6.94    0.74
  -6  -4   4    0.34    0.39
  -6  -4   4    0.87    0.47
  -5  -4   4    3.11    0.56
  -5  -4   4    4.42    0.67
   4   4  -4    0.50    0.22
  -4  -4   4    0.68    0.33
  -4  -4   4    0.33    0.29
   3   4  -4   15.91    0.80
   3   4  -4   16.64    1.11
  -3  -4   4   14.76    0.97
   2   4  -4    0.49    0.21
   2   4  -4    0.76    0.25
   2   4  -4    0.48    0.22
  -2  -4   4    0.73    0.30
  -2  -4   4    1.06    0.32
   1   4  -4   11.05    1.28
   1   4  -4    7.54    0.62
   1   4  -4   10.07    0.64
  -1  -4   4    7.12    0.64
  -1  -4   4    9.14    0.73
   0   4  -4   16.81    1.56
   0  -4   4   12.59    1.03
   1  -4   4   13.48    1.05
  -2   4  -4    8.91    1.39
  -6  -3   4    5.77    0.71
   5   3  -4    0.17    0.32
  -5  -3   4    0.62    0.37
  -5  -3   4    0.71    0.35
  -5  -3   4    0.59    0.27
   4   3  -4   40.76    2.11
   4   3  -4   43.60    2.38
  -4  -3   4   39.03    2.05
  -4  -3   4   42.94    2.15
  -4  -3   4   41.45    2.08
   3   3  -4   27.98    1.63
   3   3  -4   25.66    1.43
   3   3  -4   26.43    1.21
   3   3  -4   31.10    1.46
   3   3  -4   27.67    1.42
  -3  -3   4   26.98    1.47
  -3  -3   4   29.48    1.43
  -3  -3   4   27.53    1.44
  -3  -3   4   29.27    1.45
   2   3  -4   14.29    0.82
   2   3  -4   13.26    0.88
   2   3  -4   12.45    0.67
   2   3  -4   13.17    0.77
  -2  -3   4   14.73    0.79
  -2  -3   4   12.35    0.79
  -2  -3   4   16.25    0.84
   1   3  -4   48.87    2.48
   1   3  -4   50.82    2.56
   1   3  -4   49.63    2.15
   1   3  -4   48.96    2.58
  -1  -3   4   50.02    2.52
  -1  -3   4   52.13    2.57
  -1  -3   4   52.86    2.57
  -1  -3   4   50.62    2.34
   0   3  -4    7.47    0.60
   0   3  -4   10.64    0.75
   0   3  -4   10.61    1.05
   0  -3   4    9.64    0.79
   0  -3   4    8.47    0.69
   0  -3   4    9.59    0.57
  -1   3  -4   15.15    1.33
   1  -3   4   13.48    0.79
   1  -3   4   12.03    0.88
   1  -3   4   12.31    0.92
  -2   3  -4   18.18    1.58
  -2   3  -4   18.99    1.21
   2  -3   4   15.86    1.14
   2  -3   4   13.66    1.05
   2  -3   4   13.30    0.99
  -3   3  -4    2.51    0.72
   3  -3   4    3.31    0.56
  -6  -2   4    1.55    0.48
  -5  -2   4    1.13    0.37
  -5  -2   4    1.27    0.37
   4   2  -4    9.54    0.83
   4   2  -4    9.65    0.69
   4   2  -4    9.05    0.65
  -4  -2   4   10.72    0.70
  -4  -2   4   10.56    0.70
  -4  -2   4   10.46    0.72
   3   2  -4   44.07    2.33
   3   2  -4   41.67    2.11
   3   2  -4   40.53    2.14
   3   2  -4   43.39    2.17
  -3  -2   4   43.23    2.12
  -3  -2   4   43.43    2.16
  -3  -2   4   43.39    2.16
  -3  -2   4   45.91    2.04
   2   2  -4   12.27    0.67
   2   2  -4   12.96    0.70
   2   2  -4   11.33    0.77
   2   2  -4   11.74    0.57
  -2  -2   4   11.29    0.67
  -2  -2   4   11.56    0.67
  -2  -2   4   12.22    0.69
  -2  -2   4   13.09    0.69
   1   2  -4  116.15    4.76
   1   2  -4  116.03    5.63
   1   2  -4  115.45    5.54
   1   2  -4  115.61    5.80
   1   2  -4  121.33    5.65
  -1  -2   4  116.56    5.63
  -1  -2   4  119.69    5.79
  -1  -2   4  116.85    5.06
  -1  -2   4  120.38    5.65
   0   2  -4   11.08    0.71
   0   2  -4   12.38    0.69
   0   2  -4   12.55    0.72
   0   2  -4   11.84    0.75
   0  -2   4   12.50    0.76
   0  -2   4   12.56    0.70
   0  -2   4   13.50    0.71
   0  -2   4   12.20    0.73
  -1   2  -4   31.45    2.13
  -1   2  -4   24.12    1.48
  -1   2  -4   26.57    1.47
  -1   2  -4   33.18    1.61
   1  -2   4   29.16    1.50
   1  -2   4   23.47    1.53
   1  -2   4   32.38    1.53
   1  -2   4   27.80    1.52
  -2   2  -4   32.64    2.39
  -2   2  -4   29.44    1.76
   2  -2   4   33.15    1.78
   2  -2   4   31.02    1.71
  -3   2  -4    4.77    0.55
   3  -2   4    6.61    0.73
   3  -2   4    5.73    0.65
  -4   2  -4   13.50    1.54
   4  -2   4   16.68    1.22
   4  -2   4   14.35    1.17
   5  -2   4    2.14    0.63
  -6  -1   4    3.89    0.68
   5   1  -4    8.97    0.96
   5   1  -4    7.91    0.75
  -5  -1   4    9.75    0.85
  -5  -1   4    8.34    0.73
   4   1  -4    4.02    0.47
   4   1  -4    4.69    0.62
  -4  -1   4    4.72    0.47
   3   1  -4   34.26    1.73
   3   1  -4   34.94    1.90
   3   1  -4   34.61    1.79
  -3  -1   4   34.74    1.79
  -3  -1   4   35.64    1.71
  -3  -1   4   33.67    1.78
  -3  -1   4   32.93    1.72
   2   1  -4  131.34    6.63
   2   1  -4  142.25    7.02
   2   1  -4  140.94    6.65
   2   1  -4  137.28    6.52
   2   1  -4  137.22    6.86
  -2  -1   4  139.24    6.64
  -2  -1   4  139.24    6.36
  -2  -1   4  144.16    5.94
  -2  -1   4  138.28    6.52
  -2  -1   4  139.97    6.64
  -2  -1   4  136.24    5.73
   1   1  -4 1000.00   45.53
   1   1  -4  964.20   46.77
   1   1  -4  956.33   38.36
   1   1  -4  950.25   45.58
  -1  -1   4  908.13   43.65
  -1  -1   4  976.56   45.56
  -1  -1   4  963.29   39.36
  -1  -1   4  978.00   46.81
  -1  -1   4  958.45   38.31
  -1  -1   4  956.99   40.53
  -1  -1   4  955.74   45.57
   0   1  -4  253.52   10.37
   0   1  -4  253.30   12.32
   0   1  -4  263.41   12.31
   0   1  -4  262.89   12.62
   0   1  -4  253.94   12.22
   0   1  -4  262.22   13.09
   0  -1   4  259.01   12.31
   0  -1   4  241.51   12.31
   0  -1   4  270.86   12.62
   0  -1   4  273.23   12.21
  -2   1  -4    9.05    0.61
  -2   1  -4   10.05    0.63
  -2   1  -4    9.14    0.63
  -3   1  -4   29.72    2.20
  -3   1  -4   27.46    1.61
  -3   1  -4   31.38    1.72
  -3   1  -4   28.14    1.64
   3  -1   4   29.89    1.67
   3  -1   4   29.91    1.64
   4  -1   4    5.23    0.65
   5  -1   4    1.21    0.47
   5  -1   4    1.57    0.48
  -6   0   4    2.99    0.62
   5   0  -4    2.36    0.49
  -5   0   4    3.54    0.58
   4   0  -4   19.80    1.30
   4   0  -4   21.32    1.43
   4   0  -4   22.45    1.40
  -4   0   4   25.51    1.43
   3   0  -4    4.87    0.43
  -3   0   4    4.37    0.45
  -3   0   4    3.17    0.35
   2   0  -4   63.19    2.93
   2   0  -4   56.52    3.00
   2   0  -4   53.93    4.12
   2   0  -4   58.47    2.84
   2   0  -4   51.16    2.89
  -2   0   4   58.97    2.92
  -2   0   4   68.28    2.93
  -2   0   4   61.52    2.85
   1   0  -4   41.77    2.16
   1   0  -4   40.51    2.01
   1   0  -4   43.05    2.14
   1   0  -4   40.33    2.07
   1   0  -4   43.52    2.96
   1   0  -4   42.02    2.08
  -1   0   4   40.45    2.07
  -1   0   4   43.89    2.16
  -1   0   4   42.26    1.79
  -1   0   4   42.57    2.08
  -1   0   4   42.02    2.13
  -1   0   4   43.79    2.01
   0   0  -4    3.78    0.24
   0   0  -4    4.18    0.33
   0   0  -4    4.22    0.44
   0   0  -4    4.39    0.33
   0   0  -4    3.94    0.26
   0   0  -4    3.94    0.31
   0   0  -4    3.60    0.31
   0   0   4    4.59    0.33
   0   0   4    3.87    0.32
   0   0   4    3.71    0.30
   0   0   4    3.86    0.32
   0   0   4    3.89    0.25
  -1   0  -4  229.23    8.97
  -1   0  -4  233.50   11.28
  -1   0  -4  228.94   10.54
  -1   0  -4  221.03   10.60
  -1   0  -4  211.59   10.61
   1   0   4  225.75   11.28
   1   0   4  232.38    8.93
   1   0   4  219.59   10.60
   1   0   4  237.37   10.49
   1   0   4  196.46   10.60
  -3   0  -4   53.14    2.80
  -3   0  -4   55.30    2.70
  -3   0  -4   52.80    2.72
   3   0   4   53.70    3.71
   3   0   4   53.44    2.71
   3   0   4   53.12    2.70
   3   0   4   54.59    2.80
   4   0   4   14.46    1.02
   4   0   4   14.86    1.01
  -5   0  -4    4.53    0.67
   5   0   4    6.16    0.81
  -6   0  -4    2.55    0.60
   6   0   4    2.08    0.58
  -5   1   4    2.76    0.61
   4  -1  -4    3.42    0.53
   4  -1  -4    3.97    0.60
   4  -1  -4    3.48    0.55
   3  -1  -4   17.81    1.16
   3  -1  -4   18.54    1.12
   3  -1  -4   17.16    1.08
  -3   1   4   17.97    1.76
  -3   1   4   18.31    1.21
   2  -1  -4   54.21    3.68
   2  -1  -4   53.47    2.55
   2  -1  -4   49.03    2.61
   2  -1  -4   47.86    2.61
   2  -1  -4   58.20    2.63
  -2   1   4   47.90    2.63
  -2   1   4   51.12    2.59
  -2   1   4   47.87    2.53
   1  -1  -4    1.25    0.23
   1  -1  -4    1.50    0.19
   1  -1  -4    1.10    0.26
  -1   1   4    0.93    0.15
  -1   1   4    1.45    0.20
  -1   1   4    1.29    0.22
   0  -1  -4   12.54    0.69
   0  -1  -4   14.22    0.69
   0  -1  -4   11.95    0.69
   0  -1  -4   13.23    0.99
   0   1   4   12.54    0.69
   0   1   4   12.33    0.67
   0   1   4   11.58    0.73
   0   1   4   12.37    0.69
   0   1   4   14.53    1.01
   0   1   4   12.30    0.59
  -1  -1  -4  274.26   13.28
  -1  -1  -4  287.78   19.50
  -1  -1  -4  294.43   13.88
  -1  -1  -4  285.87   13.84
   1   1   4  293.36   19.49
   1   1   4  312.23   14.73
   1   1   4  292.06   13.83
   1   1   4  295.79   13.82
  -2  -1  -4   16.59    0.92
  -2  -1  -4   16.66    0.91
  -2  -1  -4   17.76    0.74
  -2  -1  -4   16.91    0.92
  -2  -1  -4   18.52    0.86
   2   1   4   18.84    1.01
   2   1   4   19.05    0.92
   2   1   4   18.57    0.97
   2   1   4   17.02    0.90
  -3  -1  -4   71.93    3.36
  -3  -1  -4   71.76    3.31
  -3  -1  -4   69.94    2.79
  -3  -1  -4   63.98    3.36
   3   1   4   65.80    3.36
   3   1   4   67.03    3.38
   3   1   4   67.85    3.39
   3   1   4   73.15    3.58
  -4  -1  -4   15.26    0.71
  -4  -1  -4   14.37    0.96
   4   1   4   16.86    1.36
   4   1   4   15.88    0.94
   4   1   4   13.88    0.97
  -5  -1  -4   33.72    1.90
   5   1   4   34.50    1.97
  -6  -1  -4    8.51    0.87
   6   1   4    7.34    0.91
   5  -2  -4    2.74    0.63
   4  -2  -4    1.80    0.50
  -4   2   4    1.55    0.70
   3  -2  -4   30.91    1.79
   3  -2  -4   33.58    1.88
   3  -2  -4   30.51    1.77
  -3   2   4   29.78    1.71
  -3   2   4   34.71    2.77
   2  -2  -4   15.12    1.10
  -2   2   4   19.43    1.17
  -2   2   4   19.21    1.74
   1  -2  -4   33.13    1.61
   1  -2  -4   31.33    2.28
  -1   2   4   28.74    1.58
  -1   2   4   26.59    1.55
   0  -2  -4   72.67    4.76
   0  -2  -4   75.31    3.36
   0  -2  -4   70.34    3.35
   0   2   4   60.50    2.87
   0   2   4   69.36    3.34
   0   2   4   58.36    3.33
   0   2   4   62.33    3.33
   0   2   4   79.35    4.79
  -1  -2  -4  163.51   11.36
  -1  -2  -4  178.64    7.16
  -1  -2  -4  165.59    8.00
  -1  -2  -4  159.91    7.73
  -1  -2  -4  164.44    7.99
   1   2   4  172.71    6.93
   1   2   4  177.96    8.00
   1   2   4  166.56    7.99
   1   2   4  164.52   11.35
  -2  -2  -4   45.85    2.29
  -2  -2  -4   45.73    2.13
   2   2   4   50.33    3.34
  -3  -2  -4   10.31    0.65
  -3  -2  -4   11.17    0.71
   3   2   4   11.37    0.74
   3   2   4   11.47    0.78
  -4  -2  -4   17.20    1.09
  -4  -2  -4   16.80    1.02
  -4  -2  -4   19.27    0.99
   4   2   4   20.29    1.15
   4   2   4   17.86    1.12
  -5  -2  -4    5.56    0.63
   5   2   4    5.87    0.57
   5   2   4    5.49    0.64
  -6  -2  -4    9.32    0.88
   6   2   4    9.55    0.92
  -4   3   4    8.95    1.49
  -3   3   4   -0.30    0.64
   2  -3  -4   43.23    2.40
   2  -3  -4   39.69    2.17
  -2   3   4   42.62    2.40
  -2   3   4   44.74    3.43
   1  -3  -4   30.02    1.64
  -1   3   4   28.19    2.37
  -1   3   4   28.99    1.62
   0  -3  -4  103.89    5.03
   0   3   4  106.43    5.03
   0   3   4   98.81    7.16
  -1  -3  -4   40.64    2.16
  -1  -3  -4   43.53    2.03
   1   3   4   43.46    2.15
   1   3   4   42.33    3.16
   1   3   4   45.62    2.16
  -2  -3  -4    4.21    0.40
  -2  -3  -4    4.12    0.44
  -2  -3  -4    5.02    0.35
   2   3   4    4.65    0.27
   2   3   4    5.52    0.75
  -3  -3  -4   86.67    3.82
  -3  -3  -4   83.74    4.09
  -4  -3  -4    4.62    0.55
  -4  -3  -4    4.07    0.45
   4   3   4    5.20    0.63
   4   3   4    4.88    0.54
  -5  -3  -4    5.66    0.58
  -5  -3  -4    6.36    0.68
   5   3   4    6.68    0.68
  -6  -3  -4    1.26    0.49
   6   3   4    1.43    0.43
   2  -4  -4   10.80    1.02
   1  -4  -4    5.16    0.66
  -1   4   4    6.80    1.23
   0  -4  -4   27.27    1.63
   0   4   4   30.62    2.49
  -1  -4  -4   29.86    1.55
  -1  -4  -4   29.67    1.63
   1   4   4   28.57    2.46
  -2  -4  -4   10.84    0.75
  -2  -4  -4   12.14    0.72
   2   4   4   11.44    0.68
   2   4   4    9.77    0.68
  -3  -4  -4   15.22    1.00
  -3  -4  -4   17.28    1.10
   3   4   4   19.08    1.74
  -4  -4  -4   18.35    1.20
  -4  -4  -4   17.36    1.12
   4   4   4   19.91    1.37
  -5  -4  -4    7.89    0.79
  -5  -4  -4    6.40    0.65
  -6  -4  -4    0.98    0.42
  -6  -4  -4    0.93    0.50
   6   4   4    1.20    0.42
   1  -5  -4    1.19    0.47
  -1  -5  -4   18.30    1.20
  -2  -5  -4   35.82    1.89
  -3  -5  -4    3.58    0.55
   3   5   4    3.77    0.46
  -4  -5  -4    7.53    0.72
   4   5   4    6.90    0.73
  -5  -5  -4    2.79    0.60
  -5  -5  -4    2.57    0.52
   5   5   4    3.33    0.55
   5   5   4    2.77    0.56
  -6  -5  -4    1.95    0.63
  -6  -5  -4    0.45    0.41
   6   5   4    0.83    0.40
   0  -6  -4    1.69    0.58
  -1  -6  -4    3.05    0.67
  -2  -6  -4    5.77    0.68
  -3  -6  -4    1.86    0.49
  -4  -6  -4    1.06    0.44
  -5  -6  -4    1.06    0.45
  -4  -6   5    1.69    0.56
  -3  -6   5    1.74    0.54
  -2  -6   5    0.56    0.42
  -1  -6   5    0.14    0.39
   0  -6   5    7.19    0.88
  -5  -5   5    2.46    0.58
  -4  -5   5   10.65    0.90
   3   5  -5   19.74    1.31
   3   5  -5   19.20    1.03
  -3  -5   5   18.76    1.23
   2   5  -5    4.84    0.56
  -2  -5   5    3.68    0.60
  -1  -5   5    7.72    0.75
   0   5  -5    3.86    0.88
   0  -5   5    3.51    0.59
   0  -5   5    3.24    0.62
  -2   5  -5    1.08    0.72
  -6  -4   5    0.50    0.42
  -6  -4   5    0.55    0.42
  -5  -4   5    4.65    0.70
  -5  -4   5    3.33    0.62
   4   4  -5    7.24    0.57
   4   4  -5    8.28    0.85
  -4  -4   5    8.82    0.73
  -4  -4   5    8.58    0.73
   3   4  -5   26.91    1.60
   3   4  -5   26.33    1.20
  -3  -4   5   26.23    1.43
  -3  -4   5   24.51    1.37
   2   4  -5    6.68    0.51
   2   4  -5    6.97    0.60
   2   4  -5    6.22    0.52
  -2  -4   5    6.93    0.60
  -2  -4   5    7.15    0.63
   1   4  -5   44.60    2.01
   1   4  -5   44.96    3.49
   1   4  -5   43.51    2.34
  -1  -4   5   45.10    2.36
  -1  -4   5   42.48    2.17
  -1  -4   5   45.63    2.31
   0   4  -5   56.68    4.55
   0  -4   5   62.63    2.96
   0  -4   5   64.62    3.10
   1  -4   5    5.03    0.70
  -2   4  -5    9.44    1.38
  -6  -3   5    5.82    0.72
  -5  -3   5    4.81    0.53
  -5  -3   5    4.66    0.59
  -5  -3   5    5.01    0.68
   4   3  -5   15.26    0.91
   4   3  -5   19.60    1.23
  -4  -3   5   14.48    0.98
  -4  -3   5   16.02    1.01
  -4  -3   5   16.10    0.93
   3   3  -5    2.11    0.26
   3   3  -5    1.72    0.24
   3   3  -5    1.73    0.34
   3   3  -5    2.08    0.31
  -3  -3   5    1.43    0.31
  -3  -3   5    2.23    0.36
  -3  -3   5    2.20    0.29
   2   3  -5   16.79    0.95
   2   3  -5   17.21    0.83
   2   3  -5   16.63    1.05
   2   3  -5   18.72    1.01
  -2  -3   5   17.19    0.96
  -2  -3   5   16.24    0.94
  -2  -3   5   17.97    1.01
   1   3  -5   22.37    1.07
   1   3  -5   22.43    1.27
   1   3  -5   24.62    1.30
   1   3  -5   20.93    1.19
  -1  -3   5   24.01    1.26
  -1  -3   5   24.89    1.26
  -1  -3   5   20.48    1.16
   0   3  -5   20.22    1.76
   0   3  -5   20.93    1.28
   0   3  -5   20.18    1.14
   0  -3   5   21.91    1.28
   0  -3   5   20.81    1.13
   0  -3   5   20.79    1.20
  -1   3  -5   15.25    1.37
  -1   3  -5   13.72    1.07
   1  -3   5   13.55    1.00
   1  -3   5   15.45    0.88
   1  -3   5   14.58    0.97
  -2   3  -5   35.27    2.13
  -2   3  -5   37.31    2.87
   2  -3   5   38.71    2.05
   2  -3   5   35.77    2.00
  -3   3  -5    0.41    0.53
   3  -3   5    1.53    0.45
  -6  -2   5    2.48    0.54
   5   2  -5    2.69    0.55
   5   2  -5    3.15    0.44
  -5  -2   5    3.39    0.52
   4   2  -5    7.88    0.75
   4   2  -5    6.04    0.58
   4   2  -5    6.82    0.53
   4   2  -5    8.06    0.59
  -4  -2   5    6.88    0.56
  -4  -2   5    7.57    0.61
  -4  -2   5    6.75    0.58
   3   2  -5    3.11    0.29
   3   2  -5    4.30    0.42
  -3  -2   5    3.30    0.35
  -3  -2   5    3.72    0.36
   2   2  -5   35.73    1.54
   2   2  -5   38.13    1.85
   2   2  -5   37.03    1.96
   2   2  -5   36.55    1.83
  -2  -2   5   37.76    1.71
  -2  -2   5   37.31    1.84
  -2  -2   5   33.64    1.54
  -2  -2   5   36.83    1.85
  -2  -2   5   36.53    1.94
  -2  -2   5   36.25    1.77
   1   2  -5   46.36    2.37
   1   2  -5   46.45    2.46
   1   2  -5   49.22    2.40
   1   2  -5   47.68    2.01
   1   2  -5   46.40    2.30
  -1  -2   5   48.57    2.38
  -1  -2   5   49.07    2.17
  -1  -2   5   51.20    2.40
  -1  -2   5   48.35    2.46
   0   2  -5  107.79    5.22
   0   2  -5  108.56    5.31
   0   2  -5  111.14    4.49
   0   2  -5  107.39    5.34
   0   2  -5  109.16    5.44
   0  -2   5  111.26    5.23
   0  -2   5  110.74    5.34
   0  -2   5  111.15    5.43
   0  -2   5  113.03    5.32
  -1   2  -5   83.74    4.16
  -1   2  -5   75.80    5.77
  -1   2  -5   83.78    4.37
  -1   2  -5   83.86    4.13
  -1   2  -5   84.42    4.06
   1  -2   5   79.32    4.14
   1  -2   5   85.04    4.14
   1  -2   5   87.70    4.08
   1  -2   5   90.71    4.21
   2  -2   5    4.90    0.57
  -3   2  -5   22.81    1.96
  -3   2  -5   23.90    1.55
   3  -2   5   24.29    1.51
   3  -2   5   24.03    1.45
  -4   2  -5    8.27    1.17
   4  -2   5   10.09    0.94
   5  -2   5    1.98    0.61
  -6  -1   5    1.62    0.47
   5   1  -5    8.81    0.89
  -5  -1   5    7.09    0.67
   4   1  -5   23.04    1.32
   4   1  -5   22.46    1.42
   4   1  -5   26.73    1.56
  -4  -1   5   24.83    1.43
  -4  -1   5   22.86    1.30
   3   1  -5    0.36    0.21
  -3  -1   5    0.39    0.13
  -3  -1   5    0.52    0.17
   2   1  -5   18.52    0.93
   2   1  -5   17.58    1.00
   2   1  -5   19.23    1.04
   2   1  -5   19.69    1.03
   2   1  -5   18.74    1.09
  -2  -1   5   19.35    1.02
  -2  -1   5   18.07    1.07
  -2  -1   5   18.87    0.86
  -2  -1   5   19.31    1.02
  -2  -1   5   18.66    0.94
  -2  -1   5   19.03    0.93
   1   1  -5  359.78   14.58
   1   1  -5  384.83   18.39
   1   1  -5  353.08   17.75
   1   1  -5  361.61   17.29
   1   1  -5  365.47   17.31
  -1  -1   5  376.19   17.31
  -1  -1   5  373.91   14.97
  -1  -1   5  369.17   15.41
  -1  -1   5  367.94   17.30
  -1  -1   5  339.19   16.57
   0   1  -5   93.28    4.57
   0   1  -5   86.44    4.20
   0   1  -5   90.07    4.41
   0   1  -5   83.68    4.30
   0   1  -5   87.35    4.29
   0   1  -5   89.14    3.62
   0  -1   5   90.53    4.31
   0  -1   5   89.21    4.41
   0  -1   5   91.31    4.29
   0  -1   5   89.08    4.20
  -1   1  -5   37.85    1.97
  -1   1  -5   37.64    2.70
  -1   1  -5   40.55    1.66
  -1   1  -5   40.69    2.09
  -1   1  -5   39.71    2.01
  -1   1  -5   38.40    1.93
   1  -1   5   36.91    1.98
   1  -1   5   40.53    2.03
   1  -1   5   40.82    1.94
   1  -1   5   38.32    1.97
  -2   1  -5    5.41    0.42
  -2   1  -5    5.02    0.47
  -2   1  -5    5.91    0.46
   2  -1   5    5.20    0.49
   2  -1   5    3.77    0.53
   2  -1   5    6.21    0.48
  -3   1  -5   12.70    1.05
  -3   1  -5    9.82    0.75
   3  -1   5   11.38    0.83
   3  -1   5   12.80    0.89
   4  -1   5   24.75    1.53
   5  -1   5    1.05    0.47
  -6   0   5    2.44    0.59
  -5   0   5    9.07    0.77
   4   0  -5   40.82    2.17
   4   0  -5   41.75    2.30
  -4   0   5   40.43    2.28
   3   0  -5   14.08    0.95
   3   0  -5   13.73    0.93
   3   0  -5   14.49    0.85
  -3   0   5   14.99    0.94
  -3   0   5   14.32    0.95
  -3   0   5   14.49    0.83
   2   0  -5  129.09    6.30
   2   0  -5  127.61    6.14
   2   0  -5  119.05    6.12
   2   0  -5  129.64    6.01
   2   0  -5  116.24    8.65
  -2   0   5  127.89    6.13
  -2   0   5  130.41    6.14
  -2   0   5  127.39    5.30
  -2   0   5  135.80    6.02
   1   0  -5  119.52    6.04
   1   0  -5  119.32    5.87
   1   0  -5  119.78    5.74
   1   0  -5  117.31    5.72
   1   0  -5  117.62    8.09
  -1   0   5  121.38    5.61
  -1   0   5  121.37    5.73
  -1   0   5  117.87    4.95
  -1   0   5  116.99    5.87
  -1   0   5  122.71    6.04
  -1   0   5  118.63    5.73
   0   0  -5  382.25   18.25
   0   0  -5  387.96   19.65
   0   0  -5  417.30   19.18
   0   0  -5  398.29   20.34
   0   0  -5  387.47   19.22
   0   0  -5  394.35   26.87
   0   0  -5  392.43   16.12
   0   0   5  420.50   20.30
   0   0   5  398.80   19.60
   0   0   5  422.78   19.11
   0   0   5  408.44   19.08
   0   0   5  411.59   16.08
  -1   0  -5  149.22    7.32
  -1   0  -5  128.65    6.89
  -1   0  -5  144.48    5.80
  -1   0  -5  139.02    6.88
  -1   0  -5  146.44    6.80
   1   0   5  140.40    7.32
   1   0   5  156.24    5.81
   1   0   5  147.68    6.81
   1   0   5  142.80    6.89
   1   0   5  148.19    6.88
  -2   0  -5   24.25    1.26
  -2   0  -5   22.34    1.19
  -2   0  -5   23.82    1.00
  -2   0  -5   23.16    1.20
  -2   0  -5   21.42    1.22
   2   0   5   22.14    1.20
   2   0   5   23.98    1.27
   2   0   5   23.82    1.22
   2   0   5   20.15    1.21
  -3   0  -5   17.23    1.01
  -3   0  -5   16.89    0.84
  -3   0  -5   15.49    1.01
   3   0   5   15.30    1.02
   3   0   5   19.74    1.31
   3   0   5   19.65    1.06
   3   0   5   19.12    1.05
  -4   0  -5   23.35    1.26
  -4   0  -5   21.43    1.05
   4   0   5   22.36    1.34
   4   0   5   20.02    1.34
  -5   0  -5    1.07    0.40
   5   0   5    1.35    0.46
  -6   0  -5    5.37    0.80
   5  -1  -5    2.27    0.56
   4  -1  -5    6.02    0.70
   3  -1  -5    6.36    0.61
   3  -1  -5    5.89    0.59
   3  -1  -5    7.21    0.70
  -3   1   5    8.57    1.24
  -3   1   5    7.78    0.77
   2  -1  -5  123.11    6.07
   2  -1  -5  107.02    8.69
   2  -1  -5  129.57    6.30
   2  -1  -5  132.44    6.21
  -2   1   5  122.23    6.45
  -2   1   5  131.11    8.77
  -2   1   5  132.26    6.08
  -2   1   5  136.89    6.22
  -2   1   5  131.48    6.19
   1  -1  -5   40.28    2.04
   1  -1  -5   37.08    2.86
   1  -1  -5   37.43    2.03
   1  -1  -5   41.21    2.05
  -1   1   5   42.20    2.05
  -1   1   5   40.14    2.04
  -1   1   5   40.81    2.04
  -1   1   5   41.80    2.92
  -1   1   5   41.63    1.99
  -1   1   5   39.76    2.10
  -1   1   5   41.11    1.76
   0  -1  -5    5.72    0.40
   0  -1  -5    6.63    0.39
   0  -1  -5    5.33    0.39
   0  -1  -5    5.87    0.56
   0   1   5    5.74    0.33
   0   1   5    5.74    0.40
   0   1   5    5.69    0.39
   0   1   5    5.89    0.37
   0   1   5    5.60    0.41
  -1  -1  -5  752.88   35.58
  -1  -1  -5  796.66   52.05
  -1  -1  -5  780.97   39.41
  -1  -1  -5  783.69   36.98
  -1  -1  -5  796.82   36.95
   1   1   5  762.48   31.12
   1   1   5  758.28   52.05
   1   1   5  779.21   36.90
   1   1   5  826.06   39.33
   1   1   5  755.82   36.89
  -2  -1  -5   33.95    1.65
  -2  -1  -5   34.73    1.78
  -2  -1  -5   33.74    1.63
  -2  -1  -5   35.60    1.50
  -2  -1  -5   31.95    1.62
  -2  -1  -5   33.70    1.36
   2   1   5   31.62    1.62
   2   1   5   31.47    1.64
   2   1   5   32.85    1.77
   2   1   5   32.17    1.68
   2   1   5   31.14    1.36
  -3  -1  -5   56.47    2.95
  -3  -1  -5   61.50    3.01
  -3  -1  -5   59.15    2.50
   3   1   5   65.84    3.05
   3   1   5   61.28    3.21
   3   1   5   64.12    3.01
   3   1   5   60.72    3.04
  -4  -1  -5   17.31    1.08
  -4  -1  -5   17.94    0.82
   4   1   5   18.19    1.07
   4   1   5   18.29    1.12
   4   1   5   17.99    1.09
   4   1   5   17.59    1.48
  -5  -1  -5   11.16    0.89
   5   1   5   11.11    0.93
  -6  -1  -5    8.83    0.88
   5  -2  -5    4.15    0.73
  -4   2   5    2.73    0.87
   3  -2  -5   36.87    2.18
   3  -2  -5   39.85    2.10
  -3   2   5   38.74    3.14
  -3   2   5   35.78    2.02
   2  -2  -5   64.66    3.23
   2  -2  -5   65.43    3.14
  -2   2   5   58.43    3.18
  -2   2   5   58.31    3.22
  -2   2   5   61.33    4.54
   1  -2  -5   85.97    4.38
   1  -2  -5   91.96    4.40
   1  -2  -5   87.65    4.37
  -1   2   5   90.29    4.31
  -1   2   5   88.23    4.36
  -1   2   5   88.73    6.19
   0  -2  -5   56.72    4.11
   0  -2  -5   62.00    2.90
   0  -2  -5   55.41    2.89
   0   2   5   67.04    2.90
   0   2   5   56.93    2.88
   0   2   5   64.11    4.14
   0   2   5   55.10    2.49
   0   2   5   52.05    2.87
  -1  -2  -5  146.42    7.11
  -1  -2  -5  162.40    6.59
  -1  -2  -5  149.65    7.36
  -1  -2  -5  155.99    7.37
  -1  -2  -5  144.00   10.45
   1   2   5  160.50    6.38
   1   2   5  167.46    7.37
   1   2   5  150.08    7.36
   1   2   5  153.89   10.45
  -2  -2  -5  163.86    7.63
  -2  -2  -5  153.70    7.42
  -2  -2  -5  162.94    6.87
   2   2   5  163.80    8.21
   2   2   5  159.27   10.85
  -3  -2  -5   56.11    2.82
  -3  -2  -5   60.86    2.63
   3   2   5   58.02    3.09
   3   2   5   56.67    2.89
  -4  -2  -5   32.29    1.72
  -4  -2  -5   29.84    1.63
  -4  -2  -5   34.34    1.62
   4   2   5   33.07    1.77
   4   2   5   32.09    1.82
  -5  -2  -5    9.32    0.80
   5   2   5    9.74    0.82
   5   2   5    9.04    0.76
  -6  -2  -5   13.32    1.07
   6   2   5   13.51    1.14
  -4   3   5    4.12    1.08
   2  -3  -5    6.90    0.51
   1  -3  -5    8.98    0.75
  -1   3   5   11.61    1.27
   0  -3  -5   56.36    2.92
   0  -3  -5   55.38    2.89
   0   3   5   60.56    4.18
   0   3   5   57.16    2.89
  -1  -3  -5   33.83    1.78
  -1  -3  -5   35.25    1.78
  -1  -3  -5   31.90    1.65
   1   3   5   32.39    1.52
   1   3   5   40.98    2.67
   1   3   5   36.95    1.78
   1   3   5   32.31    1.76
  -2  -3  -5    3.26    0.31
  -2  -3  -5    3.11    0.34
  -2  -3  -5    3.46    0.41
   2   3   5    3.07    0.25
   2   3   5    3.09    0.27
   2   3   5    4.97    0.66
   2   3   5    3.63    0.28
  -3  -3  -5    7.77    0.65
  -3  -3  -5    6.57    0.56
   3   3   5    9.62    1.06
   3   3   5   10.49    0.77
  -4  -3  -5   19.24    1.21
  -4  -3  -5   20.37    1.14
   4   3   5   19.64    1.22
   4   3   5   20.28    1.32
  -5  -3  -5    1.95    0.44
  -5  -3  -5    2.00    0.46
   5   3   5    2.44    0.47
  -6  -3  -5    1.26    0.48
   6   3   5    0.92    0.41
   1  -4  -5    9.85    0.88
  -1   4   5    9.63    1.42
   0  -4  -5   38.93    2.13
   0   4   5   39.62    3.12
   0   4   5   36.39    2.10
  -1  -4  -5    7.12    0.59
  -2  -4  -5   10.03    0.72
   2   4   5   10.59    0.66
   2   4   5   11.20    1.26
  -3  -4  -5   28.42    1.51
  -3  -4  -5   28.84    1.62
  -4  -4  -5    1.72    0.40
  -4  -4  -5    1.93    0.45
  -5  -4  -5   41.55    2.17
  -5  -4  -5   41.39    2.30
   5   4   5   44.96    2.54
   5   4   5   39.76    2.31
  -6  -4  -5    4.83    0.83
  -6  -4  -5    3.37    0.62
   6   4   5    4.79    0.70
   0   5   5   14.62    1.82
  -1  -5  -5    7.27    0.72
  -1  -5  -5    5.82    0.68
  -2  -5  -5   29.66    1.63
  -3  -5  -5    9.68    0.77
   3   5   5    8.35    0.67
  -4  -5  -5    3.39    0.57
   4   5   5    3.62    0.53
  -5  -5  -5    4.64    0.74
  -5  -5  -5    3.32    0.62
   5   5   5    3.01    0.59
   5   5   5    3.75    0.62
  -6  -5  -5    0.49    0.40
  -6  -5  -5    0.46    0.47
   6   5   5    1.10    0.42
   0  -6  -5    0.28    0.44
  -1  -6  -5    1.17    0.51
  -2  -6  -5    5.49    0.66
  -3  -6  -5    2.95    0.59
  -4  -6  -5    2.06    0.53
  -5  -6  -5    3.41    0.63
  -4  -6   6    0.92    0.45
  -3  -6   6    4.61    0.75
  -2  -6   6    3.46    0.68
  -1  -6   6    5.97    0.85
   0  -6   6    7.65    0.86
  -5  -5   6    4.36    0.72
  -4  -5   6    0.83    0.39
   3   5  -6    1.20    0.34
  -3  -5   6    0.60    0.36
   2   5  -6    0.70    0.30
  -2  -5   6    0.41    0.33
   1   5  -6    5.11    0.57
  -1  -5   6    2.85    0.54
   0  -5   6    9.54    0.87
  -1   5  -6   11.39    1.67
  -6  -4   6    0.42    0.44
  -5  -4   6    0.81    0.40
  -5  -4   6    0.92    0.43
   4   4  -6    1.85    0.45
  -4  -4   6    1.80    0.43
  -4  -4   6    1.90    0.44
   3   4  -6   23.18    1.43
   3   4  -6   20.78    1.04
  -3  -4   6   21.39    1.25
   2   4  -6   12.41    0.88
   2   4  -6   11.03    0.75
   2   4  -6   12.16    0.73
  -2  -4   6   11.85    0.83
  -2  -4   6   14.80    0.92
   1   4  -6   19.14    1.08
   1   4  -6   22.00    1.26
   1   4  -6   22.89    2.02
  -1  -4   6   21.67    1.28
  -1  -4   6   19.27    1.19
   0   4  -6   31.91    2.45
   0   4  -6   26.00    1.38
   0  -4   6   25.20    1.50
   0  -4   6   26.45    1.46
  -1   4  -6    6.77    1.15
  -2   4  -6    4.10    0.86
   2  -4   6    7.21    0.85
   3  -4   6    5.26    0.79
  -6  -3   6    8.28    0.82
  -5  -3   6   10.54    0.79
  -5  -3   6    8.96    0.70
  -5  -3   6    8.48    0.74
   4   3  -6   10.03    0.88
   4   3  -6    9.19    0.59
  -4  -3   6    7.92    0.66
  -4  -3   6    8.98    0.69
  -4  -3   6    8.77    0.65
   3   3  -6    4.96    0.39
   3   3  -6    5.08    0.60
   3   3  -6    5.76    0.50
   3   3  -6    5.19    0.37
  -3  -3   6    5.51    0.47
  -3  -3   6    5.46    0.48
  -3  -3   6    5.60    0.50
  -3  -3   6    5.34    0.49
   2   3  -6    0.92    0.28
   2   3  -6    0.62    0.20
   2   3  -6    0.45    0.20
  -2  -3   6    0.92    0.25
  -2  -3   6    0.95    0.29
  -2  -3   6    0.54    0.21
   1   3  -6   55.77    2.81
   1   3  -6   56.06    2.97
   1   3  -6   58.56    2.93
   1   3  -6   56.95    2.46
  -1  -3   6   58.97    2.93
  -1  -3   6   60.20    2.96
  -1  -3   6   60.10    2.90
  -1  -3   6   55.37    2.63
   0   3  -6   33.67    2.60
   0   3  -6   34.78    1.88
   0   3  -6   31.74    1.71
   0   3  -6   33.18    1.53
   0  -3   6   33.12    1.75
   0  -3   6   33.59    1.79
  -1   3  -6    6.23    0.72
  -1   3  -6    6.02    0.86
   1  -3   6    5.34    0.48
   1  -3   6    6.16    0.65
   1  -3   6    5.64    0.58
  -2   3  -6   20.98    1.76
   2  -3   6   18.54    1.21
   2  -3   6   19.57    1.27
  -3   3  -6    0.35    0.51
   3  -3   6    0.64    0.43
   3  -3   6    0.98    0.42
   4  -3   6    2.27    0.64
  -6  -2   6    5.09    0.66
   5   2  -6    3.41    0.45
   5   2  -6    4.26    0.70
  -5  -2   6    3.82    0.55
   4   2  -6    2.96    0.40
   4   2  -6    4.01    0.39
   4   2  -6    4.21    0.50
   4   2  -6    4.70    0.62
  -4  -2   6    4.08    0.44
  -4  -2   6    4.63    0.50
  -4  -2   6    4.00    0.51
  -4  -2   6    3.89    0.43
   3   2  -6   38.94    2.09
   3   2  -6   38.43    2.11
   3   2  -6   37.62    1.86
   3   2  -6   38.89    1.98
  -3  -2   6   36.99    1.96
  -3  -2   6   37.64    1.82
  -3  -2   6   38.08    1.96
  -3  -2   6   38.73    1.89
   2   2  -6   28.13    1.42
   2   2  -6   25.98    1.20
   2   2  -6   27.51    1.54
   2   2  -6   28.58    1.45
   2   2  -6   24.12    1.32
  -2  -2   6   27.43    1.44
  -2  -2   6   26.82    1.32
  -2  -2   6   27.83    1.52
  -2  -2   6   26.51    1.36
  -2  -2   6   30.77    1.44
  -2  -2   6   28.92    1.20
   1   2  -6    0.80    0.13
   1   2  -6    0.81    0.19
   1   2  -6    0.89    0.24
   1   2  -6    0.81    0.17
   1   2  -6    0.91    0.20
  -1  -2   6    0.77    0.17
  -1  -2   6    0.52    0.16
  -1  -2   6    0.82    0.20
  -1  -2   6    1.27    0.26
   0   2  -6   16.75    0.95
   0   2  -6   14.51    0.85
   0   2  -6   15.22    0.78
   0   2  -6   15.10    0.91
   0   2  -6   16.61    0.99
   0  -2   6   16.54    0.88
   0  -2   6   19.03    0.94
  -1   2  -6   25.86    1.59
  -1   2  -6   27.23    1.40
  -1   2  -6   31.88    1.73
  -1   2  -6   32.55    2.31
  -1   2  -6   29.32    1.76
   1  -2   6   32.37    1.64
   1  -2   6   32.73    1.69
   1  -2   6   35.60    1.72
   1  -2   6   35.08    1.71
  -2   2  -6    7.43    0.78
  -2   2  -6    6.28    0.72
   2  -2   6    5.73    0.58
   2  -2   6    5.30    0.61
  -3   2  -6   30.14    2.46
   3  -2   6   34.19    1.85
   4  -2   6    7.47    0.85
   5  -2   6    0.80    0.49
  -6  -1   6    2.04    0.52
   5   1  -6    4.17    0.68
  -5  -1   6    4.12    0.52
   4   1  -6   33.69    1.77
   4   1  -6   32.67    1.89
   4   1  -6   37.66    2.00
  -4  -1   6   29.07    1.73
  -4  -1   6   34.06    1.74
  -4  -1   6   35.71    1.90
   3   1  -6   48.69    2.72
   3   1  -6   52.73    2.70
   3   1  -6   53.79    2.57
   3   1  -6   56.40    2.81
  -3  -1   6   53.74    2.57
  -3  -1   6   53.39    2.53
  -3  -1   6   50.53    2.68
  -3  -1   6   53.92    2.68
   2   1  -6   66.82    3.35
   2   1  -6   64.74    3.37
   2   1  -6   62.85    3.09
   2   1  -6   61.99    3.20
   2   1  -6   67.11    3.24
  -2  -1   6   67.27    3.05
  -2  -1   6   64.11    3.22
  -2  -1   6   67.02    3.22
  -2  -1   6   64.07    2.76
  -2  -1   6   66.69    3.34
  -2  -1   6   68.07    2.88
   1   1  -6  269.65   13.60
   1   1  -6  282.85   13.26
   1   1  -6  277.58   11.16
   1   1  -6  275.03   13.24
   1   1  -6  278.29   14.07
  -1  -1   6  274.58   13.60
  -1  -1   6  279.07   11.74
  -1  -1   6  277.81   13.26
  -1  -1   6  282.72   11.46
  -1  -1   6  290.19   13.25
   0   1  -6  124.54    5.99
   0   1  -6  122.55    6.16
   0   1  -6  121.62    5.87
   0   1  -6  121.44    6.01
   0   1  -6  127.83    5.06
   0   1  -6  130.23    6.38
   0  -1   6  120.07    6.00
   0  -1   6  127.49    5.88
   0  -1   6  128.53    6.38
   0  -1   6  126.57    6.16
   0  -1   6  123.84    5.99
  -1   1  -6  252.00   12.25
  -1   1  -6  251.23    9.72
  -1   1  -6  228.66   11.55
  -1   1  -6  243.25   11.37
  -1   1  -6  243.67   11.53
  -1   1  -6  218.98   16.17
   1  -1   6  228.94   11.54
   1  -1   6  248.71   11.83
   1  -1   6  247.95   12.25
   1  -1   6  236.78   11.52
   1  -1   6  260.84   11.39
  -2   1  -6   25.18    1.82
  -2   1  -6   27.16    1.17
  -2   1  -6   24.51    1.39
  -2   1  -6   25.67    1.44
  -2   1  -6   25.66    1.48
   2  -1   6   26.02    1.38
   2  -1   6   24.68    1.41
  -3   1  -6   10.57    0.77
  -3   1  -6   11.17    0.98
   3  -1   6   12.07    0.82
   3  -1   6   11.48    0.85
  -4   1  -6   10.68    0.96
   4  -1   6    9.89    0.88
   5  -1   6    0.43    0.40
  -6   0   6    0.32    0.38
  -5   0   6    0.62    0.36
   4   0  -6   11.27    0.83
  -4   0   6   11.92    0.97
   3   0  -6    9.39    0.70
   3   0  -6    7.81    0.66
   3   0  -6    7.84    0.56
  -3   0   6    7.39    0.54
   2   0  -6    9.41    0.53
   2   0  -6    8.02    0.93
   2   0  -6    9.07    0.62
   2   0  -6    8.40    0.50
   2   0  -6    7.58    0.57
   2   0  -6    9.58    0.63
  -2   0   6    9.57    0.52
  -2   0   6    8.81    0.62
  -2   0   6    8.64    0.51
  -2   0   6    7.67    0.59
  -2   0   6    8.94    0.59
  -2   0   6    8.64    0.50
   1   0  -6  116.70    5.64
   1   0  -6  109.91    5.77
   1   0  -6  107.65    5.62
   1   0  -6  110.75    7.95
   1   0  -6  114.11    5.94
  -1   0   6  126.43    5.64
  -1   0   6  118.20    5.94
  -1   0   6  119.87    4.87
  -1   0   6  119.36    5.77
  -1   0   6  121.50    5.50
  -1   0   6  122.90    5.64
   0   0  -6  319.88   15.21
   0   0  -6  316.84   21.29
   0   0  -6  296.99   14.48
   0   0  -6  322.09   15.21
   0   0  -6  313.93   12.79
   0   0  -6  314.86   15.51
   0   0  -6  318.40   16.06
   0   0   6  320.00   15.12
   0   0   6  324.88   16.16
   0   0   6  342.92   15.12
   0   0   6  314.13   15.50
  -1   0  -6  108.84    5.59
  -1   0  -6  118.41    4.70
  -1   0  -6  116.45    5.51
  -1   0  -6  117.62    7.78
  -1   0  -6  118.93    5.58
  -1   0  -6  116.61    5.94
   1   0   6  121.16    5.58
   1   0   6  119.18    5.94
   1   0   6  107.57    5.58
   1   0   6  119.82    5.51
  -2   0  -6   75.77    3.78
  -2   0  -6   76.78    3.75
  -2   0  -6   76.37    3.98
  -2   0  -6   78.20    3.15
  -2   0  -6   77.64    3.72
   2   0   6   77.96    3.98
   2   0   6   76.99    3.75
   2   0   6   78.31    3.73
   2   0   6   74.52    3.77
  -3   0  -6   15.75    0.75
  -3   0  -6   15.50    0.92
  -3   0  -6   18.35    1.02
  -3   0  -6   14.63    0.93
   3   0   6   15.77    0.96
   3   0   6   12.79    0.92
   3   0   6   14.29    0.94
  -4   0  -6   15.14    0.77
  -4   0  -6   14.77    0.91
   4   0   6   15.04    0.92
   4   0   6   11.89    0.97
  -5   0  -6    0.75    0.40
   5   0   6    0.34    0.35
  -6   0  -6    2.84    0.63
   4  -1  -6    1.69    0.43
  -4   1   6    1.41    0.46
   3  -1  -6   15.32    0.95
   3  -1  -6   13.83    0.94
   3  -1  -6   14.04    1.02
  -3   1   6   13.96    1.61
  -3   1   6   14.15    1.05
   2  -1  -6   70.16    3.40
   2  -1  -6   67.39    3.36
  -2   1   6   67.76    3.27
  -2   1   6   66.85    4.80
  -2   1   6   64.71    3.42
  -2   1   6   65.00    3.34
  -2   1   6   65.51    3.34
   1  -1  -6    2.94    0.49
   1  -1  -6    3.03    0.27
   1  -1  -6    2.28    0.31
  -1   1   6    2.18    0.30
  -1   1   6    2.70    0.27
  -1   1   6    2.78    0.26
   0  -1  -6  166.67    8.01
   0  -1  -6  164.33    8.50
   0  -1  -6  164.26   11.30
   0  -1  -6  166.53    8.20
   0  -1  -6  168.30    8.02
   0   1   6  169.81    6.94
   0   1   6  167.79    8.00
   0   1   6  169.90    8.19
   0   1   6  161.40    8.50
   0   1   6  178.54    8.01
   0   1   6  166.80   11.29
  -1  -1  -6  482.43   25.37
  -1  -1  -6  521.13   33.75
  -1  -1  -6  480.53   22.94
  -1  -1  -6  507.02   23.89
  -1  -1  -6  494.56   23.89
   1   1   6  507.12   33.58
   1   1   6  517.80   23.88
   1   1   6  510.04   23.84
   1   1   6  509.04   25.33
  -2  -1  -6  187.53    8.72
  -2  -1  -6  182.26    7.34
  -2  -1  -6  182.91    8.42
  -2  -1  -6  198.46    7.77
  -2  -1  -6  184.34    9.31
  -2  -1  -6  195.35    8.75
   2   1   6  190.06    8.69
   2   1   6  179.35    8.72
   2   1   6  177.32    8.73
   2   1   6  185.76    9.31
   2   1   6  176.48    7.34
   2   1   6  161.28   12.25
  -3  -1  -6   47.26    2.51
  -3  -1  -6   52.28    2.56
  -3  -1  -6   52.74    2.74
  -3  -1  -6   49.13    2.11
  -3  -1  -6   55.17    2.61
   3   1   6   49.86    2.59
   3   1   6   54.03    2.56
   3   1   6   50.56    2.58
   3   1   6   52.04    2.74
   4   1   6    4.94    0.70
   4   1   6    4.83    0.56
   4   1   6    5.88    0.54
   4   1   6    6.11    0.57
  -5  -1  -6   17.14    1.15
   5   1   6   16.36    1.19
  -6  -1  -6    3.82    0.67
   6   1   6    4.34    0.77
   5  -2  -6    3.83    0.73
   4  -2  -6    1.93    0.53
  -4   2   6    1.03    0.69
   3  -2  -6   15.99    1.18
   3  -2  -6   16.05    1.07
  -3   2   6   14.35    0.94
  -3   2   6   19.50    1.88
   1  -2  -6   66.53    3.22
   1  -2  -6   60.51    3.19
   1  -2  -6   63.42    3.24
  -1   2   6   60.47    3.34
  -1   2   6   67.49    3.21
  -1   2   6   62.31    2.76
  -1   2   6   67.10    4.57
   0  -2  -6  104.32    7.64
   0  -2  -6  111.37    5.40
   0  -2  -6  107.31    5.39
   0   2   6  117.76    4.67
   0   2   6  112.50    5.45
   0   2   6  110.66    5.73
   0   2   6  116.63    5.40
   0   2   6  106.82    7.63
   0   2   6  115.78    5.39
  -1  -2  -6   89.36    4.21
  -1  -2  -6   87.32    4.19
  -1  -2  -6   92.49    3.76
  -1  -2  -6   84.25    5.97
  -1  -2  -6   82.92    4.05
   1   2   6   91.57    4.19
   1   2   6   82.90    4.18
   1   2   6   90.06    4.51
   1   2   6   87.54    3.63
   1   2   6   79.95    5.94
  -2  -2  -6   51.69    2.33
  -2  -2  -6   47.92    2.14
  -2  -2  -6   46.07    2.31
   2   2   6   45.70    2.30
   2   2   6   47.47    2.30
   2   2   6   48.05    3.34
   2   2   6   42.90    1.95
   2   2   6   50.71    2.57
  -3  -2  -6   20.51    1.04
  -3  -2  -6   17.16    1.11
  -3  -2  -6   21.35    1.07
  -3  -2  -6   18.66    1.03
   3   2   6   20.43    1.24
   3   2   6   23.45    1.59
   3   2   6   19.83    1.17
   4   2   6    9.51    0.74
   4   2   6    8.71    0.72
  -5  -2  -6    5.05    0.62
   5   2   6    5.02    0.62
   5   2   6    5.11    0.63
   6   2   6    2.44    0.57
  -4   3   6    4.54    1.10
   3  -3  -6    5.78    0.80
  -3   3   6    4.82    1.13
   2  -3  -6   49.03    2.53
   2  -3  -6   49.85    2.72
  -2   3   6   50.88    2.73
  -2   3   6   47.73    3.91
   1  -3  -6    7.88    0.74
  -1   3   6    9.55    1.22
   0  -3  -6   25.94    1.49
   0  -3  -6   25.49    1.45
   0   3   6   27.46    2.18
   0   3   6   25.52    1.44
  -1  -3  -6   56.93    2.85
  -1  -3  -6   56.92    2.85
  -1  -3  -6   61.60    2.61
   1   3   6   59.95    2.84
   1   3   6   54.83    2.84
   1   3   6   56.32    2.83
   1   3   6   57.71    2.44
   1   3   6   51.93    4.07
  -2  -3  -6   32.37    1.51
  -2  -3  -6   29.21    1.56
  -2  -3  -6   31.38    1.62
   2   3   6   30.42    1.54
   2   3   6   29.80    1.36
   2   3   6   31.01    1.54
   2   3   6   32.91    2.39
  -3  -3  -6    3.51    0.37
  -3  -3  -6    4.67    0.49
   3   3   6    4.13    0.78
   3   3   6    4.58    0.59
   3   3   6    4.18    0.31
  -4  -3  -6   37.42    1.82
  -4  -3  -6   36.11    1.95
   4   3   6   35.59    1.98
   4   3   6   36.10    2.13
  -5  -3  -6    3.74    0.60
  -5  -3  -6    4.35    0.59
   5   3   6    4.14    0.60
  -6  -3  -6    3.02    0.66
   6   3   6    3.11    0.60
   2  -4  -6    3.32    0.65
  -2   4   6    1.35    0.80
   1  -4  -6    7.70    0.81
  -1   4   6    7.03    1.31
  -1   4   6    7.41    0.83
   0  -4  -6   19.11    1.34
   0   4   6   24.72    2.15
  -1  -4  -6   17.22    1.04
   1   4   6   18.17    1.72
   1   4   6   17.81    1.09
  -2  -4  -6    3.16    0.45
   2   4   6    5.45    0.92
   2   4   6    3.09    0.38
  -3  -4  -6    6.28    0.63
  -3  -4  -6    4.67    0.48
  -4  -4  -6    4.47    0.53
  -4  -4  -6    4.31    0.62
   4   4   6    5.07    0.73
  -5  -4  -6   22.29    1.45
  -5  -4  -6   21.28    1.33
   5   4   6   22.62    1.45
   5   4   6   24.45    1.61
  -6  -4  -6    1.03    0.50
  -6  -4  -6    1.61    0.52
   6   4   6    1.46    0.46
   0  -5  -6    2.50    0.51
   0   5   6    2.26    0.73
  -1  -5  -6    5.32    0.71
  -2  -5  -6    4.85    0.57
  -3  -5  -6    2.57    0.49
   3   5   6    2.04    0.34
  -4  -5  -6    4.31    0.62
  -4  -5  -6    3.58    0.60
  -5  -5  -6    1.16    0.45
  -5  -5  -6    1.95    0.56
   5   5   6    1.34    0.43
   5   5   6    0.88    0.39
  -6  -5  -6    1.62    0.58
  -6  -5  -6    1.96    0.56
   6   5   6    1.92    0.52
   0  -6  -6    0.74    0.47
  -1  -6  -6    1.69    0.57
  -2  -6  -6    9.37    0.84
  -3  -6  -6    4.15    0.66
  -4  -6  -6    0.46    0.42
  -5  -6  -6    6.48    0.79
  -4  -6   7    2.59    0.61
  -3  -6   7    1.24    0.48
  -2  -6   7    0.72    0.48
  -1  -6   7    2.23    0.60
   0  -6   7    4.62    0.81
  -5  -5   7    1.62    0.48
  -4  -5   7    9.64    0.85
   3   5  -7    1.08    0.38
   3   5  -7    1.40    0.34
  -3  -5   7    1.06    0.40
   2   5  -7    3.36    0.51
  -2  -5   7    3.67    0.59
  -1  -5   7   12.40    0.92
   0  -5   7    4.33    0.70
   1  -5   7    1.40    0.50
  -2   5  -7    0.07    0.62
  -6  -4   7    1.39    0.51
  -5  -4   7    0.43    0.37
  -5  -4   7    0.86    0.42
   4   4  -7    3.03    0.58
  -4  -4   7    2.59    0.49
   3   4  -7   10.63    0.65
   3   4  -7   11.77    0.91
  -3  -4   7   10.05    0.78
  -3  -4   7   10.74    0.74
   2   4  -7   39.44    2.14
   2   4  -7   41.59    1.91
   2   4  -7   43.57    2.34
  -2  -4   7   42.34    2.10
  -2  -4   7   44.45    2.28
  -2  -4   7   43.76    2.24
   1   4  -7   12.39    0.86
   1   4  -7   10.40    0.72
  -1  -4   7   11.80    0.86
  -1  -4   7   10.78    0.75
  -1  -4   7    9.90    0.75
   0   4  -7    5.37    0.55
   0  -4   7    4.89    0.58
   0  -4   7    5.27    0.46
  -1   4  -7   11.44    0.80
  -1   4  -7    9.93    1.37
  -2   4  -7    1.36    0.59
   2  -4   7    1.91    0.49
   2  -4   7    2.05    0.56
   3  -4   7    0.82    0.46
  -6  -3   7    0.79    0.40
  -6  -3   7    1.25    0.42
  -5  -3   7   -0.12    0.31
  -5  -3   7    0.77    0.36
  -5  -3   7    0.53    0.33
   4   3  -7    0.45    0.17
   4   3  -7    0.67    0.34
  -4  -3   7    0.51    0.30
  -4  -3   7    0.93    0.30
  -4  -3   7    0.50    0.28
   3   3  -7    1.42    0.26
   3   3  -7    1.23    0.17
   3   3  -7    1.49    0.32
   3   3  -7    1.16    0.33
  -3  -3   7    1.61    0.31
  -3  -3   7    1.74    0.34
  -3  -3   7    1.27    0.32
  -3  -3   7    1.67    0.32
   2   3  -7    6.63    0.45
   2   3  -7    6.11    0.40
   2   3  -7    6.61    0.59
   2   3  -7    6.51    0.60
  -2  -3   7    7.12    0.60
  -2  -3   7    5.97    0.48
  -2  -3   7    6.55    0.53
   1   3  -7   18.18    1.06
   1   3  -7   18.76    1.09
   1   3  -7   16.35    0.86
   1   3  -7   16.19    0.91
  -1  -3   7   17.97    1.01
  -1  -3   7   16.81    1.01
  -1  -3   7   15.96    0.93
   0   3  -7   19.44    1.71
   0   3  -7   22.57    1.21
   0   3  -7   17.12    1.07
   0   3  -7   18.78    1.00
   0   3  -7   20.66    1.26
   0  -3   7   20.45    1.17
   0  -3   7   19.23    1.12
   0  -3   7   20.39    1.25
   0  -3   7   19.57    1.09
  -1   3  -7    9.27    1.08
  -1   3  -7    9.97    0.67
   1  -3   7    9.50    0.81
   1  -3   7    9.78    0.69
   1  -3   7    9.62    0.74
  -2   3  -7    9.45    0.75
  -2   3  -7   13.54    1.26
   2  -3   7   11.11    0.90
  -3   3  -7    1.16    0.56
   3  -3   7    2.05    0.54
   3  -3   7    2.28    0.50
   4  -3   7    4.15    0.75
  -6  -2   7    2.75    0.55
  -5  -2   7    6.56    0.62
   4   2  -7    5.66    0.61
   4   2  -7    6.52    0.48
   4   2  -7    6.90    0.72
  -4  -2   7    6.81    0.63
  -4  -2   7    6.55    0.54
   3   2  -7    7.82    0.62
   3   2  -7    7.62    0.64
   3   2  -7    7.52    0.45
   3   2  -7    7.77    0.69
  -3  -2   7    7.66    0.59
  -3  -2   7    7.10    0.54
  -3  -2   7    7.36    0.52
  -3  -2   7    8.65    0.61
   2   2  -7   92.48    4.62
   2   2  -7   92.33    4.42
   2   2  -7   94.98    4.73
   2   2  -7   93.65    4.45
   2   2  -7   90.39    3.73
  -2  -2   7   89.10    3.80
  -2  -2   7   95.14    4.44
  -2  -2   7   87.70    4.44
  -2  -2   7   87.80    4.22
  -2  -2   7   86.95    3.98
   1   2  -7    2.83    0.30
   1   2  -7    3.49    0.40
   1   2  -7    2.75    0.28
   1   2  -7    2.71    0.21
   1   2  -7    3.23    0.38
   1   2  -7    2.92    0.36
  -1  -2   7    3.02    0.38
  -1  -2   7    2.43    0.26
  -1  -2   7    2.82    0.32
  -1  -2   7    2.98    0.33
   0   2  -7   20.05    1.14
   0   2  -7   19.55    1.02
   0   2  -7   19.68    0.94
   0   2  -7   18.57    1.09
   0   2  -7   20.33    1.16
   0   2  -7   20.19    1.19
   0  -2   7   20.31    1.12
   0  -2   7   19.15    1.13
   0  -2   7   19.68    1.10
   0  -2   7   20.44    1.05
   0  -2   7   19.67    1.00
  -1   2  -7   25.53    1.50
  -1   2  -7   24.78    1.36
  -1   2  -7   24.83    1.95
  -1   2  -7   26.04    1.56
  -1   2  -7   26.55    1.21
   1  -2   7   26.26    1.44
   1  -2   7   25.94    1.48
   1  -2   7   26.93    1.46
   1  -2   7   26.23    1.39
  -2   2  -7   21.05    1.34
  -2   2  -7   21.58    1.05
  -2   2  -7   20.55    1.58
   2  -2   7   16.26    1.21
   2  -2   7   19.08    1.19
   2  -2   7   20.87    1.26
  -3   2  -7   13.06    1.27
  -3   2  -7   12.06    0.83
   3  -2   7   14.11    1.00
   4  -2   7    7.24    0.83
   5  -2   7    3.07    0.66
  -6  -1   7    3.54    0.64
  -5  -1   7    2.76    0.57
  -5  -1   7    3.05    0.51
   4   1  -7   25.49    1.55
   4   1  -7   25.85    1.39
  -4  -1   7   25.60    1.52
  -4  -1   7   24.28    1.35
  -4  -1   7   26.46    1.37
   3   1  -7    3.06    0.32
   3   1  -7    3.07    0.31
   3   1  -7    3.24    0.45
  -3  -1   7    3.37    0.43
  -3  -1   7    3.70    0.31
  -3  -1   7    3.53    0.28
  -3  -1   7    3.04    0.43
   2   1  -7   21.40    1.23
   2   1  -7   22.62    1.29
   2   1  -7   20.82    1.19
   2   1  -7   21.09    1.22
  -2  -1   7   22.74    1.08
  -2  -1   7   22.96    1.22
  -2  -1   7   22.93    1.02
  -2  -1   7   22.55    1.22
  -2  -1   7   23.19    1.28
  -2  -1   7   22.73    1.09
   1   1  -7   11.54    0.57
   1   1  -7   10.71    0.66
   1   1  -7   12.06    0.71
   1   1  -7   11.53    0.71
   1   1  -7   10.33    0.70
  -1  -1   7   10.65    0.56
  -1  -1   7   10.81    0.69
  -1  -1   7   11.98    0.68
  -1  -1   7   10.95    0.70
  -1  -1   7   11.48    0.57
   0   1  -7  147.80    7.31
   0   1  -7  141.08    5.79
   0   1  -7  141.26    6.89
   0   1  -7  137.36    6.86
   0   1  -7  134.45    6.73
   0   1  -7  143.06    7.07
   0  -1   7  147.44    6.89
   0  -1   7  142.56    7.06
   0  -1   7  143.48    6.87
   0  -1   7  151.94    7.32
   0  -1   7  146.93    6.74
  -1   1  -7   35.93    1.93
  -1   1  -7   36.46    2.11
  -1   1  -7   40.02    2.00
  -1   1  -7   37.77    1.68
   1  -1   7   40.44    2.07
   1  -1   7   38.71    2.12
   1  -1   7   40.66    1.96
   1  -1   7   44.46    2.04
  -2   1  -7   30.32    1.35
  -2   1  -7   31.33    1.69
  -2   1  -7   28.41    1.68
  -2   1  -7   29.75    1.61
  -2   1  -7   31.05    2.12
   2  -1   7   30.82    1.60
   2  -1   7   29.27    1.63
  -3   1  -7    1.61    0.43
  -3   1  -7    1.52    0.29
  -3   1  -7    1.56    0.30
   3  -1   7    2.14    0.47
   3  -1   7    2.71    0.43
   4  -1   7    1.37    0.39
   4  -1   7    2.03    0.46
   5  -1   7    3.07    0.59
  -5   0   7    1.90    0.45
   4   0  -7    5.55    0.58
   4   0  -7    5.88    0.69
   3   0  -7   49.55    2.56
   3   0  -7   51.16    2.61
   3   0  -7   46.54    2.40
  -3   0   7   48.12    2.54
  -3   0   7   46.85    2.52
  -3   0   7   47.93    2.41
   2   0  -7    7.55    0.58
   2   0  -7    8.17    0.60
   2   0  -7    6.99    0.93
   2   0  -7    8.32    0.49
   2   0  -7    8.21    0.62
  -2   0   7    7.58    0.58
  -2   0   7    7.98    0.57
  -2   0   7    8.09    0.48
  -2   0   7    6.92    0.58
  -2   0   7    8.89    0.49
  -2   0   7    8.48    0.51
   1   0  -7   34.78    1.81
   1   0  -7   35.11    1.85
   1   0  -7   33.44    1.79
   1   0  -7   34.69    1.84
   1   0  -7   34.17    2.54
  -1   0   7   34.52    1.79
  -1   0   7   36.56    1.87
  -1   0   7   35.15    1.83
  -1   0   7   35.07    1.70
  -1   0   7   36.96    1.55
  -1   0   7   36.30    1.80
   0   0  -7   68.00    3.45
   0   0  -7   70.11    3.37
   0   0  -7   68.06    3.55
   0   0  -7   67.48    3.35
   0   0  -7   69.69    4.70
   0   0  -7   65.21    2.82
   0   0   7   69.99    2.91
   0   0   7   68.29    3.45
   0   0   7   68.08    3.36
   0   0   7   70.33    3.56
   0   0   7   69.43    3.35
  -1   0  -7   60.55    2.51
  -1   0  -7   60.99    2.98
  -1   0  -7   58.99    4.11
  -1   0  -7   55.12    2.99
  -1   0  -7   61.20    3.17
   1   0   7   64.50    2.94
   1   0   7   62.48    3.18
   1   0   7   60.96    3.09
   1   0   7   60.31    2.99
   1   0   7   64.96    2.99
  -2   0  -7   33.94    1.52
  -2   0  -7   33.08    1.92
  -2   0  -7   39.37    1.87
  -2   0  -7   36.10    1.82
  -2   0  -7   32.58    1.80
   2   0   7   36.35    1.94
   2   0   7   36.02    1.84
   2   0   7   37.22    1.82
   2   0   7   36.59    1.82
  -3   0  -7   53.16    2.18
  -3   0  -7   49.66    2.62
  -3   0  -7   50.96    2.73
  -3   0  -7   49.48    2.67
   3   0   7   51.74    2.63
   3   0   7   52.19    2.62
   3   0   7   52.33    2.75
  -4   0  -7   65.04    3.25
  -4   0  -7   69.28    3.47
  -4   0  -7   67.27    2.78
  -4   0  -7   59.08    3.39
   4   0   7   64.46    3.44
   4   0   7   65.71    3.36
  -5   0  -7    6.41    0.71
   5   0   7    6.75    0.80
  -6   0  -7    3.03    0.67
   6   0   7    3.09    0.74
   3  -1  -7    9.13    0.73
   3  -1  -7    8.32    0.80
  -3   1   7    9.51    1.38
  -3   1   7    8.85    0.83
   2  -1  -7    6.09    0.47
   2  -1  -7    5.39    0.54
  -2   1   7    4.75    0.40
  -2   1   7    3.72    0.40
  -2   1   7    4.40    0.37
  -2   1   7    3.33    0.44
  -2   1   7    5.91    0.57
   1  -1  -7  138.92   10.87
   1  -1  -7  153.42    7.72
   1  -1  -7  160.55    7.73
   1  -1  -7  162.00    7.89
  -1   1   7  167.20    6.68
  -1   1   7  163.24    7.72
  -1   1   7  161.28    7.72
  -1   1   7  162.09    8.14
  -1   1   7  160.95   10.91
  -1   1   7  170.98    7.88
  -1   1   7  165.15    7.59
   0  -1  -7   74.61    3.88
   0  -1  -7   75.09    3.68
   0  -1  -7   74.27    3.66
   0  -1  -7   74.59    5.17
   0  -1  -7   75.05    3.75
   0   1   7   75.90    3.17
   0   1   7   75.83    3.88
   0   1   7   78.70    5.18
   0   1   7   75.02    3.66
   0   1   7   73.81    3.74
   0   1   7   74.18    3.66
  -1  -1  -7  224.64   10.38
  -1  -1  -7  225.81   10.82
  -1  -1  -7  221.48   10.83
  -1  -1  -7  238.85   15.25
  -1  -1  -7  221.92   11.53
   1   1   7  233.49   15.24
   1   1   7  220.95   11.12
   1   1   7  223.62   10.83
   1   1   7  231.36   11.53
   1   1   7  233.45   10.82
  -2  -1  -7    4.10    0.39
  -2  -1  -7    4.36    0.34
  -2  -1  -7    4.09    0.27
  -2  -1  -7    3.91    0.28
  -2  -1  -7    3.59    0.33
   2   1   7    5.05    0.44
   2   1   7    3.89    0.36
   2   1   7    4.80    0.40
  -3  -1  -7   27.75    1.47
  -3  -1  -7   23.98    1.44
  -3  -1  -7   27.23    1.58
  -3  -1  -7   25.92    1.20
  -3  -1  -7   30.08    1.53
   3   1   7   30.77    1.48
   3   1   7   29.22    1.60
   3   1   7   30.45    1.50
   3   1   7   27.22    1.52
   4   1   7    0.75    0.28
   5   1   7    2.29    0.48
  -6  -1  -7    1.11    0.46
   6   1   7    1.56    0.56
   5  -2  -7    2.57    0.66
   4  -2  -7    0.69    0.46
  -4   2   7    0.46    0.67
  -4   2   7    0.66    0.46
   3  -2  -7   13.86    1.05
   3  -2  -7   12.97    0.89
  -3   2   7   13.48    1.06
  -3   2   7   10.11    0.77
  -3   2   7   15.08    1.72
   2  -2  -7    2.54    0.46
   2  -2  -7    2.43    0.32
  -2   2   7    1.97    0.30
   1  -2  -7   60.76    3.04
   1  -2  -7   53.20    3.03
   1  -2  -7   59.67    3.02
  -1   2   7   58.61    3.15
  -1   2   7   62.22    3.04
  -1   2   7   64.13    2.63
  -1   2   7   58.96    4.34
  -1   2   7   61.50    3.00
   0  -2  -7   17.95    1.06
   0  -2  -7   17.49    1.51
   0  -2  -7   19.40    1.07
   0  -2  -7   21.72    1.05
   0   2   7   18.96    1.55
   0   2   7   18.85    0.91
   0   2   7   18.59    1.04
   0   2   7   18.51    1.00
   0   2   7   18.16    1.12
   0   2   7   20.28    1.08
  -1  -2  -7   19.61    1.04
  -1  -2  -7   20.47    1.08
  -1  -2  -7   19.52    1.55
  -1  -2  -7   21.78    0.97
  -1  -2  -7   20.02    1.07
   1   2   7   19.93    1.56
   1   2   7   19.09    1.05
   1   2   7   20.75    1.10
   1   2   7   20.25    0.93
   1   2   7   18.32    1.18
   1   2   7   20.33    1.07
  -2  -2  -7   50.88    2.24
  -2  -2  -7   52.08    2.47
  -2  -2  -7   48.85    2.43
   2   2   7   50.32    3.52
   2   2   7   47.08    2.44
   2   2   7   51.11    2.44
   2   2   7   50.90    2.70
  -3  -2  -7   10.75    0.73
  -3  -2  -7   12.13    0.71
  -3  -2  -7   12.28    0.68
   3   2   7   11.07    0.82
   3   2   7   11.57    0.64
   3   2   7   10.58    0.66
   3   2   7   11.94    0.79
   3   2   7   11.86    1.00
  -4  -2  -7    3.15    0.50
   4   2   7    2.26    0.42
   4   2   7    2.63    0.42
  -5  -2  -7   12.99    0.95
   5   2   7   12.06    0.96
   5   2   7   12.82    0.99
  -6  -2  -7    1.89    0.52
   6   2   7    2.31    0.57
  -4   3   7    1.45    0.90
   3  -3  -7    1.55    0.50
  -3   3   7    0.61    0.76
   2  -3  -7   13.13    0.83
   2  -3  -7   13.30    1.07
  -2   3   7   12.48    0.93
  -2   3   7   17.15    1.85
   1  -3  -7   17.44    0.94
   1  -3  -7   15.90    1.12
  -1   3   7   17.67    1.16
  -1   3   7   17.27    1.73
   0  -3  -7    6.69    0.63
   0  -3  -7    5.20    0.56
   0   3   7    4.57    0.42
   0   3   7    6.36    0.57
  -1  -3  -7    0.32    0.19
  -1  -3  -7    0.87    0.24
   1   3   7    0.63    0.16
  -2  -3  -7   37.07    1.88
  -2  -3  -7   38.41    1.77
  -2  -3  -7   37.52    1.91
   2   3   7   37.69    1.85
   2   3   7   35.78    1.62
   2   3   7   37.06    2.79
   2   3   7   35.68    1.85
   2   3   7   38.67    2.12
  -3  -3  -7   10.03    0.72
  -3  -3  -7    9.65    0.64
   3   3   7    9.38    0.82
   3   3   7    8.81    0.52
   3   3   7   10.19    1.06
  -4  -3  -7   22.46    1.24
  -4  -3  -7   21.49    1.33
   4   3   7   22.60    1.37
   4   3   7   23.73    1.47
  -5  -3  -7    0.34    0.32
  -5  -3  -7    0.67    0.34
   5   3   7    0.31    0.34
   5   3   7    0.43    0.31
  -6  -3  -7    0.86    0.46
   6   3   7    0.99    0.44
   2  -4  -7    2.61    0.58
   1  -4  -7    2.74    0.57
  -1   4   7    2.53    0.56
   0  -4  -7   37.87    2.13
   0   4   7   37.38    3.11
  -1  -4  -7   12.06    0.86
   1   4   7   16.12    1.53
  -2  -4  -7    7.33    0.57
   2   4   7    6.53    0.53
   2   4   7    6.88    0.44
  -3  -4  -7   22.83    1.26
  -3  -4  -7   23.11    1.37
   3   4   7   22.47    1.54
  -4  -4  -7    2.42    0.51
  -4  -4  -7    2.85    0.50
   4   4   7    2.56    0.56
  -5  -4  -7    2.03    0.44
  -5  -4  -7    1.83    0.47
   5   4   7    3.00    0.53
  -6  -4  -7    1.53    0.47
  -6  -4  -7    1.99    0.61
   6   4   7    1.33    0.44
   1  -5  -7    2.78    0.61
   0  -5  -7    4.18    0.64
   0  -5  -7    4.16    0.64
  -1  -5  -7   12.10    0.92
  -2  -5  -7    7.77    0.67
  -3  -5  -7    0.93    0.35
   3   5   7    0.62    0.23
  -4  -5  -7    9.85    0.91
  -4  -5  -7    9.65    0.80
  -5  -5  -7    4.38    0.68
  -5  -5  -7    5.48    0.85
   5   5   7    4.25    0.65
  -6  -5  -7    0.04    0.43
  -6  -5  -7    0.32    0.38
   6   5   7    0.23    0.37
   0  -6  -7    1.53    0.54
  -1  -6  -7    0.16    0.41
  -2  -6  -7    3.66    0.64
  -3  -6  -7    1.63    0.47
  -4  -6  -7    3.24    0.65
  -5  -6  -7    3.34    0.67
  -4  -6   8    1.04    0.50
  -3  -6   8    1.67    0.53
  -2  -6   8    0.87    0.48
  -1  -6   8    1.31    0.54
   0  -6   8    2.35    0.67
  -5  -5   8    0.24    0.39
  -4  -5   8   10.14    0.87
   3   5  -8    0.30    0.27
   3   5  -8    0.24    0.32
  -3  -5   8    0.05    0.29
   2   5  -8    2.24    0.43
   2   5  -8    2.05    0.45
  -2  -5   8    1.80    0.46
  -1  -5   8    7.69    0.71
   0  -5   8   17.92    1.23
   0  -5   8   17.65    1.30
  -5  -4   8    0.08    0.31
  -5  -4   8    0.03    0.35
  -4  -4   8    2.02    0.46
   3   4  -8    2.62    0.38
   3   4  -8    2.60    0.50
  -3  -4   8    3.06    0.44
  -3  -4   8    2.34    0.43
   2   4  -8    3.29    0.37
   2   4  -8    4.43    0.47
  -2  -4   8    3.64    0.51
  -2  -4   8    5.38    0.56
   1   4  -8    8.19    0.64
   1   4  -8    8.67    0.75
  -1  -4   8    7.95    0.66
   0   4  -8   14.48    0.92
   0   4  -8   13.85    1.59
   0  -4   8   14.39    1.07
   0  -4   8   14.33    0.96
   0  -4   8   14.25    0.90
  -1   4  -8    9.82    1.31
  -2   4  -8    2.04    0.69
   2  -4   8    2.84    0.57
   2  -4   8    2.40    0.59
   3  -4   8    0.54    0.46
  -6  -3   8    0.53    0.40
  -6  -3   8    0.59    0.40
  -5  -3   8    1.24    0.38
  -5  -3   8    1.27    0.42
   4   3  -8    9.96    0.99
  -4  -3   8   10.95    0.76
  -4  -3   8   11.21    0.79
  -4  -3   8   10.40    0.77
   3   3  -8    2.82    0.48
   3   3  -8    2.81    0.43
   3   3  -8    3.07    0.35
  -3  -3   8    3.04    0.41
  -3  -3   8    3.48    0.47
  -3  -3   8    3.02    0.44
   2   3  -8   15.04    0.83
   2   3  -8   16.55    1.07
   2   3  -8   17.59    1.03
   2   3  -8   15.61    0.82
  -2  -3   8   15.29    0.76
  -2  -3   8   16.25    0.97
  -2  -3   8   17.01    0.93
  -2  -3   8   16.87    1.04
   1   3  -8    0.54    0.21
   1   3  -8    0.69    0.24
   1   3  -8    0.91    0.18
   1   3  -8    1.35    0.38
  -1  -3   8    0.77    0.23
  -1  -3   8    0.79    0.22
  -1  -3   8    0.86    0.28
  -1  -3   8    1.10    0.32
   0   3  -8    6.83    0.51
   0   3  -8    7.34    0.64
   0   3  -8    4.89    0.44
   0  -3   8    5.37    0.50
   0  -3   8    7.46    0.62
   0  -3   8    5.22    0.49
  -1   3  -8   11.62    0.74
  -1   3  -8   11.18    1.19
   1  -3   8   11.25    0.79
   1  -3   8   11.62    0.87
   1  -3   8   11.40    0.82
  -2   3  -8    2.48    0.43
   2  -3   8    2.35    0.47
  -3   3  -8    1.13    0.47
   4  -3   8    0.27    0.44
  -6  -2   8    2.20    0.51
  -5  -2   8    4.92    0.67
  -5  -2   8    5.00    0.55
   4   2  -8    3.59    0.53
   4   2  -8    2.83    0.49
   4   2  -8    2.92    0.32
  -4  -2   8    3.86    0.52
  -4  -2   8    3.38    0.41
   3   2  -8   19.12    1.20
   3   2  -8   15.46    1.08
   3   2  -8   18.13    1.09
  -3  -2   8   17.71    0.86
  -3  -2   8   17.87    1.07
  -3  -2   8   19.53    1.08
  -3  -2   8   18.27    0.98
  -3  -2   8   17.52    0.98
   2   2  -8   59.47    2.63
   2   2  -8   61.90    3.15
   2   2  -8   67.03    3.36
   2   2  -8   62.86    3.29
  -2  -2   8   64.54    2.83
  -2  -2   8   64.18    3.14
  -2  -2   8   62.46    3.15
  -2  -2   8   62.52    2.67
   1   2  -8  182.14    9.47
   1   2  -8  184.65    7.76
   1   2  -8  196.59    9.24
   1   2  -8  179.95    8.99
   1   2  -8  202.28    9.82
   1   2  -8  188.19    9.20
  -1  -2   8  197.98    9.21
  -1  -2   8  193.58    9.46
  -1  -2   8  203.87    9.24
  -1  -2   8  193.37    8.19
   0   2  -8   67.36    2.85
   0   2  -8   67.14    3.47
   0   2  -8   66.84    3.37
   0   2  -8   66.25    3.26
   0   2  -8   66.93    3.60
   0   2  -8   67.30    3.42
   0  -2   8   66.55    3.37
   0  -2   8   66.98    3.45
   0  -2   8   71.03    3.28
   0  -2   8   69.59    3.40
   0  -2   8   71.13    3.02
  -1   2  -8   43.89    1.86
  -1   2  -8   43.85    2.29
  -1   2  -8   40.78    2.11
  -1   2  -8   39.82    3.01
   1  -2   8   43.78    2.25
   1  -2   8   43.19    2.14
   1  -2   8   39.11    2.22
   1  -2   8   41.62    2.19
  -2   2  -8   58.46    2.48
  -2   2  -8   51.65    3.00
  -2   2  -8   55.43    3.99
   2  -2   8   56.46    2.95
   2  -2   8   61.10    2.91
  -3   2  -8    6.07    0.86
  -3   2  -8    5.86    0.56
   3  -2   8    5.29    0.67
   3  -2   8    7.07    0.80
  -4   2  -8    0.90    0.36
   4  -2   8    0.83    0.45
  -6  -1   8    2.02    0.51
   5   1  -8    0.75    0.39
  -5  -1   8    0.91    0.34
   4   1  -8   14.41    1.07
   4   1  -8   18.79    1.23
  -4  -1   8   15.75    0.92
  -4  -1   8   15.47    1.09
  -4  -1   8   14.56    0.88
   3   1  -8    0.12    0.14
   3   1  -8    0.26    0.26
   3   1  -8    0.28    0.14
   3   1  -8    0.24    0.21
  -3  -1   8    0.37    0.25
  -3  -1   8    0.26    0.15
  -3  -1   8    0.54    0.27
  -3  -1   8    0.23    0.11
   2   1  -8   69.49    3.69
   2   1  -8   74.69    3.55
   2   1  -8   72.32    3.66
   2   1  -8   73.39    3.55
  -2  -1   8   68.49    3.53
  -2  -1   8   72.10    3.55
  -2  -1   8   70.82    3.31
  -2  -1   8   71.67    3.13
  -2  -1   8   70.14    3.03
   1   1  -8   27.55    1.45
   1   1  -8   30.17    1.50
   1   1  -8   28.21    1.53
   1   1  -8   29.11    1.54
   1   1  -8   28.08    1.23
  -1  -1   8   26.74    1.51
  -1  -1   8   25.94    1.26
  -1  -1   8   26.92    1.46
  -1  -1   8   27.98    1.25
  -1  -1   8   27.64    1.48
  -1  -1   8   28.21    1.55
   0   1  -8   98.53    4.06
   0   1  -8   95.29    4.68
   0   1  -8   95.77    4.80
   0   1  -8  101.88    4.84
   0   1  -8   97.21    4.95
   0   1  -8  102.38    5.12
   0  -1   8   99.17    4.95
   0  -1   8   97.82    4.81
   0  -1   8  102.75    4.69
   0  -1   8  103.41    5.13
   0  -1   8   97.52    4.82
  -1   1  -8    0.86    0.22
  -1   1  -8    1.40    0.31
  -1   1  -8    0.83    0.17
  -1   1  -8    0.91    0.19
  -1   1  -8    1.19    0.25
   1  -1   8    1.14    0.20
   1  -1   8    0.83    0.24
   1  -1   8    0.90    0.22
  -2   1  -8   42.08    2.10
  -2   1  -8   39.47    1.70
  -2   1  -8   37.01    2.03
  -2   1  -8   37.14    2.67
  -2   1  -8   34.78    2.10
   2  -1   8   39.72    2.00
   2  -1   8   39.75    2.03
   2  -1   8   39.00    2.13
  -3   1  -8    5.82    0.74
  -3   1  -8    3.56    0.48
  -3   1  -8    4.09    0.43
   3  -1   8    3.55    0.54
   3  -1   8    4.22    0.55
  -4   1  -8    8.18    0.64
   4  -1   8    7.61    0.83
   4  -1   8    9.08    0.83
   5  -1   8    8.86    0.95
  -5   0   8    1.49    0.41
   4   0  -8   16.72    1.19
  -4   0   8   15.13    1.18
  -4   0   8   16.75    1.00
   3   0  -8    0.68    0.32
   3   0  -8    0.90    0.23
  -3   0   8    0.68    0.19
  -3   0   8    0.61    0.30
   2   0  -8    5.50    0.40
   2   0  -8    5.80    0.50
   2   0  -8    5.23    0.53
  -2   0   8    6.54    0.50
  -2   0   8    6.02    0.42
  -2   0   8    5.60    0.51
  -2   0   8    6.56    0.44
  -2   0   8    5.42    0.51
  -2   0   8    6.21    0.40
   1   0  -8   33.17    1.78
   1   0  -8   34.05    1.79
   1   0  -8   32.52    1.72
   1   0  -8   32.99    1.74
   1   0  -8   32.50    2.44
  -1   0   8   32.89    1.62
  -1   0   8   33.12    1.77
  -1   0   8   33.78    1.74
  -1   0   8   34.65    1.49
  -1   0   8   34.73    1.80
  -1   0   8   33.74    1.73
   0   0  -8  668.55   31.79
   0   0  -8  648.72   44.68
   0   0  -8  647.85   31.83
   0   0  -8  653.51   26.79
   0   0  -8  661.76   32.52
   0   0  -8  659.90   33.82
   0   0   8  673.34   33.72
   0   0   8  683.69   32.58
   0   0   8  676.61   31.75
   0   0   8  678.73   31.65
   0   0   8  704.06   27.55
  -1   0  -8   82.45    4.17
  -1   0  -8   83.35    3.31
  -1   0  -8   78.82    5.43
  -1   0  -8   81.09    3.92
  -1   0  -8   83.89    3.73
  -1   0  -8   78.69    3.94
   1   0   8   77.79    4.05
   1   0   8   80.12    3.93
   1   0   8   81.21    4.18
   1   0   8   80.55    3.86
   1   0   8   78.63    3.92
  -2   0  -8   21.72    1.01
  -2   0  -8   21.36    1.28
  -2   0  -8   21.81    1.20
  -2   0  -8   23.07    1.27
  -2   0  -8   22.76    1.22
   2   0   8   23.08    1.31
   2   0   8   22.74    1.23
   2   0   8   22.26    1.24
   2   0   8   23.97    1.23
  -3   0  -8    3.35    0.40
  -4   0  -8   38.38    1.76
  -4   0  -8   37.57    2.14
  -4   0  -8   33.88    2.03
   4   0   8   40.18    2.16
   4   0   8   40.57    2.16
   4   0   8   42.35    2.18
  -5   0  -8    5.28    0.65
   5   0   8    4.05    0.65
  -6   0  -8    2.74    0.61
   6   0   8    3.19    0.72
   4  -1  -8    2.02    0.51
   3  -1  -8   14.51    1.08
   3  -1  -8   14.97    1.01
  -3   1   8   13.96    1.05
   2  -1  -8   14.38    0.96
   2  -1  -8   14.72    0.91
  -2   1   8   14.36    0.85
  -2   1   8   15.82    1.54
  -2   1   8   14.27    0.79
  -2   1   8   13.87    0.97
  -2   1   8   14.86    0.85
   1  -1  -8   20.50    1.12
   1  -1  -8   18.37    1.59
   1  -1  -8   19.71    1.13
   1  -1  -8   20.18    1.15
  -1   1   8   19.70    1.12
  -1   1   8   20.48    0.97
  -1   1   8   20.17    1.11
  -1   1   8   20.46    1.13
  -1   1   8   21.06    1.68
  -1   1   8   20.12    1.13
  -1   1   8   19.23    1.06
   0  -1  -8  101.41    4.81
   0  -1  -8   94.62    6.74
   0  -1  -8   97.11    4.91
   0  -1  -8   94.25    5.07
   0  -1  -8   96.64    4.79
   0   1   8   99.13    5.07
   0   1   8   98.39    6.76
   0   1   8   99.81    4.79
   0   1   8   99.28    4.90
   0   1   8  107.35    4.80
  -1  -1  -8   47.70    2.60
  -1  -1  -8   50.21    3.41
  -1  -1  -8   51.31    2.44
  -1  -1  -8   48.69    2.32
  -1  -1  -8   49.56    2.45
   1   1   8   50.00    2.43
   1   1   8   50.42    3.40
   1   1   8   46.33    2.52
   1   1   8   47.76    2.60
  -2  -1  -8    1.95    0.21
  -2  -1  -8    1.80    0.25
  -2  -1  -8    1.74    0.27
  -2  -1  -8    1.83    0.29
  -2  -1  -8    2.19    0.29
   2   1   8    1.54    0.29
   2   1   8    1.64    0.26
   2   1   8    1.62    0.32
   2   1   8    1.74    0.28
   2   1   8    1.61    0.24
  -3  -1  -8   48.03    2.39
  -3  -1  -8   48.46    2.56
  -3  -1  -8   46.09    1.97
  -3  -1  -8   46.60    2.34
  -3  -1  -8   49.90    2.44
   3   1   8   47.65    2.38
   3   1   8   45.20    2.41
   3   1   8   46.56    2.57
  -4  -1  -8   37.84    1.96
  -4  -1  -8   36.30    1.59
   4   1   8   37.55    2.03
   4   1   8   36.18    2.08
  -5  -1  -8   11.88    0.93
   5   1   8   12.26    0.99
   5   1   8   11.16    0.89
  -6  -1  -8    0.72    0.47
   6   1   8    0.13    0.42
   3  -2  -8   25.07    1.59
   3  -2  -8   25.69    1.45
  -3   2   8   24.06    2.39
  -3   2   8   21.71    1.34
   2  -2  -8   34.06    1.92
   2  -2  -8   35.30    1.82
  -2   2   8   32.40    1.85
  -2   2   8   32.65    1.90
  -2   2   8   33.65    2.84
   1  -2  -8   31.48    1.66
   1  -2  -8   31.32    1.71
   1  -2  -8   27.69    1.69
  -1   2   8   33.79    2.52
  -1   2   8   32.40    1.46
  -1   2   8   32.08    1.63
  -1   2   8   29.81    1.73
  -1   2   8   30.95    1.70
   0  -2  -8    8.82    0.67
   0  -2  -8    9.59    0.66
   0  -2  -8   10.11    0.64
   0  -2  -8    8.86    0.93
   0   2   8   10.26    0.59
   0   2   8   10.03    0.64
   0   2   8   10.13    0.70
   0   2   8   10.09    0.56
   0   2   8   10.39    1.01
   0   2   8    9.91    0.66
  -1  -2  -8   26.71    1.41
  -1  -2  -8   25.60    2.00
  -1  -2  -8   25.21    1.38
  -1  -2  -8   25.66    1.34
  -1  -2  -8   27.92    1.24
   1   2   8   27.14    1.21
   1   2   8   25.12    1.99
   1   2   8   27.91    1.54
   1   2   8   27.99    1.39
   1   2   8   27.23    1.44
   1   2   8   26.51    1.38
  -2  -2  -8   16.42    0.82
  -2  -2  -8   15.90    0.91
  -2  -2  -8   16.51    0.88
  -2  -2  -8   17.66    0.92
   2   2   8   15.20    1.29
   2   2   8   14.69    0.87
   2   2   8   15.87    1.04
   2   2   8   17.32    0.88
  -3  -2  -8   20.20    1.17
  -3  -2  -8   22.43    1.16
  -3  -2  -8   21.99    1.07
   3   2   8   20.21    1.10
   3   2   8   20.17    1.22
   3   2   8   20.66    1.29
   3   2   8   22.38    1.62
   3   2   8   20.09    1.12
  -4  -2  -8    4.91    0.54
   4   2   8    5.55    0.59
   4   2   8    5.43    0.64
  -5  -2  -8    1.99    0.46
   5   2   8    2.89    0.47
   5   2   8    4.11    0.60
  -6  -2  -8    1.62    0.49
   6   2   8    1.78    0.52
  -3   3   8   -0.65    0.66
   2  -3  -8   13.50    0.86
   2  -3  -8   14.92    1.12
  -2   3   8   12.60    0.97
  -2   3   8   15.19    1.85
  -2   3   8   14.98    1.13
   1  -3  -8    7.78    0.75
   1  -3  -8    8.21    0.56
  -1   3   8    9.09    0.79
  -1   3   8   10.36    1.32
  -1   3   8    7.46    0.69
   0  -3  -8   27.04    1.52
   0  -3  -8   26.91    1.57
   0   3   8   27.51    2.23
   0   3   8   27.67    1.53
   0   3   8   25.79    1.38
   0   3   8   29.39    1.31
   0   3   8   25.63    1.59
  -1  -3  -8   45.35    2.38
  -1  -3  -8   45.79    2.39
  -1  -3  -8   50.27    2.17
   1   3   8   48.59    2.04
   1   3   8   47.03    2.57
   1   3   8   44.62    2.36
   1   3   8   48.00    2.37
   1   3   8   42.48    3.41
  -2  -3  -8   16.08    0.95
  -2  -3  -8   16.26    0.86
  -2  -3  -8   15.22    0.89
  -2  -3  -8   15.27    0.90
   2   3   8   15.79    0.77
   2   3   8   14.90    0.86
   2   3   8   16.01    1.09
   2   3   8   16.08    1.41
   2   3   8   15.58    0.86
  -3  -3  -8   14.59    0.93
  -3  -3  -8   15.22    0.85
   3   3   8   14.15    0.74
   3   3   8   15.88    1.37
   3   3   8   13.56    1.04
  -4  -3  -8   17.70    1.02
  -4  -3  -8   17.89    1.13
   4   3   8   17.65    1.15
   4   3   8   17.35    1.25
  -5  -3  -8    2.01    0.49
  -5  -3  -8    2.41    0.43
   5   3   8    1.78    0.46
   5   3   8    2.03    0.46
  -6  -3  -8    4.55    0.78
   6   3   8    3.38    0.61
  -3   4   8    0.90    0.95
  -2   4   8    0.52    0.83
   1  -4  -8    3.27    0.59
  -1   4   8    2.47    0.80
   0  -4  -8   13.75    1.08
   0   4   8   17.13    1.76
  -1  -4  -8   22.06    1.29
  -1  -4  -8   24.68    1.43
   1   4   8   24.45    1.40
   1   4   8   24.33    2.17
  -2  -4  -8    6.03    0.52
  -2  -4  -8    6.18    0.58
   2   4   8    5.69    0.51
   2   4   8    4.99    0.66
   2   4   8    6.55    0.43
   2   4   8    6.70    1.09
  -3  -4  -8   34.33    1.71
  -3  -4  -8   33.80    1.86
   3   4   8   35.77    2.10
   3   4   8   30.95    1.48
  -4  -4  -8    2.24    0.42
  -4  -4  -8    2.60    0.51
  -5  -4  -8    4.08    0.62
  -5  -4  -8    3.55    0.62
   5   4   8    4.89    0.69
  -6  -4  -8    3.97    0.77
   6   4   8    2.24    0.56
   0  -5  -8    5.30    0.66
   0  -5  -8    6.19    0.77
  -1  -5  -8    3.63    0.59
  -2  -5  -8    0.29    0.29
  -3  -5  -8    1.60    0.42
  -4  -5  -8    3.30    0.54
  -4  -5  -8    3.22    0.60
  -5  -5  -8    7.28    0.85
  -5  -5  -8    6.57    0.74
   5   5   8    7.16    0.82
   5   5   8    8.47    0.97
  -6  -5  -8    2.81    0.69
  -6  -5  -8    2.34    0.57
   6   5   8    1.01    0.49
   6   5   8    2.42    0.59
   0  -6  -8    2.03    0.61
  -1  -6  -8    2.37    0.58
  -2  -6  -8    0.81    0.45
  -3  -6  -8    2.88    0.60
  -4  -6  -8    3.87    0.66
  -5  -6  -8    0.23    0.38
  -4  -6   9    0.49    0.43
  -3  -6   9    1.92    0.56
  -2  -6   9    0.61    0.41
  -1  -6   9    0.57    0.44
   0  -6   9    2.52    0.65
  -5  -5   9    0.84    0.47
  -4  -5   9    2.20    0.51
   3   5  -9    1.73    0.47
   3   5  -9    1.84    0.39
  -3  -5   9    2.04    0.50
   2   5  -9    0.29    0.33
  -2  -5   9    0.34    0.33
   1   5  -9    1.69    0.41
  -1  -5   9    1.58    0.44
   0  -5   9    3.21    0.62
   1  -5   9    3.87    0.72
  -5  -4   9   -0.20    0.30
  -5  -4   9    0.20    0.33
  -4  -4   9    4.60    0.65
   3   4  -9    3.95    0.45
   3   4  -9    3.92    0.62
  -3  -4   9    3.33    0.50
   2   4  -9    0.80    0.28
   2   4  -9    0.12    0.25
  -2  -4   9    0.06    0.15
  -2  -4   9    0.44    0.27
  -2  -4   9    0.90    0.34
   1   4  -9    1.95    0.41
   1   4  -9    2.18    0.38
  -1  -4   9    2.07    0.41
   0   4  -9    4.74    0.56
   0  -4   9    6.52    0.72
   0  -4   9    4.34    0.61
   1  -4   9   11.02    0.99
  -2   4  -9    3.96    0.81
   2  -4   9    3.30    0.59
   3  -4   9    4.66    0.80
  -6  -3   9    0.17    0.40
  -6  -3   9   -0.06    0.37
  -5  -3   9    2.72    0.52
  -5  -3   9    1.96    0.46
   4   3  -9    7.12    0.84
  -4  -3   9    6.35    0.63
  -4  -3   9    6.08    0.57
  -4  -3   9    6.47    0.60
   3   3  -9    8.02    0.54
   3   3  -9    7.89    0.68
   3   3  -9    8.56    0.78
  -3  -3   9    8.15    0.65
  -3  -3   9    7.85    0.69
  -3  -3   9    7.30    0.44
  -3  -3   9    8.18    0.62
   2   3  -9   21.91    1.07
   2   3  -9   22.77    1.38
   2   3  -9   22.82    1.31
  -2  -3   9   22.09    1.31
  -2  -3   9   20.48    1.01
  -2  -3   9   21.85    1.26
  -2  -3   9   21.58    1.16
   1   3  -9    3.15    0.44
   1   3  -9    3.60    0.42
   1   3  -9    3.48    0.52
   1   3  -9    2.71    0.27
  -1  -3   9    3.24    0.45
  -1  -3   9    2.72    0.33
  -1  -3   9    2.70    0.46
   0   3  -9   49.12    2.75
   0   3  -9   48.28    2.56
   0   3  -9   53.96    2.30
   0   3  -9   52.83    2.76
   0  -3   9   51.05    2.71
   0  -3   9   54.31    2.78
   0  -3   9   51.56    2.71
   0  -3   9   53.97    2.44
  -1   3  -9   16.13    1.54
  -1   3  -9   17.10    0.98
   1  -3   9   15.87    1.07
   1  -3   9   17.56    1.08
   1  -3   9   17.87    1.14
  -2   3  -9    2.31    0.52
  -2   3  -9    2.87    0.62
   2  -3   9    1.86    0.43
  -3   3  -9   44.61    2.09
   3  -3   9   40.12    2.39
   4  -3   9    2.41    0.63
  -6  -2   9   10.67    0.87
  -5  -2   9    5.90    0.58
  -5  -2   9    5.78    0.76
   4   2  -9    3.63    0.60
   4   2  -9    3.46    0.52
  -4  -2   9    3.65    0.43
  -4  -2   9    4.18    0.56
   3   2  -9   41.54    2.25
   3   2  -9   43.95    2.38
   3   2  -9   40.56    2.32
  -3  -2   9   44.53    2.23
  -3  -2   9   44.09    2.08
  -3  -2   9   42.31    2.01
  -3  -2   9   41.36    1.86
  -3  -2   9   41.83    2.23
   2   2  -9    5.34    0.54
   2   2  -9    5.60    0.56
   2   2  -9    5.85    0.42
   2   2  -9    6.05    0.57
  -2  -2   9    4.96    0.50
  -2  -2   9    5.43    0.53
  -2  -2   9    5.39    0.41
  -2  -2   9    5.59    0.38
   1   2  -9   55.16    2.31
   1   2  -9   52.93    2.58
   1   2  -9   55.63    2.77
   1   2  -9   54.56    2.85
   1   2  -9   56.93    2.98
  -1  -2   9   53.10    2.82
  -1  -2   9   57.01    2.79
  -1  -2   9   53.81    2.74
  -1  -2   9   51.17    2.42
   0   2  -9   57.97    2.93
   0   2  -9   57.32    2.43
   0   2  -9   58.46    2.97
   0   2  -9   56.09    2.75
   0  -2   9   58.69    2.77
   0  -2   9   56.22    2.87
   0  -2   9   55.27    2.55
   0  -2   9   54.01    2.94
   0  -2   9   59.04    2.92
  -1   2  -9    1.25    0.23
   1  -2   9    1.25    0.28
   1  -2   9    1.75    0.29
  -2   2  -9    0.46    0.23
  -3   2  -9    3.79    0.76
  -3   2  -9    6.36    0.56
   3  -2   9    5.52    0.66
  -4   2  -9    5.10    0.63
   4  -2   9    3.19    0.63
  -6  -1   9    1.30    0.44
   5   1  -9   11.79    1.13
  -5  -1   9   12.35    0.85
   4   1  -9    2.46    0.47
   4   1  -9    2.40    0.46
   4   1  -9    2.77    0.36
  -4  -1   9    2.95    0.36
  -4  -1   9    2.62    0.51
   3   1  -9   39.60    2.13
   3   1  -9   38.64    2.06
   3   1  -9   35.15    2.00
  -3  -1   9   37.63    1.71
  -3  -1   9   37.47    1.84
  -3  -1   9   39.02    1.84
  -3  -1   9   37.84    2.03
  -3  -1   9   36.70    2.02
   2   1  -9   51.47    2.53
   2   1  -9   49.42    2.60
   2   1  -9   48.00    2.59
  -2  -1   9   49.10    2.29
  -2  -1   9   48.80    2.13
  -2  -1   9   50.19    2.52
  -2  -1   9   46.83    2.49
  -2  -1   9   48.77    2.20
   1   1  -9  231.42   11.66
   1   1  -9  236.17    9.56
   1   1  -9  228.19   11.36
   1   1  -9  234.43   11.34
   1   1  -9  236.16   12.04
  -1  -1   9  230.71   11.64
  -1  -1   9  237.68   12.05
  -1  -1   9  246.85    9.82
  -1  -1   9  244.97   11.37
  -1  -1   9  247.97   11.35
  -1  -1   9  237.94   10.02
   0   1  -9   14.25    0.71
   0   1  -9   13.35    0.89
   0   1  -9   14.77    0.89
   0   1  -9   13.86    0.83
   0   1  -9   14.47    0.90
   0   1  -9   13.74    0.74
   0  -1   9   14.05    0.88
   0  -1   9   15.56    0.93
   0  -1   9   14.75    0.88
   0  -1   9   14.29    0.85
   0  -1   9   14.81    0.75
  -1   1  -9    4.97    0.44
  -1   1  -9    5.11    0.49
  -1   1  -9    5.21    0.53
  -1   1  -9    5.43    0.37
  -1   1  -9    5.55    0.38
   1  -1   9    5.48    0.49
   1  -1   9    5.54    0.52
   1  -1   9    5.85    0.42
   1  -1   9    4.49    0.48
   1  -1   9    5.27    0.50
  -2   1  -9   68.00    3.48
  -2   1  -9   71.84    2.88
  -2   1  -9   58.03    4.61
  -2   1  -9   73.67    3.44
  -2   1  -9   64.16    3.60
   2  -1   9   69.87    3.42
   2  -1   9   68.65    3.62
   2  -1   9   71.36    3.38
  -3   1  -9   16.10    1.24
  -3   1  -9   18.97    0.98
   3  -1   9   18.84    1.22
   3  -1   9   18.29    1.16
   4  -1   9    4.97    0.68
   5  -1   9    1.64    0.53
  -5   0   9    4.10    0.58
  -5   0   9    3.05    0.65
  -4   0   9   12.78    0.84
   3   0  -9   37.21    2.08
   3   0  -9   36.44    2.07
  -3   0   9   36.66    2.05
  -3   0   9   37.44    1.88
   2   0  -9   36.70    1.99
   2   0  -9   35.17    1.95
   2   0  -9   36.79    2.00
  -2   0   9   34.48    1.95
  -2   0   9   38.49    1.98
  -2   0   9   39.55    1.83
  -2   0   9   37.40    1.67
  -2   0   9   36.75    1.95
   1   0  -9   56.25    4.14
   1   0  -9   59.84    3.07
   1   0  -9   59.84    2.96
   1   0  -9   56.92    2.93
   1   0  -9   59.71    3.02
  -1   0   9   61.45    2.54
  -1   0   9   58.95    2.95
  -1   0   9   56.57    2.93
  -1   0   9   60.21    3.02
  -1   0   9   59.53    3.08
   0   0  -9  105.10    5.20
   0   0  -9  101.74    7.26
   0   0  -9  106.42    5.49
   0   0  -9  109.47    5.18
   0   0  -9  106.71    4.36
   0   0  -9  103.22    5.33
   0   0   9  106.32    5.33
   0   0   9  107.08    5.20
   0   0   9  110.54    5.19
   0   0   9  109.01    4.49
   0   0   9  111.28    5.51
  -1   0  -9  163.79   11.50
  -1   0  -9  170.17    8.22
  -1   0  -9  159.03    8.24
  -1   0  -9  176.11    6.93
  -1   0  -9  167.66    8.75
  -1   0  -9  175.73    7.85
   1   0   9  168.84    8.75
   1   0   9  185.54    8.24
   1   0   9  172.39    8.47
   1   0   9  178.18    8.11
   1   0   9  171.68    8.24
  -2   0  -9   65.44    3.11
  -2   0  -9   62.83    3.07
  -2   0  -9   62.91    3.14
  -2   0  -9   64.18    2.60
  -2   0  -9   60.71    3.29
   2   0   9   63.14    3.10
   2   0   9   64.45    3.08
   2   0   9   59.41    3.30
   2   0   9   58.45    3.11
  -3   0  -9   10.29    0.76
  -3   0  -9    9.00    0.83
  -3   0  -9    9.45    0.72
  -3   0  -9   10.30    0.59
   3   0   9   11.32    0.83
   3   0   9   10.40    0.77
   3   0   9   10.99    0.75
  -4   0  -9    5.71    0.48
  -4   0  -9    5.23    0.58
  -5   0  -9    6.88    0.73
   5   0   9    7.35    0.84
  -6   0  -9    8.02    0.88
   6   0   9    7.55    1.00
   4  -1  -9    4.98    0.65
  -4   1   9    4.25    0.69
   3  -1  -9   16.80    1.20
   3  -1  -9   18.14    1.15
  -3   1   9   16.51    1.20
   2  -1  -9   25.53    1.49
   2  -1  -9   25.74    1.53
  -2   1   9   26.86    1.47
  -2   1   9   28.12    1.49
  -2   1   9   26.27    1.40
  -2   1   9   26.16    2.29
  -2   1   9   26.78    1.29
  -2   1   9   27.19    1.54
   1  -1  -9   69.15    3.59
   1  -1  -9   71.76    3.56
   1  -1  -9   71.66    3.70
   1  -1  -9   70.32    3.54
   1  -1  -9   63.44    4.96
  -1   1   9   73.21    3.05
  -1   1   9   69.99    5.02
  -1   1   9   74.74    3.59
  -1   1   9   72.88    3.69
  -1   1   9   72.10    3.54
  -1   1   9   69.76    3.42
  -1   1   9   72.80    3.54
   0  -1  -9   79.72    5.84
   0  -1  -9   84.38    4.26
   0  -1  -9   84.03    4.40
   0  -1  -9   79.39    4.17
   0  -1  -9   84.80    4.16
   0   1   9   83.18    4.16
   0   1   9   89.67    3.61
   0   1   9   85.56    4.25
   0   1   9   85.41    5.87
   0   1   9   92.14    4.17
   0   1   9   87.12    4.40
  -1  -1  -9   34.02    1.84
  -1  -1  -9   33.79    1.82
  -1  -1  -9   34.14    1.72
  -1  -1  -9   35.56    1.95
  -1  -1  -9   35.07    2.54
   1   1   9   36.37    1.97
   1   1   9   37.59    1.85
   1   1   9   37.01    1.83
   1   1   9   40.29    2.57
   1   1   9   35.47    1.91
  -2  -1  -9   48.51    2.44
  -2  -1  -9   49.50    2.47
  -2  -1  -9   47.51    2.62
  -2  -1  -9   49.17    2.36
  -2  -1  -9   49.87    2.05
   2   1   9   48.12    3.35
   2   1   9   50.70    2.46
   2   1   9   48.84    2.64
   2   1   9   49.07    2.43
   2   1   9   48.47    2.45
  -3  -1  -9    7.23    0.54
  -3  -1  -9    8.56    0.66
  -3  -1  -9    6.66    0.57
  -3  -1  -9    6.19    0.40
  -3  -1  -9    6.03    0.51
   3   1   9    7.02    0.58
  -4  -1  -9   24.88    1.24
  -4  -1  -9   24.96    1.54
   4   1   9   30.28    1.69
   4   1   9   31.92    1.60
   4   1   9   28.60    1.63
  -5  -1  -9    7.15    0.72
   5   1   9    7.04    0.79
   5   1   9    6.53    0.74
  -6  -1  -9    2.04    0.58
   6   1   9    1.20    0.50
   4  -2  -9    2.32    0.46
   3  -2  -9    6.92    0.80
   3  -2  -9    7.38    0.62
  -3   2   9    5.29    1.02
  -3   2   9    5.02    0.51
   2  -2  -9    2.74    0.49
  -2   2   9    2.06    0.31
  -2   2   9    1.77    0.67
   1  -2  -9   16.58    1.00
   1  -2  -9   17.38    1.10
  -1   2   9   16.38    1.05
  -1   2   9   17.27    1.10
  -1   2   9   16.67    0.97
  -1   2   9   19.47    1.70
  -1   2   9   17.55    0.91
   0  -2  -9    7.43    0.58
   0  -2  -9    7.67    0.60
   0  -2  -9    8.27    0.57
   0   2   9    8.03    0.91
   0   2   9    7.77    0.59
   0   2   9    7.30    0.48
   0   2   9    6.91    0.59
   0   2   9    7.08    0.49
  -1  -2  -9   46.00    3.39
  -1  -2  -9   47.01    2.29
  -1  -2  -9   51.52    2.11
  -1  -2  -9   46.67    2.38
  -1  -2  -9   46.96    2.40
   1   2   9   49.05    2.38
   1   2   9   46.67    2.45
   1   2   9   44.16    3.37
   1   2   9   47.88    2.57
   1   2   9   46.53    2.37
   1   2   9   49.45    2.08
  -2  -2  -9   86.05    3.50
  -2  -2  -9   83.21    3.92
  -2  -2  -9   77.71    3.90
  -2  -2  -9   80.26    3.81
   2   2   9   80.75    3.42
   2   2   9   77.62    3.89
   2   2   9   80.64    4.23
   2   2   9   76.77    3.90
   2   2   9   79.88    5.52
  -3  -2  -9    0.38    0.19
  -3  -2  -9    0.63    0.26
  -3  -2  -9    0.60    0.20
  -3  -2  -9    0.54    0.24
   3   2   9    0.71    0.26
   3   2   9    0.76    0.27
   3   2   9    0.48    0.24
   3   2   9    0.76    0.22
  -4  -2  -9    8.64    0.62
  -4  -2  -9    8.60    0.70
   4   2   9    9.22    0.75
   4   2   9    9.22    0.82
  -5  -2  -9    4.12    0.66
   5   2   9    3.04    0.53
   5   2   9    3.37    0.57
  -6  -2  -9    2.84    0.63
   6   2   9    2.17    0.55
  -4   3   9    0.36    0.83
  -3   3   9   -0.15    0.71
   2  -3  -9   23.84    1.64
   2  -3  -9   26.85    1.43
  -2   3   9   25.23    1.55
  -2   3   9   26.07    2.59
  -2   3   9   24.26    1.62
   1  -3  -9   18.66    1.07
   1  -3  -9   18.33    1.23
  -1   3   9   19.01    1.23
  -1   3   9   19.28    1.93
   0  -3  -9   19.49    1.18
   0   3   9   17.85    1.20
   0   3   9   18.36    1.72
   0   3   9   18.17    0.99
   0   3   9   19.17    0.97
   0   3   9   18.49    1.15
  -1  -3  -9    4.98    0.51
  -1  -3  -9    4.62    0.48
  -1  -3  -9    4.89    0.40
   1   3   9    6.73    0.91
   1   3   9    4.35    0.57
   1   3   9    4.45    0.41
   1   3   9    4.80    0.50
   1   3   9    4.58    0.39
  -2  -3  -9   31.78    1.73
  -2  -3  -9   31.56    1.72
  -2  -3  -9   32.48    1.74
  -2  -3  -9   34.78    1.60
   2   3   9   33.61    1.70
   2   3   9   34.58    2.57
   2   3   9   32.88    1.50
   2   3   9   35.94    1.97
  -3  -3  -9    4.34    0.36
  -3  -3  -9    5.28    0.42
  -3  -3  -9    4.26    0.49
  -3  -3  -9    4.38    0.40
   3   3   9    3.69    0.54
   3   3   9    4.12    0.38
   3   3   9    4.27    0.80
   3   3   9    3.43    0.32
  -4  -3  -9   22.83    1.24
  -4  -3  -9   23.24    1.38
   4   3   9   22.90    1.41
   4   3   9   23.98    1.53
  -5  -3  -9   13.99    1.02
   5   3   9   13.56    1.04
   5   3   9   12.43    1.12
  -6  -3  -9    3.32    0.68
   6   3   9    3.25    0.65
   2  -4  -9    0.65    0.44
  -2   4   9    0.25    0.27
   1  -4  -9    1.61    0.47
  -1   4   9   -0.03    0.58
   0  -4  -9    4.94    0.63
   0   4   9    3.39    0.79
   0   4   9    3.53    0.54
  -1  -4  -9   26.34    1.40
  -1  -4  -9   27.25    1.57
   1   4   9   25.83    1.52
   1   4   9   22.84    1.34
   1   4   9   27.46    1.28
   1   4   9   25.80    1.67
   1   4   9   29.06    2.37
  -2  -4  -9    6.60    0.52
  -2  -4  -9    5.93    0.59
   2   4   9    5.26    0.51
   2   4   9    5.85    0.43
   2   4   9    5.68    0.73
   2   4   9    3.83    0.53
   2   4   9    7.00    1.05
  -3  -4  -9   12.35    0.93
  -3  -4  -9   11.88    0.80
   3   4   9   12.86    1.09
   3   4   9   12.27    0.65
  -4  -4  -9    5.72    0.56
  -4  -4  -9    5.16    0.65
   4   4   9    5.49    0.80
  -5  -4  -9    0.87    0.41
  -5  -4  -9    0.98    0.38
   5   4   9    1.61    0.43
  -6  -4  -9    0.64    0.48
   6   4   9    0.42    0.42
   0  -5  -9    1.37    0.47
  -1  -5  -9    6.72    0.68
  -2  -5  -9    4.54    0.54
   2   5   9    4.51    0.69
  -3  -5  -9    2.69    0.49
  -4  -5  -9    3.45    0.63
  -4  -5  -9    3.48    0.57
  -5  -5  -9    6.57    0.93
  -5  -5  -9    4.63    0.68
   5   5   9    3.88    0.69
   5   5   9    4.91    0.74
   6   5   9    1.35    0.47
   0  -6  -9    1.27    0.53
  -1  -6  -9    0.75    0.47
  -2  -6  -9    1.98    0.53
  -3  -6  -9    5.08    0.72
  -4  -6  -9    2.51    0.56
  -3  -6  10    1.17    0.48
  -2  -6  10    0.32    0.41
  -1  -6  10    1.62    0.55
  -5  -5  10    1.24    0.48
  -4  -5  10    1.93    0.49
   3   5 -10    1.82    0.39
   3   5 -10    1.48    0.47
  -3  -5  10    1.39    0.44
   2   5 -10    3.22    0.58
  -2  -5  10    3.51    0.57
  -1  -5  10    4.39    0.65
   0  -5  10    1.88    0.52
   1  -5  10    2.63    0.60
  -5  -4  10   -0.09    0.34
  -5  -4  10    0.07    0.30
  -4  -4  10    3.14    0.50
  -4  -4  10    2.97    0.54
   3   4 -10    6.36    0.55
   3   4 -10    7.07    0.82
  -3  -4  10    6.54    0.61
  -3  -4  10    6.15    0.66
   2   4 -10   32.13    1.49
   2   4 -10   29.95    1.83
  -2  -4  10   29.97    1.73
  -2  -4  10   28.20    1.37
  -2  -4  10   31.86    1.61
   1   4 -10   14.97    0.90
   1   4 -10   13.26    1.04
  -1  -4  10   13.74    0.90
   0   4 -10   16.60    1.01
   0  -4  10   15.43    1.03
  -1   4 -10    7.22    1.17
  -1   4 -10    8.01    0.72
   1  -4  10    6.29    0.81
  -2   4 -10    6.20    1.22
   2  -4  10    7.63    0.83
   2  -4  10    7.89    0.95
   3  -4  10    0.71    0.48
  -6  -3  10    1.14    0.47
  -5  -3  10    0.36    0.32
  -5  -3  10    0.27    0.36
  -4  -3  10    6.69    0.61
  -4  -3  10    6.98    0.59
  -4  -3  10    6.25    0.65
   3   3 -10    5.50    0.48
   3   3 -10    5.33    0.61
   3   3 -10    6.48    0.72
  -3  -3  10    6.12    0.64
  -3  -3  10    6.01    0.59
  -3  -3  10    5.99    0.53
  -3  -3  10    6.06    0.40
   2   3 -10   16.13    1.14
   2   3 -10   15.57    0.87
   2   3 -10   16.72    1.10
  -2  -3  10   17.75    1.11
  -2  -3  10   15.90    0.81
  -2  -3  10   15.54    0.92
  -2  -3  10   16.80    1.04
   1   3 -10    1.95    0.34
   1   3 -10    1.72    0.47
   1   3 -10    1.23    0.34
   1   3 -10    1.35    0.20
  -1  -3  10    1.64    0.42
  -1  -3  10    1.20    0.26
  -1  -3  10    2.04    0.41
   0   3 -10   44.62    1.96
   0   3 -10   39.19    2.15
   0   3 -10   43.23    2.35
   0   3 -10   46.37    2.42
   0  -3  10   42.55    2.06
   0  -3  10   42.83    2.31
  -1   3 -10   19.94    1.80
  -1   3 -10   21.11    1.13
   1  -3  10   20.32    1.23
   1  -3  10   20.25    1.30
  -2   3 -10   19.25    1.09
  -2   3 -10   17.04    1.65
   2  -3  10   18.02    1.30
   2  -3  10   18.35    1.20
   3  -3  10   15.02    1.20
   4  -3  10    5.80    0.92
  -6  -2  10    5.00    0.62
   5   2 -10    2.08    0.57
  -5  -2  10    1.42    0.38
   4   2 -10   12.93    1.13
   4   2 -10   13.77    1.02
  -4  -2  10   14.81    0.86
  -4  -2  10   13.63    1.00
   3   2 -10   48.61    2.56
   3   2 -10   43.36    2.50
   3   2 -10   47.42    2.44
  -3  -2  10   46.81    2.22
  -3  -2  10   43.56    2.02
  -3  -2  10   45.47    2.15
  -3  -2  10   44.49    2.41
  -3  -2  10   47.73    2.41
   2   2 -10   23.87    1.40
   2   2 -10   22.59    1.32
   2   2 -10   22.79    1.09
  -2  -2  10   22.65    1.32
  -2  -2  10   22.24    1.30
  -2  -2  10   22.33    1.14
  -2  -2  10   23.52    1.08
   1   2 -10   81.52    4.01
   1   2 -10   84.30    4.36
   1   2 -10   84.73    4.24
   1   2 -10   84.46    3.55
  -1  -2  10   84.60    3.72
  -1  -2  10   84.00    4.21
  -1  -2  10   94.73    4.28
   0   2 -10   78.74    4.03
   0   2 -10   79.61    3.30
   0   2 -10   77.14    3.95
   0   2 -10   78.10    3.76
   0  -2  10   79.18    3.94
   0  -2  10   82.13    3.78
   0  -2  10   77.82    3.45
   0  -2  10   80.51    3.92
   0  -2  10   74.14    4.00
  -1   2 -10  103.86    5.20
  -1   2 -10  105.52    4.34
  -1   2 -10  105.55    5.03
   1  -2  10   90.06    5.30
   1  -2  10  112.41    5.05
   1  -2  10  107.38    5.15
  -2   2 -10    1.01    0.30
  -2   2 -10    1.06    0.45
  -2   2 -10    0.75    0.28
   2  -2  10    0.78    0.35
   2  -2  10    1.18    0.31
  -3   2 -10   14.02    0.90
   3  -2  10   14.40    1.13
   3  -2  10   14.57    1.05
   4  -2  10    2.60    0.56
  -5  -1  10    5.73    0.56
   4   1 -10    9.06    0.92
  -4  -1  10    9.90    0.65
  -4  -1  10    9.45    0.86
   3   1 -10    0.28    0.31
   3   1 -10    0.71    0.28
   3   1 -10    0.35    0.17
  -3  -1  10    0.30    0.28
  -3  -1  10    0.57    0.33
  -3  -1  10    0.52    0.12
  -3  -1  10    0.41    0.17
   2   1 -10    5.47    0.58
   2   1 -10    5.07    0.47
   2   1 -10    5.71    0.54
  -2  -1  10    5.22    0.32
  -2  -1  10    4.95    0.54
  -2  -1  10    5.18    0.53
  -2  -1  10    5.92    0.40
  -2  -1  10    5.25    0.39
   1   1 -10   79.90    4.15
   1   1 -10   81.67    4.24
   1   1 -10   82.82    3.38
   1   1 -10   81.31    4.01
   1   1 -10   85.44    4.05
  -1  -1  10   83.44    3.47
  -1  -1  10   80.22    4.03
  -1  -1  10   78.92    4.13
  -1  -1  10   83.05    4.26
  -1  -1  10   82.02    3.51
  -1  -1  10   77.80    4.01
   0   1 -10  104.01    5.41
   0   1 -10  102.84    5.09
   0   1 -10  109.66    5.14
   0   1 -10   98.37    5.24
   0   1 -10  101.63    4.29
   0  -1  10  110.97    5.44
   0  -1  10  108.36    4.95
   0  -1  10  103.37    5.25
   0  -1  10  101.68    5.11
   0  -1  10  105.19    5.10
  -1   1 -10   39.20    1.66
  -1   1 -10   35.95    2.08
  -1   1 -10   37.48    1.96
  -1   1 -10   39.12    2.03
  -1   1 -10   36.56    1.88
   1  -1  10   35.42    1.99
   1  -1  10   39.39    1.99
   1  -1  10   39.37    1.91
   1  -1  10   38.82    2.11
   1  -1  10   36.59    2.05
  -2   1 -10   77.18    3.91
  -2   1 -10   77.33    3.21
   2  -1  10   76.00    3.82
   2  -1  10   74.11    4.04
   2  -1  10   76.98    3.76
  -3   1 -10   18.68    1.32
  -3   1 -10   18.29    0.99
   3  -1  10   18.71    1.23
   3  -1  10   16.83    1.15
  -4   1 -10    6.00    0.61
   4  -1  10    5.89    0.75
   4  -1  10    6.10    0.74
   5  -1  10    6.07    0.91
  -5   0  10    3.35    0.65
  -5   0  10    5.10    0.57
   4   0 -10    7.53    0.77
  -4   0  10    5.85    0.54
   3   0 -10   30.48    1.70
   3   0 -10   28.96    1.70
  -3   0  10   27.71    1.46
  -3   0  10   26.86    1.37
  -3   0  10   26.46    1.64
   2   0 -10   35.19    1.94
   2   0 -10   38.06    1.99
   2   0 -10   36.12    1.93
  -2   0  10   34.51    1.92
  -2   0  10   36.22    1.77
  -2   0  10   35.30    1.94
  -2   0  10   36.82    1.94
  -2   0  10   34.93    1.64
   1   0 -10   27.67    1.52
   1   0 -10   28.04    1.51
   1   0 -10   29.06    1.55
   1   0 -10   27.27    2.11
   1   0 -10   27.65    1.48
  -1   0  10   23.34    1.51
  -1   0  10   28.53    1.52
  -1   0  10   28.12    1.50
  -1   0  10   28.46    1.54
  -1   0  10   27.42    1.27
   0   0 -10   97.35    4.05
   0   0 -10   94.31    6.74
   0   0 -10   98.36    5.10
   0   0 -10   95.43    4.83
   0   0 -10  104.13    4.82
   0   0 -10   97.29    4.96
   0   0  10  102.56    4.18
   0   0  10  100.07    5.11
   0   0  10   98.49    4.95
   0   0  10  100.99    4.83
   0   0  10   97.31    4.81
  -1   0 -10   66.51    3.00
  -1   0 -10   65.95    2.69
  -1   0 -10   60.33    4.39
  -1   0 -10   62.12    3.18
  -1   0 -10   61.71    3.21
  -1   0 -10   64.83    3.39
   1   0  10   69.34    3.20
   1   0  10   65.23    3.41
   1   0  10   63.92    3.31
   1   0  10   61.56    3.20
   1   0  10   67.63    3.13
  -2   0 -10   61.23    3.03
  -2   0 -10   59.36    2.83
  -2   0 -10   60.67    2.95
  -2   0 -10   55.46    2.96
  -2   0 -10   59.85    2.49
  -2   0 -10   55.41    3.15
   2   0  10   60.99    2.95
   2   0  10   57.61    3.17
   2   0  10   63.60    2.99
  -3   0 -10    9.21    0.81
  -3   0 -10    8.78    0.72
  -3   0 -10    8.44    0.64
  -3   0 -10    8.12    0.54
   3   0  10    8.67    0.69
   3   0  10    9.28    0.71
   3   0  10   10.26    0.80
  -4   0 -10    7.06    0.52
  -4   0 -10    5.94    0.61
   4   0  10    6.36    0.71
   4   0  10    7.08    0.72
  -5   0 -10    9.54    0.82
  -5   0 -10    8.04    0.63
   5   0  10    7.76    0.87
  -6   0 -10    3.28    0.65
   3  -1 -10    5.06    0.56
  -3   1  10    3.43    0.38
  -3   1  10    4.77    0.68
   2  -1 -10   26.75    1.54
   2  -1 -10   28.30    1.60
  -2   1  10   25.52    1.41
  -2   1  10   26.28    1.56
  -2   1  10   26.48    1.30
  -2   1  10   26.81    1.50
  -2   1  10   27.01    2.34
   1  -1 -10    0.49    0.18
   1  -1 -10    0.38    0.22
   1  -1 -10    0.71    0.23
  -1   1  10    0.38    0.24
  -1   1  10    0.31    0.15
  -1   1  10    0.71    0.39
  -1   1  10    0.41    0.14
  -1   1  10    0.38    0.18
  -1   1  10    0.16    0.19
   0  -1 -10    2.80    0.31
   0  -1 -10    2.82    0.51
   0  -1 -10    2.74    0.37
   0  -1 -10    2.85    0.40
   0  -1 -10    3.18    0.37
   0   1  10    1.82    0.31
   0   1  10    2.91    0.30
   0   1  10    2.74    0.31
   0   1  10    4.23    0.68
   0   1  10    3.52    0.39
   0   1  10    2.51    0.34
  -1  -1 -10  259.91   17.41
  -1  -1 -10  253.95   13.16
  -1  -1 -10  258.26   12.40
  -1  -1 -10  270.28   11.85
  -1  -1 -10  261.58   12.37
   1   1  10  255.24   12.38
   1   1  10  256.20   13.17
   1   1  10  249.54   12.71
   1   1  10  268.52   12.37
   1   1  10  269.57   17.42
   1   1  10  251.83   10.73
  -2  -1 -10  154.87    6.11
  -2  -1 -10  151.92    7.29
  -2  -1 -10  143.45    7.74
  -2  -1 -10  152.03    6.98
  -2  -1 -10  156.70    7.26
   2   1  10  144.62    7.27
   2   1  10  151.88   10.14
   2   1  10  152.84    7.22
   2   1  10  153.04    7.25
   2   1  10  148.48    7.75
  -3  -1 -10    2.96    0.36
  -3  -1 -10    2.50    0.29
  -3  -1 -10    3.68    0.51
  -3  -1 -10    2.99    0.38
   3   1  10    2.93    0.44
   3   1  10    3.42    0.44
   3   1  10    2.83    0.38
  -4  -1 -10    9.24    0.76
  -4  -1 -10    9.03    0.57
  -4  -1 -10   11.08    0.79
   4   1  10   11.65    0.91
   4   1  10   10.62    0.84
  -5  -1 -10   13.49    1.00
   5   1  10   12.55    1.02
   5   1  10   12.61    1.05
  -6  -1 -10    5.88    0.86
   6   1  10    4.22    0.73
   3  -2 -10   15.24    1.03
  -3   2  10   14.50    1.90
   2  -2 -10    6.33    0.54
   2  -2 -10    5.55    0.70
  -2   2  10    5.57    1.00
  -2   2  10    5.90    0.53
  -2   2  10    5.78    0.68
   1  -2 -10   51.84    2.72
   1  -2 -10   49.28    2.68
  -1   2  10   53.04    2.33
  -1   2  10   51.48    2.79
  -1   2  10   51.89    2.71
  -1   2  10   54.73    2.67
  -1   2  10   50.70    3.89
   0  -2 -10   39.64    2.03
   0  -2 -10   37.24    2.01
   0  -2 -10   38.36    2.03
   0   2  10   37.56    2.10
   0   2  10   37.00    1.98
   0   2  10   40.88    2.02
   0   2  10   38.25    1.73
   0   2  10   36.34    2.85
  -1  -2 -10   15.77    0.94
  -1  -2 -10   16.42    0.79
  -1  -2 -10   14.64    0.95
  -1  -2 -10   14.93    1.32
   1   2  10   15.43    0.92
   1   2  10   17.12    1.38
   1   2  10   16.50    1.03
   1   2  10   16.79    0.83
   1   2  10   15.74    0.96
   1   2  10   17.39    0.95
  -2  -2 -10   35.49    1.80
  -2  -2 -10   36.63    1.87
  -2  -2 -10   35.16    1.83
  -2  -2 -10   35.98    2.60
  -2  -2 -10   36.38    1.63
   2   2  10   34.34    1.83
   2   2  10   37.28    2.61
   2   2  10   36.33    1.82
   2   2  10   34.35    1.62
   2   2  10   36.38    2.03
  -3  -2 -10    7.00    0.52
  -3  -2 -10    6.87    0.58
  -3  -2 -10    7.57    0.57
  -3  -2 -10    7.38    0.47
   3   2  10    6.49    0.68
   3   2  10    7.31    0.63
   3   2  10    7.27    0.75
   3   2  10    6.24    0.50
  -4  -2 -10   36.63    2.05
  -4  -2 -10   41.01    2.10
   4   2  10   41.65    2.30
   4   2  10   39.95    2.16
  -5  -2 -10    0.92    0.39
   5   2  10    1.06    0.41
   5   2  10    0.63    0.37
  -6  -2 -10    2.03    0.57
   6   2  10    1.91    0.57
  -4   3  10    1.05    0.90
   3  -3 -10    5.80    0.85
  -3   3  10    3.77    1.06
   2  -3 -10    6.02    0.52
   2  -3 -10    5.78    0.75
  -2   3  10    3.68    0.96
  -2   3  10    5.77    0.60
   1  -3 -10   17.81    1.20
   1  -3 -10   16.40    1.00
  -1   3  10   17.44    1.88
  -1   3  10   16.25    1.13
  -1   3  10   17.48    0.98
  -1   3  10   15.92    1.16
   0  -3 -10    0.42    0.30
   0  -3 -10    0.42    0.28
   0   3  10    0.52    0.30
   0   3  10    0.18    0.24
   0   3  10    0.34    0.13
   0   3  10    0.55    0.22
  -1  -3 -10    1.78    0.38
  -1  -3 -10    1.94    0.31
  -1  -3 -10    1.23    0.34
   1   3  10    1.35    0.25
   1   3  10    1.55    0.35
   1   3  10    1.75    0.48
   1   3  10    1.90    0.29
   1   3  10    1.01    0.31
  -2  -3 -10    2.85    0.39
  -2  -3 -10    2.48    0.29
  -2  -3 -10    2.35    0.34
  -2  -3 -10    2.81    0.41
   2   3  10    2.96    0.37
   2   3  10    2.04    0.50
   2   3  10    1.84    0.39
   2   3  10    3.20    0.33
  -3  -3 -10   10.49    0.65
  -3  -3 -10   10.47    0.67
  -3  -3 -10    8.65    0.73
   3   3  10   10.65    1.11
   3   3  10    9.08    0.84
   3   3  10    9.43    0.60
   3   3  10   10.23    0.61
  -4  -3 -10   16.51    0.98
  -4  -3 -10   16.66    1.13
   4   3  10   18.43    1.27
   4   3  10   17.94    1.16
  -5  -3 -10    5.89    0.80
   5   3  10    5.82    0.71
   5   3  10    4.15    0.64
  -6  -3 -10    1.09    0.46
   6   3  10    0.57    0.42
   2  -4 -10    2.05    0.60
  -2   4  10    1.59    0.40
   1  -4 -10    1.64    0.48
  -1   4  10    0.49    0.69
   0   4  10    7.98    0.81
   0   4  10    7.84    1.35
  -1  -4 -10   36.12    1.84
   1   4  10   37.51    3.03
   1   4  10   37.42    1.73
  -2  -4 -10   10.40    0.69
  -2  -4 -10    9.45    0.78
   2   4  10    9.79    0.93
   2   4  10    9.91    0.61
   2   4  10   10.03    1.27
   2   4  10    8.66    0.68
  -3  -4 -10    7.56    0.62
  -3  -4 -10    8.62    0.77
   3   4  10    8.05    0.52
   3   4  10    9.53    0.93
  -4  -4 -10    4.07    0.54
  -4  -4 -10    4.50    0.68
   4   4  10    3.13    0.36
   4   4  10    2.90    0.56
  -5  -4 -10   10.44    0.96
  -5  -4 -10   10.81    0.84
   5   4  10   11.54    1.09
   5   4  10   11.34    0.97
  -6  -4 -10    4.31    0.86
   6   4  10    4.41    0.77
   0  -5 -10    2.51    0.56
  -1  -5 -10    4.02    0.63
  -2  -5 -10    1.84    0.40
  -3  -5 -10    7.39    0.67
  -4  -5 -10    2.46    0.50
  -4  -5 -10    3.05    0.60
  -5  -5 -10    3.57    0.74
  -5  -5 -10    2.85    0.57
   5   5  10    3.20    0.61
   0  -6 -10    0.24    0.45
  -1  -6 -10    1.72    0.57
  -2  -6 -10    2.35    0.53
  -3  -6 -10    7.10    0.75
  -4  -6 -10    0.84    0.44
  -3  -6  11    5.32    0.82
  -2  -6  11    0.74    0.44
  -1  -6  11    0.82    0.49
   4   5 -11    0.73    0.41
  -4  -5  11    1.17    0.42
   3   5 -11    6.67    0.63
   3   5 -11    6.31    0.85
  -3  -5  11    6.54    0.68
   2   5 -11    0.43    0.38
  -2  -5  11    0.41    0.32
  -1  -5  11    6.55    0.68
   0  -5  11    5.06    0.72
   1  -5  11    7.84    0.84
  -5  -4  11    1.84    0.45
  -5  -4  11    2.51    0.54
  -4  -4  11    0.82    0.39
  -4  -4  11    1.16    0.40
   3   4 -11    5.12    0.74
   3   4 -11    5.39    0.53
  -3  -4  11    5.29    0.64
  -3  -4  11    4.84    0.54
   2   4 -11    1.06    0.35
   2   4 -11    1.60    0.34
  -2  -4  11    1.26    0.39
  -2  -4  11    1.22    0.25
  -2  -4  11    0.71    0.30
   1   4 -11   11.74    0.80
   1   4 -11   11.35    0.99
  -1  -4  11   12.21    0.94
  -1  -4  11   11.27    0.80
   0   4 -11    4.14    0.84
   0  -4  11    2.79    0.48
   0  -4  11    4.93    0.66
   2  -4  11    4.03    0.66
   3  -4  11   11.61    1.15
  -5  -3  11    0.39    0.33
  -5  -3  11   -0.15    0.36
  -4  -3  11    5.62    0.64
  -4  -3  11    5.75    0.53
  -4  -3  11    4.63    0.52
   3   3 -11    9.34    0.79
   3   3 -11   10.73    0.93
  -3  -3  11   10.01    0.77
  -3  -3  11    8.78    0.54
  -3  -3  11    9.73    0.68
   2   3 -11   72.76    3.79
   2   3 -11   69.90    3.03
   2   3 -11   73.18    3.64
  -2  -3  11   70.33    3.58
  -2  -3  11   67.36    3.03
  -2  -3  11   74.04    3.65
  -2  -3  11   69.17    3.21
   1   3 -11    5.40    0.69
   1   3 -11    5.90    0.66
   1   3 -11    6.29    0.51
   1   3 -11    5.40    0.38
  -1  -3  11    6.11    0.62
  -1  -3  11    5.33    0.46
  -1  -3  11    4.95    0.64
   0   3 -11   30.64    1.77
   0   3 -11   28.39    1.68
   0   3 -11   25.34    1.48
   0   3 -11   28.31    1.40
   0  -3  11   28.07    1.44
   0  -3  11   28.72    1.51
   0  -3  11   28.90    1.62
  -1   3 -11   12.05    1.33
  -1   3 -11   11.64    1.05
  -1   3 -11   13.03    0.82
   1  -3  11   12.22    0.87
   1  -3  11   12.89    1.00
  -2   3 -11   14.46    1.44
   2  -3  11   15.27    1.07
   2  -3  11   15.50    1.18
   3  -3  11    2.13    0.51
   4  -3  11    5.79    0.86
  -5  -2  11    6.06    0.81
  -5  -2  11    6.17    0.60
   4   2 -11    8.23    0.88
  -4  -2  11    7.37    0.76
  -4  -2  11    7.64    0.59
   3   2 -11   16.64    1.13
   3   2 -11   19.31    1.22
  -3  -2  11   16.30    0.86
  -3  -2  11   16.01    0.90
  -3  -2  11   15.84    1.10
  -3  -2  11   16.46    1.10
  -3  -2  11   16.99    0.95
   2   2 -11   20.22    1.22
   2   2 -11   20.15    1.26
   2   2 -11   20.07    0.98
  -2  -2  11   18.98    0.96
  -2  -2  11   19.21    1.20
  -2  -2  11   20.41    1.19
  -2  -2  11   18.72    1.01
   1   2 -11   25.16    1.45
   1   2 -11   24.79    1.47
   1   2 -11   24.45    1.17
  -1  -2  11   26.14    1.46
  -1  -2  11   23.97    1.38
  -1  -2  11   24.10    1.19
   0   2 -11   14.57    0.96
   0   2 -11   12.49    0.93
   0   2 -11   12.30    0.71
   0   2 -11   11.82    0.70
   0  -2  11   13.72    0.74
   0  -2  11   11.11    0.68
   0  -2  11   13.08    0.89
   0  -2  11   13.14    0.86
  -1   2 -11   52.73    2.69
   1  -2  11   48.63    2.48
   1  -2  11   46.72    2.56
  -2   2 -11    0.10    0.21
  -2   2 -11    0.26    0.26
  -2   2 -11    0.36    0.37
   2  -2  11    0.05    0.24
   2  -2  11    0.16    0.31
  -3   2 -11    1.83    0.40
  -3   2 -11    2.51    0.62
   3  -2  11    1.73    0.42
   3  -2  11    2.00    0.48
   4  -2  11    5.71    0.83
  -5  -1  11    3.88    0.49
   4   1 -11   22.93    1.50
  -4  -1  11   19.19    1.38
  -4  -1  11   20.10    1.12
   3   1 -11   39.95    2.19
   3   1 -11   35.95    2.11
   3   1 -11   41.75    2.26
  -3  -1  11   39.66    1.81
  -3  -1  11   40.33    1.90
  -3  -1  11   37.52    2.14
  -3  -1  11   42.04    1.91
  -3  -1  11   37.99    2.15
   2   1 -11   31.81    1.74
   2   1 -11   32.28    1.79
   2   1 -11   30.83    1.72
  -2  -1  11   30.82    1.72
  -2  -1  11   30.93    1.43
  -2  -1  11   30.68    1.45
  -2  -1  11   29.46    1.68
   1   1 -11   43.90    2.31
   1   1 -11   43.43    2.32
   1   1 -11   43.92    2.25
   1   1 -11   43.90    1.87
  -1  -1  11   42.23    2.33
  -1  -1  11   42.36    1.90
  -1  -1  11   40.40    1.88
  -1  -1  11   43.35    2.24
  -1  -1  11   41.51    2.21
   0   1 -11   55.91    2.82
   0   1 -11   55.64    2.34
   0   1 -11   54.79    2.89
   0   1 -11   56.05    2.95
   0   1 -11   54.62    2.77
   0  -1  11   56.20    2.79
   0  -1  11   56.11    2.65
   0  -1  11   54.68    2.96
   0  -1  11   53.05    2.80
   0  -1  11   53.12    2.87
  -1   1 -11  197.40    7.91
  -1   1 -11  199.42    9.22
  -1   1 -11  185.82    9.43
  -1   1 -11  191.23    9.38
   1  -1  11  194.50    9.99
   1  -1  11  202.72    9.23
   1  -1  11  194.71    9.40
  -2   1 -11   18.47    1.18
  -2   1 -11   15.24    0.88
   2  -1  11   16.70    1.03
   2  -1  11   18.99    1.10
   2  -1  11   16.33    1.14
  -3   1 -11   17.84    1.30
  -3   1 -11   17.74    0.98
   3  -1  11   17.29    1.15
   3  -1  11   16.85    1.19
   3  -1  11   18.88    1.23
   4  -1  11    9.36    0.89
   5  -1  11    4.74    0.75
  -5   0  11    1.26    0.39
  -4   0  11    3.16    0.41
   3   0 -11   24.53    1.47
   3   0 -11   21.88    1.45
  -3   0  11   22.45    1.24
  -3   0  11   23.61    1.48
  -3   0  11   23.64    1.20
   2   0 -11   66.20    3.46
   2   0 -11   65.36    3.46
   2   0 -11   70.22    3.42
  -2   0  11   64.11    2.88
  -2   0  11   68.00    3.19
  -2   0  11   67.03    3.48
  -2   0  11   65.47    3.37
  -2   0  11   64.04    3.36
   1   0 -11   32.26    1.82
   1   0 -11   34.13    1.82
   1   0 -11   32.27    2.55
   1   0 -11   34.93    1.87
   1   0 -11   34.58    1.86
  -1   0  11   34.90    1.55
  -1   0  11   34.52    1.83
  -1   0  11   33.84    1.88
  -1   0  11   34.28    1.82
  -1   0  11   34.32    1.84
   0   0 -11    7.02    0.82
   0   0 -11    8.56    0.59
   0   0 -11    7.54    0.48
   0   0 -11    7.41    0.58
   0   0 -11    8.67    0.63
   0   0 -11    8.31    0.63
   0   0  11    8.19    0.52
   0   0  11    8.58    0.64
   0   0  11    7.27    0.58
   0   0  11    8.33    0.60
   0   0  11    7.55    0.59
  -1   0 -11   46.41    2.49
  -1   0 -11   48.42    2.62
  -1   0 -11   45.44    3.35
  -1   0 -11   47.92    2.45
  -1   0 -11   49.88    2.07
  -1   0 -11   50.43    2.29
   1   0  11   47.36    2.56
   1   0  11   51.86    2.40
   1   0  11   46.38    2.48
   1   0  11   51.67    2.47
   1   0  11   48.22    2.63
  -2   0 -11   52.76    2.24
  -2   0 -11   53.51    2.54
  -2   0 -11   50.03    2.66
  -2   0 -11   51.79    2.72
   2   0  11   53.40    2.65
   2   0  11   55.26    2.69
   2   0  11   51.81    2.86
  -3   0 -11   28.48    1.69
  -3   0 -11   28.63    1.52
  -3   0 -11   27.49    1.31
  -3   0 -11   30.41    1.64
   3   0  11   26.64    1.60
   3   0  11   28.63    1.72
   3   0  11   28.36    1.59
  -4   0 -11    1.31    0.38
  -4   0 -11    1.53    0.32
   4   0  11    1.30    0.39
   4   0  11    1.33    0.41
   4   0  11    1.81    0.45
  -5   0 -11   12.71    1.00
   5   0  11   12.20    1.07
  -6   0 -11    3.91    0.77
   4  -1 -11    7.77    0.91
   4  -1 -11    6.75    0.78
   3  -1 -11   13.23    0.96
   3  -1 -11   12.85    1.03
  -3   1  11   10.74    0.76
  -3   1  11   12.93    1.01
   2  -1 -11   51.30    2.65
   2  -1 -11   49.12    2.62
  -2   1  11   47.30    3.75
  -2   1  11   48.54    2.45
  -2   1  11   50.10    2.22
  -2   1  11   45.54    2.57
  -2   1  11   49.94    2.61
   1  -1 -11   62.99    3.14
   1  -1 -11   59.66    3.16
   1  -1 -11   59.86    3.23
  -1   1  11   62.39    2.68
  -1   1  11   58.85    4.42
  -1   1  11   62.98    3.12
  -1   1  11   62.66    3.14
  -1   1  11   60.18    3.23
   0  -1 -11    4.79    0.47
   0  -1 -11    4.24    0.40
   0  -1 -11    3.69    0.45
   0  -1 -11    4.06    0.61
   0  -1 -11    4.00    0.41
   0   1  11    3.03    0.42
   0   1  11    5.53    0.82
   0   1  11    4.63    0.37
   0   1  11    4.17    0.44
   0   1  11    4.68    0.42
   0   1  11    4.44    0.44
  -1  -1 -11   56.56    2.95
  -1  -1 -11   59.82    2.79
  -1  -1 -11   56.64    3.14
  -1  -1 -11   56.43    4.11
  -1  -1 -11   58.15    2.98
   1   1  11   60.94    3.17
   1   1  11   64.32    2.97
   1   1  11   62.39    4.15
   1   1  11   59.30    2.58
   1   1  11   58.05    2.96
  -2  -1 -11    8.65    0.58
  -2  -1 -11    8.66    0.53
  -2  -1 -11    7.64    0.75
  -2  -1 -11    8.63    0.63
  -2  -1 -11    9.25    0.69
   2   1  11   10.40    0.76
   2   1  11    9.57    0.67
   2   1  11   10.73    0.84
   2   1  11   10.86    0.66
  -3  -1 -11    0.87    0.37
  -3  -1 -11    0.96    0.28
  -3  -1 -11    0.90    0.26
  -3  -1 -11    1.14    0.23
   3   1  11    0.65    0.26
   3   1  11    0.85    0.28
   3   1  11    1.02    0.33
  -4  -1 -11    4.43    0.53
  -4  -1 -11    4.58    0.56
  -4  -1 -11    4.46    0.40
   4   1  11    4.91    0.60
   4   1  11    5.19    0.70
  -5  -1 -11   10.57    0.88
   5   1  11    9.41    0.94
   5   1  11   11.08    0.96
  -6  -1 -11    1.93    0.59
   6   1  11    1.82    0.63
   3  -2 -11    3.53    0.64
   3  -2 -11    3.86    0.52
  -3   2  11    3.39    0.65
  -3   2  11    2.84    0.89
   2  -2 -11    0.35    0.22
  -2   2  11   -0.01    0.21
  -2   2  11    0.12    0.36
  -2   2  11    0.66    0.22
  -2   2  11    0.33    0.59
   1  -2 -11   20.62    1.21
   1  -2 -11   20.54    1.28
  -1   2  11   20.56    1.06
  -1   2  11   19.45    1.25
  -1   2  11   21.12    1.17
  -1   2  11   19.91    1.23
  -1   2  11   20.00    1.94
   0  -2 -11   34.25    1.96
   0  -2 -11   33.06    1.93
   0  -2 -11   36.32    1.97
   0   2  11   36.96    1.68
   0   2  11   40.34    1.97
   0   2  11   36.91    2.81
   0   2  11   35.60    1.92
   0   2  11   38.34    2.05
  -1  -2 -11   55.21    2.25
  -1  -2 -11   48.39    2.60
  -1  -2 -11   48.27    3.65
  -1  -2 -11   52.08    2.59
   1   2  11   54.14    2.59
   1   2  11   51.10    2.77
   1   2  11   50.67    3.66
   1   2  11   50.33    2.25
   1   2  11   48.34    2.64
  -2  -2 -11   25.79    1.97
  -2  -2 -11   27.49    1.23
  -2  -2 -11   25.69    1.44
  -2  -2 -11   25.12    1.39
  -2  -2 -11   26.42    1.38
   2   2  11   26.10    1.39
   2   2  11   26.24    1.25
   2   2  11   26.07    1.56
   2   2  11   25.45    1.97
  -3  -2 -11   29.08    1.34
  -3  -2 -11   28.83    1.54
  -3  -2 -11   27.49    1.49
  -3  -2 -11   28.48    1.50
   3   2  11   27.45    2.06
   3   2  11   26.11    1.47
   3   2  11   27.65    1.70
   3   2  11   28.38    1.58
  -4  -2 -11    9.71    0.80
  -4  -2 -11   10.58    0.77
   4   2  11   12.41    0.89
   4   2  11   12.67    0.97
  -5  -2 -11    3.09    0.59
   5   2  11    1.94    0.50
   5   2  11    2.37    0.51
  -6  -2 -11    2.04    0.55
   6   2  11    1.27    0.51
   3  -3 -11    1.38    0.54
  -3   3  11    0.33    0.76
   2  -3 -11    8.27    0.89
   2  -3 -11    8.29    0.66
  -2   3  11    7.92    0.73
  -2   3  11    7.11    1.29
   1  -3 -11    1.26    0.43
   1  -3 -11    1.14    0.26
  -1   3  11    1.40    0.69
  -1   3  11    1.35    0.34
  -1   3  11    1.01    0.40
  -1   3  11    1.39    0.31
   0  -3 -11   44.07    2.37
   0  -3 -11   38.94    2.31
   0   3  11   44.48    1.98
   0   3  11   41.82    3.34
   0   3  11   46.42    2.34
   0   3  11   44.32    2.44
   0   3  11   41.42    2.21
  -1  -3 -11   20.76    1.28
  -1  -3 -11   22.44    1.33
  -1  -3 -11   23.70    1.13
   1   3  11   23.27    1.42
   1   3  11   21.38    1.93
   1   3  11   20.78    1.24
   1   3  11   21.34    1.09
   1   3  11   22.77    1.30
  -2  -3 -11   37.41    1.63
  -2  -3 -11   35.30    1.79
  -2  -3 -11   32.94    1.80
  -2  -3 -11   31.45    1.78
   2   3  11   35.03    1.77
   2   3  11   34.73    2.02
   2   3  11   29.42    1.84
   2   3  11   34.01    1.56
   2   3  11   34.68    2.66
  -3  -3 -11    4.86    0.51
  -3  -3 -11    4.92    0.53
  -3  -3 -11    4.80    0.42
   3   3  11    4.58    0.45
   3   3  11    4.67    0.41
   3   3  11    4.24    0.62
   3   3  11    4.85    0.82
  -4  -3 -11   12.00    0.76
  -4  -3 -11   10.28    0.86
   4   3  11   11.94    1.01
   4   3  11   11.24    0.89
  -5  -3 -11    1.91    0.48
   5   3  11    1.61    0.46
  -6  -3 -11    3.54    0.74
   6   3  11    4.55    0.76
   2  -4 -11    0.88    0.47
   1  -4 -11    6.67    0.81
   0   4  11   12.75    1.67
  -1  -4 -11    5.41    0.54
  -1  -4 -11    7.09    0.74
   1   4  11    6.60    0.80
   1   4  11    6.56    0.54
   1   4  11    6.53    0.70
  -2  -4 -11    3.55    0.42
   2   4  11    3.60    0.46
   2   4  11    3.50    0.38
   2   4  11    3.40    0.58
  -3  -4 -11    1.03    0.37
  -3  -4 -11    0.77    0.28
  -3  -4 -11    1.13    0.31
   3   4  11    0.63    0.21
   3   4  11    1.05    0.41
  -4  -4 -11    2.29    0.42
  -4  -4 -11    3.15    0.60
   4   4  11    1.76    0.48
   4   4  11    2.23    0.32
  -5  -4 -11    1.23    0.47
  -5  -4 -11    0.66    0.33
   5   4  11    1.06    0.41
  -6  -4 -11    0.63    0.49
   6   4  11   -0.13    0.40
   1  -5 -11    0.98    0.49
   0  -5 -11    1.49    0.50
   0  -5 -11    1.44    0.46
  -1  -5 -11    0.90    0.36
  -2  -5 -11   11.41    0.84
  -3  -5 -11    2.46    0.46
  -3  -5 -11    2.74    0.44
  -4  -5 -11    0.79    0.44
  -4  -5 -11    1.16    0.38
  -5  -5 -11    4.78    0.81
  -5  -5 -11    4.28    0.63
   5   5  11    4.54    0.72
  -1  -6 -11    2.45    0.58
  -2  -6 -11    5.25    0.76
  -3  -6 -11    6.29    0.70
  -4  -6 -11   -0.05    0.37
  -2  -6  12    3.34    0.64
  -1  -6  12    1.39    0.53
   4   5 -12    2.42    0.59
  -4  -5  12    1.87    0.49
   3   5 -12    1.52    0.48
   3   5 -12    1.39    0.41
  -3  -5  12    1.28    0.39
   2   5 -12    0.69    0.42
  -2  -5  12    1.32    0.43
  -1  -5  12    2.22    0.48
   0  -5  12    8.34    0.80
   1  -5  12    3.17    0.62
  -5  -4  12    0.39    0.39
  -5  -4  12    0.17    0.36
  -4  -4  12    0.42    0.33
  -4  -4  12    0.44    0.37
   3   4 -12    5.90    0.81
   3   4 -12    5.82    0.57
  -3  -4  12    5.44    0.56
  -3  -4  12    5.76    0.68
   2   4 -12    0.75    0.38
   2   4 -12    0.75    0.30
  -2  -4  12    1.03    0.33
  -2  -4  12    0.60    0.22
  -2  -4  12    0.96    0.41
   1   4 -12    3.87    0.52
   1   4 -12    2.37    0.52
  -1  -4  12    4.00    0.59
  -1  -4  12    3.26    0.47
   0   4 -12    3.83    0.53
   0  -4  12    4.18    0.66
   0  -4  12    4.22    0.58
   1  -4  12   10.78    0.86
   1  -4  12   11.84    1.07
   2  -4  12    2.97    0.59
   3  -4  12    0.51    0.45
  -5  -3  12    3.18    0.60
  -4  -3  12    0.12    0.32
  -4  -3  12    0.11    0.26
   3   3 -12   -0.29    0.32
  -3  -3  12   -0.11    0.31
  -3  -3  12    0.18    0.17
  -3  -3  12    0.06    0.21
   2   3 -12    0.91    0.40
   2   3 -12    0.83    0.27
   2   3 -12    1.19    0.36
  -2  -3  12    1.31    0.42
  -2  -3  12    0.93    0.35
  -2  -3  12    1.18    0.24
  -2  -3  12    1.01    0.26
   1   3 -12   43.65    2.45
   1   3 -12   43.69    2.14
   1   3 -12   44.97    1.99
   1   3 -12   44.41    2.43
  -1  -3  12   42.60    2.06
  -1  -3  12   43.75    2.34
  -1  -3  12   42.82    2.41
   0   3 -12   31.87    1.72
   0   3 -12   32.51    1.97
   0   3 -12   34.70    1.97
   0   3 -12   34.82    1.62
   0  -3  12   35.11    1.75
   0  -3  12   32.42    1.89
   0  -3  12   32.26    1.64
  -1   3 -12    2.95    0.62
  -1   3 -12    3.10    0.47
   1  -3  12    3.02    0.46
   1  -3  12    2.84    0.52
  -2   3 -12    6.99    0.96
  -2   3 -12    5.46    0.88
   2  -3  12    5.20    0.68
   2  -3  12    6.57    0.83
   3  -3  12    1.81    0.52
   4   2 -12    7.86    0.86
  -4  -2  12    6.77    0.54
  -4  -2  12    5.98    0.73
   3   2 -12    8.51    0.79
   3   2 -12    6.29    0.72
  -3  -2  12    6.62    0.69
  -3  -2  12    6.38    0.68
  -3  -2  12    6.99    0.47
  -3  -2  12    6.52    0.49
  -3  -2  12    6.80    0.53
   2   2 -12   45.75    2.40
   2   2 -12   45.78    2.50
   2   2 -12   44.69    1.98
  -2  -2  12   44.23    2.36
  -2  -2  12   45.56    2.00
  -2  -2  12   44.80    2.07
  -2  -2  12   43.67    2.38
   1   2 -12    1.49    0.40
   1   2 -12    1.76    0.38
   1   2 -12    1.51    0.29
  -1  -2  12    1.62    0.42
  -1  -2  12    1.92    0.26
  -1  -2  12    2.02    0.38
   0   2 -12   15.58    1.12
   0   2 -12   16.88    1.13
   0   2 -12   16.44    0.89
   0   2 -12   17.44    0.90
   0  -2  12   16.01    0.85
   0  -2  12   17.15    1.08
   0  -2  12   18.06    0.93
  -1   2 -12   13.31    1.04
  -1   2 -12   12.59    0.78
   1  -2  12   14.08    0.96
   1  -2  12   13.27    0.84
  -2   2 -12   19.20    1.02
  -2   2 -12   14.76    1.43
   2  -2  12   18.61    1.13
   2  -2  12   18.55    1.22
   3  -2  12   12.16    0.97
   4  -2  12    2.29    0.54
   4   1 -12    0.20    0.37
   4   1 -12    0.55    0.33
  -4  -1  12    0.51    0.40
  -4  -1  12    0.24    0.21
   3   1 -12   19.69    1.28
   3   1 -12   16.31    1.05
   3   1 -12   19.66    1.24
  -3  -1  12   17.88    0.95
  -3  -1  12   18.44    0.93
  -3  -1  12   16.53    1.15
  -3  -1  12   15.67    1.16
   2   1 -12   41.81    2.30
   2   1 -12   43.79    2.34
   2   1 -12   41.12    2.26
  -2  -1  12   42.92    2.27
  -2  -1  12   41.85    1.90
  -2  -1  12   41.80    2.24
   1   1 -12   72.78    3.89
   1   1 -12   75.14    3.98
   1   1 -12   75.84    3.17
   1   1 -12   73.81    3.80
  -1  -1  12   76.65    3.99
  -1  -1  12   76.11    3.79
  -1  -1  12   76.33    3.77
  -1  -1  12   77.72    3.25
  -1  -1  12   74.81    3.26
   0   1 -12    7.15    0.48
   0   1 -12    7.30    0.65
   0   1 -12    6.46    0.66
   0  -1  12    7.93    0.45
   0  -1  12    6.09    0.61
   0  -1  12    8.36    0.67
   0  -1  12    6.83    0.59
  -1   1 -12   25.61    1.55
  -1   1 -12   26.29    1.38
  -1   1 -12   26.87    1.24
   1  -1  12   25.22    1.58
   1  -1  12   27.86    1.51
   1  -1  12   26.91    1.40
  -2   1 -12   15.09    0.82
  -2   1 -12   14.47    1.08
   2  -1  12   14.83    1.00
   2  -1  12   14.27    0.93
   2  -1  12   14.59    1.06
  -3   1 -12   10.47    0.75
  -3   1 -12   11.71    1.08
   3  -1  12   11.80    0.94
   3  -1  12   13.39    0.99
   3  -1  12   11.14    0.88
  -4   1 -12    8.19    1.02
   4  -1  12    7.48    0.83
  -5   1 -12    0.71    0.43
   5  -1  12    1.87    0.58
  -5   0  12    0.92    0.53
  -5   0  12    0.61    0.33
  -4   0  12    2.32    0.37
  -4   0  12    1.71    0.52
   3   0 -12    5.93    0.74
   3   0 -12    5.59    0.67
  -3   0  12    6.07    0.53
  -3   0  12    6.11    0.43
  -3   0  12    5.51    0.71
  -3   0  12    5.47    0.46
   2   0 -12   26.84    1.57
   2   0 -12   26.89    1.56
   2   0 -12   26.01    1.48
  -2   0  12   26.69    1.51
  -2   0  12   25.44    1.27
  -2   0  12   26.20    1.33
  -2   0  12   25.68    1.52
   1   0 -12   51.31    2.61
   1   0 -12   48.15    2.67
   1   0 -12   50.72    2.66
  -1   0  12   49.28    2.21
  -1   0  12   47.61    2.57
  -1   0  12   51.23    2.69
  -1   0  12   51.75    2.60
   0   0 -12  123.91    6.16
   0   0 -12  124.67    6.36
   0   0 -12  120.46    8.65
   0   0 -12  129.30    6.21
   0   0 -12  128.02    6.54
   0   0  12  123.73    6.34
   0   0  12  130.58    5.36
   0   0  12  135.86    6.18
   0   0  12  127.68    6.55
   0   0  12  125.50    6.18
  -1   0 -12   18.91    1.51
  -1   0 -12   19.95    1.21
  -1   0 -12   21.16    1.01
  -1   0 -12   19.30    1.14
  -1   0 -12   20.32    0.97
   1   0  12   20.72    1.16
   1   0  12   20.74    1.09
   1   0  12   20.26    1.24
  -2   0 -12    5.26    0.42
  -2   0 -12    5.28    0.43
  -2   0 -12    4.75    0.50
  -2   0 -12    5.70    0.61
   2   0  12    6.59    0.57
   2   0  12    5.11    0.50
   2   0  12    6.44    0.67
  -3   0 -12   60.89    2.59
  -3   0 -12   58.52    2.94
   3   0  12   59.88    3.29
   3   0  12   60.45    3.07
   3   0  12   60.40    3.11
  -4   0 -12   16.50    0.94
  -4   0 -12   18.07    1.10
   4   0  12   16.38    1.17
   4   0  12   16.74    1.17
   4   0  12   15.80    1.21
  -5   0 -12    1.17    0.43
   5   0  12    0.79    0.44
  -6   0 -12    2.82    0.65
  -5   1  12    0.28    0.34
   4  -1 -12    4.33    0.74
   3  -1 -12   26.25    1.67
   3  -1 -12   25.74    1.56
  -3   1  12   24.82    1.40
  -3   1  12   22.04    1.55
   2  -1 -12   18.71    1.25
   2  -1 -12   18.80    1.18
  -2   1  12   19.03    1.92
  -2   1  12   18.90    1.14
  -2   1  12   18.45    1.01
  -2   1  12   17.52    1.23
   1  -1 -12    3.11    0.36
   1  -1 -12    3.06    0.42
   1  -1 -12    3.11    0.49
  -1   1  12    2.71    0.46
  -1   1  12    3.33    0.44
  -1   1  12    2.97    0.41
  -1   1  12    2.15    0.59
  -1   1  12    2.70    0.35
   0  -1 -12    2.54    0.35
   0  -1 -12    2.94    0.42
   0  -1 -12    2.19    0.35
   0  -1 -12    2.31    0.39
   0  -1 -12    1.98    0.43
   0   1  12    2.38    0.50
   0   1  12    2.66    0.36
   0   1  12    2.45    0.38
   0   1  12    2.42    0.35
   0   1  12    3.00    0.34
  -1  -1 -12   38.97    1.87
  -1  -1 -12   37.96    2.77
  -1  -1 -12   35.21    2.00
  -1  -1 -12   38.20    2.05
   1   1  12   40.06    2.16
   1   1  12   41.60    2.83
   1   1  12   40.87    1.77
   1   1  12   39.42    2.01
   1   1  12   36.98    2.09
  -2  -1 -12  124.95    8.96
  -2  -1 -12  131.90    6.17
  -2  -1 -12  138.74    6.45
  -2  -1 -12  131.25    5.42
  -2  -1 -12  132.55    6.48
   2   1  12  137.53    6.40
   2   1  12  137.99    6.44
   2   1  12  128.52    6.88
   2   1  12  133.75    8.97
  -3  -1 -12    6.93    0.71
  -3  -1 -12    7.04    0.56
  -3  -1 -12    6.91    0.59
  -3  -1 -12    6.67    0.47
   3   1  12    6.84    0.60
   3   1  12    6.78    0.74
   3   1  12    7.26    0.63
  -4  -1 -12    3.78    0.40
  -4  -1 -12    4.63    0.53
   4   1  12    4.33    0.61
   4   1  12    4.31    0.59
  -5  -1 -12    1.33    0.42
   5   1  12    0.91    0.41
   5   1  12    0.46    0.39
  -6  -1 -12    1.57    0.56
   6   1  12    1.42    0.55
   3  -2 -12    2.02    0.39
   3  -2 -12    2.24    0.56
  -3   2  12    1.76    0.53
  -3   2  12    2.08    0.82
   2  -2 -12    0.19    0.21
   2  -2 -12    0.34    0.36
  -2   2  12    0.16    0.20
  -2   2  12    0.40    0.62
  -2   2  12    0.80    0.39
  -2   2  12    0.40    0.25
   1  -2 -12    9.72    0.75
   1  -2 -12    9.73    0.86
  -1   2  12   10.07    0.83
  -1   2  12   10.62    1.43
  -1   2  12    9.63    0.66
  -1   2  12   10.08    0.68
  -1   2  12    9.69    0.75
   0  -2 -12   45.15    2.39
   0  -2 -12   45.52    2.40
   0  -2 -12   43.09    2.34
   0   2  12   44.27    2.35
   0   2  12   45.70    2.03
   0   2  12   45.03    3.38
   0   2  12   45.79    2.46
   0   2  12   43.18    2.33
  -1  -2 -12   37.08    2.09
  -1  -2 -12   38.23    2.06
  -1  -2 -12   38.24    2.91
  -1  -2 -12   42.45    1.77
   1   2  12   40.66    2.95
   1   2  12   37.64    2.11
   1   2  12   41.58    2.08
   1   2  12   39.45    2.22
   1   2  12   40.27    1.80
  -2  -2 -12   15.24    0.76
  -2  -2 -12   14.70    0.89
  -2  -2 -12   14.29    0.91
  -2  -2 -12   14.85    0.96
  -2  -2 -12   14.96    1.27
   2   2  12   15.49    0.84
   2   2  12   16.25    1.33
   2   2  12   14.72    0.90
   2   2  12   15.02    1.05
  -3  -2 -12   22.22    1.26
  -3  -2 -12   21.86    1.26
  -3  -2 -12   22.82    1.32
  -3  -2 -12   22.63    1.11
   3   2  12   22.55    1.46
   3   2  12   22.65    1.25
   3   2  12   23.18    1.34
   3   2  12   22.03    1.73
  -4  -2 -12    0.32    0.28
   4   2  12    0.21    0.32
   4   2  12    0.82    0.33
  -5  -2 -12    1.34    0.42
   5   2  12    1.82    0.50
   5   2  12    1.30    0.49
  -6  -2 -12    1.48    0.52
   6   2  12    1.68    0.54
   3  -3 -12    0.98    0.49
  -3   3  12   -0.11    0.73
   2  -3 -12    1.35    0.31
   2  -3 -12    1.52    0.50
  -2   3  12    1.17    0.31
  -2   3  12    0.39    0.72
   1  -3 -12    6.53    0.77
   1  -3 -12    6.51    0.61
  -1   3  12    5.50    1.09
  -1   3  12    7.26    0.61
  -1   3  12    7.29    0.70
   0  -3 -12   29.35    1.79
   0   3  12   32.73    1.51
   0   3  12   29.20    1.64
   0   3  12   32.79    1.80
   0   3  12   30.15    2.65
   0   3  12   31.02    1.84
  -1  -3 -12    9.27    0.79
  -1  -3 -12    8.63    0.57
  -1  -3 -12    7.44    0.72
   1   3  12    9.34    0.62
   1   3  12   11.26    1.24
   1   3  12    9.73    0.75
   1   3  12   11.06    0.85
   1   3  12    8.15    0.65
  -2  -3 -12   21.14    1.35
  -2  -3 -12   24.64    1.36
  -2  -3 -12   26.18    1.22
  -2  -3 -12   23.95    1.40
   2   3  12   25.13    1.55
   2   3  12   24.70    2.02
   2   3  12   23.56    1.34
   2   3  12   25.18    1.20
  -3  -3 -12    4.78    0.57
  -3  -3 -12    5.42    0.57
  -3  -3 -12    5.71    0.45
  -3  -3 -12    5.04    0.49
   3   3  12    5.26    0.49
   3   3  12    5.05    0.45
   3   3  12    5.74    0.74
  -4  -3 -12    2.84    0.55
  -4  -3 -12    1.89    0.34
   4   3  12    1.91    0.48
   4   3  12    1.80    0.40
  -5  -3 -12    2.08    0.57
   5   3  12    1.43    0.45
   5   3  12    0.66    0.44
  -6  -3 -12    1.06    0.49
   6   3  12    1.14    0.47
   2  -4 -12    1.71    0.56
   1  -4 -12    1.74    0.51
  -1   4  12    1.12    0.82
   0   4  12   13.83    0.86
   0   4  12   12.27    1.71
  -1  -4 -12    6.30    0.57
  -1  -4 -12    7.43    0.77
   1   4  12    6.49    0.56
   1   4  12    6.50    0.71
   1   4  12    6.83    1.24
  -2  -4 -12    4.42    0.59
  -2  -4 -12    3.90    0.44
   2   4  12    3.68    0.40
   2   4  12    3.32    0.58
  -3  -4 -12   12.67    0.92
  -3  -4 -12   10.91    0.79
  -3  -4 -12   12.25    0.77
   3   4  12   10.18    0.67
  -4  -4 -12    0.79    0.39
  -4  -4 -12    0.60    0.30
   4   4  12    0.25    0.38
   4   4  12    0.41    0.22
  -5  -4 -12   13.87    0.92
  -5  -4 -12   12.69    1.07
   5   4  12   13.19    1.07
  -6  -4 -12    1.94    0.61
   6   4  12    1.86    0.56
   1  -5 -12    5.18    0.83
   0  -5 -12    4.98    0.71
  -1  -5 -12    6.87    0.68
  -2  -5 -12    2.51    0.48
   2   5  12    3.38    0.43
  -3  -5 -12    0.71    0.35
  -3  -5 -12    0.39    0.32
  -4  -5 -12    0.86    0.36
  -5  -5 -12    2.75    0.56
  -5  -5 -12    3.21    0.65
   5   5  12    3.11    0.62
  -1  -6 -12    0.48    0.44
  -2  -6 -12    1.15    0.41
  -3  -6 -12    0.83    0.41
  -4  -6 -12    0.79    0.40
  -4  -5  13   -0.01    0.35
   3   5 -13    0.84    0.38
  -3  -5  13    0.64    0.36
   2   5 -13    1.62    0.52
  -2  -5  13    2.65    0.53
  -1  -5  13    3.01    0.54
   0  -5  13    5.89    0.78
   1  -5  13    0.63    0.42
  -5  -4  13    0.96    0.44
  -5  -4  13    0.59    0.38
  -4  -4  13    5.08    0.67
  -4  -4  13    5.59    0.61
   3   4 -13    5.22    0.75
   3   4 -13    4.85    0.57
  -3  -4  13    5.80    0.68
  -3  -4  13    5.10    0.56
   2   4 -13    5.26    0.57
   2   4 -13    4.22    0.67
  -2  -4  13    5.82    0.73
  -2  -4  13    5.80    0.56
  -2  -4  13    5.05    0.46
   1   4 -13    5.35    0.73
  -1  -4  13    5.99    0.71
  -1  -4  13    5.03    0.52
   0   4 -13   17.53    1.07
   0  -4  13   15.72    1.01
   0  -4  13   15.42    1.22
   1  -4  13   15.82    1.09
   1  -4  13   17.65    1.34
   2  -4  13    0.23    0.37
   3  -4  13    0.91    0.51
  -5  -3  13    1.71    0.51
  -4  -3  13    3.79    0.60
  -4  -3  13    4.46    0.60
   3   3 -13    5.71    0.81
   3   3 -13    5.41    0.69
  -3  -3  13    5.16    0.63
  -3  -3  13    5.76    0.51
  -3  -3  13    5.74    0.43
   2   3 -13    1.99    0.37
   2   3 -13    2.66    0.57
   2   3 -13    1.40    0.42
  -2  -3  13    2.24    0.47
  -2  -3  13    1.40    0.42
  -2  -3  13    2.24    0.31
  -2  -3  13    1.99    0.34
   1   3 -13   29.94    1.53
   1   3 -13   30.89    1.88
   1   3 -13   32.71    1.50
   1   3 -13   31.30    1.86
  -1  -3  13   29.88    1.52
  -1  -3  13   30.61    1.77
   0   3 -13    4.20    0.66
   0   3 -13    3.40    0.57
   0   3 -13    3.19    0.36
   0   3 -13    3.43    0.49
   0  -3  13    4.78    0.61
   0  -3  13    3.86    0.43
   0  -3  13    2.56    0.39
  -1   3 -13    1.50    0.48
  -1   3 -13    1.37    0.38
  -1   3 -13    1.06    0.51
   1  -3  13    1.35    0.35
   1  -3  13    1.33    0.46
  -2   3 -13    0.76    0.37
  -2   3 -13    0.67    0.38
   2  -3  13    0.55    0.33
   3  -3  13    1.91    0.51
  -5  -2  13    3.49    0.68
   4   2 -13    4.10    0.69
  -4  -2  13    4.02    0.65
   3   2 -13   11.71    0.97
   3   2 -13   13.63    1.03
  -3  -2  13   12.10    0.75
  -3  -2  13   11.97    0.92
  -3  -2  13   11.96    0.94
  -3  -2  13   12.07    0.71
   2   2 -13   39.67    2.21
   2   2 -13   36.59    2.10
   2   2 -13   38.83    1.74
  -2  -2  13   39.21    1.75
  -2  -2  13   37.60    2.10
  -2  -2  13   37.35    2.07
  -2  -2  13   37.46    1.79
   1   2 -13   28.39    1.70
   1   2 -13   30.52    1.76
   1   2 -13   30.57    1.39
  -1  -2  13   29.42    1.41
  -1  -2  13   29.80    1.70
  -1  -2  13   28.51    1.39
  -1  -2  13   28.96    1.65
   0   2 -13    6.29    0.71
   0   2 -13    6.11    0.49
   0   2 -13    6.06    0.41
   0   2 -13    5.47    0.69
   0  -2  13    5.61    0.44
   0  -2  13    5.50    0.39
   0  -2  13    5.35    0.60
  -1   2 -13    3.40    0.45
  -1   2 -13    4.30    0.67
   1  -2  13    3.34    0.52
   1  -2  13    3.51    0.44
  -2   2 -13    2.80    0.48
  -2   2 -13    2.91    0.43
  -2   2 -13    4.00    0.67
   2  -2  13    5.14    0.65
   2  -2  13    3.65    0.50
  -3   2 -13    6.14    0.64
  -3   2 -13    5.62    0.89
   3  -2  13    5.79    0.78
   3  -2  13    5.84    0.72
   4  -2  13    3.17    0.65
  -4  -1  13    3.08    0.60
   3   1 -13   10.73    0.95
   3   1 -13    9.31    0.73
   3   1 -13   10.77    0.93
  -3  -1  13   10.98    0.89
  -3  -1  13   10.44    0.68
  -3  -1  13   11.59    0.61
   2   1 -13    9.20    0.83
   2   1 -13    9.59    0.80
  -2  -1  13    8.73    0.77
  -2  -1  13    9.92    0.62
  -2  -1  13    9.66    0.80
   1   1 -13   65.06    2.76
   1   1 -13   67.99    3.34
   1   1 -13   66.75    3.42
  -1  -1  13   63.95    2.81
  -1  -1  13   63.92    3.47
  -1  -1  13   61.26    3.27
  -1  -1  13   63.96    3.30
  -1  -1  13   65.65    2.83
   0   1 -13   59.83    3.22
   0   1 -13   59.81    3.14
   0   1 -13   61.38    2.61
   0  -1  13   61.97    3.31
   0  -1  13   63.03    2.94
   0  -1  13   59.80    3.10
  -1   1 -13    2.32    0.30
  -1   1 -13    3.07    0.54
  -1   1 -13    2.66    0.36
   1  -1  13    2.93    0.36
   1  -1  13    2.06    0.38
   1  -1  13    3.15    0.47
  -2   1 -13   18.58    1.30
  -2   1 -13   18.96    0.98
   2  -1  13   18.10    1.17
   2  -1  13   19.53    1.12
   2  -1  13   17.30    1.26
  -3   1 -13    2.69    0.42
  -3   1 -13    3.20    0.63
   3  -1  13    2.38    0.45
   3  -1  13    2.29    0.44
   3  -1  13    2.37    0.49
   4  -1  13   17.04    1.24
   4  -1  13   17.10    1.29
  -5   1 -13    9.13    0.86
   5  -1  13    5.84    0.86
  -5   0  13    1.48    0.57
  -4   0  13    6.80    0.55
  -4   0  13    6.69    0.83
   3   0 -13   18.93    1.32
   3   0 -13   18.39    1.25
  -3   0  13   17.74    1.01
  -3   0  13   18.06    0.95
  -3   0  13   16.42    1.22
   2   0 -13   19.20    1.24
   2   0 -13   18.38    1.14
   2   0 -13   19.51    1.27
  -2   0  13   17.99    1.23
  -2   0  13   19.19    1.01
  -2   0  13   19.24    0.93
  -2   0  13   19.96    1.19
  -2   0  13   18.71    1.01
   1   0 -13   25.51    1.50
   1   0 -13   27.06    1.54
   1   0 -13   25.34    1.49
  -1   0  13   25.76    1.26
  -1   0  13   27.20    1.53
  -1   0  13   24.92    1.48
   0   0 -13    1.63    0.30
   0   0 -13    2.20    0.36
   0   0 -13    3.05    0.46
   0   0 -13    1.66    0.40
   0   0  13    2.43    0.33
   0   0  13    3.19    0.44
   0   0  13    2.40    0.36
  -1   0 -13    4.91    0.49
  -1   0 -13    4.83    0.63
  -1   0 -13    5.26    0.36
  -1   0 -13    5.06    0.43
  -1   0 -13    5.02    0.60
   1   0  13    6.38    0.61
   1   0  13    6.05    0.56
   1   0  13    6.42    0.45
  -2   0 -13   22.34    1.16
  -2   0 -13   21.00    1.29
  -2   0 -13   20.79    1.33
  -2   0 -13   21.38    1.06
   2   0  13   21.07    1.40
   2   0  13   22.85    1.31
   2   0  13   24.19    1.26
  -3   0 -13   43.56    2.40
  -3   0 -13   44.34    1.98
  -3   0 -13   42.84    2.25
  -3   0 -13   46.18    2.52
   3   0  13   45.64    2.57
   3   0  13   44.06    2.37
   3   0  13   46.64    2.41
  -4   0 -13    8.05    0.63
  -4   0 -13    7.67    0.71
   4   0  13    9.31    0.86
   4   0  13    8.61    0.90
   4   0  13    9.43    0.85
  -5   0 -13    5.48    0.67
   5   0  13    4.11    0.66
   4  -1 -13    3.93    0.71
   3  -1 -13    2.15    0.44
  -3   1  13    1.87    0.31
  -3   1  13    2.01    0.41
   2  -1 -13    0.53    0.25
   2  -1 -13    0.41    0.33
  -2   1  13    0.52    0.35
  -2   1  13    0.23    0.23
  -2   1  13    0.31    0.24
   1  -1 -13   40.22    2.18
   1  -1 -13   37.57    2.19
   1  -1 -13   41.84    2.20
  -1   1  13   40.56    2.17
  -1   1  13   39.11    3.11
  -1   1  13   38.90    1.84
  -1   1  13   40.34    2.21
   0  -1 -13   29.18    1.65
   0  -1 -13   28.56    1.61
   0  -1 -13   29.42    1.68
   0   1  13   30.90    2.34
   0   1  13   29.78    1.70
   0   1  13   28.63    1.40
   0   1  13   29.17    1.62
  -1  -1 -13   33.08    2.54
  -1  -1 -13   35.73    1.91
  -1  -1 -13   35.48    1.70
  -1  -1 -13   32.45    1.84
   1   1  13   37.55    2.61
   1   1  13   35.30    1.87
   1   1  13   36.07    2.00
   1   1  13   34.53    1.63
  -2  -1 -13    6.04    0.61
  -2  -1 -13    5.92    0.44
  -2  -1 -13    5.58    0.53
  -2  -1 -13    4.76    0.43
  -2  -1 -13    5.14    0.56
   2   1  13    6.76    0.69
   2   1  13    6.57    0.56
   2   1  13    5.67    0.53
  -3  -1 -13    8.16    0.54
  -3  -1 -13    7.40    0.60
  -3  -1 -13    7.05    0.63
  -3  -1 -13    8.74    0.78
   3   1  13    8.28    0.68
   3   1  13    7.41    0.68
   3   1  13    7.79    0.81
  -4  -1 -13    4.18    0.42
  -4  -1 -13    4.41    0.53
   4   1  13    4.45    0.60
   4   1  13    4.61    0.60
   4   1  13    3.60    0.58
  -5  -1 -13    3.61    0.64
   5   1  13    3.35    0.58
   5   1  13    2.88    0.56
  -6  -1 -13    0.31    0.42
   4  -2 -13    0.73    0.51
   3  -2 -13   11.30    0.97
  -3   2  13   12.63    1.90
  -3   2  13   11.57    1.07
   2  -2 -13   47.15    2.53
  -2   2  13   45.73    2.60
  -2   2  13   44.99    2.52
  -2   2  13   47.83    2.19
  -2   2  13   44.09    3.73
   1  -2 -13   18.01    1.24
   1  -2 -13   19.30    1.19
  -1   2  13   18.26    1.93
  -1   2  13   18.09    1.22
  -1   2  13   18.71    1.19
  -1   2  13   19.06    1.03
   0  -2 -13   44.73    2.32
   0  -2 -13   41.91    2.31
   0  -2 -13   40.09    2.26
   0   2  13   42.90    2.39
   0   2  13   46.26    2.31
   0   2  13   40.72    2.26
   0   2  13   42.20    1.96
   0   2  13   43.76    3.30
  -1  -2 -13   46.34    1.97
  -1  -2 -13   43.05    2.34
  -1  -2 -13   41.64    2.30
   1   2  13   46.36    2.49
   1   2  13   38.76    2.35
   1   2  13   48.61    2.33
   1   2  13   43.79    2.02
   1   2  13   47.04    3.33
  -2  -2 -13   44.65    1.90
  -2  -2 -13   40.97    2.24
  -2  -2 -13   41.44    2.20
  -2  -2 -13   40.53    3.07
  -2  -2 -13   42.89    2.13
   2   2  13   44.22    3.11
   2   2  13   43.26    2.42
   2   2  13   43.28    2.19
   2   2  13   41.45    1.95
  -3  -2 -13   20.08    1.21
  -3  -2 -13   21.62    1.21
  -3  -2 -13   21.86    1.29
   3   2  13   20.92    1.29
   3   2  13   21.00    1.41
   3   2  13   20.37    1.20
   3   2  13   20.95    1.67
  -4  -2 -13   15.16    0.99
  -4  -2 -13   14.72    1.06
   4   2  13   14.33    1.03
   4   2  13   13.51    1.15
  -5  -2 -13    0.37    0.36
   5   2  13   -0.09    0.41
   5   2  13    0.12    0.33
  -6  -2 -13    0.59    0.41
   6   2  13    0.13    0.41
   3  -3 -13    4.28    0.78
  -3   3  13    4.06    1.16
   2  -3 -13    0.30    0.26
   2  -3 -13    0.39    0.44
  -2   3  13   -0.02    0.68
   1  -3 -13   21.70    1.35
  -1   3  13   23.09    1.47
  -1   3  13   22.03    1.48
  -1   3  13   23.63    2.42
  -1   3  13   23.15    1.24
   0  -3 -13   27.61    1.70
   0   3  13   26.33    1.60
   0   3  13   27.67    1.69
   0   3  13   26.17    2.45
   0   3  13   25.94    1.47
   0   3  13   27.73    1.36
  -1  -3 -13   49.90    2.18
  -1  -3 -13   44.05    2.50
  -1  -3 -13   48.99    2.55
   1   3  13   50.05    2.51
   1   3  13   44.98    3.58
   1   3  13   49.23    2.69
   1   3  13   41.86    2.47
   1   3  13   50.70    2.17
  -2  -3 -13   45.95    1.99
  -2  -3 -13   44.31    2.20
  -2  -3 -13   39.79    2.23
  -2  -3 -13   41.29    2.28
   2   3  13   41.40    2.21
   2   3  13   42.81    2.49
   2   3  13   43.58    1.96
   2   3  13   43.84    3.28
  -3  -3 -13    0.94    0.29
  -3  -3 -13    0.73    0.34
  -3  -3 -13    0.95    0.34
  -3  -3 -13    1.24    0.27
   3   3  13    1.00    0.30
   3   3  13    0.89    0.27
   3   3  13    0.53    0.36
  -4  -3 -13    1.52    0.33
  -4  -3 -13    1.71    0.44
   4   3  13    1.30    0.38
   4   3  13    0.56    0.39
  -5  -3 -13    1.58    0.47
   5   3  13    2.09    0.53
   5   3  13    0.87    0.47
  -6  -3 -13    3.03    0.67
   6   3  13    2.27    0.58
   2  -4 -13    0.78    0.50
  -1   4  13    8.22    0.84
   0  -4 -13    4.32    0.69
   0   4  13    3.92    0.60
   0   4  13    4.48    0.54
  -1  -4 -13    6.02    0.56
   1   4  13    6.87    0.73
   1   4  13    7.01    0.58
  -2  -4 -13    5.73    0.51
  -2  -4 -13    6.00    0.68
   2   4  13    5.08    0.48
   2   4  13    4.86    0.91
   2   4  13    5.70    0.78
  -3  -4 -13    2.61    0.51
  -3  -4 -13    3.03    0.42
  -3  -4 -13    3.04    0.47
   3   4  13    2.28    0.34
   3   4  13    2.26    0.54
  -4  -4 -13    5.33    0.52
  -4  -4 -13    5.87    0.69
   4   4  13    4.73    0.49
   4   4  13    5.08    0.77
  -5  -4 -13    9.08    0.76
  -5  -4 -13   10.85    0.95
   5   4  13    9.61    0.91
  -6  -4 -13    1.91    0.64
   0  -5 -13    3.48    0.64
  -1  -5 -13    8.26    0.72
  -2  -5 -13    4.22    0.52
   2   5  13    4.98    0.52
  -3  -5 -13    2.51    0.46
  -3  -5 -13    1.49    0.41
  -4  -5 -13   -0.06    0.28
  -5  -5 -13    0.63    0.39
  -5  -5 -13    0.74    0.49
   5   5  13    0.33    0.38
  -1  -6 -13    1.02    0.46
  -2  -6 -13    7.54    0.78
  -3  -6 -13    0.88    0.40
  -4  -6 -13    1.24    0.45
   4   5 -14    3.00    0.72
  -4  -5  14    3.16    0.61
   3   5 -14    2.68    0.52
  -3  -5  14    2.31    0.53
   2   5 -14   -0.51    0.35
  -2  -5  14    0.22    0.31
  -1  -5  14    5.30    0.63
   0  -5  14    0.63    0.48
   0  -5  14    1.18    0.42
   1  -5  14    1.44    0.50
  -5  -4  14    0.79    0.42
  -5  -4  14    0.23    0.38
  -4  -4  14    0.08    0.29
  -4  -4  14    0.14    0.37
   3   4 -14    4.70    0.75
   3   4 -14    7.32    0.64
  -3  -4  14    7.15    0.76
  -3  -4  14    6.47    0.61
   2   4 -14    0.51    0.37
   2   4 -14    0.82    0.36
  -2  -4  14    0.96    0.31
  -2  -4  14    0.54    0.26
  -2  -4  14    0.80    0.43
   1   4 -14    0.97    0.45
  -1  -4  14    0.92    0.30
  -1  -4  14    1.07    0.44
   0  -4  14    0.77    0.43
   0  -4  14    0.01    0.25
   1  -4  14    1.47    0.42
   2  -4  14    6.46    0.80
   2  -4  14    4.58    0.79
  -5  -3  14    3.60    0.66
  -4  -3  14    0.10    0.37
  -4  -3  14    0.97    0.35
  -3  -3  14    1.92    0.29
  -3  -3  14    1.68    0.44
  -3  -3  14    1.62    0.35
   2   3 -14   11.56    0.99
   2   3 -14   10.25    0.96
   2   3 -14   10.71    0.73
  -2  -3  14   11.07    0.67
  -2  -3  14   10.63    0.87
  -2  -3  14   10.60    0.69
   1   3 -14   41.65    2.47
   1   3 -14   42.79    2.44
   1   3 -14   44.45    2.00
  -1  -3  14   42.34    2.02
  -1  -3  14   43.19    2.35
   0   3 -14   28.93    1.47
   0   3 -14   26.94    1.81
   0   3 -14   28.17    1.79
   0  -3  14   26.88    1.42
   0  -3  14   28.15    1.69
   0  -3  14   30.71    1.53
  -1   3 -14    0.47    0.30
   1  -3  14    0.45    0.28
   1  -3  14    0.51    0.27
   1  -3  14   -0.12    0.35
   2  -3  14    0.62    0.48
   2  -3  14    0.23    0.31
  -3   3 -14    1.69    0.54
   3  -3  14    0.88    0.44
  -4  -2  14    1.17    0.50
   3   2 -14    2.20    0.53
   3   2 -14    2.57    0.54
  -3  -2  14    2.88    0.55
  -3  -2  14    2.75    0.36
  -3  -2  14    2.49    0.38
   2   2 -14    7.35    0.57
   2   2 -14    7.17    0.77
   2   2 -14    6.22    0.76
  -2  -2  14    7.50    0.71
  -2  -2  14    6.43    0.72
  -2  -2  14    7.50    0.55
  -2  -2  14    7.02    0.49
   1   2 -14    5.91    0.50
   1   2 -14    6.05    0.71
   1   2 -14    6.24    0.75
  -1  -2  14    5.47    0.51
  -1  -2  14    4.39    0.59
  -1  -2  14    5.66    0.39
   0   2 -14    5.63    0.41
   0   2 -14    5.22    0.71
   0   2 -14    6.03    0.51
   0   2 -14    6.28    0.80
   0  -2  14    5.24    0.62
   0  -2  14    5.22    0.38
   0  -2  14    5.76    0.44
  -1   2 -14   38.24    2.18
  -1   2 -14   37.07    1.73
   1  -2  14   37.83    1.93
   1  -2  14   34.18    2.03
  -2   2 -14    0.62    0.28
  -2   2 -14    0.99    0.34
   2  -2  14    0.87    0.42
   2  -2  14    1.07    0.36
  -3   2 -14    0.51    0.33
  -3   2 -14    0.63    0.56
   3  -2  14    0.29    0.34
   4  -2  14    0.04    0.38
   4   1 -14    0.16    0.43
   3   1 -14    7.11    0.77
   3   1 -14    6.21    0.80
  -3  -1  14    8.00    0.58
  -3  -1  14    6.67    0.75
   2   1 -14   40.47    2.26
   2   1 -14   41.05    2.30
  -2  -1  14   40.10    2.20
  -2  -1  14   40.24    1.87
   1   1 -14   13.58    0.99
   1   1 -14   14.45    1.01
   1   1 -14   13.82    0.77
  -1  -1  14   13.68    0.79
  -1  -1  14   12.36    0.66
  -1  -1  14   13.36    0.93
  -1  -1  14   13.54    0.97
   0   1 -14   13.95    0.98
   0   1 -14   13.10    0.74
   0   1 -14   11.61    0.95
   0  -1  14   13.19    0.91
   0  -1  14   12.94    0.97
   0  -1  14   13.31    0.73
  -1   1 -14    5.12    0.46
  -1   1 -14    5.15    0.65
   1  -1  14    5.03    0.32
   1  -1  14    4.18    0.63
   1  -1  14    5.10    0.45
   1  -1  14    5.10    0.58
  -2   1 -14   16.30    0.93
  -2   1 -14   16.75    1.25
   2  -1  14   17.58    1.15
   2  -1  14   17.34    1.05
   2  -1  14   15.64    1.21
  -3   1 -14    5.24    0.61
   3  -1  14    3.30    0.57
   3  -1  14    4.81    0.67
   3  -1  14    4.13    0.60
  -4   1 -14    9.62    0.75
   4  -1  14    8.58    0.90
  -5   1 -14    3.32    0.62
   5  -1  14    3.30    0.74
  -4   0  14    1.61    0.52
   3   0 -14    3.17    0.62
   3   0 -14    2.62    0.51
  -3   0  14    2.79    0.43
  -3   0  14    2.53    0.27
  -3   0  14    2.21    0.49
   2   0 -14   18.82    1.28
   2   0 -14   19.39    1.27
   2   0 -14   18.48    1.16
  -2   0  14   18.69    1.03
  -2   0  14   18.60    1.27
  -2   0  14   20.72    1.22
  -2   0  14   19.43    1.02
   1   0 -14   15.30    1.03
   1   0 -14   13.80    1.00
  -1   0  14   13.45    0.81
  -1   0  14   14.44    0.99
  -1   0  14   14.92    1.00
   0   0 -14  137.41   10.15
   0   0 -14  145.09    7.27
   0   0 -14  151.66    7.48
   0   0  14  154.04    6.29
   0   0  14  148.32    7.25
   0   0  14  158.26    7.06
   0   0  14  148.47    7.69
  -1   0 -14   50.98    3.80
  -1   0 -14   53.21    2.79
  -1   0 -14   52.17    2.84
  -1   0 -14   56.36    2.36
  -1   0 -14   57.19    2.56
   1   0  14   53.50    2.98
   1   0  14   55.74    2.70
   1   0  14   56.20    2.81
  -2   0 -14   13.08    0.75
  -2   0 -14   11.13    0.93
  -2   0 -14   12.31    0.72
  -2   0 -14   11.76    0.86
   2   0  14   12.67    0.91
   2   0  14   13.61    0.85
   2   0  14   13.78    1.02
  -3   0 -14    9.46    0.73
  -3   0 -14   11.21    0.99
  -3   0 -14    9.51    0.69
   3   0  14   13.12    0.90
   3   0  14    9.76    0.83
   3   0  14   11.63    1.01
  -4   0 -14    4.51    0.52
  -4   0 -14    5.15    0.70
   4   0  14    3.97    0.63
   4   0  14    4.37    0.64
   4   0  14    5.41    0.71
  -5   0 -14    1.53    0.45
  -5   0 -14    2.02    0.43
   5   0  14    1.67    0.51
   4  -1 -14    7.67    0.96
   3  -1 -14   18.01    1.36
   3  -1 -14   17.05    1.24
  -3   1  14   17.14    1.14
  -3   1  14   19.05    1.08
   2  -1 -14   25.34    1.57
   2  -1 -14   22.06    1.47
  -2   1  14   23.17    1.41
  -2   1  14   23.25    1.23
  -2   1  14   22.83    1.46
   1  -1 -14   26.97    1.59
   1  -1 -14   27.45    1.60
  -1   1  14   26.58    1.56
  -1   1  14   26.89    2.30
  -1   1  14   26.81    1.58
  -1   1  14   25.23    1.31
   0  -1 -14   77.34    4.05
   0  -1 -14   78.50    3.97
   0   1  14   80.60    3.94
   0   1  14   76.40    3.40
   0   1  14   78.82    4.16
   0   1  14   78.35    5.55
  -1  -1 -14   89.24    6.64
  -1  -1 -14   93.64    4.76
  -1  -1 -14  100.27    4.49
  -1  -1 -14   94.17    4.80
   1   1  14  103.49    4.78
   1   1  14   95.81    5.09
   1   1  14  102.70    6.70
   1   1  14   93.99    4.15
  -2  -1 -14   16.53    1.36
  -2  -1 -14   18.44    1.10
  -2  -1 -14   17.21    1.14
  -2  -1 -14   18.93    1.00
   2   1  14   18.31    1.23
   2   1  14   18.07    1.09
   2   1  14   18.60    1.09
  -3  -1 -14   31.60    1.43
  -3  -1 -14   29.05    1.73
  -3  -1 -14   32.33    1.81
  -3  -1 -14   31.19    1.65
   3   1  14   30.91    1.74
   3   1  14   31.42    1.91
   3   1  14   31.14    1.72
  -4  -1 -14    9.88    0.77
  -4  -1 -14    8.39    0.93
  -4  -1 -14    9.91    0.62
   4   1  14    9.87    0.87
   4   1  14    9.87    0.82
   4   1  14    9.20    0.97
  -5  -1 -14    5.08    0.65
   5   1  14    4.15    0.70
   5   1  14    4.16    0.68
  -6  -1 -14    0.85    0.46
   3  -2 -14    2.82    0.51
  -3   2  14    2.55    0.86
   2  -2 -14   10.18    1.00
   2  -2 -14   11.18    0.87
  -2   2  14    9.33    0.82
  -2   2  14   10.14    0.98
  -2   2  14   11.16    1.71
  -2   2  14   10.62    0.78
   1  -2 -14    0.47    0.37
   1  -2 -14    0.42    0.26
  -1   2  14    1.11    0.41
  -1   2  14    0.20    0.58
  -1   2  14    0.51    0.26
   0  -2 -14    9.87    0.90
   0  -2 -14   10.85    0.86
   0   2  14   11.37    0.89
   0   2  14   11.59    1.40
   0   2  14   11.10    0.71
   0   2  14   11.26    0.86
  -1  -2 -14   12.52    0.62
  -1  -2 -14   11.33    0.85
  -1  -2 -14   10.89    0.89
   1   2  14   13.56    1.38
   1   2  14   12.37    0.88
   1   2  14   13.21    0.96
   1   2  14   12.50    0.76
  -2  -2 -14   38.96    2.13
  -2  -2 -14   38.45    1.99
  -2  -2 -14   40.06    1.76
  -2  -2 -14   37.18    2.07
  -2  -2 -14   37.49    2.88
   2   2  14   40.36    1.85
   2   2  14   40.68    2.96
   2   2  14   41.42    2.31
   2   2  14   40.61    2.08
  -3  -2 -14   53.45    2.73
  -3  -2 -14   53.51    2.66
  -3  -2 -14   56.07    2.81
   3   2  14   54.09    2.79
   3   2  14   52.56    3.78
   3   2  14   51.49    2.71
   3   2  14   51.94    2.99
  -4  -2 -14   10.06    0.80
   4   2  14   10.31    1.00
   4   2  14   10.24    0.85
  -5  -2 -14    4.27    0.67
   5   2  14    2.40    0.63
   5   2  14    2.95    0.58
  -6  -2 -14    0.61    0.42
   6   2  14    0.04    0.42
   3  -3 -14    0.70    0.51
  -3   3  14    0.21    0.77
   2  -3 -14   13.94    1.17
  -2   3  14   11.57    0.97
  -2   3  14   10.82    1.89
   1  -3 -14    5.82    0.65
   1  -3 -14    6.28    0.79
  -1   3  14    6.25    0.69
  -1   3  14    6.98    0.63
  -1   3  14    5.20    1.08
   0  -3 -14    5.32    0.71
   0   3  14    3.75    0.89
   0   3  14    5.84    0.68
   0   3  14    5.48    0.50
   0   3  14    6.39    0.56
   0   3  14    6.41    0.74
  -1  -3 -14    8.80    0.81
  -1  -3 -14    9.54    0.61
  -1  -3 -14    9.61    0.88
   1   3  14   11.30    1.37
   1   3  14   10.35    0.70
   1   3  14   11.03    0.84
   1   3  14   11.75    0.94
  -2  -3 -14   11.18    0.90
  -2  -3 -14    9.85    0.81
  -2  -3 -14   11.10    0.80
  -2  -3 -14   11.92    0.67
   2   3  14   11.60    0.73
   2   3  14   10.52    0.80
   2   3  14   13.18    1.36
   2   3  14   12.40    1.00
  -3  -3 -14    1.02    0.25
  -3  -3 -14    0.70    0.35
  -3  -3 -14    0.90    0.36
   3   3  14    0.58    0.27
   3   3  14    0.67    0.27
   3   3  14    0.66    0.38
  -4  -3 -14    9.59    0.81
  -4  -3 -14    8.84    0.64
  -4  -3 -14    9.41    0.81
   4   3  14    9.42    1.03
   4   3  14    8.86    0.81
  -5  -3 -14    1.37    0.50
   5   3  14    0.16    0.43
   5   3  14    1.45    0.45
  -6  -3 -14    1.03    0.51
   6   3  14    1.18    0.49
   1  -4 -14    2.87    0.67
   0   4  14    1.09    0.36
  -1  -4 -14   17.33    1.02
   1   4  14   17.78    1.01
  -2  -4 -14    7.48    0.78
  -2  -4 -14    7.91    0.59
   2   4  14    7.27    0.59
   2   4  14    8.71    0.90
  -3  -4 -14    8.58    0.63
  -3  -4 -14    9.31    0.80
  -3  -4 -14    7.89    0.73
   3   4  14    8.70    0.63
   3   4  14    8.52    0.97
  -4  -4 -14    3.82    0.51
  -4  -4 -14    3.16    0.59
   4   4  14    3.26    0.43
  -5  -4 -14    1.74    0.51
  -5  -4 -14    2.12    0.43
   5   4  14    1.62    0.46
   5   4  14    1.32    0.56
   0  -5 -14    1.07    0.44
   0  -5 -14    0.83    0.49
  -1  -5 -14    1.30    0.40
   1   5  14    1.57    0.38
  -2  -5 -14    2.37    0.45
   2   5  14    3.09    0.43
  -3  -5 -14    0.21    0.29
  -3  -5 -14   -0.09    0.34
  -4  -5 -14    0.14    0.28
  -5  -5 -14    0.61    0.49
  -5  -5 -14    0.75    0.40
   5   5  14    0.39    0.40
  -2  -6 -14    7.77    0.76
  -3  -6 -14   -0.15    0.32
   3   5 -15    0.51    0.38
   3   5 -15    0.40    0.45
  -3  -5  15    0.51    0.35
   2   5 -15    0.25    0.44
  -2  -5  15    1.42    0.43
  -1  -5  15    1.21    0.41
  -1  -5  15    1.12    0.54
   0  -5  15    0.97    0.54
   0  -5  15    2.15    0.50
   1  -5  15    3.86    0.66
   4   4 -15    0.61    0.45
  -4  -4  15    1.06    0.48
  -4  -4  15    0.24    0.34
   3   4 -15   10.18    1.11
   3   4 -15    9.63    0.75
  -3  -4  15    8.52    0.73
  -3  -4  15    9.48    0.89
   2   4 -15    3.09    0.66
   2   4 -15    4.70    0.63
  -2  -4  15    2.71    0.41
  -2  -4  15    3.71    0.52
  -2  -4  15    4.42    0.68
   1   4 -15    0.83    0.47
  -1  -4  15    0.74    0.30
  -1  -4  15    1.16    0.48
   0  -4  15    0.37    0.42
   0  -4  15    0.00    0.24
   1  -4  15    3.69    0.58
   1  -4  15    3.78    0.58
   2  -4  15    1.84    0.52
   2  -4  15    1.12    0.57
  -5  -3  15    2.55    0.61
  -4  -3  15    1.36    0.38
  -4  -3  15    1.29    0.48
   3   3 -15    0.63    0.41
  -3  -3  15    0.65    0.28
  -3  -3  15    0.71    0.41
  -3  -3  15    0.74    0.23
   2   3 -15    0.82    0.46
   2   3 -15    1.27    0.35
   2   3 -15    1.12    0.41
  -2  -3  15    1.24    0.41
  -2  -3  15    1.38    0.30
  -2  -3  15    1.08    0.28
   1   3 -15    1.31    0.45
   1   3 -15    2.22    0.55
   1   3 -15    2.43    0.43
  -1  -3  15    2.56    0.54
  -1  -3  15    2.01    0.33
   0   3 -15    7.63    0.93
   0   3 -15    7.42    0.65
   0   3 -15    6.39    0.86
   0  -3  15    5.73    0.49
   0  -3  15    6.66    0.55
   0  -3  15    7.05    0.77
  -1   3 -15    3.19    0.51
  -1   3 -15    2.68    0.63
  -1   3 -15    3.87    0.78
   1  -3  15    3.11    0.47
   1  -3  15    3.50    0.48
   1  -3  15    3.27    0.67
   2  -3  15    3.86    0.59
   2  -3  15    2.37    0.62
   3  -3  15   -0.34    0.32
  -4  -2  15    4.59    0.52
  -4  -2  15    4.09    0.70
   3   2 -15    6.76    0.88
   3   2 -15    7.03    0.82
  -3  -2  15    7.62    0.57
  -3  -2  15    7.42    0.79
   2   2 -15    4.47    0.66
   2   2 -15    4.26    0.69
  -2  -2  15    4.32    0.61
  -2  -2  15    3.82    0.45
  -2  -2  15    3.85    0.36
   1   2 -15    5.32    0.51
   1   2 -15    4.83    0.68
   1   2 -15    5.65    0.75
  -1  -2  15    4.69    0.60
  -1  -2  15    5.37    0.38
  -1  -2  15    4.96    0.51
   0   2 -15   42.18    1.85
   0   2 -15   39.76    2.30
   0   2 -15   40.71    2.27
   0  -2  15   39.86    2.20
   0  -2  15   40.28    1.99
   0  -2  15   36.31    1.80
  -1   2 -15    5.83    0.57
  -1   2 -15    5.50    0.82
   1  -2  15    6.50    0.71
   1  -2  15    4.98    0.42
   1  -2  15    6.25    0.55
  -2   2 -15    5.20    0.62
  -2   2 -15    5.61    0.88
  -2   2 -15    3.16    0.62
   2  -2  15    4.12    0.54
   2  -2  15    4.78    0.70
   3  -2  15    3.65    0.62
   4  -2  15    9.39    0.98
  -4  -1  15    6.75    0.90
   3   1 -15    9.99    0.94
   3   1 -15   10.22    0.90
  -3  -1  15    8.22    0.64
  -3  -1  15    7.72    0.83
   2   1 -15   15.81    1.17
   2   1 -15   17.80    1.21
  -2  -1  15   16.77    0.93
  -2  -1  15   15.93    1.14
   1   1 -15   34.34    2.02
   1   1 -15   36.10    2.10
  -1  -1  15   37.24    2.10
  -1  -1  15   36.46    2.00
  -1  -1  15   36.80    1.71
   0   1 -15   18.11    0.93
   0   1 -15   16.59    1.17
   0   1 -15   17.80    1.21
   0  -1  15   15.85    1.10
   0  -1  15   17.85    0.93
   0  -1  15   17.46    1.19
  -1   1 -15    6.75    0.83
  -1   1 -15    8.55    0.57
  -1   1 -15    6.97    0.76
   1  -1  15    7.21    0.70
   1  -1  15    7.13    0.43
   1  -1  15    8.09    0.57
   1  -1  15    7.66    0.78
  -2   1 -15   55.18    2.90
  -2   1 -15   53.25    2.33
   2  -1  15   47.19    2.92
   2  -1  15   53.82    2.68
   2  -1  15   51.56    2.78
  -3   1 -15   -0.02    0.44
  -3   1 -15    0.55    0.29
   3  -1  15   -0.15    0.34
   3  -1  15   -0.08    0.30
   3  -1  15    0.00    0.27
  -4   1 -15   11.74    0.91
   4  -1  15   10.64    1.06
   4  -1  15   11.12    1.00
  -5   1 -15    0.75    0.43
   5  -1  15    0.70    0.51
  -4   0  15    1.63    0.55
   3   0 -15   10.01    0.97
   3   0 -15    8.64    0.89
  -3   0  15    8.96    0.89
  -3   0  15    9.71    0.71
   2   0 -15   23.46    1.51
   2   0 -15   22.89    1.49
  -2   0  15   23.28    1.19
  -2   0  15   22.67    1.20
  -2   0  15   20.68    1.40
  -2   0  15   24.05    1.42
   1   0 -15    4.35    0.62
   1   0 -15    4.67    0.62
  -1   0  15    4.15    0.46
  -1   0  15    4.72    0.61
  -1   0  15    4.39    0.57
   0   0 -15   10.18    0.85
   0   0 -15    9.86    0.83
   0   0  15   10.29    0.68
   0   0  15    9.86    0.62
   0   0  15    9.95    0.83
   0   0  15   10.15    0.79
  -1   0 -15   40.31    1.83
  -1   0 -15   36.55    2.09
  -1   0 -15   33.66    2.74
  -1   0 -15   38.09    1.72
   1   0  15   38.83    2.06
   1   0  15   38.85    2.21
   1   0  15   40.52    1.96
  -2   0 -15    6.40    0.52
  -2   0 -15    5.85    0.73
  -2   0 -15    6.53    0.50
   2   0  15    7.77    0.62
   2   0  15    8.06    0.82
   2   0  15    7.38    0.71
  -3   0 -15   13.99    0.82
  -3   0 -15   13.41    0.88
  -3   0 -15   14.22    1.15
   3   0  15   13.77    0.98
   3   0  15   13.88    1.02
   3   0  15   13.06    1.14
  -4   0 -15   16.55    1.08
  -4   0 -15   15.57    0.96
  -4   0 -15   15.79    1.33
   4   0  15   14.93    1.25
   4   0  15   16.18    1.17
  -5   0 -15   11.79    0.82
  -5   0 -15   11.61    0.97
   5   0  15    9.92    1.02
   5   0  15   10.05    1.03
   4  -1 -15    0.95    0.51
   3  -1 -15    6.46    0.84
   3  -1 -15    6.75    0.76
  -3   1  15    6.01    0.64
   2  -1 -15   21.66    1.42
   2  -1 -15   23.25    1.52
  -2   1  15   21.64    1.46
  -2   1  15   21.67    1.18
  -2   1  15   20.65    1.35
   1  -1 -15    7.82    0.75
   1  -1 -15    8.63    0.78
  -1   1  15    6.68    0.58
  -1   1  15    7.21    0.71
  -1   1  15    8.46    0.76
   0  -1 -15   16.43    1.14
   0  -1 -15   17.90    1.18
   0   1  15   17.29    0.95
   0   1  15   17.74    1.67
   0   1  15   17.81    1.17
   0   1  15   16.91    1.11
  -1  -1 -15   27.37    1.41
  -1  -1 -15   25.48    2.14
  -1  -1 -15   27.20    1.57
  -1  -1 -15   27.99    1.65
   1   1  15   30.41    1.61
   1   1  15   28.61    1.40
   1   1  15   30.31    1.74
   1   1  15   30.29    2.26
  -2  -1 -15    6.98    0.73
  -2  -1 -15    7.04    0.71
  -2  -1 -15    6.77    0.65
  -2  -1 -15    7.66    0.54
   2   1  15    8.59    0.82
   2   1  15    7.82    0.66
   2   1  15    8.11    0.64
  -3  -1 -15   24.16    1.56
  -3  -1 -15   27.95    1.30
  -3  -1 -15   25.86    1.63
  -3  -1 -15   27.54    1.47
   3   1  15   28.26    1.57
   3   1  15   27.89    1.57
   3   1  15   27.23    1.73
  -4  -1 -15    5.21    0.50
  -4  -1 -15    5.72    0.60
  -4  -1 -15    6.40    0.84
   4   1  15    6.33    0.72
   4   1  15    5.46    0.66
   4   1  15    4.88    0.71
  -5  -1 -15    2.50    0.56
   5   1  15    2.41    0.58
   5   1  15    1.11    0.51
  -6  -1 -15    1.82    0.61
   3  -2 -15   12.33    1.03
   2  -2 -15    1.36    0.36
   2  -2 -15    1.27    0.48
  -2   2  15    0.84    0.32
  -2   2  15    0.94    0.36
  -2   2  15    1.06    0.48
  -2   2  15    0.79    0.66
   1  -2 -15   54.15    2.99
   1  -2 -15   61.02    3.06
  -1   2  15   55.54    2.99
  -1   2  15   51.47    4.28
  -1   2  15   55.76    3.06
  -1   2  15   56.92    2.56
   0  -2 -15   27.99    1.68
   0  -2 -15   27.40    1.64
   0   2  15   25.88    2.36
   0   2  15   26.72    1.67
   0   2  15   28.13    1.62
   0   2  15   27.44    1.38
  -1  -2 -15    5.37    0.60
  -1  -2 -15    5.77    0.67
   1   2  15    6.65    0.57
   1   2  15    5.71    0.64
   1   2  15    6.50    0.71
   1   2  15    6.89    1.11
  -2  -2 -15   19.07    1.25
  -2  -2 -15   20.40    1.10
  -2  -2 -15   19.22    1.17
  -2  -2 -15   18.76    0.90
  -2  -2 -15   18.06    1.56
   2   2  15   19.94    1.70
   2   2  15   19.25    1.16
   2   2  15   19.00    1.07
   2   2  15   19.77    1.35
  -3  -2 -15    4.10    0.54
  -3  -2 -15    3.63    0.56
  -3  -2 -15    3.41    0.48
   3   2  15    3.45    0.52
   3   2  15    4.79    0.54
   3   2  15    2.14    0.50
   3   2  15    2.26    0.49
  -4  -2 -15    1.81    0.48
  -4  -2 -15    1.29    0.38
   4   2  15    1.08    0.36
   4   2  15    0.58    0.43
  -5  -2 -15    0.35    0.36
   5   2  15    0.50    0.36
   5   2  15   -0.35    0.44
  -6  -2 -15    0.51    0.46
   3  -3 -15   -0.13    0.46
  -3   3  15   -0.32    0.74
   2  -3 -15   13.63    1.21
  -2   3  15   10.34    1.92
  -2   3  15   11.71    0.95
   1  -3 -15   22.83    1.59
   1  -3 -15   23.16    1.44
  -1   3  15   23.03    1.53
  -1   3  15   25.70    1.31
  -1   3  15   20.86    2.44
   0  -3 -15    8.19    0.85
   0   3  15    7.01    0.62
   0   3  15    6.32    0.74
   0   3  15    5.14    1.02
   0   3  15    7.75    0.80
  -1  -3 -15   16.02    1.17
  -1  -3 -15   17.70    0.88
  -1  -3 -15   14.94    1.10
   1   3  15   16.14    1.11
   1   3  15   16.57    1.20
   1   3  15   16.19    0.95
  -2  -3 -15    5.04    0.56
  -2  -3 -15    4.94    0.67
  -2  -3 -15    5.36    0.41
   2   3  15    5.64    1.04
   2   3  15    5.34    0.53
   2   3  15    5.06    0.58
   2   3  15    6.18    0.76
  -3  -3 -15    6.89    0.49
  -3  -3 -15    6.66    0.65
  -3  -3 -15    5.96    0.69
   3   3  15    6.39    0.83
   3   3  15    5.97    0.59
  -4  -3 -15    4.57    0.45
  -4  -3 -15    5.42    0.67
  -4  -3 -15    5.47    0.75
   4   3  15    4.12    0.72
   4   3  15    3.94    0.53
   4   3  15    3.74    0.59
  -5  -3 -15    5.80    0.83
   5   3  15    5.64    0.79
   5   3  15    4.44    0.75
  -6  -3 -15    2.82    0.68
   1  -4 -15    4.48    0.78
   0  -4 -15    5.39    0.56
   0   4  15    5.02    0.59
   0   4  15    4.07    0.63
  -1  -4 -15    3.18    0.44
   1   4  15    3.16    0.45
   1   4  15    3.38    0.59
  -2  -4 -15   12.90    0.78
  -2  -4 -15   11.60    0.99
   2   4  15   11.62    0.77
  -3  -4 -15    5.36    0.64
  -3  -4 -15    4.33    0.63
  -3  -4 -15    4.20    0.44
   3   4  15    4.15    0.70
   3   4  15    3.62    0.46
  -4  -4 -15    3.14    0.64
  -4  -4 -15    2.78    0.47
  -4  -4 -15    2.67    0.44
   4   4  15    1.77    0.59
   4   4  15    2.43    0.39
  -5  -4 -15    1.92    0.44
  -5  -4 -15    2.41    0.63
   5   4  15    1.43    0.46
   0  -5 -15    0.39    0.36
  -1  -5 -15    5.37    0.59
   1   5  15    6.23    0.90
   1   5  15    6.23    0.64
  -2  -5 -15    5.11    0.57
   2   5  15    5.66    0.57
  -3  -5 -15    0.78    0.34
  -3  -5 -15    0.48    0.39
   3   5  15    1.02    0.31
  -4  -5 -15    0.24    0.30
  -5  -5 -15    2.02    0.61
  -5  -5 -15    1.86    0.46
  -2  -6 -15    0.46    0.39
  -3  -6 -15    1.86    0.49
   3   5 -16    1.17    0.58
  -3  -5  16    1.76    0.46
   2   5 -16    2.26    0.67
  -2  -5  16    4.00    0.73
  -2  -5  16    2.65    0.50
  -1  -5  16    1.62    0.44
  -1  -5  16    1.41    0.57
   0  -5  16    1.07    0.43
  -4  -4  16    0.23    0.32
  -4  -4  16    0.08    0.43
   3   4 -16    3.51    0.70
   3   4 -16    4.10    0.60
  -3  -4  16    3.85    0.55
  -3  -4  16    3.75    0.67
   2   4 -16    2.06    0.57
   2   4 -16    3.46    0.56
  -2  -4  16    3.02    0.60
  -2  -4  16    2.80    0.42
  -2  -4  16    2.97    0.45
   1   4 -16    0.98    0.60
   1   4 -16    0.87    0.47
  -1  -4  16    1.68    0.50
  -1  -4  16    1.77    0.37
   0  -4  16    0.85    0.31
   0  -4  16    1.60    0.55
  -1   4 -16    2.61    0.61
   1  -4  16    2.09    0.46
   1  -4  16    2.30    0.48
   1  -4  16    1.66    0.61
   2  -4  16    5.66    0.78
   2  -4  16    4.17    0.79
  -5  -3  16    0.48    0.48
  -4  -3  16    4.03    0.67
   3   3 -16    8.05    0.96
  -3  -3  16    8.48    0.60
  -3  -3  16    7.49    0.81
  -3  -3  16    7.80    0.61
   2   3 -16    6.69    0.86
   2   3 -16    6.77    0.83
   2   3 -16    6.48    0.64
  -2  -3  16    5.74    0.71
  -2  -3  16    6.88    0.57
  -2  -3  16    6.09    0.51
   1   3 -16    1.27    0.35
   1   3 -16    1.04    0.53
   1   3 -16    0.49    0.39
  -1  -3  16    0.46    0.40
  -1  -3  16    1.07    0.26
   0   3 -16    6.20    0.63
   0   3 -16    5.72    0.83
   0   3 -16    6.06    0.82
   0  -3  16    5.97    0.52
   0  -3  16    5.56    0.46
   0  -3  16    5.93    0.75
  -1   3 -16    2.19    0.51
  -1   3 -16    2.14    0.70
   1  -3  16    1.83    0.40
   1  -3  16    2.13    0.38
   1  -3  16    1.55    0.53
   2  -3  16    0.58    0.36
   2  -3  16    0.42    0.47
   3  -3  16   -0.38    0.33
  -4  -2  16    1.57    0.53
  -4  -2  16    1.70    0.35
   3   2 -16   11.96    1.07
  -3  -2  16   12.56    0.79
  -3  -2  16   13.13    1.05
   2   2 -16   14.40    1.12
   2   2 -16   15.58    1.20
  -2  -2  16   14.70    0.82
  -2  -2  16   15.60    1.08
  -2  -2  16   14.97    0.87
   1   2 -16   15.42    0.88
   1   2 -16   15.20    1.18
   1   2 -16   14.07    1.11
  -1  -2  16   13.43    1.02
  -1  -2  16   14.71    0.77
  -1  -2  16   14.72    0.87
   0   2 -16   19.78    1.41
   0   2 -16   20.47    1.10
   0   2 -16   19.47    1.43
   0  -2  16   20.14    1.00
   0  -2  16   20.48    1.32
   0  -2  16   21.51    1.11
  -1   2 -16   29.14    1.49
  -1   2 -16   29.70    1.88
   1  -2  16   30.16    1.60
   1  -2  16   30.21    1.79
   1  -2  16   28.67    1.42
  -2   2 -16    2.78    0.47
  -2   2 -16    2.63    0.46
  -2   2 -16    3.41    0.76
   2  -2  16    2.64    0.58
   2  -2  16    2.96    0.47
  -3   2 -16    2.53    0.76
   3  -2  16    3.11    0.57
   3  -2  16    4.14    0.72
   4  -2  16    2.07    0.56
  -4  -1  16   10.77    0.81
   3   1 -16   10.14    0.96
  -3  -1  16    9.07    0.92
  -3  -1  16    8.26    0.67
   2   1 -16    6.83    0.75
   2   1 -16    5.71    0.76
  -2  -1  16    5.08    0.53
  -2  -1  16    5.75    0.70
   1   1 -16   12.17    1.02
   1   1 -16   11.70    0.99
  -1  -1  16   12.19    0.78
  -1  -1  16   12.82    0.98
  -1  -1  16   12.96    0.95
   0   1 -16   10.96    0.69
   0   1 -16   10.21    0.89
   0   1 -16   10.53    0.95
   0  -1  16   10.95    0.91
   0  -1  16    9.78    0.83
   0  -1  16   11.57    0.64
  -1   1 -16    0.24    0.35
  -1   1 -16   -0.11    0.26
  -1   1 -16    0.21    0.23
   1  -1  16    0.13    0.32
   1  -1  16    0.40    0.19
   1  -1  16   -0.17    0.27
  -2   1 -16   25.01    1.69
  -2   1 -16   27.03    1.32
   2  -1  16   26.23    1.60
   2  -1  16   26.04    1.48
   2  -1  16   24.95    1.67
  -3   1 -16    5.69    0.88
  -3   1 -16    4.61    0.56
   3  -1  16    3.15    0.56
   3  -1  16    3.76    0.55
   3  -1  16    4.14    0.63
  -4   1 -16    3.36    0.78
  -4   1 -16    3.51    0.62
   4  -1  16    2.99    0.58
  -5   1 -16    1.09    0.46
   3   0 -16    0.22    0.40
   3   0 -16    0.14    0.29
  -3   0  16    0.46    0.42
  -3   0  16    0.31    0.27
   2   0 -16    8.99    0.85
   2   0 -16    8.78    0.90
  -2   0  16    8.63    0.65
  -2   0  16    8.34    0.54
  -2   0  16    8.86    0.82
  -2   0  16    7.75    0.76
   1   0 -16   23.92    1.48
   1   0 -16   21.55    1.42
  -1   0  16   21.67    1.17
  -1   0  16   23.50    1.42
  -1   0  16   22.42    1.43
   0   0 -16    4.67    0.65
   0   0 -16    3.91    0.59
   0   0  16    4.59    0.49
   0   0  16    4.58    0.58
   0   0  16    4.97    0.40
   0   0  16    4.54    0.63
  -1   0 -16    9.40    1.04
  -1   0 -16   12.14    0.72
  -1   0 -16   10.52    0.90
  -1   0 -16   12.52    0.63
   1   0  16   11.78    0.73
   1   0  16   11.16    0.87
   1   0  16   11.39    0.97
  -2   0 -16   35.19    2.05
  -2   0 -16   37.08    1.78
  -2   0 -16   33.82    1.63
   2   0  16   34.08    2.12
   2   0  16   34.55    1.96
   2   0  16   36.63    1.90
  -3   0 -16    8.88    0.67
  -3   0 -16    9.32    0.69
  -3   0 -16    9.19    0.98
   3   0  16    9.64    0.85
   3   0  16    9.15    0.97
   3   0  16    8.90    0.78
  -4   0 -16    0.71    0.34
  -4   0 -16    0.83    0.34
  -4   0 -16    1.64    0.57
   4   0  16    0.74    0.40
   4   0  16    0.68    0.42
   4   0  16    0.69    0.40
  -5   0 -16    2.16    0.54
  -5   0 -16    2.21    0.45
   5   0  16    1.96    0.49
   5   0  16    2.09    0.54
   4  -1 -16    2.76    0.67
   3  -1 -16    0.89    0.49
  -3   1  16    1.08    0.36
   2  -1 -16   15.19    1.11
  -2   1  16   14.72    1.17
  -2   1  16   13.90    0.90
  -2   1  16   13.74    1.02
   1  -1 -16    7.20    0.76
   1  -1 -16    6.75    0.80
  -1   1  16    7.72    0.74
  -1   1  16    7.35    0.76
  -1   1  16    7.18    0.61
   0  -1 -16   11.76    0.94
   0  -1 -16   11.24    0.90
   0   1  16   10.49    0.86
   0   1  16   10.15    0.71
   0   1  16   10.73    0.89
   0   1  16    9.82    1.33
  -1  -1 -16   40.60    1.90
  -1  -1 -16   35.55    2.87
  -1  -1 -16   42.33    2.19
   1   1  16   40.27    2.28
   1   1  16   38.60    1.86
   1   1  16   38.26    2.11
  -2  -1 -16    3.89    0.53
  -2  -1 -16    4.77    0.59
  -2  -1 -16    4.20    0.39
  -2  -1 -16    3.67    0.59
   2   1  16    3.93    0.55
   2   1  16    4.10    0.49
   2   1  16    2.98    0.51
  -3  -1 -16   36.81    2.14
  -3  -1 -16   32.98    2.06
  -3  -1 -16   39.17    1.94
  -3  -1 -16   38.84    1.71
   3   1  16   37.58    2.04
   3   1  16   38.66    2.07
   3   1  16   36.41    2.24
  -4  -1 -16    5.62    0.59
  -4  -1 -16    6.51    0.86
  -4  -1 -16    4.81    0.51
   4   1  16    5.07    0.69
   4   1  16    3.68    0.67
  -5  -1 -16    5.29    0.77
   5   1  16    3.34    0.67
   5   1  16    5.13    0.78
   3  -2 -16    0.70    0.35
   2  -2 -16    5.95    0.81
   2  -2 -16    6.60    0.74
  -2   2  16    6.86    0.66
  -2   2  16    5.54    1.14
  -2   2  16    5.91    0.80
  -2   2  16    4.98    0.66
   1  -2 -16    8.08    0.84
   1  -2 -16    5.92    0.73
  -1   2  16    8.71    0.82
  -1   2  16    4.59    0.97
  -1   2  16    7.70    0.64
  -1   2  16    5.67    0.68
   0  -2 -16   22.63    1.47
   0  -2 -16   23.05    1.44
   0   2  16   22.88    1.42
   0   2  16   20.98    2.14
   0   2  16   22.83    1.46
   0   2  16   22.09    1.19
  -1  -2 -16   18.20    1.24
  -1  -2 -16   16.90    1.15
   1   2  16   18.87    1.03
   1   2  16   19.14    1.18
   1   2  16   17.45    1.25
   1   2  16   18.12    1.78
  -2  -2 -16   17.48    1.22
  -2  -2 -16   17.91    1.15
  -2  -2 -16   18.76    1.56
  -2  -2 -16   19.15    1.07
   2   2  16   17.78    1.32
   2   2  16   19.41    1.07
   2   2  16   18.62    1.15
   2   2  16   19.55    1.71
  -3  -2 -16    3.86    0.53
  -3  -2 -16    3.80    0.62
   3   2  16    3.98    0.57
   3   2  16    4.16    0.66
   3   2  16    3.91    0.53
  -4  -2 -16    5.96    0.63
  -4  -2 -16    6.31    0.79
   4   2  16    6.11    0.69
   4   2  16    4.47    0.71
  -5  -2 -16    0.65    0.39
   5   2  16    0.68    0.40
   5   2  16   -0.26    0.43
  -6  -2 -16    2.51    0.63
   3  -3 -16    0.56    0.53
   2  -3 -16    3.69    0.72
  -2   3  16    1.87    0.89
   1  -3 -16    3.27    0.52
  -1   3  16    3.90    0.58
  -1   3  16    4.55    0.59
   0  -3 -16    0.44    0.43
   0   3  16    0.74    0.36
   0   3  16    0.76    0.32
   0   3  16    1.01    0.43
   0   3  16    0.14    0.63
  -1  -3 -16    4.89    0.39
  -1  -3 -16    5.75    0.74
   1   3  16    4.91    0.68
   1   3  16    4.62    0.53
   1   3  16    4.21    0.90
   1   3  16    5.06    0.66
  -2  -3 -16   14.27    1.07
  -2  -3 -16   15.82    0.78
   2   3  16   16.13    1.20
   2   3  16   12.89    1.54
   2   3  16   14.64    0.88
   2   3  16   12.60    0.95
  -3  -3 -16   12.17    0.87
  -3  -3 -16   12.15    0.69
  -3  -3 -16   11.89    0.93
   3   3  16   10.69    1.08
   3   3  16   11.68    0.80
  -4  -3 -16    5.33    0.70
  -4  -3 -16    5.93    0.67
   4   3  16    5.72    0.69
   4   3  16    5.64    0.62
   4   3  16    4.20    0.73
  -5  -3 -16    3.67    0.65
   5   3  16    3.73    0.67
   1  -4 -16    8.70    1.02
   0  -4 -16    1.09    0.34
   0   4  16    1.21    0.40
  -1  -4 -16    2.67    0.40
  -1  -4 -16    2.42    0.61
   1   4  16    2.04    0.42
  -2  -4 -16    3.10    0.61
  -2  -4 -16    3.59    0.40
   2   4  16    2.63    0.59
   2   4  16    3.03    0.44
  -3  -4 -16    0.93    0.28
  -3  -4 -16    0.65    0.38
   3   4  16    0.71    0.29
   3   4  16    0.39    0.44
  -4  -4 -16    0.20    0.34
  -4  -4 -16    0.52    0.39
  -4  -4 -16    0.26    0.27
   4   4  16   -0.19    0.44
   4   4  16    0.45    0.35
   4   4  16    0.14    0.25
  -5  -4 -16    1.15    0.48
   5   4  16    1.14    0.55
   5   4  16    1.41    0.48
   0  -5 -16    2.14    0.50
  -1  -5 -16    3.20    0.52
   1   5  16    3.34    0.54
  -2  -5 -16    5.32    0.56
   2   5  16    5.49    0.60
  -3  -5 -16    2.22    0.44
  -3  -5 -16    2.21    0.54
   3   5  16    2.18    0.40
  -4  -5 -16    2.29    0.47
   3   5 -17    1.47    0.47
   3   5 -17    0.52    0.51
   2   5 -17   -0.69    0.47
  -2  -5  17    0.06    0.31
  -1  -5  17    3.36    0.56
   0  -5  17    0.52    0.35
  -4  -4  17    0.78    0.38
  -4  -4  17    1.09    0.52
   3   4 -17    1.76    0.57
   3   4 -17    2.64    0.50
  -3  -4  17    3.08    0.65
  -3  -4  17    2.13    0.42
   2   4 -17    1.34    0.41
   2   4 -17    1.14    0.54
  -2  -4  17    1.24    0.52
  -2  -4  17    1.28    0.35
  -2  -4  17    1.43    0.36
   1   4 -17    7.49    0.83
   1   4 -17    3.56    0.72
  -1  -4  17    5.61    0.54
  -1  -4  17    6.04    0.78
   0  -4  17    0.13    0.48
   0  -4  17    0.28    0.25
  -1   4 -17    3.34    0.69
   1  -4  17    2.23    0.66
   1  -4  17    2.19    0.48
   1  -4  17    2.11    0.46
   2  -4  17    0.73    0.39
   2  -4  17   -0.09    0.37
  -4  -3  17    0.76    0.46
   3   3 -17    4.86    0.78
  -3  -3  17    6.21    0.55
  -3  -3  17    6.69    0.78
  -3  -3  17    6.44    0.55
   2   3 -17    7.72    0.88
   2   3 -17    7.12    0.68
   2   3 -17    6.94    0.94
  -2  -3  17    7.03    0.55
  -2  -3  17    7.46    0.61
  -2  -3  17    7.14    0.78
   1   3 -17    2.84    0.65
   1   3 -17    2.42    0.43
   1   3 -17    1.42    0.48
  -1  -3  17    2.83    0.59
  -1  -3  17    2.70    0.33
  -1  -3  17    3.05    0.46
   0   3 -17   -0.06    0.38
   0   3 -17    0.33    0.49
   0   3 -17    0.14    0.33
   0  -3  17    0.02    0.17
   0  -3  17    0.59    0.42
   0  -3  17   -0.05    0.21
  -1   3 -17    5.74    0.75
  -1   3 -17    4.03    0.83
   1  -3  17    3.89    0.45
   1  -3  17    4.33    0.74
   1  -3  17    4.12    0.54
   2  -3  17    6.01    0.88
   2  -3  17    5.55    0.69
  -3   3 -17    2.20    0.85
   3  -3  17    1.27    0.61
   3  -3  17    0.93    0.45
  -4  -2  17    2.58    0.65
  -4  -2  17    2.00    0.38
   3   2 -17    8.97    0.93
   3   2 -17    8.94    1.02
  -3  -2  17    8.61    0.91
  -3  -2  17    9.91    0.69
   2   2 -17    9.48    0.99
   2   2 -17   10.80    0.95
  -2  -2  17   10.22    0.71
  -2  -2  17   10.16    0.88
  -2  -2  17    9.91    0.62
   1   2 -17    2.39    0.55
   1   2 -17    1.21    0.50
   1   2 -17    2.05    0.41
  -1  -2  17    2.12    0.24
  -1  -2  17    2.20    0.55
  -1  -2  17    1.72    0.34
   0   2 -17    8.05    0.88
   0   2 -17    7.28    0.88
   0   2 -17    8.35    0.64
   0  -2  17    8.13    0.79
   0  -2  17    7.76    0.55
   0  -2  17    7.56    0.47
  -1   2 -17   10.30    1.01
  -1   2 -17   10.96    0.76
   1  -2  17   10.99    0.92
   1  -2  17    8.43    0.57
   1  -2  17    9.55    0.71
  -2   2 -17    0.18    0.51
  -2   2 -17    0.07    0.33
   2  -2  17    0.14    0.29
   2  -2  17   -0.01    0.38
  -3   2 -17    2.53    0.76
   3  -2  17    2.41    0.52
   3  -2  17    2.46    0.65
   4  -2  17    3.97    0.72
  -4  -1  17    2.75    0.46
   3   1 -17    0.72    0.41
   3   1 -17    1.36    0.56
  -3  -1  17    0.56    0.44
  -3  -1  17    0.67    0.30
   2   1 -17    5.96    0.78
   2   1 -17    6.33    0.79
  -2  -1  17    6.01    0.57
  -2  -1  17    5.07    0.68
   1   1 -17    9.41    0.89
   1   1 -17    7.10    0.84
  -1  -1  17    8.19    0.64
  -1  -1  17    7.46    0.76
  -1  -1  17    8.17    0.80
   0   1 -17    0.60    0.28
   0   1 -17    0.24    0.45
   0   1 -17    0.62    0.34
   0  -1  17    0.88    0.39
   0  -1  17    0.79    0.36
   0  -1  17    0.46    0.24
   0  -1  17    0.84    0.19
  -1   1 -17   15.45    0.89
  -1   1 -17   15.02    1.19
  -1   1 -17   15.57    0.82
  -1   1 -17   12.85    1.33
   1  -1  17   15.34    1.11
   1  -1  17   15.00    1.16
   1  -1  17   16.16    0.92
  -2   1 -17    5.08    0.48
  -2   1 -17    5.95    0.82
  -2   1 -17    5.25    0.55
   2  -1  17    5.70    0.58
   2  -1  17    5.20    0.71
   2  -1  17    4.84    0.69
  -3   1 -17    1.77    0.40
  -3   1 -17    2.20    0.45
  -3   1 -17    2.18    0.67
   3  -1  17    1.21    0.44
   3  -1  17    1.64    0.41
   3  -1  17    1.30    0.48
  -4   1 -17    3.70    0.63
   4  -1  17    1.68    0.52
   4  -1  17    2.06    0.61
   4   0 -17    4.68    0.81
   3   0 -17    1.78    0.50
   3   0 -17    0.93    0.50
  -3   0  17    2.13    0.46
   2   0 -17   10.55    0.93
   2   0 -17    9.88    0.93
  -2   0  17    7.38    0.85
  -2   0  17    8.43    0.80
  -2   0  17    8.76    0.69
   1   0 -17   23.30    1.50
   1   0 -17   22.36    1.44
  -1   0  17   20.02    1.15
  -1   0  17   22.43    1.43
  -1   0  17   21.87    1.38
   0   0 -17    4.80    0.66
   0   0 -17    3.82    0.59
   0   0  17    3.95    0.57
   0   0  17    3.22    0.41
   0   0  17    4.09    0.37
   0   0  17    3.31    0.50
  -1   0 -17    1.70    0.21
  -1   0 -17    1.62    0.32
  -1   0 -17    1.10    0.46
   1   0  17    2.11    0.47
   1   0  17    1.68    0.29
   1   0  17    1.96    0.45
  -2   0 -17   20.39    1.04
  -2   0 -17   17.99    1.31
  -2   0 -17   18.79    1.02
  -2   0 -17   15.72    1.40
   2   0  17   21.14    1.17
   2   0  17   18.93    1.38
   2   0  17   19.96    1.27
  -3   0 -17    5.16    0.52
  -3   0 -17    5.77    0.86
  -3   0 -17    5.41    0.54
   3   0  17    5.15    0.70
   3   0  17    5.54    0.63
   3   0  17    4.16    0.67
  -4   0 -17    1.17    0.42
  -4   0 -17    1.37    0.41
  -4   0 -17    0.51    0.52
   4   0  17    0.58    0.43
   4   0  17    0.72    0.40
   4   0  17    0.70    0.44
  -5   0 -17    2.18    0.55
   5   0  17    0.94    0.49
   5   0  17    0.83    0.42
   3  -1 -17    2.08    0.64
  -3   1  17    2.43    0.50
   2  -1 -17   15.45    1.20
  -2   1  17   15.46    1.11
  -2   1  17   16.07    0.99
   1  -1 -17   34.33    1.94
   1  -1 -17   31.99    1.90
  -1   1  17   30.81    1.86
  -1   1  17   29.28    1.85
  -1   1  17   29.36    1.55
   0  -1 -17    2.60    0.52
   0  -1 -17    2.84    0.52
   0   1  17    2.46    0.48
   0   1  17    2.91    0.51
   0   1  17    1.82    0.33
  -1  -1 -17    7.56    0.84
  -1  -1 -17    9.47    0.55
   1   1  17    9.48    0.79
   1   1  17    9.67    0.88
   1   1  17    8.56    0.69
  -2  -1 -17    1.35    0.46
  -2  -1 -17    2.93    0.37
  -2  -1 -17    1.73    0.35
   2   1  17    1.95    0.48
   2   1  17    1.64    0.43
   2   1  17    3.14    0.46
  -3  -1 -17    8.54    0.88
  -3  -1 -17    8.75    0.67
  -3  -1 -17    8.36    0.64
   3   1  17    9.14    0.97
   3   1  17    9.45    0.81
   3   1  17    9.09    0.77
  -4  -1 -17    1.18    0.39
  -4  -1 -17    1.15    0.55
  -4  -1 -17    1.02    0.34
   4   1  17    1.12    0.41
   4   1  17    0.36    0.42
  -5  -1 -17    5.55    0.71
   5   1  17    5.32    0.80
   3  -2 -17    3.78    0.62
   2  -2 -17    0.19    0.45
   2  -2 -17    0.27    0.32
  -2   2  17   -0.02    0.60
  -2   2  17    0.26    0.46
  -2   2  17   -0.09    0.27
  -2   2  17    0.04    0.28
   1  -2 -17   10.21    0.97
   1  -2 -17    8.85    0.87
  -1   2  17    7.86    0.82
  -1   2  17    8.67    0.89
  -1   2  17    9.88    0.73
  -1   2  17    8.36    1.54
   0  -2 -17    6.09    0.76
   0  -2 -17    5.67    0.73
   0   2  17    4.75    0.93
   0   2  17    5.71    0.58
   0   2  17    6.15    0.69
   0   2  17    5.99    0.75
  -1  -2 -17   28.06    1.71
   1   2  17   28.33    2.38
   1   2  17   28.23    1.43
   1   2  17   27.68    1.63
   1   2  17   27.73    1.75
  -2  -2 -17    3.27    0.40
  -2  -2 -17    2.63    0.55
  -2  -2 -17    2.52    0.47
   2   2  17    2.84    0.48
   2   2  17    3.05    0.64
   2   2  17    3.81    0.53
   2   2  17    3.45    0.56
  -3  -2 -17    9.96    0.93
  -3  -2 -17   11.24    0.79
   3   2  17   10.53    0.83
   3   2  17   10.63    1.03
   3   2  17   11.60    0.89
   3   2  17   10.18    1.11
  -4  -2 -17    0.81    0.50
  -4  -2 -17    1.68    0.42
   4   2  17    1.01    0.49
   4   2  17    1.34    0.43
  -5  -2 -17    2.86    0.56
   5   2  17    2.00    0.60
   5   2  17    2.91    0.60
   2  -3 -17    2.84    0.70
  -2   3  17    1.94    0.93
  -2   3  17    3.88    0.61
   1  -3 -17   -0.22    0.29
  -1   3  17    0.07    0.29
  -1   3  17   -0.04    0.69
  -1   3  17   -0.07    0.31
   0  -3 -17    9.95    0.64
   0   3  17    9.66    0.74
   0   3  17    9.17    0.94
   0   3  17    8.25    1.60
   0   3  17    9.59    0.92
  -1  -3 -17    2.79    0.60
   1   3  17    1.95    0.50
   1   3  17    1.91    0.37
   1   3  17    2.30    0.50
  -2  -3 -17    0.35    0.39
   2   3  17   -0.08    0.33
   2   3  17    0.52    0.26
   2   3  17    0.30    0.32
  -3  -3 -17    1.41    0.46
  -3  -3 -17    1.56    0.42
   3   3  17    0.93    0.46
   3   3  17    1.24    0.35
  -4  -3 -17    7.69    0.75
  -4  -3 -17    7.45    0.83
   4   3  17    7.35    1.00
   4   3  17    8.05    0.80
   4   3  17    8.04    0.72
  -5  -3 -17    0.80    0.43
   5   3  17    0.13    0.52
   5   3  17    0.80    0.40
   1  -4 -17    0.44    0.49
  -1   4  17    0.62    0.36
   0  -4 -17    2.12    0.62
   0  -4 -17    2.50    0.45
   0   4  17    1.54    0.40
  -1  -4 -17    0.07    0.20
   1   4  17    0.35    0.30
  -2  -4 -17    2.55    0.38
   2   4  17    2.03    0.38
  -3  -4 -17    3.32    0.40
  -3  -4 -17    3.24    0.58
   3   4  17    2.91    0.47
  -4  -4 -17    2.72    0.59
  -4  -4 -17    3.35    0.46
  -4  -4 -17    3.13    0.55
   4   4  17    2.56    0.44
   4   4  17    2.60    0.57
   4   4  17    2.32    0.69
  -5  -4 -17    3.81    0.73
   5   4  17    2.18    0.56
   0  -5 -17    0.14    0.34
  -1  -5 -17    0.19    0.31
   1   5  17    0.27    0.32
  -2  -5 -17    3.58    0.52
   2   5  17    3.15    0.48
  -3  -5 -17    0.63    0.32
  -3  -5 -17    0.44    0.43
   3   5  17    0.66    0.30
  -4  -5 -17    0.56    0.35
   2   5 -18   -1.11    0.43
  -2  -5  18   -0.27    0.26
  -1  -5  18    0.14    0.28
  -3  -4  18    0.40    0.46
  -3  -4  18    0.56    0.30
   2   4 -18    6.71    0.76
  -2  -4  18    6.64    0.86
  -2  -4  18    6.50    0.59
   1   4 -18    2.04    0.63
  -1  -4  18    3.86    0.51
  -1  -4  18    3.21    0.67
   0  -4  18    2.02    0.60
   0  -4  18    2.30    0.42
   1  -4  18    1.06    0.57
   1  -4  18    1.79    0.42
   2  -4  18    0.91    0.46
  -4  -3  18    1.89    0.57
   3   3 -18    1.03    0.50
  -3  -3  18    0.65    0.29
  -3  -3  18    1.40    0.48
  -3  -3  18    1.09    0.32
   2   3 -18    0.68    0.47
   2   3 -18    0.69    0.48
   2   3 -18    0.96    0.38
  -2  -3  18    0.56    0.23
  -2  -3  18    1.24    0.45
  -2  -3  18    0.79    0.31
   1   3 -18    3.97    0.71
   1   3 -18    6.12    0.86
   1   3 -18    5.52    0.64
  -1  -3  18    5.05    0.58
  -1  -3  18    5.72    0.77
  -1  -3  18    5.95    0.46
   0   3 -18    8.75    1.04
   0   3 -18    9.62    0.80
   0   3 -18    6.93    1.02
   0  -3  18    8.64    0.92
   0  -3  18    8.16    0.58
  -1   3 -18    6.33    0.97
   1  -3  18    5.67    0.62
   1  -3  18    5.27    0.49
   1  -3  18    5.01    0.76
   2  -3  18    2.82    0.52
   2  -3  18    3.48    0.75
   3  -3  18    1.23    0.47
  -4  -2  18    2.59    0.43
  -4  -2  18    2.48    0.67
   3   2 -18   13.73    1.22
  -3  -2  18   16.50    0.95
  -3  -2  18   15.05    1.19
   2   2 -18    5.79    0.82
   2   2 -18    6.93    0.92
  -2  -2  18    7.04    0.62
  -2  -2  18    7.15    0.78
  -2  -2  18    6.78    0.48
   1   2 -18    2.22    0.56
   1   2 -18    2.84    0.49
   1   2 -18    1.82    0.54
  -1  -2  18    2.15    0.39
  -1  -2  18    2.93    0.57
   0   2 -18    9.36    0.94
   0   2 -18    8.03    0.94
   0   2 -18    9.67    0.70
   0  -2  18    8.81    0.60
   0  -2  18    8.77    0.86
  -1   2 -18    5.20    0.60
  -1   2 -18    4.24    0.83
   1  -2  18    4.31    0.51
   1  -2  18    5.78    0.79
  -2   2 -18    0.31    0.37
  -2   2 -18    0.36    0.54
   2  -2  18    0.11    0.31
   2  -2  18   -0.16    0.40
  -3   2 -18    3.25    0.82
   3  -2  18    2.74    0.55
   3  -2  18    2.29    0.65
   4  -2  18   -0.12    0.40
  -4  -1  18    0.33    0.32
   3   1 -18    2.03    0.57
   3   1 -18    1.06    0.56
  -3  -1  18    1.97    0.59
  -3  -1  18    2.07    0.41
   2   1 -18    0.77    0.38
   2   1 -18    0.86    0.46
  -2  -1  18    0.68    0.40
  -2  -1  18    0.62    0.29
   1   1 -18   17.46    1.25
   1   1 -18   16.31    1.28
  -1  -1  18   17.68    1.21
  -1  -1  18   15.91    1.16
  -1  -1  18   16.46    0.98
   0   1 -18   38.93    2.20
   0   1 -18   36.93    1.77
   0   1 -18   37.43    2.25
   0  -1  18   36.37    2.12
   0  -1  18   36.29    1.82
   0  -1  18   38.89    1.88
   0  -1  18   37.49    2.23
  -1   1 -18    8.84    0.93
  -1   1 -18   11.41    0.60
  -1   1 -18   10.85    0.72
  -1   1 -18    7.58    1.04
   1  -1  18    9.66    0.88
   1  -1  18   10.79    0.70
   1  -1  18    9.83    0.94
  -2   1 -18    5.40    0.47
  -2   1 -18    5.92    0.61
  -2   1 -18    5.06    0.80
   2  -1  18    5.00    0.58
   2  -1  18    4.59    0.68
   2  -1  18    6.26    0.80
  -3   1 -18    3.52    0.56
  -3   1 -18    3.71    0.82
  -3   1 -18    4.02    0.49
   3  -1  18    3.67    0.66
   3  -1  18    3.06    0.60
   3  -1  18    3.05    0.52
  -4   1 -18    2.13    0.48
   4  -1  18    1.50    0.53
   4  -1  18    1.83    0.58
   3   0 -18    0.19    0.33
  -3   0  18    0.35    0.30
   2   0 -18    8.39    0.87
   2   0 -18    8.33    0.94
  -2   0  18    7.56    0.78
  -2   0  18    7.71    0.81
  -2   0  18    7.54    0.67
   1   0 -18    6.65    0.85
   1   0 -18    3.46    0.57
  -1   0  18    4.97    0.53
  -1   0  18    4.58    0.67
  -1   0  18    5.86    0.74
   0   0 -18    8.74    0.90
   0   0 -18    9.44    0.93
   0   0  18   10.32    0.92
   0   0  18    9.97    0.88
   0   0  18    9.29    0.72
   0   0  18   10.13    0.64
  -1   0 -18   16.38    0.92
  -1   0 -18   12.80    1.36
  -1   0 -18   18.27    0.85
  -1   0 -18   14.38    1.19
   1   0  18   15.24    1.12
   1   0  18   15.72    1.21
   1   0  18   18.18    0.98
  -2   0 -18    5.54    0.79
  -2   0 -18    4.96    0.43
  -2   0 -18    4.82    0.53
   2   0  18    5.34    0.73
   2   0  18    4.88    0.67
   2   0  18    5.79    0.57
  -3   0 -18   10.39    0.73
  -3   0 -18    9.46    1.04
  -3   0 -18    9.87    0.73
   3   0  18    9.23    0.89
   3   0  18    8.56    1.02
   3   0  18    9.99    0.84
  -4   0 -18    0.84    0.57
  -4   0 -18    0.67    0.35
  -4   0 -18    0.79    0.39
   4   0  18    0.14    0.38
   4   0  18    0.40    0.44
  -5   0 -18    2.10    0.59
   5   0  18    1.34    0.49
   5   0  18    0.31    0.47
  -3   1  18    4.11    0.59
   2  -1 -18    9.07    0.98
   2  -1 -18    9.93    0.97
  -2   1  18    8.80    0.73
  -2   1  18    7.19    0.79
  -2   1  18    8.11    0.89
   1  -1 -18   14.89    1.18
   1  -1 -18   15.60    1.17
  -1   1  18   14.25    1.13
  -1   1  18   15.41    1.11
  -1   1  18   14.40    0.94
   0  -1 -18    7.23    0.83
   0  -1 -18    7.04    0.83
   0   1  18    7.61    0.77
   0   1  18    8.09    0.80
   0   1  18    7.37    0.63
  -1  -1 -18    6.04    0.79
  -1  -1 -18    5.76    0.42
   1   1  18    6.62    0.57
   1   1  18    5.83    0.77
   1   1  18    5.66    0.69
   1   1  18    6.34    0.61
  -2  -1 -18   21.37    1.07
  -2  -1 -18   18.10    1.31
  -2  -1 -18   17.49    1.50
   2   1  18   18.09    1.21
   2   1  18   20.84    1.20
   2   1  18   18.35    1.37
  -3  -1 -18    2.69    0.42
  -3  -1 -18    1.69    0.53
   3   1  18    2.07    0.45
   3   1  18    2.31    0.57
   3   1  18    2.43    0.51
  -4  -1 -18    1.63    0.41
  -4  -1 -18    1.54    0.39
  -4  -1 -18    1.91    0.60
   4   1  18    0.95    0.42
   4   1  18    0.66    0.49
  -5  -1 -18    2.99    0.60
   5   1  18    3.16    0.65
   5   1  18    1.19    0.59
   3  -2 -18    0.21    0.35
   2  -2 -18    0.11    0.34
   2  -2 -18    0.15    0.47
  -2   2  18   -0.35    0.29
  -2   2  18    0.07    0.60
  -2   2  18    0.26    0.44
  -2   2  18    1.27    0.39
   1  -2 -18   13.10    1.09
   1  -2 -18   13.72    1.19
  -1   2  18   13.21    1.06
  -1   2  18   14.26    0.93
  -1   2  18   12.81    1.12
  -1   2  18   13.41    1.77
   0  -2 -18    7.48    0.83
   0  -2 -18    6.72    0.81
   0   2  18    6.87    0.65
   0   2  18    7.16    0.78
   0   2  18    8.91    0.84
   0   2  18    7.52    1.38
  -1  -2 -18    2.16    0.53
   1   2  18    3.09    0.54
   1   2  18    1.69    0.61
   1   2  18    3.02    0.46
   1   2  18    2.01    0.43
  -2  -2 -18    3.32    0.56
  -2  -2 -18    4.15    0.45
  -2  -2 -18    4.70    0.69
   2   2  18    3.36    0.56
   2   2  18    4.20    0.56
   2   2  18    3.23    0.68
   2   2  18    4.50    0.59
  -3  -2 -18    1.21    0.49
  -3  -2 -18    2.22    0.43
   3   2  18    0.91    0.48
   3   2  18    1.11    0.39
   3   2  18    0.87    0.36
  -4  -2 -18    2.45    0.61
  -4  -2 -18    3.32    0.55
   4   2  18    2.48    0.50
   4   2  18    1.95    0.64
  -5  -2 -18    0.62    0.40
   5   2  18   -0.44    0.47
   5   2  18    0.01    0.36
   2  -3 -18    1.70    0.63
  -2   3  18    1.60    0.45
   1  -3 -18    0.35    0.36
  -1   3  18    0.71    0.35
  -1   3  18    1.19    0.43
   0   3  18    2.17    0.48
   0   3  18    4.25    0.57
   0   3  18    2.52    0.61
   0   3  18    1.97    0.86
  -1  -3 -18   15.06    1.27
   1   3  18   14.60    1.89
   1   3  18   17.34    1.23
   1   3  18   18.07    1.03
   1   3  18   16.93    1.30
  -2  -3 -18   10.31    0.94
   2   3  18    8.52    0.81
   2   3  18   10.31    0.76
   2   3  18   11.21    1.08
  -3  -3 -18    1.92    0.54
  -3  -3 -18    2.58    0.49
   3   3  18    2.02    0.43
   3   3  18    1.41    0.55
  -4  -3 -18    6.10    0.78
  -4  -3 -18    6.28    0.69
   4   3  18    4.12    0.78
   4   3  18    5.91    0.70
   4   3  18    6.09    0.73
  -5  -3 -18    0.94    0.47
   5   3  18    0.42    0.38
   5   3  18   -0.37    0.46
   1  -4 -18    2.19    0.68
  -1   4  18    2.37    0.49
   0  -4 -18    2.41    0.43
   0  -4 -18    1.96    0.62
   0   4  18    2.28    0.46
   1   4  18    9.84    0.79
  -2  -4 -18    5.29    0.81
   2   4  18    4.95    0.60
  -3  -4 -18    0.10    0.39
   3   4  18    0.07    0.29
  -4  -4 -18    1.66    0.54
  -4  -4 -18    1.79    0.47
   4   4  18    1.16    0.37
   4   4  18    1.93    0.49
  -5  -4 -18    0.51    0.49
   5   4  18    0.48    0.50
   0  -5 -18    0.93    0.42
  -1  -5 -18    6.76    0.67
   1   5  18    7.35    0.73
   2   5  18    4.72    0.58
   3   5  18    2.82    0.44
   3   4 -19    0.54    0.48
  -3  -4  19    1.11    0.52
  -3  -4  19    1.23    0.37
   2   4 -19    4.74    0.67
   2   4 -19    2.89    0.74
  -2  -4  19    5.20    0.51
  -2  -4  19    3.88    0.71
   1   4 -19    1.61    0.65
  -1  -4  19    1.80    0.39
  -1  -4  19    1.94    0.59
  -1  -4  19    1.75    0.46
   0   4 -19    3.20    0.86
   0  -4  19    3.07    0.49
   0  -4  19    2.67    0.67
  -4  -3  19    4.56    0.79
  -3  -3  19    3.89    0.46
  -3  -3  19    4.54    0.74
  -3  -3  19    4.66    0.55
   2   3 -19   11.90    1.13
   2   3 -19   13.36    0.93
   2   3 -19   11.33    1.28
  -2  -3  19   12.55    0.86
  -2  -3  19   12.43    0.78
  -2  -3  19   12.02    1.05
   1   3 -19   11.55    0.89
   1   3 -19   11.20    1.13
   1   3 -19    8.48    1.12
  -1  -3  19   10.29    0.98
  -1  -3  19   10.01    0.80
   0   3 -19   11.70    1.23
   0   3 -19   12.25    1.28
   0   3 -19   15.28    1.02
   0  -3  19   12.73    1.11
  -1   3 -19    3.30    0.82
   1  -3  19    2.60    0.67
   1  -3  19    2.73    0.47
  -2   3 -19    1.88    0.74
   2  -3  19    1.29    0.59
   2  -3  19    1.07    0.41
   3  -3  19    1.62    0.51
   3  -3  19    2.46    0.69
  -4  -2  19    0.31    0.29
   3   2 -19    1.10    0.48
  -3  -2  19    1.56    0.37
  -3  -2  19    1.30    0.51
   2   2 -19    3.82    0.70
   2   2 -19    3.37    0.66
  -2  -2  19    5.21    0.75
  -2  -2  19    4.06    0.51
   1   2 -19    1.93    0.42
   1   2 -19    1.66    0.50
   1   2 -19    2.13    0.60
  -1  -2  19    2.02    0.41
  -1  -2  19    1.99    0.51
   0   2 -19    8.45    0.93
   0   2 -19    7.32    0.93
   0   2 -19    9.43    0.72
   0  -2  19    7.16    0.55
   0  -2  19    8.52    0.87
  -1   2 -19   26.11    1.84
  -1   2 -19   29.48    1.49
   1  -2  19   27.29    1.51
   1  -2  19   26.22    1.73
  -2   2 -19    0.95    0.43
  -2   2 -19    0.66    0.61
   2  -2  19    1.00    0.52
   2  -2  19    0.22    0.33
  -3   2 -19    2.92    0.84
   3  -2  19    1.64    0.47
   3  -2  19    2.36    0.65
  -4  -1  19    4.03    0.55
   3   1 -19    5.86    0.90
   3   1 -19    4.88    0.84
  -3  -1  19    5.44    0.60
  -3  -1  19    4.88    0.79
   2   1 -19    6.25    0.90
   2   1 -19    7.08    0.87
  -2  -1  19    7.58    0.66
  -2  -1  19    6.51    0.83
   1   1 -19    0.77    0.40
   1   1 -19    0.05    0.39
  -1  -1  19    0.48    0.34
  -1  -1  19    0.25    0.37
  -1  -1  19    0.21    0.26
   0   1 -19    3.61    0.51
   0   1 -19    3.34    0.62
   0   1 -19    2.77    0.57
   0  -1  19    2.40    0.48
   0  -1  19    2.86    0.47
   0  -1  19    3.12    0.33
   0  -1  19    2.70    0.53
  -1   1 -19    0.06    0.38
  -1   1 -19    0.15    0.15
  -1   1 -19   -0.01    0.26
   1  -1  19    0.20    0.20
   1  -1  19    0.70    0.39
   1  -1  19    0.06    0.35
  -2   1 -19    7.64    1.01
  -2   1 -19    7.10    0.66
  -2   1 -19    7.42    0.55
   2  -1  19    6.03    0.81
   2  -1  19    6.44    0.65
  -3   1 -19    4.20    0.82
  -3   1 -19    5.00    0.54
  -3   1 -19    4.65    0.64
   3  -1  19    3.48    0.66
   3  -1  19    4.46    0.62
   3  -1  19    4.84    0.75
  -4   1 -19    3.08    0.86
  -4   1 -19    5.27    0.74
   4  -1  19    2.58    0.67
   4  -1  19    2.87    0.64
   3   0 -19    4.64    0.74
  -3   0  19    6.26    0.66
  -3   0  19    5.01    0.81
   2   0 -19   11.28    1.07
   2   0 -19   10.79    1.05
  -2   0  19   10.39    0.95
  -2   0  19   12.18    0.84
  -2   0  19   11.25    1.02
   1   0 -19    4.55    0.72
   1   0 -19    4.34    0.69
  -1   0  19    3.99    0.59
  -1   0  19    3.66    0.49
  -1   0  19    4.71    0.71
   0   0 -19    2.48    0.60
   0   0 -19    2.42    0.57
   0   0  19    1.83    0.46
   0   0  19    2.91    0.35
   0   0  19    3.11    0.58
   0   0  19    2.36    0.42
  -1   0 -19   12.59    1.06
  -1   0 -19   13.14    0.68
  -1   0 -19   11.66    0.79
   1   0  19   12.63    1.07
   1   0  19   10.85    0.96
   1   0  19   12.23    0.83
   1   0  19   12.99    0.81
  -2   0 -19    9.34    0.98
  -2   0 -19    9.55    0.73
  -2   0 -19   10.27    0.65
   2   0  19    9.26    0.99
   2   0  19   10.81    0.78
   2   0  19    9.60    0.89
  -3   0 -19    0.21    0.53
  -3   0 -19    0.36    0.27
  -3   0 -19   -0.03    0.28
   3   0  19    0.50    0.41
   3   0  19    0.22    0.42
   3   0  19    0.29    0.31
  -4   0 -19   -0.06    0.53
  -4   0 -19    0.08    0.33
  -4   0 -19   -0.01    0.31
   4   0  19   -0.41    0.32
   4   0  19   -0.56    0.37
  -5   0 -19    0.45    0.43
   5   0  19    0.05    0.40
  -3   1  19    3.83    0.61
   2  -1 -19    6.24    0.83
   2  -1 -19    6.40    0.91
  -2   1  19    5.77    0.84
  -2   1  19    5.29    0.73
  -2   1  19    6.92    0.69
   1  -1 -19   24.93    1.67
   1  -1 -19   25.21    1.65
  -1   1  19   23.98    1.60
  -1   1  19   24.63    1.62
  -1   1  19   25.18    1.36
   0  -1 -19    3.73    0.59
   0  -1 -19    4.86    0.71
   0   1  19    4.73    0.65
   0   1  19    4.48    0.53
   0   1  19    4.17    0.62
  -1  -1 -19    8.32    0.84
   1   1  19    8.40    0.90
   1   1  19    8.62    0.82
   1   1  19    9.10    0.68
   1   1  19    7.75    0.70
  -2  -1 -19    0.63    0.25
  -2  -1 -19    1.05    0.45
   2   1  19    1.04    0.31
   2   1  19    0.65    0.37
   2   1  19    0.53    0.38
  -3  -1 -19    1.27    0.55
  -3  -1 -19    1.67    0.40
   3   1  19    1.15    0.38
   3   1  19    1.10    0.51
   3   1  19    1.39    0.45
  -4  -1 -19    2.03    0.66
  -4  -1 -19    1.88    0.42
  -4  -1 -19    2.37    0.51
   4   1  19    1.16    0.55
   4   1  19    1.75    0.49
  -5  -1 -19    1.96    0.52
   5   1  19    1.35    0.55
   5   1  19    0.67    0.54
   2  -2 -19    9.88    1.02
   2  -2 -19    9.55    1.09
  -2   2  19    7.83    0.89
  -2   2  19    9.92    0.81
   1  -2 -19    2.86    0.56
   1  -2 -19    3.83    0.75
  -1   2  19    2.99    0.61
  -1   2  19    2.46    0.48
  -1   2  19    3.56    0.55
  -1   2  19    2.18    0.79
   0  -2 -19    8.65    0.93
   0  -2 -19    9.92    0.98
   0   2  19    8.88    0.73
   0   2  19    8.79    0.89
   0   2  19    9.24    0.89
   0   2  19    8.48    1.51
  -1  -2 -19    9.57    0.95
   1   2  19    9.32    0.75
   1   2  19    9.36    1.40
   1   2  19    9.40    0.94
   1   2  19   10.40    0.87
  -2  -2 -19   24.87    1.62
  -2  -2 -19   27.02    1.40
   2   2  19   26.04    1.39
   2   2  19   26.39    2.19
   2   2  19   23.97    1.52
   2   2  19   25.77    1.75
  -3  -2 -19    5.91    0.59
  -3  -2 -19    6.93    0.85
   3   2  19    6.11    0.68
   3   2  19    6.02    0.71
   3   2  19    4.06    0.72
  -4  -2 -19    1.69    0.47
  -4  -2 -19    1.56    0.56
   4   2  19    0.85    0.40
   4   2  19    0.44    0.52
  -5  -2 -19    0.69    0.41
   5   2  19   -0.41    0.51
   5   2  19    0.12    0.40
   2  -3 -19    0.13    0.53
  -2   3  19    0.54    0.41
  -2   3  19   -0.43    0.71
   1  -3 -19    0.99    0.43
  -1   3  19    1.39    0.45
  -1   3  19    2.01    0.44
   0   3  19    2.54    0.61
   0   3  19    1.73    0.83
   0   3  19    2.47    0.50
   0   3  19    2.97    0.47
  -1  -3 -19    1.32    0.54
   1   3  19    0.72    0.68
   1   3  19    1.39    0.51
   1   3  19    1.29    0.36
   1   3  19    1.01    0.43
  -2  -3 -19   10.15    0.98
   2   3  19   11.83    1.10
   2   3  19    9.60    0.79
  -3  -3 -19    4.90    0.60
  -3  -3 -19    4.58    0.73
   3   3  19    5.63    0.86
   3   3  19    4.93    0.59
   3   3  19    5.15    0.68
  -4  -3 -19    8.96    0.92
  -4  -3 -19    8.97    0.81
   4   3  19    8.62    0.86
   4   3  19    9.23    0.79
   4   3  19    7.10    1.03
  -5  -3 -19    1.72    0.57
   5   3  19    0.97    0.65
   5   3  19    2.50    0.59
  -1   4  19    2.95    0.60
   0  -4 -19    8.61    1.06
   0   4  19    9.42    0.82
   1   4  19    5.64    0.66
   1   4  19    4.69    0.77
  -2  -4 -19   -0.23    0.44
   2   4  19    0.55    0.35
  -3  -4 -19    0.16    0.42
   3   4  19    0.65    0.36
  -4  -4 -19    1.09    0.47
  -4  -4 -19    1.50    0.53
   4   4  19    1.01    0.36
   4   4  19    1.31    0.47
  -5  -4 -19    3.61    0.72
   1   5  19    1.88    0.46
   2   5  19    8.66    0.78
   3   5  19    1.50    0.38
  -3  -4  20    2.84    0.51
   2   4 -20   -0.02    0.40
   2   4 -20   -0.35    0.45
  -2  -4  20    0.07    0.43
   1   4 -20    1.46    0.67
   1   4 -20    3.68    0.70
  -1  -4  20    1.95    0.47
  -1  -4  20    1.97    0.60
   0   4 -20    3.12    0.81
   0  -4  20    2.65    0.66
  -1   4 -20    2.16    0.78
   3   3 -20    0.45    0.48
  -3  -3  20   -0.18    0.42
  -3  -3  20    0.41    0.30
   2   3 -20    2.74    0.71
   2   3 -20    3.04    0.56
  -2  -3  20    2.83    0.63
  -2  -3  20    3.69    0.54
   1   3 -20    4.50    0.63
   1   3 -20    3.71    0.77
   1   3 -20    4.35    0.85
  -1  -3  20    4.14    0.56
  -1  -3  20    5.67    0.80
   0   3 -20    9.53    1.11
   0   3 -20    8.83    0.87
   0  -3  20    7.51    0.95
  -1   3 -20    0.08    0.54
   1  -3  20    0.22    0.47
  -2   3 -20   -0.21    0.58
   2  -3  20   -0.11    0.33
   2  -3  20    0.22    0.54
  -4  -2  20    2.49    0.46
   3   2 -20    2.57    0.66
  -3  -2  20    2.68    0.64
  -3  -2  20    4.30    0.53
   2   2 -20    4.15    0.82
   2   2 -20    3.83    0.77
  -2  -2  20    3.86    0.68
  -2  -2  20    4.93    0.62
   1   2 -20    4.10    0.76
   1   2 -20    5.65    0.66
   1   2 -20    5.06    0.83
  -1  -2  20    5.45    0.61
  -1  -2  20    6.35    0.84
   0   2 -20    5.69    0.85
   0   2 -20    5.33    0.82
   0   2 -20    5.56    0.63
   0  -2  20    4.85    0.76
  -1   2 -20    7.92    0.78
  -1   2 -20    9.10    1.06
   1  -2  20    6.69    0.64
   1  -2  20    8.05    0.93
  -2   2 -20    6.44    0.75
  -2   2 -20    6.00    0.98
   2  -2  20    4.22    0.72
   2  -2  20    4.60    0.64
  -3   2 -20    0.37    0.62
   3  -2  20    0.40    0.39
   3  -2  20    0.37    0.53
  -4  -1  20    0.39    0.35
   3   1 -20    5.13    0.85
   3   1 -20    4.12    0.86
  -3  -1  20    4.85    0.59
  -3  -1  20    4.64    0.80
   2   1 -20   11.90    1.15
   2   1 -20   14.24    1.28
  -2  -1  20   13.41    0.90
  -2  -1  20   12.35    1.11
   1   1 -20    0.21    0.42
   1   1 -20    0.21    0.41
  -1  -1  20   -0.31    0.36
  -1  -1  20    0.31    0.27
  -1  -1  20    0.26    0.33
   0   1 -20    0.59    0.47
   0   1 -20    0.68    0.32
   0   1 -20    0.58    0.43
   0  -1  20    0.37    0.29
   0  -1  20    0.33    0.36
   0  -1  20    0.32    0.39
   0  -1  20    0.64    0.20
  -1   1 -20   17.18    1.03
  -1   1 -20   16.14    1.29
   1  -1  20   15.21    1.26
   1  -1  20   15.84    1.20
   1  -1  20   16.81    1.00
  -2   1 -20   10.26    0.83
  -2   1 -20    9.72    1.08
  -2   1 -20    9.89    0.69
   2  -1  20    9.20    0.79
   2  -1  20    8.65    0.98
   2  -1  20   10.59    0.99
  -3   1 -20    2.70    0.53
  -3   1 -20    3.36    0.53
  -3   1 -20    3.07    0.82
   3  -1  20    2.16    0.49
   3  -1  20    2.16    0.60
   3  -1  20    2.27    0.56
  -4   1 -20    0.46    0.38
   4  -1  20   -0.16    0.38
  -4   0  20    1.76    0.48
   3   0 -20    0.51    0.53
   3   0 -20    0.16    0.37
  -3   0  20    1.11    0.38
   2   0 -20    3.28    0.67
   2   0 -20    4.68    0.87
  -2   0  20    5.30    0.81
  -2   0  20    4.54    0.62
  -2   0  20    3.63    0.52
   1   0 -20    9.81    1.00
   1   0 -20   10.67    1.07
  -1   0  20   10.11    0.95
  -1   0  20   10.04    0.76
  -1   0  20    9.82    0.94
  -1   0  20   10.32    0.63
   0   0 -20   29.48    1.84
   0   0 -20   29.02    1.89
   0   0  20   30.18    1.88
   0   0  20   27.98    1.76
   0   0  20   29.71    1.53
   0   0  20   30.22    1.55
  -1   0 -20    4.83    0.75
   1   0  20    2.86    0.46
   1   0  20    4.44    0.46
   1   0  20    5.35    0.72
   1   0  20    3.34    0.57
  -2   0 -20    6.79    0.92
  -2   0 -20    6.63    0.64
  -2   0 -20    6.41    0.49
   2   0  20    6.16    0.61
   2   0  20    6.52    0.77
   2   0  20    4.19    0.69
  -3   0 -20   16.49    1.42
  -3   0 -20   19.47    1.12
  -3   0 -20   19.26    1.12
   3   0  20   17.01    1.45
   3   0  20   17.74    1.32
   3   0  20   19.32    1.24
  -4   0 -20    1.32    0.65
  -4   0 -20    2.10    0.49
  -4   0 -20    3.21    0.57
   4   0  20    1.37    0.56
   4   0  20    1.73    0.55
   5   0  20    0.02    0.41
   3  -1 -20    0.25    0.39
  -3   1  20    0.31    0.35
   2  -1 -20    2.41    0.58
   2  -1 -20    2.62    0.69
  -2   1  20    2.73    0.52
  -2   1  20    3.20    0.52
  -2   1  20    3.20    0.71
   1  -1 -20    1.32    0.50
   1  -1 -20    1.30    0.57
  -1   1  20    0.80    0.36
  -1   1  20    1.73    0.56
  -1   1  20    1.41    0.36
   0  -1 -20    1.94    0.53
   0  -1 -20    1.15    0.42
   0   1  20    1.62    0.40
   0   1  20    1.57    0.43
   0   1  20    2.55    0.54
  -1  -1 -20    3.55    0.66
   1   1  20    4.45    0.56
   1   1  20    4.60    0.65
   1   1  20    4.59    0.51
   1   1  20    4.52    0.65
  -2  -1 -20    6.97    0.53
  -2  -1 -20    6.64    0.88
   2   1  20    5.98    0.71
   2   1  20    5.52    0.76
   2   1  20    7.03    0.65
   2   1  20    6.39    0.67
  -3  -1 -20    7.73    0.65
  -3  -1 -20    7.28    0.93
   3   1  20    7.60    0.83
   3   1  20    7.71    0.75
   3   1  20    6.65    1.00
  -4  -1 -20    2.20    0.66
  -4  -1 -20    3.11    0.54
   4   1  20    2.86    0.59
   4   1  20    2.16    0.65
  -5  -1 -20    2.38    0.56
   5   1  20    2.38    0.65
   5   1  20    1.32    0.63
   3  -2 -20    0.59    0.53
   2  -2 -20    0.00    0.46
   2  -2 -20   -0.27    0.32
  -2   2  20    0.02    0.32
  -2   2  20   -0.62    0.32
   1  -2 -20    2.51    0.59
  -1   2  20    4.41    0.62
  -1   2  20    2.07    0.79
  -1   2  20    2.25    0.49
   0  -2 -20    8.50    0.95
   0   2  20    7.82    0.72
   0   2  20    7.60    0.88
   0   2  20    7.36    1.44
   0   2  20    8.67    0.95
  -1  -2 -20    3.09    0.64
   1   2  20    2.33    0.55
   1   2  20    2.07    0.50
   1   2  20    1.61    0.65
   1   2  20    3.14    0.52
  -2  -2 -20    8.56    0.66
  -2  -2 -20    7.66    0.89
   2   2  20    8.46    1.26
   2   2  20   10.08    0.82
   2   2  20    9.33    1.00
   2   2  20    8.39    0.79
   2   2  20    9.40    0.78
  -3  -2 -20    6.34    0.85
  -3  -2 -20    7.08    0.64
   3   2  20    6.33    0.88
   3   2  20    6.73    0.74
   3   2  20    5.98    0.70
  -4  -2 -20    2.15    0.63
  -4  -2 -20    2.65    0.54
   4   2  20    0.99    0.59
   4   2  20    2.21    0.52
  -5  -2 -20    2.95    0.73
  -5  -2 -20    4.14    0.71
   5   2  20    1.35    0.66
   5   2  20    2.54    0.61
  -2   3  20    3.29    0.59
  -1   3  20    4.65    0.67
  -1   3  20    4.29    0.69
   0   3  20    1.82    0.46
   0   3  20    2.74    0.46
   0   3  20    1.59    0.84
  -1  -3 -20    1.78    0.57
   1   3  20    1.79    0.52
   1   3  20    0.65    0.40
   1   3  20    1.63    0.41
  -2  -3 -20    3.79    0.69
   2   3  20    3.05    0.47
   2   3  20    3.35    0.66
  -3  -3 -20    1.31    0.41
  -3  -3 -20    1.11    0.48
   3   3  20    1.01    0.39
   3   3  20    1.12    0.51
   3   3  20    1.87    0.47
  -4  -3 -20    3.72    0.69
  -4  -3 -20    4.05    0.67
   4   3  20    3.83    0.80
   4   3  20    2.95    0.57
   4   3  20    4.44    0.72
  -5  -3 -20    1.79    0.57
   5   3  20    1.99    0.55
  -1   4  20    6.73    0.79
   0   4  20    1.02    0.40
   1   4  20    4.11    0.60
   1   4  20    2.53    0.63
   2   4  20    0.43    0.35
  -3  -4 -20    2.55    0.60
   3   4  20    2.10    0.48
  -4  -4 -20    0.97    0.47
  -4  -4 -20    0.56    0.45
   4   4  20    1.00    0.45
   4   4  20    0.73    0.57
   4   4  20    0.68    0.37
   1   5  20    1.08    0.42
   2   5  20    0.35    0.32
   3   5  20    2.31    0.47
   2   4 -21    2.42    0.55
   2   4 -21    1.87    0.73
   1   4 -21    0.51    0.43
   1   4 -21    0.05    0.53
  -1  -4  21    0.77    0.38
  -3  -3  21    2.78    0.65
  -2  -3  21    4.21    0.76
  -2  -3  21    4.24    0.60
   1   3 -21    1.78    0.65
   1   3 -21    3.06    0.79
   1   3 -21    3.86    0.67
  -1  -3  21    3.11    0.69
  -1  -3  21    2.62    0.52
   0   3 -21    3.64    0.70
   0   3 -21    3.28    0.74
   0  -3  21    3.32    0.73
  -1   3 -21    1.82    0.78
   1  -3  21    1.95    0.64
  -2   3 -21    1.14    0.75
   2  -3  21    0.90    0.58
  -3  -2  21    0.90    0.52
  -3  -2  21    1.43    0.38
   2   2 -21    8.02    1.11
   2   2 -21    8.61    0.99
  -2  -2  21    6.95    0.72
  -2  -2  21    6.94    0.89
   1   2 -21   10.07    1.16
   1   2 -21   11.09    0.87
   1   2 -21    9.04    1.06
  -1  -2  21    9.91    1.01
  -1  -2  21   10.35    0.83
   0   2 -21    9.45    1.06
   0   2 -21    7.99    1.09
   0   2 -21    9.82    0.85
   0  -2  21    8.91    0.98
   0  -2  21    9.34    0.79
  -1   2 -21    2.61    0.73
  -1   2 -21    2.93    0.58
   1  -2  21    3.14    0.68
   1  -2  21    2.42    0.41
  -2   2 -21    0.25    0.58
   2  -2  21    0.00    0.46
   2  -2  21   -0.53    0.27
  -3   2 -21   -0.19    0.29
  -3   2 -21   -0.15    0.60
   3  -2  21    0.03    0.52
   3  -2  21    0.00    0.39
  -4  -1  21    1.54    0.45
   3   1 -21    0.84    0.58
  -3  -1  21    0.43    0.34
   2   1 -21    4.23    0.77
   2   1 -21    3.71    0.74
  -2  -1  21    5.48    0.65
  -2  -1  21    5.04    0.81
   1   1 -21    1.92    0.60
   1   1 -21    1.58    0.52
  -1  -1  21    2.66    0.50
  -1  -1  21    2.64    0.63
  -1  -1  21    1.66    0.47
   0   1 -21    1.87    0.43
   0   1 -21    2.42    0.61
   0   1 -21    2.59    0.66
   0  -1  21    2.60    0.33
   0  -1  21    2.29    0.45
   0  -1  21    3.46    0.65
   0  -1  21    2.02    0.48
  -1   1 -21    2.87    0.68
  -1   1 -21    3.11    0.53
   1  -1  21    3.26    0.44
   1  -1  21    2.00    0.57
   1  -1  21    3.41    0.63
  -2   1 -21   19.20    1.54
  -2   1 -21   23.12    1.20
  -2   1 -21   21.63    1.24
   2  -1  21   20.04    1.27
   2  -1  21   18.27    1.42
   2  -1  21   19.10    1.51
  -3   1 -21    0.28    0.31
  -3   1 -21    0.07    0.39
  -3   1 -21   -0.96    0.47
   3  -1  21   -0.10    0.30
   3  -1  21    0.35    0.39
   3  -1  21    0.33    0.46
  -4   1 -21    0.73    0.41
   4  -1  21    0.24    0.43
  -3   0  21    8.40    0.80
   2   0 -21    7.09    0.99
   2   0 -21    7.96    1.07
  -2   0  21    6.86    0.82
  -2   0  21    6.71    0.92
  -2   0  21    7.47    0.74
   1   0 -21    1.82    0.60
   1   0 -21    1.19    0.48
  -1   0  21    1.62    0.42
  -1   0  21    1.79    0.56
  -1   0  21    1.49    0.43
   0   0 -21    3.80    0.72
   0   0 -21    4.14    0.70
   0   0  21    4.79    0.71
   0   0  21    4.87    0.43
   0   0  21    5.16    0.75
   0   0  21    5.84    0.69
  -1   0 -21    1.82    0.59
   1   0  21    1.41    0.39
   1   0  21    0.92    0.46
   1   0  21    1.50    0.32
   1   0  21    1.22    0.48
  -2   0 -21    8.40    1.03
  -2   0 -21    9.62    0.64
  -2   0 -21   10.33    0.79
   2   0  21    8.87    1.06
   2   0  21    9.17    0.92
   2   0  21    9.38    0.77
  -3   0 -21    7.40    1.06
  -3   0 -21    8.28    0.79
  -3   0 -21    7.31    0.64
   3   0  21    7.71    0.90
   3   0  21    7.57    0.78
   3   0  21    5.44    0.82
  -4   0 -21    3.68    0.82
  -4   0 -21    4.06    0.65
   4   0  21    2.18    0.61
   4   0  21    2.58    0.62
   3  -1 -21   -0.11    0.51
   3  -1 -21   -0.20    0.37
  -3   1  21    0.08    0.37
  -2   1  21    1.87    0.47
   1  -1 -21   17.24    1.38
   1  -1 -21   15.91    1.34
  -1   1  21   15.11    1.22
  -1   1  21   15.47    1.04
  -1   1  21   17.27    1.31
   0  -1 -21   21.04    1.51
   0  -1 -21   21.36    1.54
   0   1  21   19.94    1.47
   0   1  21   21.24    1.45
   0   1  21   20.50    1.21
  -1  -1 -21    0.43    0.45
   1   1  21    0.15    0.37
   1   1  21    1.10    0.32
   1   1  21    0.29    0.40
   1   1  21    1.21    0.39
  -2  -1 -21    1.64    0.55
  -2  -1 -21    1.79    0.33
   2   1  21    2.49    0.50
   2   1  21    1.83    0.50
   2   1  21    0.73    0.48
   2   1  21    1.79    0.39
  -3  -1 -21    5.14    0.79
  -3  -1 -21    5.56    0.56
   3   1  21    3.84    0.75
   3   1  21    5.09    0.67
   3   1  21    5.00    0.72
  -4  -1 -21    4.66    0.67
  -4  -1 -21    3.23    0.78
   4   1  21    1.67    0.63
   4   1  21    3.48    0.65
  -5  -1 -21    0.53    0.43
   5   1  21   -0.27    0.52
   2  -2 -21   -0.23    0.40
   2  -2 -21    0.10    0.52
  -2   2  21   -0.58    0.34
   1  -2 -21    7.03    0.91
  -1   2  21    7.41    0.73
  -1   2  21    5.64    0.78
   0  -2 -21    7.81    0.96
   0   2  21    7.63    1.42
   0   2  21    7.93    0.91
   0   2  21    8.08    0.74
   0   2  21    7.97    0.89
  -1  -2 -21    5.61    0.82
   1   2  21    4.08    0.52
   1   2  21    4.99    0.68
   1   2  21    2.99    0.81
   1   2  21    5.16    0.75
  -2  -2 -21    2.17    0.57
  -2  -2 -21    2.49    0.42
   2   2  21    1.16    0.51
   2   2  21    1.34    0.38
   2   2  21    1.35    0.45
   2   2  21    1.70    0.42
  -3  -2 -21    2.11    0.58
  -3  -2 -21    1.71    0.42
   3   2  21    0.71    0.50
   3   2  21    2.21    0.49
   3   2  21    1.52    0.41
  -4  -2 -21    2.57    0.53
  -4  -2 -21    2.42    0.67
   4   2  21    2.01    0.54
   4   2  21    1.85    0.67
  -5  -2 -21    0.58    0.57
  -5  -2 -21    0.69    0.46
   5   2  21   -1.04    0.48
  -2   3  21   -0.11    0.37
  -1   3  21    0.22    0.42
  -1   3  21    1.08    0.45
   0  -3 -21    1.98    0.65
   0   3  21    2.77    0.52
   0   3  21    1.95    0.50
  -1  -3 -21    2.20    0.65
   1   3  21    2.61    0.47
   1   3  21    1.77    0.52
  -2  -3 -21   12.61    1.15
   2   3  21   12.16    1.20
   2   3  21   12.87    0.93
  -3  -3 -21    5.37    0.82
  -3  -3 -21    5.80    0.65
   3   3  21    6.11    0.71
   3   3  21    6.19    0.77
   3   3  21    4.62    0.82
  -4  -3 -21    2.92    0.61
  -4  -3 -21    2.84    0.63
   4   3  21    2.12    0.51
   4   3  21    1.88    0.50
  -5  -3 -21    1.33    0.58
   5   3  21    0.91    0.47
   5   3  21   -0.21    0.57
   0   4  21    0.41    0.35
   1   4  21    0.58    0.36
   2   4  21    4.73    0.65
  -3  -4 -21    0.36    0.47
   3   4  21    0.38    0.36
  -4  -4 -21    0.30    0.42
  -4  -4 -21    0.76    0.48
   4   4  21    0.23    0.34
   2   5  21    0.57    0.39
   1   4 -22   -0.23    0.57
  -1  -4  22    0.63    0.40
   0   4 -22    0.72    0.53
   2   3 -22   -0.68    0.41
  -2  -3  22    0.26    0.47
  -2  -3  22    0.22    0.33
   1   3 -22   -0.01    0.40
   1   3 -22   -0.14    0.53
   1   3 -22   -0.87    0.45
  -1  -3  22    0.21    0.31
  -1  -3  22    0.09    0.45
   0   3 -22    5.89    0.80
   0   3 -22    3.60    0.82
   0  -3  22    4.58    0.83
  -1   3 -22   -0.17    0.58
   1  -3  22   -0.55    0.43
  -3  -2  22    3.11    0.53
  -3  -2  22    1.99    0.62
   2   2 -22    0.31    0.50
   2   2 -22    0.33    0.50
  -2  -2  22    0.74    0.36
  -2  -2  22    0.20    0.46
   1   2 -22    4.08    0.58
   1   2 -22    5.44    0.90
   1   2 -22    4.42    0.92
  -1  -2  22    5.73    0.71
  -1  -2  22    5.07    0.81
   0   2 -22    6.55    0.79
   0   2 -22    2.93    0.70
   0   2 -22    4.68    0.85
   0  -2  22    5.73    0.71
   0  -2  22    4.75    0.78
  -1   2 -22    0.94    0.49
  -1   2 -22    1.24    0.66
   1  -2  22    1.30    0.59
  -2   2 -22    2.30    0.77
   2  -2  22    1.76    0.48
   2  -2  22    2.08    0.63
  -3   2 -22    5.58    0.62
   3  -2  22    3.35    0.75
   3  -2  22    4.33    0.72
   3   1 -22   -0.26    0.48
  -3  -1  22    0.58    0.37
   2   1 -22    4.18    0.77
  -2  -1  22    6.21    0.69
  -2  -1  22    5.01    0.80
   1   1 -22   15.41    1.32
   1   1 -22   15.21    1.41
  -1  -1  22   16.28    1.27
  -1  -1  22   15.65    1.04
  -1  -1  22   16.14    1.27
   0   1 -22    0.14    0.51
   0   1 -22   -0.35    0.38
   0  -1  22   -0.11    0.35
   0  -1  22    0.24    0.33
   0  -1  22   -0.04    0.42
  -1   1 -22    4.41    0.60
  -1   1 -22    6.02    0.93
   1  -1  22    4.31    0.51
   1  -1  22    3.09    0.61
   1  -1  22    5.82    0.82
  -2   1 -22    2.86    0.73
  -2   1 -22    4.49    0.65
   2  -1  22    1.91    0.53
   2  -1  22    2.93    0.49
   2  -1  22    3.13    0.65
  -3   1 -22    5.13    0.98
   3  -1  22    4.10    0.71
   3  -1  22    3.58    0.61
   3  -1  22    3.56    0.70
   4  -1  22    1.03    0.51
  -3   0  22    5.26    0.68
   2   0 -22    2.97    0.80
   2   0 -22    1.12    0.54
  -2   0  22    2.47    0.50
  -2   0  22    2.33    0.67
  -2   0  22    1.44    0.44
   1   0 -22    2.60    0.69
   1   0 -22    2.34    0.64
  -1   0  22    2.26    0.47
  -1   0  22    2.75    0.66
  -1   0  22    1.73    0.48
   0   0 -22    6.75    0.89
   0   0 -22    6.64    0.96
   0   0  22    6.71    0.90
   0   0  22    8.15    0.57
   0   0  22    6.94    0.85
   0   0  22    7.67    0.74
  -1   0 -22    7.90    0.97
   1   0  22    8.28    1.00
   1   0  22    8.09    0.77
   1   0  22    8.78    0.67
   1   0  22    7.28    0.88
  -2   0 -22   10.23    1.14
  -2   0 -22   12.64    0.87
   2   0  22   10.55    1.15
   2   0  22   10.77    1.03
   2   0  22   11.85    0.88
  -3   0 -22    1.70    0.64
  -3   0 -22    1.29    0.46
  -3   0 -22    2.31    0.44
   3   0  22    2.26    0.48
   3   0  22    1.81    0.56
   3   0  22    1.47    0.55
  -4   0 -22    2.39    0.50
  -4   0 -22    1.54    0.51
  -4   0 -22    1.05    0.67
   4   0  22    1.04    0.48
   4   0  22    1.50    0.60
  -3   1  22    5.39    0.77
   2  -1 -22    0.24    0.43
   2  -1 -22    0.48    0.58
  -2   1  22    0.69    0.41
  -2   1  22   -0.26    0.36
  -2   1  22    0.83    0.57
   1  -1 -22    2.35    0.61
  -1   1  22    2.54    0.55
  -1   1  22    4.08    0.80
  -1   1  22    4.36    0.63
   0  -1 -22    3.55    0.69
   0  -1 -22    4.14    0.78
   0   1  22    2.76    0.57
   0   1  22    4.77    0.63
   0   1  22    4.08    0.72
  -1  -1 -22    5.33    0.85
   1   1  22    5.35    0.74
   1   1  22    3.34    0.66
   1   1  22    5.50    0.58
   1   1  22    5.79    0.70
  -2  -1 -22    1.63    0.62
   2   1  22    2.58    0.64
   2   1  22    2.24    0.49
   2   1  22    2.63    0.58
   2   1  22    2.48    0.44
  -3  -1 -22    1.06    0.58
  -3  -1 -22    1.11    0.38
   3   1  22    1.21    0.42
   3   1  22    0.49    0.52
  -4  -1 -22    0.65    0.60
  -4  -1 -22    0.51    0.38
   4   1  22    0.89    0.43
   4   1  22   -0.09    0.52
   2  -2 -22    0.31    0.48
  -2   2  22    1.48    0.50
   1  -2 -22    2.35    0.64
   1  -2 -22    2.77    0.77
  -1   2  22    3.70    0.75
  -1   2  22    2.86    0.63
  -1   2  22    3.77    0.58
   0  -2 -22    7.88    1.02
   0   2  22    6.10    0.87
   0   2  22    8.14    0.97
   0   2  22    7.30    0.73
  -1  -2 -22    2.97    0.70
   1   2  22    5.41    0.68
   1   2  22    4.93    0.73
   1   2  22    3.11    0.62
  -2  -2 -22    2.60    0.63
   2   2  22    2.70    0.51
   2   2  22    2.69    0.55
   2   2  22    2.35    0.47
   2   2  22    2.64    0.65
  -3  -2 -22    9.52    0.76
  -3  -2 -22    8.32    0.99
   3   2  22    9.91    0.87
   3   2  22    8.70    0.85
   3   2  22    8.02    1.12
  -4  -2 -22    8.94    0.79
  -4  -2 -22    7.33    1.01
   4   2  22    7.78    1.09
   4   2  22    7.68    0.87
  -1   3  22    0.35    0.35
   0   3  22    0.69    0.39
   0   3  22    0.44    0.41
   0   3  22    0.39    0.49
  -1  -3 -22    2.55    0.74
   1   3  22    2.67    0.50
   1   3  22    1.91    0.60
  -2  -3 -22    1.66    0.59
   2   3  22    0.93    0.51
   2   3  22    1.57    0.42
  -3  -3 -22    3.83    0.60
  -3  -3 -22    2.06    0.61
   3   3  22    1.83    0.66
   3   3  22    1.87    0.43
   3   3  22    2.49    0.54
  -4  -3 -22    0.84    0.52
  -4  -3 -22    1.15    0.45
   4   3  22    0.19    0.36
   4   3  22    0.79    0.43
   4   3  22   -0.07    0.52
   0   4  22    1.80    0.53
   1   4  22    3.34    0.53
   2   4  22    0.84    0.40
  -3  -4 -22    0.44    0.47
   3   4  22    0.43    0.37
  -4  -4 -22    0.63    0.47
   4   4  22    1.04    0.43
  -2  -3  23    0.71    0.38
   1   3 -23    0.89    0.51
   1   3 -23    0.39    0.59
   1   3 -23    1.11    0.63
  -1  -3  23    0.75    0.54
  -1  -3  23    0.88    0.40
   0   3 -23    0.86    0.61
   0  -3  23    2.35    0.56
   0  -3  23    2.01    0.66
  -1   3 -23    2.86    0.87
   1  -3  23    2.89    0.71
  -3  -2  23    1.60    0.44
   2   2 -23    2.04    0.68
  -2  -2  23    2.35    0.50
  -2  -2  23    2.06    0.63
   1   2 -23    0.98    0.65
   1   2 -23    1.44    0.59
  -1  -2  23    2.53    0.55
  -1  -2  23    2.27    0.63
   0   2 -23    6.66    1.00
   0   2 -23    8.30    0.85
   0   2 -23    7.47    1.07
   0  -2  23    6.61    0.91
   0  -2  23    6.53    0.75
  -1   2 -23    2.57    0.76
  -1   2 -23    2.26    0.56
   1  -2  23    2.03    0.65
  -2   2 -23    0.96    0.70
  -2   2 -23    1.11    0.61
   2  -2  23    1.19    0.57
  -3  -1  23    1.36    0.43
   2   1 -23    6.00    0.97
   2   1 -23    7.81    1.02
  -2  -1  23    8.72    0.79
  -2  -1  23    7.29    0.96
   1   1 -23    8.10    1.04
   1   1 -23    8.28    1.12
  -1  -1  23   10.15    0.83
  -1  -1  23    8.72    0.96
  -1  -1  23    7.98    0.95
   0   1 -23   13.48    1.24
   0   1 -23   11.59    1.27
   0  -1  23   14.14    1.21
   0  -1  23   13.11    0.98
   0  -1  23   13.97    1.19
  -1   1 -23    6.10    1.01
  -1   1 -23    7.25    0.77
   1  -1  23    5.95    0.60
   1  -1  23    6.25    0.87
   1  -1  23    7.30    0.98
  -2   1 -23    0.80    0.62
  -2   1 -23    0.01    0.40
   2  -1  23    0.02    0.40
   2  -1  23    0.65    0.51
   2  -1  23    0.09    0.30
  -3   1 -23    0.09    0.62
   3  -1  23    0.38    0.43
   3  -1  23    0.20    0.35
   3  -1  23    0.15    0.49
  -3   0  23    3.24    0.58
   2   0 -23   11.45    1.24
  -2   0  23   11.38    0.92
  -2   0  23    9.76    1.01
   1   0 -23   12.13    1.26
   1   0 -23   12.88    1.42
  -1   0  23   15.21    1.02
  -1   0  23   13.07    1.16
  -1   0  23   14.14    1.27
   0   0 -23    0.26    0.42
   0   0 -23    0.17    0.48
   0   0  23    0.49    0.46
   0   0  23    0.68    0.37
   0   0  23    0.29    0.42
  -1   0 -23    9.43    1.10
   1   0  23   10.44    1.13
   1   0  23   10.04    0.88
   1   0  23   11.80    0.80
   1   0  23   10.57    1.03
  -2   0 -23    3.64    0.80
  -2   0 -23    4.68    0.66
   2   0  23    3.30    0.51
   2   0  23    4.07    0.73
   2   0  23    2.19    0.62
  -3   0 -23    1.88    0.52
  -3   0 -23    1.40    0.61
  -3   0 -23    1.81    0.41
   3   0  23    0.82    0.54
   3   0  23    1.06    0.54
   3   0  23    1.27    0.43
   4   0  23   -0.23    0.38
   4   0  23   -0.29    0.45
   2  -1 -23    4.94    0.96
  -2   1  23    4.82    0.73
  -2   1  23    6.56    0.76
   1  -1 -23    0.48    0.48
   1  -1 -23    0.18    0.52
  -1   1  23    0.62    0.37
  -1   1  23   -0.57    0.34
  -1   1  23   -0.44    0.41
   0  -1 -23    8.04    1.04
   0  -1 -23    9.22    1.07
   0   1  23    8.82    1.01
   0   1  23    8.66    0.99
   0   1  23    9.60    0.82
   0   1  23   11.08    0.76
  -1  -1 -23   16.35    1.37
   1   1  23   15.28    1.35
   1   1  23   18.14    1.12
   1   1  23   17.71    1.13
   1   1  23   16.34    1.29
  -2  -1 -23    4.32    0.82
   2   1  23    2.80    0.49
   2   1  23    4.20    0.56
   2   1  23    3.29    0.60
   2   1  23    3.00    0.69
  -3  -1 -23    4.31    0.84
  -3  -1 -23    3.95    0.52
   3   1  23    5.14    0.70
   3   1  23    3.44    0.77
  -4  -1 -23    2.68    0.56
  -4  -1 -23    3.21    0.82
   4   1  23    1.72    0.68
   4   1  23    3.20    0.64
  -2   2  23    1.62    0.50
   1  -2 -23    2.02    0.62
  -1   2  23    3.52    0.60
  -1   2  23    1.42    0.50
   0  -2 -23    1.78    0.65
   0   2  23    1.45    0.54
   0   2  23    1.55    0.42
   0   2  23    0.36    0.43
  -1  -2 -23    3.89    0.75
   1   2  23    4.26    0.59
   1   2  23    5.92    0.87
   1   2  23    4.74    0.79
  -2  -2 -23    1.65    0.56
   2   2  23    1.43    0.56
   2   2  23    2.42    0.51
   2   2  23    2.71    0.52
  -3  -2 -23    4.35    0.79
  -3  -2 -23    4.53    0.56
   3   2  23    3.48    0.57
   3   2  23    4.37    0.64
   3   2  23    3.99    0.87
  -4  -2 -23    0.95    0.43
  -4  -2 -23    0.84    0.57
   4   2  23    0.07    0.35
   4   2  23   -0.25    0.56
   4   2  23    0.71    0.42
  -1   3  23    4.16    0.62
   0   3  23    6.96    0.97
   0   3  23    8.00    0.81
   1   3  23    0.66    0.42
   1   3  23    0.24    0.48
  -2  -3 -23    3.11    0.73
   2   3  23    3.68    0.80
   2   3  23    4.33    0.65
  -3  -3 -23    3.44    0.60
  -3  -3 -23    1.72    0.61
   3   3  23    0.88    0.59
   3   3  23    2.52    0.59
   3   3  23    1.95    0.46
  -4  -3 -23    0.37    0.42
  -4  -3 -23    0.42    0.49
   4   3  23    0.83    0.46
   4   3  23    0.70    0.41
   1   4  23    0.45    0.35
   2   4  23    2.45    0.55
  -3  -4 -23    5.56    0.88
   3   4  23    5.21    0.73
  -2  -3  24    1.64    0.47
   1   3 -24    3.98    0.69
   1   3 -24    3.21    0.88
   1   3 -24    3.88    0.90
  -1  -3  24    5.27    0.70
   0   3 -24    0.09    0.54
   0  -3  24    0.64    0.42
  -1   3 -24    1.08    0.71
   2   2 -24   -0.25    0.56
   2   2 -24    0.64    0.61
  -2  -2  24    0.16    0.49
  -2  -2  24    0.25    0.36
   1   2 -24    1.36    0.63
  -1  -2  24    1.16    0.58
  -1  -2  24    1.75    0.49
   0   2 -24    4.39    0.89
   0   2 -24    5.11    0.95
   0   2 -24    6.35    0.87
   0  -2  24    5.02    0.72
   0  -2  24    5.58    0.90
  -1   2 -24   31.19    1.74
  -1   2 -24   27.98    2.06
   1  -2  24   25.70    1.89
  -2   2 -24    1.41    0.78
   2  -2  24    1.30    0.62
  -3  -1  24    2.45    0.51
   2   1 -24    0.63    0.62
   2   1 -24    1.33    0.63
  -2  -1  24    1.14    0.57
  -2  -1  24    1.89    0.47
   1   1 -24    6.34    0.93
   1   1 -24    5.24    0.99
  -1  -1  24    4.85    0.63
  -1  -1  24    4.59    0.70
  -1  -1  24    5.91    0.87
   0   1 -24    5.97    0.94
   0   1 -24   10.37    1.13
   0  -1  24    9.37    0.84
   0  -1  24    9.05    1.03
   0  -1  24    8.57    1.01
  -1   1 -24    0.29    0.42
  -1   1 -24    0.17    0.51
   1  -1  24    0.02    0.38
   1  -1  24    0.05    0.46
   1  -1  24    0.11    0.40
  -2   1 -24   21.28    1.27
  -2   1 -24   17.95    1.56
   2  -1  24   16.80    1.17
   2  -1  24   16.46    1.45
   2  -1  24   16.36    1.40
   3  -1  24    2.42    0.55
   3  -1  24    2.11    0.65
   3  -1  24    2.03    0.55
   2   0 -24    1.89    0.70
   2   0 -24    0.39    0.51
  -2   0  24    1.66    0.50
  -2   0  24    1.20    0.60
  -2   0  24    0.98    0.45
   1   0 -24    9.82    1.11
   1   0 -24    6.18    1.00
  -1   0  24    8.13    0.99
  -1   0  24    9.55    0.84
  -1   0  24    9.89    1.10
   0   0 -24    5.57    0.86
   0   0 -24    7.49    0.98
   0   0  24    7.77    0.94
   0   0  24    6.48    0.93
   0   0  24    8.15    0.79
  -1   0 -24    0.99    0.56
   1   0  24    0.87    0.51
   1   0  24    1.06    0.38
   1   0  24    1.43    0.36
   1   0  24    1.25    0.56
  -2   0 -24    4.82    0.88
   2   0  24    4.10    0.59
   2   0  24    3.62    0.67
   2   0  24    2.62    0.64
  -3   0 -24    3.31    0.64
  -3   0 -24    3.40    0.82
   3   0  24    2.88    0.69
   3   0  24    2.32    0.65
   3   0  24    3.81    0.62
  -4   0 -24    1.83    0.55
   2  -1 -24    3.79    0.82
  -2   1  24    5.45    0.72
   1  -1 -24   -0.58    0.46
   1  -1 -24    0.23    0.61
  -1   1  24    0.01    0.49
  -1   1  24    0.98    0.38
  -1   1  24   -0.36    0.38
   0  -1 -24    1.23    0.57
   0  -1 -24    0.34    0.49
   0   1  24    1.79    0.38
   0   1  24    1.51    0.46
   0   1  24    0.41    0.44
   0   1  24    1.10    0.52
  -1  -1 -24    4.86    0.86
   1   1  24    5.92    0.86
   1   1  24    7.07    0.75
   1   1  24    5.36    0.84
   1   1  24    6.00    0.63
  -2  -1 -24    8.11    0.98
   2   1  24    7.65    0.89
   2   1  24    7.84    0.73
   2   1  24    5.53    0.87
   2   1  24    6.74    0.80
  -3  -1 -24   -0.06    0.48
   3   1  24    0.92    0.40
   3   1  24    0.02    0.54
  -4  -1 -24    0.45    0.40
   4   1  24    0.15    0.41
   4   1  24   -1.00    0.50
   1  -2 -24    1.06    0.57
   1  -2 -24    2.04    0.73
  -1   2  24    3.23    0.62
  -1   2  24    1.42    0.55
   0   2  24    9.42    0.85
   0   2  24    7.85    1.05
   0   2  24    6.84    1.01
  -1  -2 -24    4.07    0.79
   1   2  24    3.34    0.70
   1   2  24    4.50    0.64
   1   2  24    5.73    0.87
  -2  -2 -24    1.23    0.56
   2   2  24    3.01    0.56
   2   2  24    2.22    0.54
   2   2  24    1.16    0.60
  -3  -2 -24    2.37    0.66
   3   2  24    1.21    0.44
   3   2  24    1.87    0.49
   3   2  24    1.01    0.62
  -4  -2 -24    0.63    0.60
  -4  -2 -24    1.43    0.48
   4   2  24    1.14    0.46
   4   2  24    1.51    0.53
   0   3  24    1.87    0.49
   1   3  24   -0.32    0.44
   1   3  24    0.28    0.40
  -2  -3 -24    1.72    0.62
   2   3  24    0.46    0.55
   2   3  24    1.09    0.42
  -3  -3 -24    2.50    0.69
   3   3  24    2.99    0.58
   3   3  24    1.79    0.72
   3   3  24    2.80    0.59
  -4  -3 -24    1.64    0.63
   4   3  24    1.77    0.51
   2   4  24    1.51    0.48
  -2  -2  25    2.40    0.53
   1   2 -25    1.24    0.65
   1   2 -25    2.76    0.72
  -1  -2  25    2.57    0.67
  -1  -2  25    3.68    0.63
   0   2 -25    0.12    0.47
   0   2 -25    0.79    0.61
   0  -2  25    0.18    0.50
   0  -2  25    0.33    0.41
  -1   2 -25    9.38    1.00
  -1   2 -25    7.08    1.18
   1  -2  25    8.23    1.09
   2  -2  25    1.39    0.64
   2   1 -25    2.90    0.79
  -2  -1  25    4.26    0.67
   1   1 -25    0.86    0.59
  -1  -1  25    1.23    0.48
  -1  -1  25    1.02    0.44
  -1  -1  25    1.35    0.60
   0   1 -25    0.43    0.54
   0   1 -25    1.81    0.65
   0  -1  25    1.33    0.58
   0  -1  25    0.76    0.41
   0  -1  25    1.49    0.51
  -1   1 -25   16.16    1.46
  -1   1 -25   17.23    1.18
   1  -1  25   15.48    1.40
   1  -1  25   15.82    1.33
  -2   1 -25    8.92    0.93
  -2   1 -25    5.03    1.00
   2  -1  25    7.05    1.02
   2  -1  25    7.54    1.03
  -3   1 -25    0.07    0.52
   3  -1  25    0.64    0.55
   3  -1  25    0.20    0.39
  -2   0  25    2.21    0.56
  -2   0  25    2.48    0.53
   1   0 -25    8.44    1.12
   1   0 -25    5.68    1.00
  -1   0  25    9.03    1.04
  -1   0  25    8.84    1.11
  -1   0  25   10.47    0.89
   0   0 -25    8.00    1.05
   0   0 -25    5.82    0.95
   0   0  25    8.67    0.84
   0   0  25    7.43    0.98
   0   0  25    7.85    1.00
  -1   0 -25    3.44    0.76
   1   0  25    3.41    0.57
   1   0  25    2.48    0.63
   1   0  25    2.99    0.68
  -2   0 -25    1.86    0.67
   2   0  25    1.95    0.44
   2   0  25    1.28    0.51
   2   0  25    0.69    0.52
   2   0  25    1.92    0.63
  -3   0 -25    1.99    0.56
   3   0  25    1.50    0.63
   3   0  25    1.47    0.47
  -2   1  25    1.80    0.46
   1  -1 -25   26.32    1.96
  -1   1  25   26.11    1.52
  -1   1  25   23.50    1.78
   0  -1 -25    1.74    0.67
   0   1  25    2.69    0.67
   0   1  25    1.08    0.52
   0   1  25    1.48    0.43
  -1  -1 -25    2.32    0.66
   1   1  25    2.18    0.64
   1   1  25    3.88    0.53
   1   1  25    3.64    0.63
   1   1  25    4.59    0.80
  -2  -1 -25    1.95    0.67
   2   1  25    1.51    0.51
   2   1  25    1.23    0.51
   2   1  25    0.61    0.54
   2   1  25    1.90    0.46
  -3  -1 -25    1.28    0.64
   3   1  25    1.52    0.45
   3   1  25    0.27    0.58
   3   1  25    1.03    0.52
   1  -2 -25    1.42    0.63
  -1   2  25    1.14    0.56
  -1   2  25    1.96    0.54
   0   2  25    0.36    0.51
   0   2  25   -0.21    0.43
   0   2  25    0.44    0.37
  -1  -2 -25    8.65    1.12
   1   2  25   11.62    0.91
   1   2  25   10.25    1.08
   1   2  25    7.28    1.05
   1   2  25   10.21    0.91
  -2  -2 -25    3.30    0.77
   2   2  25    4.62    0.71
   2   2  25    4.59    0.66
   2   2  25    2.78    0.71
  -3  -2 -25   -0.01    0.46
   3   2  25    0.24    0.38
   3   2  25   -0.69    0.49
   3   2  25   -0.09    0.31
   4   2  25    2.54    0.68
   0   3  25    4.32    0.61
   1   3  25   -0.17    0.49
   1   3  25    1.18    0.42
   2   3  25    2.11    0.54
   3   3  25    0.59    0.40
   3   3  25    0.22    0.38
   1   2 -26    2.11    0.76
  -1  -2  26    1.83    0.53
   0   2 -26    2.22    0.79
   0   2 -26    1.90    0.62
   0  -2  26    1.76    0.49
   1  -2  26    1.27    0.51
   2   1 -26    2.48    0.80
  -2  -1  26    3.04    0.57
   1   1 -26   -0.32    0.51
   1   1 -26    0.15    0.54
  -1  -1  26   -0.66    0.45
  -1  -1  26    0.43    0.43
  -1  -1  26   -0.26    0.36
   0   1 -26    1.91    0.72
   0  -1  26    1.24    0.50
   0  -1  26    1.37    0.46
   0  -1  26    0.89    0.63
  -1   1 -26    5.94    1.02
   1  -1  26    3.74    0.74
   1  -1  26    6.26    0.96
   1  -1  26    5.27    0.79
   2  -1  26    5.75    0.89
  -2   0  26    8.81    0.90
   1   0 -26    1.25    0.65
   1   0 -26    1.30    0.69
  -1   0  26    1.60    0.64
  -1   0  26    2.96    0.63
  -1   0  26    0.92    0.50
   0   0 -26    2.87    0.81
   0   0  26    2.51    0.52
   0   0  26    3.01    0.77
   0   0  26    2.47    0.63
  -1   0 -26    1.76    0.70
   1   0  26    1.42    0.56
   1   0  26    1.77    0.65
   1   0  26    1.45    0.59
  -2   0 -26    0.96    0.63
   2   0  26    0.44    0.35
   2   0  26    0.47    0.44
   2   0  26    0.98    0.57
   2   0  26    0.01    0.49
   3   0  26    2.09    0.53
   1  -1 -26    0.19    0.57
   1  -1 -26   -0.36    0.49
  -1   1  26    1.04    0.42
  -1   1  26   -0.04    0.44
  -1   1  26    0.71    0.55
   0  -1 -26   13.92    1.40
   0   1  26   12.62    1.28
  -1  -1 -26    1.34    0.61
   1   1  26    1.20    0.57
   1   1  26    1.68    0.50
   1   1  26    1.77    0.60
  -2  -1 -26    3.20    0.76
   2   1  26    2.60    0.73
   2   1  26    3.90    0.79
   2   1  26    3.56    0.71
   2   1  26    4.69    0.65
   3   1  26    3.75    0.63
   3   1  26    2.94    0.58
   0   2  26    0.42    0.54
   0   2  26    1.97    0.65
   0   2  26    2.06    0.52
   1   2  26    1.31    0.60
   1   2  26    1.90    0.46
   1   2  26    1.49    0.42
  -2  -2 -26    0.30    0.54
   2   2  26    0.22    0.33
   2   2  26    0.17    0.37
   2   2  26   -0.21    0.52
   3   2  26    2.14    0.60
   3   2  26    2.13    0.53
   1   3  26    3.30    0.67
   2   3  26    0.11    0.36
   2   3  26    0.79    0.42
   1   1 -27    2.15    0.73
  -1  -1  27    3.55    0.69
  -1  -1  27    2.76    0.60
   0   1 -27    1.13    0.67
   0  -1  27    0.81    0.50
   0  -1  27    0.88    0.45
   0  -1  27    0.32    0.54
   1  -1  27    0.14    0.50
   1  -1  27    0.34    0.40
   1   0 -27   -0.08    0.55
  -1   0  27   -0.24    0.41
  -1   0  27   -0.20    0.34
   0   0 -27    2.96    0.83
   0   0  27    3.65    0.86
   0   0  27    2.00    0.62
   0   0  27    2.27    0.51
  -1   0 -27    4.06    0.84
   1   0  27    2.92    0.70
   1   0  27    4.60    0.77
   1   0  27    4.55    0.84
   2   0  27    2.28    0.55
   2   0  27    1.99    0.64
  -1   1  27    0.06    0.41
  -1   1  27   -0.80    0.41
   0   1  27    0.71    0.47
   0   1  27   -0.58    0.43
  -1  -1 -27    0.16    0.54
   1   1  27    0.40    0.49
   1   1  27    0.34    0.38
   1   1  27   -0.19    0.50
   2   1  27    0.83    0.48
   2   1  27    0.87    0.38
   3   1  27    0.05    0.36
   0   2  27    8.49    0.90
   0   2  27    6.63    0.96
   1   2  27    0.88    0.43
   2   2  27    2.99    0.59
   2   2  27    2.60    0.54
   0  -1  28    0.00    0.40
   0   0  28    0.57    0.39
   0   0  28   -0.09    0.53
   1   0  28    0.56    0.46
   1   0  28    0.28    0.53
   0   1  28    0.88    0.45
   1   1  28    3.54    0.63
   1   1  28    4.27    0.81
   2   1  28   -0.30    0.37
   0   0   0    0.00    0.00
;
_shelx_hkl_checksum              93029
_shelx_res_file
;
    SBC.res created by SHELXL-2014/7
TITL SBC in P1
CELL  0.71073   5.0283   5.0580  20.8394   86.645   83.338   68.908
ZERR     1.00   0.0004   0.0004   0.0018    0.002    0.003    0.005
LATT  -1
SFAC  C    H    N    O    S
UNIT  14   28   2    8    2
MERG   2
OMIT    -3.00  52.00
DFIX 0.9 0.02 N1 H1A N1 H1B N1 H1C
DFIX 1.47 0.02 H1A H1B H1B H1C H1C H1A
EQIV $1 x-1, y, z
HTAB C6 O5_$1
EQIV $2 x, y-1, z
HTAB C11 O7_$2
EQIV $3 x+1, y-1, z
HTAB C12 O8_$3
EQIV $4 x+1, y+1, z-1
HTAB N2 O3_$4
EQIV $5 x+1, y, z
HTAB N2 O8_$5
HTAB N2 O7_$3
HTAB N2 O8_$3
HTAB O1 O5_$2
EQIV $6 x-1, y-1, z+1
HTAB O4 O7_$6
EQIV $7 x-1, y+1, z
HTAB N1 O1_$7
EQIV $8 x, y+1, z
HTAB N1 O2_$8
HTAB N1 O5_$7
HTAB N1 O6_$7
HTAB N1 O6_$8
FMAP   2
PLAN   40
SIZE     0.25   0.30   0.35
ACTA
BOND   $H
CONF
L.S.   4
WGHT    0.048000    1.438800
FVAR       0.49887
C1    1   -0.092904   -0.301713    1.268361    11.00000    0.01935    0.03116 =
         0.03038   -0.00392   -0.00522   -0.00859
C2    1    0.092555   -0.199376    1.220844    11.00000    0.02733    0.01902 =
         0.03723   -0.00112   -0.00253   -0.00847
AFIX  23
H2A   2    0.157601   -0.071049    1.241930    11.00000   -1.20000
H2B   2   -0.018725   -0.094098    1.186559    11.00000   -1.20000
AFIX   0
C3    1    0.350138   -0.438881    1.191734    11.00000    0.01957    0.03968 =
         0.03376   -0.00142   -0.00130   -0.01655
AFIX  23
H3A   2    0.487831   -0.361002    1.170098    11.00000   -1.20000
H3B   2    0.440434   -0.564674    1.226193    11.00000   -1.20000
AFIX   0
C4    1    0.276488   -0.606499    1.144530    11.00000    0.02276    0.02186 =
         0.03156   -0.00067    0.00021   -0.00790
C5    1    0.271183   -0.215460    0.999596    11.00000    0.02094    0.01701 =
         0.03274    0.00294   -0.00278   -0.00635
C6    1   -0.020794   -0.005067    0.983418    11.00000    0.01469    0.01637 =
         0.04110   -0.00308   -0.00009   -0.00663
AFIX  13
H6    2   -0.167155   -0.074656    1.005105    11.00000   -1.20000
AFIX   0
C7    1   -0.052932    0.012924    0.911916    11.00000    0.02817    0.02330 =
         0.05249   -0.00407   -0.01538   -0.00766
AFIX  23
H7A   2   -0.057536   -0.166379    0.898979    11.00000   -1.20000
H7B   2   -0.236276    0.157589    0.904791    11.00000   -1.20000
AFIX   0
C8    1    0.177317    0.079180    0.868693    11.00000    0.05083    0.05097 =
         0.04137   -0.00148   -0.00554   -0.00945
AFIX  23
H8A   2    0.361247   -0.064462    0.875820    11.00000   -1.20000
H8B   2    0.180890    0.259700    0.881063    11.00000   -1.20000
AFIX   0
C9    1   -0.165108    0.420091    0.777077    11.00000    0.10938    0.08098 =
         0.05635    0.01932   -0.03084   -0.03238
AFIX  33
H9A   2   -0.208396    0.451273    0.732977    11.00000   -1.50000
H9B   2   -0.328679    0.407863    0.804053    11.00000   -1.50000
H9C   2   -0.118213    0.574770    0.790633    11.00000   -1.50000
AFIX   0
C10   1    0.213994    0.622443    0.412338    11.00000    0.01484    0.03318 =
         0.03156   -0.00676   -0.00414   -0.00932
C11   1    0.411294    0.324189    0.427796    11.00000    0.01508    0.01760 =
         0.04457   -0.00477   -0.00236   -0.00671
AFIX  13
H11   2    0.353143    0.193869    0.404689    11.00000   -1.20000
AFIX   0
C12   1    0.385961    0.246580    0.498861    11.00000    0.02219    0.02547 =
         0.05361    0.00537   -0.00137   -0.00462
AFIX  23
H12A  2    0.193190    0.248648    0.511186    11.00000   -1.20000
H12B  2    0.516622    0.053956    0.504907    11.00000   -1.20000
AFIX   0
C13   1    0.446764    0.433237    0.543737    11.00000    0.05452    0.03799 =
         0.04050   -0.00007   -0.00322   -0.01388
AFIX  23
H13A  2    0.321673    0.627106    0.536473    11.00000   -1.20000
H13B  2    0.642392    0.424795    0.532673    11.00000   -1.20000
AFIX   0
C14   1    0.708551    0.026589    0.633610    11.00000    0.06475    0.04892 =
         0.08973    0.02183   -0.03137   -0.00098
AFIX  33
H14A  2    0.711929   -0.044686    0.677344    11.00000   -1.50000
H14B  2    0.696667   -0.112292    0.605693    11.00000   -1.50000
H14C  2    0.880475    0.065544    0.620605    11.00000   -1.50000
AFIX   0
N1    3   -0.077695    0.279600    1.009408    11.00000    0.02489    0.01029 =
         0.04467   -0.00518   -0.00668    0.00040
N2    3    0.710984    0.280435    0.403294    11.00000    0.01696    0.01652 =
         0.04118    0.00054   -0.00195   -0.00127
AFIX  33
H2C   2    0.720361    0.327432    0.361486    11.00000   -1.50000
H2D   2    0.774418    0.388371    0.424999    11.00000   -1.50000
H2E   2    0.819021    0.099098    0.408610    11.00000   -1.50000
AFIX   0
O1    4    0.498135   -0.824341    1.121812    11.00000    0.02256    0.03126 =
         0.05822   -0.01486   -0.00440   -0.00572
AFIX  83
H1    2    0.446893   -0.909559    1.096340    11.00000   -1.50000
AFIX   0
O2    4    0.040965   -0.548723    1.127020    11.00000    0.02019    0.04487 =
         0.04964   -0.01463   -0.00477   -0.00661
O3    4   -0.049618   -0.542169    1.285482    11.00000    0.03445    0.02236 =
         0.05009   -0.00145    0.00755   -0.00853
O4    4   -0.329379   -0.086377    1.290977    11.00000    0.02554    0.02240 =
         0.05548   -0.00212    0.00696   -0.00485
AFIX  83
H4    2   -0.428125   -0.148520    1.317157    11.00000   -1.50000
AFIX   0
O5    4    0.411453   -0.134888    1.034657    11.00000    0.02393    0.02032 =
         0.05913   -0.00455   -0.01441   -0.00496
O6    4    0.345950   -0.456148    0.976741    11.00000    0.02416    0.01725 =
         0.05508   -0.00588   -0.00757    0.00054
O7    4    0.310620    0.781486    0.378394    11.00000    0.02174    0.01568 =
         0.05794    0.00497    0.00018   -0.00385
O8    4   -0.043182    0.687888    0.435970    11.00000    0.01577    0.02760 =
         0.05273    0.00277   -0.00129   -0.00272
S1    5    0.133736    0.095714    0.783744    11.00000    0.09755    0.07492 =
         0.03778   -0.00127   -0.00564   -0.01814
S2    5    0.401978    0.347756    0.628337    11.00000    0.07481    0.08019 =
         0.03991    0.00575   -0.00136   -0.01732
H1C   2   -0.084950    0.275917    1.052846    11.00000   -1.20000
H1A   2   -0.245471    0.399539    0.997471    11.00000   -1.20000
H1B   2    0.065412    0.335538    0.991637    11.00000   -1.20000
HKLF 4
REM  SBC in P1
REM R1 =  0.0634 for    3251 Fo > 4sig(Fo)  and  0.0660 for all    3428 data
REM    244 parameters refined using      9 restraints
END
WGHT      0.0498      1.3809
REM Highest difference peak  0.561,  deepest hole -0.380,  1-sigma level  0.088
Q1    1   0.4404  0.3406  0.5812  11.00000  0.05    0.56
Q2    1   0.1221  0.0794  0.7345  11.00000  0.05    0.45
Q3    1   0.3268  0.3764  0.6735  11.00000  0.05    0.45
Q4    1   0.0609  0.1246  0.8296  11.00000  0.05    0.43
Q5    1   0.3780 -0.0944  1.0837  11.00000  0.05    0.35
Q6    1   0.0421 -0.5619  1.1748  11.00000  0.05    0.34
Q7    1   0.7137  0.0371  0.6892  11.00000  0.05    0.33
Q8    1  -0.0117  0.7024  0.3874  11.00000  0.05    0.33
Q9    1   0.1789  0.8199  0.5475  11.00000  0.05    0.32
Q10   1  -0.3107 -0.1185  1.2415  11.00000  0.05    0.32
Q11   1   0.7355  0.0261  0.5801  11.00000  0.05    0.32
Q12   1   0.0396 -0.0267  0.8623  11.00000  0.05    0.31
Q13   1  -0.0950  0.3390  0.9127  11.00000  0.05    0.31
Q14   1   0.4943 -0.8077  1.0733  11.00000  0.05    0.31
Q15   1  -0.3510 -0.0633  1.3435  11.00000  0.05    0.31
Q16   1   0.3928 -0.4493  0.9271  11.00000  0.05    0.30
Q17   1   0.2940  0.7544  0.4277  11.00000  0.05    0.29
Q18   1   0.3846 -0.1078  0.9889  11.00000  0.05    0.29
Q19   1   0.6527  0.2973  0.4543  11.00000  0.05    0.28
Q20   1  -0.2034  0.5221  0.7500  11.00000  0.05    0.28
Q21   1   0.5207 -0.2367  1.2390  11.00000  0.05    0.28
Q22   1   0.3325 -0.4718  1.0247  11.00000  0.05    0.28
Q23   1   0.4655 -0.8346  1.1725  11.00000  0.05    0.27
Q24   1   0.2893  0.3805  0.7171  11.00000  0.05    0.27
Q25   1  -0.0118 -0.5100  1.2409  11.00000  0.05    0.27
Q26   1   0.0189 -0.0128  1.0376  11.00000  0.05    0.26
Q27   1   0.0599 -0.5823  1.0818  11.00000  0.05    0.26
Q28   1  -0.0725  0.3773  0.8581  11.00000  0.05    0.26
Q29   1  -0.4034  0.6276  1.0073  11.00000  0.05    0.26
Q30   1  -0.0097  0.0173  0.9476  11.00000  0.05    0.26
Q31   1  -0.4751  0.5329  1.0452  11.00000  0.05    0.25
Q32   1  -0.2046  0.8870  0.4667  11.00000  0.05    0.25
Q33   1   0.3187  0.3152  0.5495  11.00000  0.05    0.25
Q34   1   0.4603 -0.6943  0.9414  11.00000  0.05    0.25
Q35   1   0.2842  0.7795  0.4876  11.00000  0.05    0.25
Q36   1   0.0623 -0.2365  1.1785  11.00000  0.05    0.25
Q37   1   0.6894 -0.1508  0.8500  11.00000  0.05    0.24
Q38   1   0.1556  0.1066  0.5396  11.00000  0.05    0.24
Q39   1   0.3872 -0.0564  0.7509  11.00000  0.05    0.24
Q40   1  -0.1237 -0.2323  1.1083  11.00000  0.05    0.24
;
_shelx_res_checksum              87627
loop_
_space_group_symop_operation_xyz
'x, y, z'
loop_
_atom_site_type_symbol
_atom_site_label
_atom_site_fract_x
_atom_site_fract_y
_atom_site_fract_z
_atom_site_U_iso_or_equiv
_atom_site_adp_type
_atom_site_calc_flag
_atom_site_occupancy
C C1 -0.0929(15) -0.3017(17) 1.2684(3) 0.0267(16) Uani d 1
C C2 0.0926(16) -0.1994(15) 1.2208(4) 0.0278(16) Uani d 1
H H2A 0.1576 -0.0710 1.2419 0.033 Uiso calc 1
H H2B -0.0187 -0.0941 1.1866 0.033 Uiso calc 1
C C3 0.3501(15) -0.4389(17) 1.1917(4) 0.0294(17) Uani d 1
H H3A 0.4878 -0.3610 1.1701 0.035 Uiso calc 1
H H3B 0.4404 -0.5647 1.2262 0.035 Uiso calc 1
C C4 0.2765(16) -0.6065(15) 1.1445(3) 0.0256(15) Uani d 1
C C5 0.2712(15) -0.2155(15) 0.9996(3) 0.0238(15) Uani d 1
C C6 -0.0208(14) -0.0051(14) 0.9834(4) 0.0239(15) Uani d 1
H H6 -0.1672 -0.0747 1.0051 0.029 Uiso calc 1
C C7 -0.0529(17) 0.0129(17) 0.9119(4) 0.0340(18) Uani d 1
H H7A -0.0575 -0.1664 0.8990 0.041 Uiso calc 1
H H7B -0.2363 0.1576 0.9048 0.041 Uiso calc 1
C C8 0.177(2) 0.079(2) 0.8687(4) 0.050(2) Uani d 1
H H8A 0.3612 -0.0645 0.8758 0.060 Uiso calc 1
H H8B 0.1809 0.2597 0.8811 0.060 Uiso calc 1
C C9 -0.165(3) 0.420(3) 0.7771(6) 0.082(4) Uani d 1
H H9A -0.2084 0.4513 0.7330 0.122 Uiso calc 1
H H9B -0.3287 0.4079 0.8041 0.122 Uiso calc 1
H H9C -0.1182 0.5748 0.7906 0.122 Uiso calc 1
C C10 0.2140(15) 0.6224(16) 0.4123(4) 0.0259(16) Uani d 1
C C11 0.4113(15) 0.3242(15) 0.4278(4) 0.0254(15) Uani d 1
H H11 0.3531 0.1939 0.4047 0.030 Uiso calc 1
C C12 0.3860(17) 0.2466(18) 0.4989(4) 0.0353(18) Uani d 1
H H12A 0.1932 0.2486 0.5112 0.042 Uiso calc 1
H H12B 0.5166 0.0540 0.5049 0.042 Uiso calc 1
C C13 0.447(2) 0.433(2) 0.5437(4) 0.045(2) Uani d 1
H H13A 0.3217 0.6271 0.5365 0.054 Uiso calc 1
H H13B 0.6424 0.4248 0.5327 0.054 Uiso calc 1
C C14 0.709(3) 0.027(3) 0.6336(7) 0.072(4) Uani d 1
H H14A 0.7119 -0.0447 0.6773 0.108 Uiso calc 1
H H14B 0.6967 -0.1123 0.6057 0.108 Uiso calc 1
H H14C 0.8805 0.0655 0.6206 0.108 Uiso calc 1
N N1 -0.0777(13) 0.2796(12) 1.0094(3) 0.0280(14) Uani d 1
N N2 0.7110(12) 0.2804(13) 0.4033(3) 0.0263(13) Uani d 1
H H2C 0.7204 0.3274 0.3615 0.039 Uiso calc 1
H H2D 0.7744 0.3884 0.4250 0.039 Uiso calc 1
H H2E 0.8190 0.0991 0.4086 0.039 Uiso calc 1
O O1 0.4981(11) -0.8243(12) 1.1218(3) 0.0378(14) Uani d 1
H H1 0.4469 -0.9096 1.0963 0.057 Uiso calc 1
O O2 0.0410(11) -0.5487(13) 1.1270(3) 0.0389(14) Uani d 1
O O3 -0.0496(12) -0.5422(12) 1.2855(3) 0.0370(13) Uani d 1
O O4 -0.3294(11) -0.0864(11) 1.2910(3) 0.0364(13) Uani d 1
H H4 -0.4281 -0.1485 1.3172 0.055 Uiso calc 1
O O5 0.4115(11) -0.1349(11) 1.0347(3) 0.0343(13) Uani d 1
O O6 0.3459(11) -0.4561(11) 0.9767(3) 0.0338(12) Uani d 1
O O7 0.3106(11) 0.7815(11) 0.3784(3) 0.0332(13) Uani d 1
O O8 -0.0432(11) 0.6879(11) 0.4360(3) 0.0338(12) Uani d 1
S S1 0.1337(7) 0.0957(6) 0.78374(14) 0.0737(10) Uani d 1
S S2 0.4020(6) 0.3478(6) 0.62834(14) 0.0685(9) Uani d 1
H H1C -0.08(2) 0.28(2) 1.0528(13) 0.082 Uiso d 1
H H1A -0.245(11) 0.40(2) 0.997(4) 0.082 Uiso d 1
H H1B 0.065(15) 0.34(2) 0.992(4) 0.082 Uiso d 1
loop_
_atom_site_aniso_label
_atom_site_aniso_U_11
_atom_site_aniso_U_22
_atom_site_aniso_U_33
_atom_site_aniso_U_12
_atom_site_aniso_U_13
_atom_site_aniso_U_23
C1 0.019(4) 0.031(5) 0.030(4) -0.009(3) -0.005(3) -0.004(3)
C2 0.027(4) 0.019(4) 0.037(4) -0.008(3) -0.003(3) -0.001(3)
C3 0.020(4) 0.040(5) 0.034(4) -0.017(4) -0.001(3) -0.001(3)
C4 0.023(4) 0.022(4) 0.032(4) -0.008(3) 0.000(3) -0.001(3)
C5 0.021(4) 0.017(4) 0.033(4) -0.006(3) -0.003(3) 0.003(3)
C6 0.015(3) 0.016(4) 0.041(4) -0.007(3) 0.000(3) -0.003(3)
C7 0.028(4) 0.023(4) 0.052(5) -0.008(3) -0.015(3) -0.004(3)
C8 0.051(6) 0.051(6) 0.041(5) -0.009(5) -0.006(4) -0.001(4)
C9 0.109(12) 0.081(10) 0.056(8) -0.032(9) -0.031(7) 0.019(6)
C10 0.015(3) 0.033(4) 0.032(4) -0.009(3) -0.004(3) -0.007(3)
C11 0.015(3) 0.018(4) 0.045(4) -0.007(3) -0.002(3) -0.005(3)
C12 0.022(4) 0.025(4) 0.054(5) -0.005(3) -0.001(3) 0.005(3)
C13 0.055(6) 0.038(5) 0.040(5) -0.014(5) -0.003(4) 0.000(4)
C14 0.065(8) 0.049(7) 0.090(9) -0.001(6) -0.031(7) 0.022(6)
N1 0.025(3) 0.010(3) 0.045(4) 0.000(3) -0.007(3) -0.005(2)
N2 0.017(3) 0.017(3) 0.041(3) -0.001(3) -0.002(2) 0.001(3)
O1 0.023(3) 0.031(3) 0.058(4) -0.006(3) -0.004(2) -0.015(3)
O2 0.020(3) 0.045(4) 0.050(3) -0.007(3) -0.005(2) -0.015(3)
O3 0.034(3) 0.022(3) 0.050(3) -0.009(3) 0.008(3) -0.001(2)
O4 0.026(3) 0.022(3) 0.055(4) -0.005(3) 0.007(2) -0.002(2)
O5 0.024(3) 0.020(3) 0.059(3) -0.005(2) -0.014(2) -0.005(2)
O6 0.024(3) 0.017(3) 0.055(3) 0.001(2) -0.008(2) -0.006(2)
O7 0.022(3) 0.016(3) 0.058(3) -0.004(2) 0.000(2) 0.005(2)
O8 0.016(3) 0.028(3) 0.053(3) -0.003(2) -0.001(2) 0.003(2)
S1 0.098(2) 0.075(2) 0.0378(14) -0.0181(19) -0.0056(14) -0.0013(12)
S2 0.075(2) 0.080(2) 0.0399(14) -0.0173(17) -0.0014(12) 0.0058(13)
loop_
_atom_type_symbol
_atom_type_description
_atom_type_scat_dispersion_real
_atom_type_scat_dispersion_imag
_atom_type_scat_source
C C 0.0033 0.0016 'International Tables Vol C Tables 4.2.6.8 and 6.1.1.4'
H H 0.0000 0.0000 'International Tables Vol C Tables 4.2.6.8 and 6.1.1.4'
N N 0.0061 0.0033 'International Tables Vol C Tables 4.2.6.8 and 6.1.1.4'
O O 0.0106 0.0060 'International Tables Vol C Tables 4.2.6.8 and 6.1.1.4'
S S 0.1246 0.1234 'International Tables Vol C Tables 4.2.6.8 and 6.1.1.4'
loop_
_geom_angle_atom_site_label_1
_geom_angle_atom_site_label_2
_geom_angle_atom_site_label_3
_geom_angle
O3 C1 O4 122.1(7)
O3 C1 C2 126.5(7)
O4 C1 C2 111.4(7)
C1 C2 C3 112.4(6)
C1 C2 H2A 109.1
C3 C2 H2A 109.1
C1 C2 H2B 109.1
C3 C2 H2B 109.1
H2A C2 H2B 107.9
C4 C3 C2 113.2(6)
C4 C3 H3A 108.9
C2 C3 H3A 108.9
C4 C3 H3B 108.9
C2 C3 H3B 108.9
H3A C3 H3B 107.8
O2 C4 O1 122.2(7)
O2 C4 C3 124.6(7)
O1 C4 C3 113.2(6)
O6 C5 O5 125.6(7)
O6 C5 C6 116.1(6)
O5 C5 C6 118.3(6)
N1 C6 C7 111.0(6)
N1 C6 C5 111.2(6)
C7 C6 C5 112.6(6)
N1 C6 H6 107.2
C7 C6 H6 107.2
C5 C6 H6 107.2
C8 C7 C6 115.7(6)
C8 C7 H7A 108.4
C6 C7 H7A 108.4
C8 C7 H7B 108.4
C6 C7 H7B 108.4
H7A C7 H7B 107.4
C7 C8 S1 114.5(7)
C7 C8 H8A 108.6
S1 C8 H8A 108.6
C7 C8 H8B 108.6
S1 C8 H8B 108.6
H8A C8 H8B 107.6
S1 C9 H9A 109.5
S1 C9 H9B 109.5
H9A C9 H9B 109.5
S1 C9 H9C 109.5
H9A C9 H9C 109.5
H9B C9 H9C 109.5
O7 C10 O8 124.7(7)
O7 C10 C11 119.5(6)
O8 C10 C11 115.8(6)
N2 C11 C12 111.2(6)
N2 C11 C10 111.1(6)
C12 C11 C10 113.1(6)
N2 C11 H11 107.1
C12 C11 H11 107.1
C10 C11 H11 107.1
C13 C12 C11 115.9(7)
C13 C12 H12A 108.3
C11 C12 H12A 108.3
C13 C12 H12B 108.3
C11 C12 H12B 108.3
H12A C12 H12B 107.4
C12 C13 S2 115.5(6)
C12 C13 H13A 108.4
S2 C13 H13A 108.4
C12 C13 H13B 108.4
S2 C13 H13B 108.4
H13A C13 H13B 107.5
S2 C14 H14A 109.5
S2 C14 H14B 109.5
H14A C14 H14B 109.5
S2 C14 H14C 109.5
H14A C14 H14C 109.5
H14B C14 H14C 109.5
C6 N1 H1C 112(7)
C6 N1 H1A 109(8)
H1C N1 H1A 109(4)
C6 N1 H1B 107(7)
H1C N1 H1B 110(4)
H1A N1 H1B 110(4)
C11 N2 H2C 109.5
C11 N2 H2D 109.5
H2C N2 H2D 109.5
C11 N2 H2E 109.5
H2C N2 H2E 109.5
H2D N2 H2E 109.5
C4 O1 H1 109.5
C1 O4 H4 109.5
C9 S1 C8 102.1(5)
C13 S2 C14 100.4(6)
loop_
_geom_bond_atom_site_label_1
_geom_bond_atom_site_label_2
_geom_bond_distance
C1 O3 1.196(9)
C1 O4 1.349(9)
C1 C2 1.480(10)
C2 C3 1.512(10)
C2 H2A 0.9700
C2 H2B 0.9700
C3 C4 1.494(10)
C3 H3A 0.9700
C3 H3B 0.9700
C4 O2 1.208(9)
C4 O1 1.317(9)
C5 O6 1.244(9)
C5 O5 1.248(9)
C5 C6 1.533(10)
C6 N1 1.486(9)
C6 C7 1.511(11)
C6 H6 0.9800
C7 C8 1.505(13)
C7 H7A 0.9700
C7 H7B 0.9700
C8 S1 1.802(9)
C8 H8A 0.9700
C8 H8B 0.9700
C9 S1 1.793(15)
C9 H9A 0.9600
C9 H9B 0.9600
C9 H9C 0.9600
C10 O7 1.232(9)
C10 O8 1.260(9)
C10 C11 1.518(10)
C11 N2 1.475(9)
C11 C12 1.513(11)
C11 H11 0.9800
C12 C13 1.496(13)
C12 H12A 0.9700
C12 H12B 0.9700
C13 S2 1.798(9)
C13 H13A 0.9700
C13 H13B 0.9700
C14 S2 1.801(12)
C14 H14A 0.9600
C14 H14B 0.9600
C14 H14C 0.9600
N1 H1C 0.90(3)
N1 H1A 0.90(3)
N1 H1B 0.90(3)
N2 H2C 0.8900
N2 H2D 0.8900
N2 H2E 0.8900
O1 H1 0.8200
O4 H4 0.8200
loop_
_geom_hbond_atom_site_label_D
_geom_hbond_atom_site_label_H
_geom_hbond_atom_site_label_A
_geom_hbond_site_symmetry_A
_geom_hbond_distance_DH
_geom_hbond_distance_HA
_geom_hbond_distance_DA
_geom_hbond_angle_DHA
O1 H1 O5 1_545 0.82 1.83 2.639(7) 168
O4 H4 O7 1_446 0.82 1.84 2.647(7) 169
N1 H1C O1 1_465 0.90(3) 2.59(8) 3.133(9) 120(7)
N1 H1C O2 1_565 0.90(3) 2.09(7) 2.842(8) 140(9)
N1 H1A O5 1_465 0.90(3) 2.47(8) 3.168(8) 135(9)
N1 H1A O6 1_465 0.90(3) 2.01(4) 2.866(8) 160(10)
N1 H1B O6 1_565 0.90(3) 2.03(5) 2.897(8) 161(10)
N2 H2C O3 1_664 0.89 2.07 2.849(8) 146
N2 H2D O8 1_655 0.89 2.07 2.904(8) 156
N2 H2E O7 1_645 0.89 2.45 3.169(8) 139
N2 H2E O8 1_645 0.89 2.01 2.875(8) 163
C6 H6 O5 1_455 0.98 2.26 3.206(9) 162
C11 H11 O7 1_545 0.98 2.28 3.210(9) 159
C12 H12B O8 1_645 0.97 2.65 3.415(10) 136
loop_
_geom_torsion_atom_site_label_1
_geom_torsion_atom_site_label_2
_geom_torsion_atom_site_label_3
_geom_torsion_atom_site_label_4
_geom_torsion
O3 C1 C2 C3 2.7(10)
O4 C1 C2 C3 -176.5(6)
C1 C2 C3 C4 73.3(8)
C2 C3 C4 O2 5.1(11)
C2 C3 C4 O1 -176.5(6)
O6 C5 C6 N1 -176.1(6)
O5 C5 C6 N1 4.8(9)
O6 C5 C6 C7 -50.7(9)
O5 C5 C6 C7 130.2(7)
N1 C6 C7 C8 70.9(9)
C5 C6 C7 C8 -54.5(9)
C6 C7 C8 S1 179.5(6)
O7 C10 C11 N2 5.8(9)
O8 C10 C11 N2 -174.4(6)
O7 C10 C11 C12 131.6(7)
O8 C10 C11 C12 -48.6(8)
N2 C11 C12 C13 67.3(9)
C10 C11 C12 C13 -58.5(9)
C11 C12 C13 S2 177.6(6)
C7 C8 S1 C9 71.9(9)
C12 C13 S2 C14 72.1(9)
