#------------------------------------------------------------------------------
#$Date: 2016-08-07 11:00:38 +0300 (Sun, 07 Aug 2016) $
#$Revision: 185131 $
#$URL: file:///home/coder/svn-repositories/cod/cif/1/54/29/1542967.cif $
#------------------------------------------------------------------------------
#
# This file is available in the Crystallography Open Database (COD),
# http://www.crystallography.net/
#
# All data on this site have been placed in the public domain by the
# contributors.
#
data_1542967
loop_
_publ_author_name
'Huang, Manna'
'Yu, Ruina'
'Xu, Ke'
'Ye, Shuxian'
'Kuang, Shi'
'Zhu, Xinhai'
'Wan, Yiqian'
_publ_section_title
;
 An arch-bridge-type fluorophore for bridging the gap between
 aggregation-caused quenching (ACQ) and aggregation-induced emission (AIE)
;
_journal_issue                   7
_journal_name_full               'Chem. Sci.'
_journal_page_first              4485
_journal_paper_doi               10.1039/C6SC01254J
_journal_volume                  7
_journal_year                    2016
_chemical_formula_sum            'C24 H16 Cl N3 O S2'
_chemical_formula_weight         461.97
_chemical_name_systematic
4-(8-(2-chlorophenyl)-6-isopropylthiazolo[5,4-b]thieno[3,2-e]pyridin-2-yl)-3-hydroxybenzonitrile
_space_group_crystal_system      monoclinic
_space_group_IT_number           14
_space_group_name_Hall           '-P 2ybc'
_space_group_name_H-M_alt        'P 1 21/c 1'
_symmetry_space_group_name_Hall  '-P 2ybc'
_symmetry_space_group_name_H-M   'P 1 21/c 1'
_atom_sites_solution_hydrogens   mixed
_audit_creation_method           SHELXL-2014/7
_audit_update_record
;
2015-11-08 deposited with the CCDC.
2016-03-29 downloaded from the CCDC.
;
_cell_angle_alpha                90
_cell_angle_beta                 103.485(3)
_cell_angle_gamma                90
_cell_formula_units_Z            4
_cell_length_a                   14.1636(4)
_cell_length_b                   7.6109(2)
_cell_length_c                   20.6614(5)
_cell_measurement_reflns_used    2766
_cell_measurement_temperature    293(2)
_cell_measurement_theta_max      60.7690
_cell_measurement_theta_min      3.1940
_cell_volume                     2165.85(10)
_computing_cell_refinement       'Bruker FRAMBO'
_computing_data_collection       'Bruker FRAMBO'
_computing_data_reduction        'Bruker SAINT'
_computing_molecular_graphics    'Bruker SHELXTL'
_computing_publication_material  'Bruker SHELXTL'
_computing_structure_refinement  'SHELXL-2014/7 (Sheldrick, 2014)'
_computing_structure_solution    'Bruker SHELXTL'
_diffrn_ambient_temperature      293(2)
_diffrn_detector_area_resol_mean 16.0855
_diffrn_measured_fraction_theta_full 0.984
_diffrn_measured_fraction_theta_max 0.984
_diffrn_measurement_device_type  'multiwire proportional'
_diffrn_measurement_method       'phi and omega scans'
_diffrn_radiation_type           CuK\a
_diffrn_radiation_wavelength     1.54178
_diffrn_reflns_av_R_equivalents  0.0276
_diffrn_reflns_av_unetI/netI     0.0274
_diffrn_reflns_Laue_measured_fraction_full 0.984
_diffrn_reflns_Laue_measured_fraction_max 0.984
_diffrn_reflns_limit_h_max       13
_diffrn_reflns_limit_h_min       -16
_diffrn_reflns_limit_k_max       7
_diffrn_reflns_limit_k_min       -8
_diffrn_reflns_limit_l_max       23
_diffrn_reflns_limit_l_min       -22
_diffrn_reflns_number            7154
_diffrn_reflns_point_group_measured_fraction_full 0.984
_diffrn_reflns_point_group_measured_fraction_max 0.984
_diffrn_reflns_theta_full        61.084
_diffrn_reflns_theta_max         61.084
_diffrn_reflns_theta_min         3.209
_diffrn_source                   'Enhance Ultra (Cu) X-ray Source'
_exptl_absorpt_coefficient_mu    3.541
_exptl_absorpt_correction_T_max  1.00000
_exptl_absorpt_correction_T_min  0.83370
_exptl_absorpt_correction_type   multi-scan
_exptl_absorpt_process_details
; 
'Tue Sep 22 17:41:35 2015' 
;
_exptl_crystal_colour            yellow
_exptl_crystal_density_diffrn    1.417
_exptl_crystal_description       block
_exptl_crystal_F_000             952
_exptl_crystal_recrystallization_method
'Re-crystallisation from solvent: THF/EtOH'
_exptl_crystal_size_max          0.18
_exptl_crystal_size_mid          0.16
_exptl_crystal_size_min          0.13
_refine_diff_density_max         0.485
_refine_diff_density_min         -0.433
_refine_diff_density_rms         0.041
_refine_ls_extinction_method     none
_refine_ls_goodness_of_fit_ref   1.029
_refine_ls_hydrogen_treatment    constr
_refine_ls_matrix_type           full
_refine_ls_number_parameters     294
_refine_ls_number_reflns         3271
_refine_ls_number_restraints     24
_refine_ls_restrained_S_all      1.044
_refine_ls_R_factor_all          0.0536
_refine_ls_R_factor_gt           0.0444
_refine_ls_shift/su_max          0.000
_refine_ls_shift/su_mean         0.000
_refine_ls_structure_factor_coef Fsqd
_refine_ls_weighting_details
'w=1/[\s^2^(Fo^2^)+(0.0724P)^2^+0.6132P] where P=(Fo^2^+2Fc^2^)/3'
_refine_ls_weighting_scheme      calc
_refine_ls_wR_factor_gt          0.1225
_refine_ls_wR_factor_ref         0.1325
_reflns_Friedel_coverage         0.000
_reflns_number_gt                2703
_reflns_number_total             3271
_reflns_threshold_expression     'I > 2\s(I)'
_cod_data_source_file            c6sc01254j2.cif
_cod_data_source_block           1
_cod_depositor_comments
'Adding full bibliography for 1542965--1542969.cif.'
_cod_database_code               1542967
_shelx_shelxl_version_number     2014/7
_shelx_space_group_comment
; 
The symmetry employed for this shelxl refinement is uniquely defined 
by the following loop, which should always be used as a source of 
symmetry information in preference to the above space-group names. 
They are only intended as comments. 
;
_shelx_res_file
; 
  
    1.res created by SHELXL-2014/7 
  
  
TITL 1 in P2(1)/c 
CELL 1.54178  14.1636   7.6109  20.6614  90.000 103.485  90.000 
ZERR    4.00   0.0004   0.0002   0.0005   0.000   0.003   0.000 
LATT  1 
SYMM -X, 0.5+Y, 0.5-Z 
SFAC C H N O S CL 
UNIT 96 64 12 4 8 4 
  
L.S. 20 
ACTA 
BOND $H 
CONF 
HTAB O1 N2 
EQIV $1 -x+3, -y+1, -z 
HTAB C3 N3_$1 
EQIV $2 -x+2, y-1/2, -z-1/2 
HTAB C23 O1_$2 
FMAP 2 
PLAN -1 
  
EADP C16 C16' 
EADP C17 C17' 
EADP C18 C18' 
ISOR 0.01 C17 C17' C18 C18' 
  
WGHT    0.072400    0.613200 
FVAR       0.13940   0.71732 
CL1   6    0.779921   -0.007854   -0.240972    11.00000    0.17147    0.07872 = 
         0.08294   -0.01797    0.04391   -0.01581 
S1    5    0.985468    0.196406    0.055962    11.00000    0.07348    0.07657 = 
         0.04837    0.00043    0.01476   -0.00557 
S2    5    0.600667    0.132572   -0.045655    11.00000    0.07152    0.10945 = 
         0.06788   -0.00366    0.02253   -0.00200 
O1    4    1.152986    0.415083   -0.092650    11.00000    0.08706    0.11395 = 
         0.07618    0.02863    0.02328   -0.00309 
AFIX   3 
H1A   2    1.092356    0.396273   -0.105610    11.00000   -1.20000 
AFIX   0 
N1    3    0.792011    0.162423    0.006308    11.00000    0.07075    0.07415 = 
         0.05392   -0.00377    0.01914   -0.00341 
N2    3    0.993968    0.284855   -0.064103    11.00000    0.07230    0.06130 = 
         0.05120    0.00150    0.01681   -0.00083 
N3    3    1.535702    0.401742    0.088810    11.00000    0.07705    0.13456 = 
         0.13239   -0.00104    0.02638   -0.01002 
C1    1    1.453322    0.383296    0.071194    11.00000    0.07890    0.09659 = 
         0.10491   -0.00238    0.02669   -0.00056 
C2    1    1.350166    0.352569    0.051144    11.00000    0.06821    0.07194 = 
         0.09168   -0.00773    0.02269   -0.00058 
C3    1    1.298198    0.403583   -0.011613    11.00000    0.07917    0.07945 = 
         0.09032    0.00719    0.03295   -0.00270 
AFIX  43 
H3A   2    1.329500    0.460974   -0.040428    11.00000   -1.20000 
AFIX   0 
C4    1    1.199321    0.368696   -0.031267    11.00000    0.07764    0.06575 = 
         0.07026    0.00441    0.02232    0.00174 
C5    1    1.151903    0.288942    0.013930    11.00000    0.07091    0.05606 = 
         0.06344   -0.00277    0.02091   -0.00163 
C6    1    1.207203    0.239254    0.076417    11.00000    0.07462    0.07661 = 
         0.06426    0.00135    0.01751   -0.00083 
AFIX  43 
H6A   2    1.176620    0.184188    0.106154    11.00000   -1.20000 
AFIX   0 
C7    1    1.304824    0.269172    0.095099    11.00000    0.07372    0.08644 = 
         0.07320   -0.00173    0.01506    0.00380 
AFIX  43 
H7A   2    1.340328    0.233964    0.136798    11.00000   -1.20000 
AFIX   0 
C8    1    1.047812    0.261114   -0.004171    11.00000    0.07228    0.05508 = 
         0.05463   -0.00247    0.01666    0.00003 
C9    1    0.877974    0.201722   -0.005178    11.00000    0.07488    0.06189 = 
         0.04875   -0.00229    0.01724    0.00024 
C10   1    0.897176    0.251189   -0.067029    11.00000    0.07219    0.05752 = 
         0.05104   -0.00235    0.01696   -0.00131 
C11   1    0.820944    0.257883   -0.123581    11.00000    0.07402    0.06008 = 
         0.04919   -0.00331    0.01573    0.00297 
C12   1    0.728459    0.217274   -0.113352    11.00000    0.07379    0.06905 = 
         0.05334   -0.00452    0.01630    0.00515 
C13   1    0.720210    0.173642   -0.048084    11.00000    0.07331    0.07039 = 
         0.05669   -0.00582    0.01932    0.00153 
C14   1    0.635912    0.213870   -0.158962    11.00000    0.07860    0.09288 = 
         0.05737   -0.00389    0.01259    0.00711 
AFIX  43 
H14A  2    0.627391    0.238552   -0.204040    11.00000   -1.20000 
AFIX   0 
C15   1    0.561736    0.171756   -0.131108    11.00000    0.07158    0.11307 = 
         0.06940   -0.00745    0.01404    0.00407 
PART   1 
C16   1    0.454531    0.176989   -0.163282    21.00000    0.07088    0.09179 = 
         0.08968    0.00081    0.01010    0.00146 
AFIX  13 
H16A  2    0.442950    0.303700   -0.168530    21.00000   -1.20000 
AFIX   0 
C17   1    0.390247    0.129609   -0.121444    21.00000    0.07679    0.19129 = 
         0.11352   -0.01710    0.02239   -0.01312 
AFIX 137 
H17A  2    0.411057    0.186323   -0.079003    21.00000   -1.50000 
H17B  2    0.391435    0.004525   -0.115324    21.00000   -1.50000 
H17C  2    0.325391    0.166391   -0.142113    21.00000   -1.50000 
AFIX   0 
C18   1    0.431561    0.117736   -0.233067    21.00000    0.09855    0.24179 = 
         0.10337   -0.05473    0.00102   -0.01608 
AFIX 137 
H18A  2    0.478337    0.165157   -0.255278    21.00000   -1.50000 
H18B  2    0.367831    0.157695   -0.254975    21.00000   -1.50000 
H18C  2    0.433543   -0.008265   -0.234432    21.00000   -1.50000 
AFIX   0 
PART   2 
C16'  1    0.458271    0.076866   -0.162470   -21.00000    0.07088    0.09179 = 
         0.08968    0.00081    0.01010    0.00146 
AFIX  13 
H16B  2    0.486571   -0.013461   -0.185996   -21.00000   -1.20000 
AFIX   0 
C17'  1    0.412645   -0.008924   -0.146489   -21.00000    0.07679    0.19129 = 
         0.11352   -0.01710    0.02239   -0.01312 
AFIX 137 
H17D  2    0.346660    0.028781   -0.162619   -21.00000   -1.50000 
H17E  2    0.428133   -0.011404   -0.098721   -21.00000   -1.50000 
H17F  2    0.420447   -0.124427   -0.163174   -21.00000   -1.50000 
AFIX   0 
C18'  1    0.430527    0.210452   -0.227619   -21.00000    0.09855    0.24179 = 
         0.10337   -0.05473    0.00102   -0.01608 
AFIX 137 
H18D  2    0.470120    0.182612   -0.258128   -21.00000   -1.50000 
H18E  2    0.442102    0.329871   -0.212952   -21.00000   -1.50000 
H18F  2    0.363308    0.196161   -0.249467   -21.00000   -1.50000 
AFIX   0 
PART   0 
C19   1    0.837780    0.313235   -0.189245    11.00000    0.07223    0.06784 = 
         0.05139    0.00022    0.01498    0.00822 
C20   1    0.875389    0.480891   -0.195607    11.00000    0.09875    0.07650 = 
         0.06185    0.00107    0.02527    0.00059 
AFIX  43 
H20A  2    0.891456    0.553766   -0.158532    11.00000   -1.20000 
AFIX   0 
C21   1    0.889043    0.539928   -0.256073    11.00000    0.11716    0.07531 = 
         0.08467    0.00797    0.04515    0.00283 
AFIX  43 
H21A  2    0.914434    0.651413   -0.259299    11.00000   -1.20000 
AFIX   0 
C22   1    0.865271    0.434638   -0.311159    11.00000    0.12380    0.09053 = 
         0.06775    0.00822    0.04485    0.01929 
AFIX  43 
H22A  2    0.872305    0.476608   -0.352047    11.00000   -1.20000 
AFIX   0 
C23   1    0.831168    0.267761   -0.306473    11.00000    0.12707    0.09317 = 
         0.05590   -0.00676    0.03260    0.01787 
AFIX  43 
H23A  2    0.816480    0.195425   -0.343752    11.00000   -1.20000 
AFIX   0 
C24   1    0.818740    0.207648   -0.245532    11.00000    0.09674    0.06924 = 
         0.05613   -0.00362    0.02296    0.00862 
  
HKLF 4 
  
REM  1 in P2(1)/c 
REM R1 =  0.0444 for    2703 Fo > 4sig(Fo)  and  0.0536 for all    3271 data 
REM    294 parameters refined using     24 restraints 
  
END 
  
WGHT      0.0723      0.6148 
  
REM Highest difference peak  0.485,  deepest hole -0.433,  1-sigma level  0.041 
Q1    1   0.8548 -0.0083 -0.2202  11.00000  0.05    0.48 
;
_shelx_res_checksum              91339
_shelx_hkl_file
; 
   0   0  -2  332.48    1.96 
   0   0  -3   -0.03    0.04 
   0   0  -4  228.09    2.37 
   0   0  -5    0.07    0.08 
   0   0  -6  146.39    2.37 
   0   0  -7    0.04    0.09 
   0   0  -8    3.41    0.44 
   0   0  -9    0.37    0.17 
   0   0 -10   45.12    1.84 
   0   0 -11   -0.26    0.17 
   0   0 -12    6.43    0.79 
   0   0  12    6.67    0.27 
   0   0  12    6.96    0.26 
   0   0  13    0.13    0.05 
   0   0  13   -0.03    0.05 
   0   0 -13   -0.05    0.10 
   0   0  14    2.17    0.17 
   0   0 -14    1.89    0.48 
   0   0  14    2.26    0.17 
   0   0  15    0.03    0.05 
   0   0  15   -0.01    0.04 
   0   0  16   53.91    0.92 
   0   0  16   54.23    0.88 
   0   0  17   -0.04    0.06 
   0   0  17    0.01    0.06 
   0   0  18    3.79    0.25 
   0   0  18    3.81    0.26 
   0   0  19    0.09    0.06 
   0   0  19    0.00    0.05 
   0   0  20   14.56    0.48 
   0   0  21   -0.05    0.06 
   0   0  22    0.56    0.09 
   0   1   1    2.16    0.15 
   0   1   2  128.93    1.24 
   0  -1  -2  126.62    1.26 
   0  -1  -3   23.52    0.66 
   0   1   3   24.95    0.62 
   0   1   4   11.05    0.46 
   0  -1  -4   11.51    0.54 
   0   1   5   43.04    1.01 
   0  -1  -5   41.70    1.15 
   0   1  -6   11.32    0.69 
   0   1   6   10.55    0.55 
   0  -1  -6   10.82    0.65 
   0   1   7    0.82    0.18 
   0   1  -7    1.11    0.24 
   0  -1  -7    1.18    0.24 
   0  -1  -8   21.78    1.10 
   0   1  -8   21.13    1.11 
   0  -1  -9    0.31    0.15 
   0   1  -9    0.32    0.16 
   0  -1 -10   34.76    1.60 
   0   1 -10   33.42    1.62 
   0   1 -11   74.04    2.57 
   0  -1  11   76.01    0.81 
   0  -1  11   75.84    0.83 
   0   1  11   76.78    0.85 
   0  -1  12    0.03    0.04 
   0   1  12    0.01    0.04 
   0  -1  12    0.01    0.03 
   0   1 -12   -0.07    0.14 
   0   1  12    0.00    0.03 
   0  -1 -12    0.20    0.17 
   0   1  13    0.54    0.09 
   0  -1  13    0.49    0.09 
   0   1 -13    0.60    0.27 
   0   1  13    0.53    0.08 
   0  -1  13    0.65    0.09 
   0  -1  14    0.09    0.04 
   0  -1  14    0.09    0.05 
   0   1  14    0.07    0.04 
   0  -1 -14    0.27    0.19 
   0   1  14    0.10    0.05 
   0  -1  15    2.53    0.19 
   0   1  15    3.28    0.23 
   0   1 -15    3.35    0.67 
   0  -1  15    2.83    0.21 
   0   1  15    2.77    0.19 
   0   1  16    2.94    0.20 
   0  -1  16    2.64    0.21 
   0   1  16    3.21    0.23 
   0  -1  16    3.21    0.22 
   0  -1  17   13.89    0.48 
   0   1  17   13.25    0.48 
   0   1  17   13.21    0.43 
   0  -1  17   13.29    0.47 
   0   1  18    0.06    0.06 
   0  -1  18    0.03    0.06 
   0   1  18    0.00    0.06 
   0  -1  18    0.02    0.05 
   0  -1  19    0.16    0.07 
   0   1  19    0.19    0.06 
   0  -1  19    0.17    0.07 
   0   1  19    0.16    0.07 
   0   1  20    0.22    0.07 
   0  -1  20    0.40    0.09 
   0   1  21    2.77    0.21 
   0  -1  21    2.52    0.19 
   0   1  22    1.68    0.15 
   0  -1  22    1.54    0.14 
   0   2   0  515.41    3.22 
   0   2   1   41.48    0.90 
   0   2   2  488.31    3.21 
   0   2   3   15.72    0.59 
   0   2   4   32.17    0.89 
   0  -2  -4   30.41    0.87 
   0  -2  -5   10.13    0.56 
   0   2   5   10.50    0.54 
   0   2   6   15.39    0.70 
   0  -2  -6   15.82    0.78 
   0  -2  -7    6.32    0.54 
   0   2  -7    7.34    0.64 
   0   2   7    7.52    0.53 
   0  -2  -8   24.66    1.15 
   0   2   8   26.19    1.03 
   0   2  -9   38.69    1.69 
   0  -2  -9   40.68    1.60 
   0   2  10    0.06    0.04 
   0  -2 -10    0.10    0.11 
   0   2 -10    0.02    0.11 
   0   2  11    8.64    0.30 
   0  -2 -11    8.37    0.82 
   0  -2 -11    7.43    0.25 
   0  -2  11    8.29    0.28 
   0   2 -11    7.59    0.85 
   0  -2  11    8.39    0.29 
   0  -2  12    2.98    0.18 
   0  -2 -12    2.82    0.50 
   0  -2 -12    2.92    0.17 
   0   2 -12    3.46    0.62 
   0  -2  12    2.92    0.18 
   0   2  12    3.16    0.19 
   0  -2 -13    0.72    0.09 
   0  -2 -13    0.89    0.29 
   0  -2  13    0.74    0.10 
   0   2  13    0.95    0.12 
   0   2 -13    0.73    0.32 
   0  -2  13    0.88    0.11 
   0   2  14   12.96    0.44 
   0  -2  14   13.29    0.42 
   0  -2 -14   12.55    1.12 
   0   2 -14   13.24    1.31 
   0  -2  14   12.69    0.42 
   0  -2  15    1.79    0.17 
   0  -2  15    1.74    0.17 
   0   2  15    1.91    0.18 
   0  -2  16   12.31    0.44 
   0  -2  16   12.05    0.44 
   0   2  16   12.75    0.46 
   0  -2  17    4.09    0.26 
   0   2  17    4.30    0.28 
   0  -2  17    4.67    0.28 
   0   2  18   13.00    0.47 
   0  -2  18   12.84    0.46 
   0  -2  18   12.24    0.45 
   0  -2  19    0.98    0.13 
   0   2  19    1.14    0.15 
   0  -2  19    1.33    0.15 
   0   2  20    0.61    0.10 
   0  -2  20    0.57    0.10 
   0   2  21    0.60    0.10 
   0  -2  21    0.42    0.09 
   0   2  22    0.09    0.05 
   0   3   0    0.04    0.06 
   0   3   1   56.12    1.33 
   0   3  -1   55.34    1.36 
   0   3   2    0.67    0.15 
   0   3   3    6.93    0.47 
   0   3   4   26.82    0.93 
   0   3   5    0.18    0.09 
   0   3   6   17.21    0.80 
   0   3   7    3.41    0.38 
   0   3  -7    3.37    0.47 
   0  -3  -8    1.65    0.12 
   0   3  -8    1.57    0.34 
   0  -3  -9   18.41    0.42 
   0  -3   9   16.80    0.39 
   0  -3  -9   17.44    0.37 
   0   3  -9   18.56    1.23 
   0  -3  10    0.44    0.07 
   0  -3 -10    0.51    0.08 
   0  -3 -10    0.52    0.07 
   0  -3  10    0.40    0.06 
   0   3 -10    0.28    0.18 
   0  -3  11    5.49    0.24 
   0  -3 -11    4.99    0.21 
   0  -3 -11    4.95    0.23 
   0  -3  11    4.62    0.23 
   0   3  11    4.86    0.24 
   0   3 -11    4.57    0.68 
   0  -3  12    2.07    0.16 
   0   3 -12    2.10    0.50 
   0  -3 -12    2.23    0.17 
   0  -3  12    1.89    0.16 
   0  -3 -12    1.89    0.13 
   0   3  12    2.24    0.18 
   0  -3  13    4.44    0.25 
   0  -3  13    5.06    0.25 
   0   3  13    4.67    0.26 
   0  -3 -13    4.83    0.25 
   0   3  14    0.02    0.05 
   0  -3  14    0.02    0.05 
   0  -3 -14    0.01    0.04 
   0  -3  14    0.04    0.04 
   0  -3 -15    4.13    0.23 
   0  -3  15    4.24    0.25 
   0  -3  15    4.18    0.26 
   0   3  15    4.29    0.27 
   0  -3  16    0.06    0.05 
   0   3  16    0.04    0.06 
   0  -3  16    0.05    0.06 
   0  -3  17    1.70    0.17 
   0   3  17    1.94    0.19 
   0  -3  17    1.66    0.17 
   0   3  18    4.64    0.28 
   0   3  19    9.06    0.34 
   0   3  19    8.88    0.37 
   0   3  20    0.54    0.09 
   0   3  21    0.58    0.09 
   0   4   0   35.09    1.25 
   0   4  -1   12.90    0.78 
   0   4  -2   66.31    1.82 
   0  -4  -4    2.56    0.14 
   0  -4  -5    7.65    0.27 
   0  -4   5    7.40    0.25 
   0  -4  -5    7.50    0.25 
   0  -4   6   10.59    0.31 
   0  -4  -6   10.80    0.32 
   0  -4  -6   10.99    0.33 
   0  -4   7    2.89    0.17 
   0  -4  -7    3.08    0.17 
   0  -4  -7    3.19    0.19 
   0  -4  -8    9.71    0.33 
   0  -4  -8    9.78    0.31 
   0  -4  -9    3.89    0.22 
   0  -4  -9    4.03    0.21 
   0  -4 -10    0.23    0.07 
   0  -4 -10    0.20    0.05 
   0  -4 -11    4.07    0.22 
   0   4  11    4.13    0.24 
   0  -4 -11    3.91    0.23 
   0  -4 -12   10.91    0.36 
   0   4  12   11.17    0.40 
   0  -4 -12   10.95    0.39 
   0   4  13    7.05    0.33 
   0  -4 -13    6.39    0.28 
   0  -4  13    7.14    0.30 
   0   4  14    1.51    0.16 
   0   4  15    2.19    0.19 
   0   4  16    8.31    0.37 
   0   4  17    0.13    0.06 
   0   4  18    0.09    0.05 
   0   4  19    0.38    0.08 
   0   4  19    0.40    0.09 
   0  -5   0    0.03    0.04 
   0  -5   0    0.04    0.05 
   0  -5   1   18.49    0.43 
   0  -5   1   18.68    0.48 
   0  -5  -1   19.16    0.47 
   0  -5   1   18.74    0.40 
   0  -5  -1   18.91    0.42 
   0  -5   2    0.31    0.08 
   0  -5  -2    0.27    0.07 
   0  -5   2    0.30    0.07 
   0  -5  -2    0.35    0.07 
   0  -5  -3    0.91    0.11 
   0  -5  -3    1.04    0.11 
   0  -5   3    0.88    0.10 
   0  -5  -4    0.69    0.09 
   0  -5  -4    0.65    0.09 
   0  -5   4    0.70    0.10 
   0  -5  -5    0.88    0.10 
   0  -5   5    0.87    0.11 
   0  -5  -6    4.45    0.23 
   0  -5   6    4.16    0.22 
   0  -5  -7    1.38    0.13 
   0  -5   7    1.20    0.13 
   0  -5  -8    0.52    0.09 
   0  -5  -9    0.46    0.09 
   0  -5 -10    0.60    0.10 
   0   5  11    2.92    0.21 
   0  -5 -11    2.70    0.20 
   0  -5 -12    0.37    0.08 
   0   5  12    0.32    0.08 
   0  -5 -13    3.51    0.22 
   0   5  13    3.62    0.24 
   0  -5 -14    0.02    0.05 
   0   5  14    0.00    0.05 
   0   5  15    0.25    0.07 
   0  -5 -15    0.38    0.08 
   0   5  16    0.89    0.12 
   0   5  17    2.46    0.18 
   0   5  18    0.64    0.09 
   0   5  18    0.65    0.09 
   0  -6   0    1.73    0.17 
   0  -6   0    1.61    0.13 
   0  -6   0    1.55    0.15 
   0  -6   1    1.51    0.15 
   0  -6  -1    1.65    0.16 
   0  -6  -1    1.68    0.16 
   0  -6   1    1.43    0.13 
   0  -6  -1    1.49    0.13 
   0  -6   2    2.67    0.19 
   0  -6  -2    2.89    0.19 
   0  -6  -2    3.11    0.21 
   0  -6   3    6.24    0.29 
   0  -6  -3    6.30    0.28 
   0  -6  -4   10.24    0.37 
   0  -6   4   10.41    0.37 
   0  -6  -5    7.95    0.33 
   0  -6   5    7.82    0.33 
   0  -6   6    0.29    0.08 
   0  -6  -6    0.31    0.08 
   0  -6  -7    6.60    0.31 
   0  -6  -8    0.04    0.05 
   0  -6  -9    4.69    0.27 
   0  -6 -10    7.98    0.34 
   0  -6 -11    1.82    0.17 
   0  -6 -12    0.38    0.09 
   0  -6 -13    7.72    0.31 
   0  -6 -14    0.80    0.10 
   0  -6 -15    1.83    0.14 
   0   6  16    0.36    0.07 
   0  -7   0    0.02    0.06 
   0  -7   0   -0.01    0.03 
   0  -7  -1   -0.01    0.05 
   0  -7   1   -0.02    0.06 
   0  -7  -1   -0.02    0.04 
   0  -7  -2    0.18    0.08 
   0  -7   2    0.19    0.08 
   0  -7  -2    0.15    0.06 
   0  -7   3    0.65    0.11 
   0  -7  -3    0.56    0.09 
   0  -7  -3    0.57    0.11 
   0  -7  -4    1.81    0.16 
   0  -7   4    2.09    0.18 
   0  -7  -4    1.80    0.17 
   0  -7  -5    0.14    0.06 
   0  -7   5    0.17    0.06 
   0  -7  -6    0.37    0.08 
   0  -7  -7    0.04    0.04 
   0  -7  -8    0.31    0.08 
   0  -7  -9    1.28    0.14 
   0  -7 -10    0.72    0.10 
   0  -7 -11   -0.01    0.04 
   0  -7 -12    0.47    0.08 
   0   7  12    0.42    0.07 
   0  -7 -13    0.49    0.08 
   0  -8   0    0.28    0.07 
   0  -8  -1    0.12    0.06 
   0  -8   1    0.13    0.06 
   0  -8  -2    0.08    0.05 
   0  -8   2    0.08    0.04 
   0  -8  -2    0.09    0.03 
   0  -8  -3    1.14    0.13 
   0  -8  -3    0.98    0.10 
   0  -8   3    1.08    0.12 
   0  -8  -4    0.13    0.05 
   0  -8  -4    0.16    0.06 
   0  -8  -5    0.35    0.07 
   0  -8  -5    0.43    0.07 
   0  -8  -6    0.58    0.08 
   0  -8  -6    0.56    0.09 
   0  -8  -7    0.28    0.07 
   0  -8  -7    0.32    0.07 
   0  -8  -8    0.56    0.08 
   0  -8  -8    0.53    0.08 
  -1   0  23   -0.01    0.03 
  -1   0  22    0.02    0.05 
  -1   0  21   -0.02    0.05 
  -1   0  20    0.50    0.10 
  -1   0  19    0.04    0.06 
  -1   0  18    2.99    0.23 
  -1   0  18    2.92    0.22 
  -1   0  17    0.02    0.05 
  -1   0  17   -0.02    0.06 
  -1   0  16    8.16    0.35 
  -1   0  16    7.69    0.33 
  -1   0  15    0.01    0.04 
  -1   0  15    0.04    0.04 
   1   0 -15   -0.06    0.12 
  -1   0  14    0.21    0.07 
  -1   0  14    0.18    0.06 
   1   0 -14    0.39    0.26 
  -1   0  13   -0.01    0.04 
  -1   0  13    0.01    0.04 
  -1   0  12    2.49    0.16 
  -1   0  12    2.38    0.15 
   1   0 -12    2.61    0.49 
   1   0 -11    0.31    0.17 
   1   0 -10   33.79    1.58 
   1   0  -9   -0.20    0.14 
   1   0  -8   17.17    0.97 
   1   0  -7   -0.07    0.09 
   1   0  -6    9.84    0.62 
   1   0  -5    0.02    0.09 
   1   0  -4  517.33    3.64 
   1   0  -3    0.11    0.06 
   1   0  -2  289.01    1.95 
   1   0  -1    0.15    0.04 
   1   0   0   60.41    0.63 
   1   0   1    0.05    0.04 
   1   0   2   87.78    1.10 
   1   0   3    0.01    0.04 
   1   0   4   40.82    0.97 
   1   0   5    0.07    0.07 
  -1   0  -6   23.59    0.99 
  -1   0  -7    0.09    0.09 
  -1   0  -8    4.75    0.53 
  -1   0  -9   -0.11    0.12 
  -1   0 -10    4.60    0.61 
  -1   0 -11    0.08    0.14 
   1   0  11    0.03    0.04 
  -1   0 -12   47.34    2.18 
   1   0  12   50.64    0.71 
   1   0  12   48.69    0.74 
   1   0  13   -0.04    0.05 
  -1   0 -13   -0.15    0.14 
   1   0  13    0.03    0.04 
   1   0  14   17.58    0.49 
   1   0  14   17.48    0.47 
   1   0  15    0.00    0.05 
   1   0  15   -0.03    0.05 
   1   0  16   73.40    1.04 
   1   0  16   75.34    1.10 
   1   0  17    0.04    0.05 
   1   0  17    0.00    0.07 
   1   0  18    0.01    0.06 
   1   0  18    0.10    0.06 
   1   0  19   -0.02    0.06 
   1   0  19   -0.01    0.06 
   1   0  20    2.71    0.20 
   1   0  20    2.81    0.21 
   1   0  21    0.04    0.05 
   1   0  22    0.75    0.10 
  -1  -1  22    0.97    0.11 
  -1   1  22    0.72    0.10 
  -1   1  21    0.03    0.04 
  -1  -1  21    0.00    0.05 
  -1  -1  20    2.71    0.21 
  -1   1  20    2.78    0.22 
  -1  -1  19    1.25    0.15 
  -1   1  19    1.12    0.15 
  -1  -1  18    0.17    0.07 
  -1  -1  18    0.11    0.06 
  -1   1  18    0.26    0.08 
  -1   1  17   -0.03    0.06 
  -1   1  17   -0.03    0.06 
  -1  -1  17   -0.01    0.08 
  -1  -1  17    0.18    0.07 
  -1   1  16    0.50    0.08 
  -1   1  16    0.53    0.11 
  -1  -1  16    0.57    0.10 
  -1  -1  16    0.47    0.09 
  -1  -1  15    0.09    0.05 
  -1   1  15   -0.01    0.04 
  -1  -1  15    0.03    0.05 
  -1   1  15    0.05    0.05 
   1   1 -14   16.20    1.41 
  -1   1  14   18.05    0.49 
  -1  -1  14   18.44    0.48 
  -1  -1  14   18.23    0.49 
  -1   1  14   17.12    0.43 
   1  -1 -14   17.45    1.40 
  -1   1  13   20.17    0.49 
  -1  -1  13   20.86    0.49 
   1  -1 -13   19.90    1.45 
  -1  -1  13   20.41    0.48 
   1   1 -13   20.78    1.50 
  -1   1  13   20.03    0.44 
  -1  -1  12   39.03    0.63 
  -1  -1  12   39.38    0.61 
  -1   1  12   38.27    0.63 
  -1   1  12   36.25    0.55 
   1  -1 -12   36.60    1.85 
   1   1 -12   37.53    1.91 
   1   1 -11    0.41    0.22 
   1  -1 -11    0.85    0.26 
   1   1 -10    0.42    0.20 
   1  -1 -10    0.48    0.18 
   1  -1  -9   54.02    1.86 
   1   1  -9   53.88    1.87 
   1  -1  -8   40.19    1.49 
   1   1  -8   42.22    1.54 
   1   1  -7   66.46    1.79 
   1  -1  -7   67.68    1.80 
   1  -1  -6  103.46    2.05 
   1   1  -6  107.61    2.07 
   1  -1  -5  112.09    1.94 
   1   1  -5  115.42    1.95 
  -1   1   4    9.09    0.34 
   1   1  -4    9.09    0.49 
   1  -1  -4    8.76    0.49 
  -1   1   3   65.98    0.75 
   1  -1  -3   62.87    1.13 
   1   1  -3   62.76    1.10 
   1   1  -2    0.46    0.08 
  -1   1   2    0.50    0.05 
  -1   1   1    0.82    0.06 
   1   1  -1    0.93    0.08 
   1   1   0   96.37    1.19 
   1   1   1   29.75    0.70 
  -1  -1  -1   28.39    0.35 
   1   1   2  104.17    1.41 
  -1  -1  -2  110.01    1.09 
   1   1   3    8.73    0.44 
  -1  -1  -3    8.62    0.39 
   1   1   4    8.95    0.49 
  -1  -1  -4    9.28    0.47 
   1   1   5  134.23    2.01 
  -1  -1  -5  125.80    1.98 
   1   1   6    0.81    0.17 
  -1  -1  -6    0.92    0.20 
   1   1   7    5.84    0.49 
  -1  -1  -7    5.23    0.50 
  -1  -1  -8   75.72    2.06 
   1   1   8   80.28    1.93 
  -1   1  -8   78.69    2.22 
  -1   1  -9   21.98    1.27 
  -1  -1  -9   22.08    1.19 
  -1  -1 -10   14.68    1.06 
  -1   1 -10   13.99    1.08 
  -1  -1 -11   10.96    0.97 
   1   1  11   10.46    0.33 
  -1   1 -11   11.79    1.04 
   1  -1  11   10.34    0.32 
  -1  -1 -12   -0.15    0.13 
   1   1  12    0.21    0.06 
   1   1  12    0.21    0.05 
   1  -1  12    0.20    0.05 
   1  -1  12    0.23    0.06 
  -1   1 -12   -0.12    0.16 
   1  -1  13    0.00    0.04 
   1   1  13    0.03    0.04 
   1   1  13   -0.02    0.05 
  -1  -1 -13    0.22    0.18 
   1  -1  13    0.10    0.06 
  -1   1 -13   -0.22    0.19 
  -1  -1 -14    2.96    0.55 
   1   1  14    3.21    0.20 
   1  -1  14    2.99    0.20 
   1  -1  14    3.12    0.21 
  -1   1 -14    3.99    0.72 
   1   1  14    3.13    0.21 
   1   1  15    2.73    0.19 
   1   1  15    2.60    0.21 
   1  -1  15    2.59    0.20 
   1  -1  15    2.59    0.20 
   1   1  16   36.15    0.78 
   1  -1  16   35.57    0.75 
   1   1  16   36.66    0.71 
   1  -1  16   36.15    0.75 
   1   1  17    4.73    0.29 
   1  -1  17    4.71    0.28 
   1  -1  17    4.67    0.28 
   1   1  17    4.27    0.25 
   1  -1  18    5.65    0.31 
   1   1  18    5.84    0.32 
   1   1  18    5.79    0.29 
   1  -1  18    5.76    0.31 
   1  -1  19    0.60    0.11 
   1  -1  19    0.55    0.10 
   1   1  19    0.47    0.09 
   1   1  19    0.48    0.10 
   1   1  20    0.73    0.12 
   1  -1  20    0.74    0.11 
   1  -1  20    0.85    0.12 
   1  -1  21    0.04    0.04 
   1   1  21   -0.01    0.05 
   1   1  22    0.33    0.07 
  -1   2  22    0.74    0.10 
  -1   2  21    1.33    0.14 
  -1  -2  21    1.68    0.16 
  -1  -2  20    2.32    0.19 
  -1   2  20    2.68    0.21 
  -1   2  19    1.33    0.15 
  -1  -2  19    1.16    0.15 
  -1   2  18    5.78    0.31 
  -1   2  18    5.77    0.28 
  -1  -2  18    6.03    0.32 
  -1   2  17    1.42    0.16 
  -1  -2  17    1.29    0.15 
  -1  -2  17    1.44    0.16 
  -1   2  16   19.36    0.55 
  -1  -2  16   18.65    0.54 
  -1  -2  16   19.06    0.54 
  -1  -2  15   10.57    0.40 
  -1   2  15   11.01    0.41 
  -1  -2  15   10.31    0.38 
  -1  -2  14    6.53    0.30 
   1   2 -14    6.24    0.87 
   1  -2 -14    6.05    0.78 
  -1   2  14    6.19    0.30 
  -1  -2  14    6.61    0.29 
   1   2 -13   22.70    1.61 
  -1  -2  13   21.55    0.50 
  -1   2  13   22.22    0.52 
  -1  -2  13   21.99    0.53 
   1  -2 -13   21.93    1.46 
   1  -2 -12    2.78    0.15 
  -1   2  12    3.07    0.18 
   1  -2 -12    3.10    0.52 
  -1  -2  12    2.90    0.18 
   1   2 -12    3.27    0.58 
  -1  -2  12    2.88    0.18 
  -1   2  11    5.22    0.23 
   1  -2 -11    5.58    0.65 
  -1  -2  11    5.26    0.22 
  -1  -2  11    5.36    0.23 
   1   2 -11    4.57    0.65 
   1  -2 -10    3.30    0.48 
   1   2 -10    2.96    0.51 
   1  -2  -9    6.51    0.64 
   1   2  -9    5.88    0.64 
   1   2  -8   10.30    0.79 
   1  -2  -8    9.64    0.73 
  -1   2   7   48.28    1.16 
   1  -2  -7   47.68    1.51 
   1   2  -7   48.90    1.59 
   1   2  -6   25.57    1.06 
   1  -2  -6   26.20    1.03 
  -1   2   6   26.94    0.80 
  -1   2   5  158.06    1.75 
   1  -2  -5  154.00    2.33 
   1   2  -5  155.49    2.39 
   1   2  -4  190.14    2.37 
  -1   2   4  188.38    1.75 
  -1   2   3  816.89    3.34 
  -1   2   2  798.18    3.24 
  -1   2   1 1000.00    3.68 
   1   2   0   80.23    1.43 
   1   2   1   22.20    0.76 
   1   2   2    8.43    0.49 
   1   2   3   20.88    0.80 
  -1  -2  -3   20.08    0.55 
  -1  -2  -4   15.26    0.58 
   1   2   4   15.46    0.72 
  -1  -2  -5   25.71    0.87 
   1   2   5   25.96    0.97 
   1   2   6    7.67    0.56 
  -1  -2  -6    8.07    0.55 
   1   2   7   12.91    0.77 
  -1  -2  -7   12.12    0.74 
  -1  -2  -8   14.53    0.89 
   1   2   8   14.73    0.86 
  -1   2  -9    0.23    0.17 
   1   2   9   -0.11    0.09 
  -1  -2  -9    0.08    0.09 
   1   2  10    0.58    0.08 
   1  -2  10    0.62    0.07 
  -1   2 -10    0.92    0.31 
   1   2  10    0.80    0.22 
  -1  -2 -10    0.63    0.08 
  -1  -2 -10    0.29    0.15 
  -1  -2 -11    2.65    0.46 
   1  -2  11    2.98    0.17 
  -1  -2 -11    2.88    0.17 
   1   2  11    2.77    0.18 
   1  -2  11    2.77    0.17 
  -1   2 -11    2.76    0.53 
   1   2  12    2.19    0.17 
  -1  -2 -12    2.23    0.15 
  -1   2 -12    1.74    0.48 
   1  -2  12    2.28    0.16 
  -1  -2 -12    2.36    0.46 
   1  -2  12    2.01    0.15 
   1   2  13    4.02    0.24 
  -1   2 -13    4.02    0.75 
   1  -2  13    3.92    0.22 
   1  -2  13    3.93    0.22 
  -1  -2 -13    4.11    0.21 
   1  -2  14   11.27    0.39 
   1   2  14   11.72    0.42 
  -1  -2 -14   11.47    0.36 
   1  -2  14   10.44    0.39 
   1   2  15    5.87    0.32 
   1  -2  15    6.16    0.31 
   1  -2  15    5.93    0.30 
   1  -2  16    6.26    0.32 
   1   2  16    6.27    0.34 
   1  -2  16    6.03    0.31 
   1  -2  17    2.91    0.22 
   1  -2  17    3.09    0.23 
   1   2  17    3.37    0.25 
   1  -2  18    4.67    0.28 
   1  -2  18    4.76    0.27 
   1   2  18    4.81    0.29 
   1   2  19    2.86    0.22 
   1  -2  19    2.62    0.20 
   1  -2  19    2.85    0.21 
   1  -2  20    0.15    0.05 
   1   2  20    0.19    0.07 
   1   2  21    0.36    0.08 
   1  -2  21    0.51    0.08 
  -1   3  21    0.03    0.04 
  -1   3  20   -0.01    0.05 
  -1   3  20    0.07    0.04 
  -1   3  19    0.35    0.09 
  -1   3  19    0.29    0.07 
  -1   3  18    0.22    0.07 
  -1   3  17    1.28    0.15 
  -1  -3  17    1.27    0.15 
  -1  -3  16    1.19    0.15 
  -1   3  16    1.28    0.15 
  -1  -3  15    2.86    0.21 
  -1  -3  15    2.97    0.22 
  -1   3  15    2.93    0.22 
  -1   3  14    0.06    0.04 
  -1  -3  14    0.03    0.05 
  -1  -3  14    0.03    0.05 
  -1  -3  13    1.25    0.13 
  -1  -3  13    1.07    0.13 
   1  -3 -13    1.25    0.12 
   1  -3 -13    1.33    0.12 
  -1   3  13    1.38    0.14 
  -1  -3  12    0.07    0.05 
  -1   3  12   -0.01    0.04 
   1  -3 -12   -0.03    0.03 
   1   3 -12   -0.11    0.17 
   1  -3 -12    0.11    0.05 
  -1  -3  12    0.04    0.04 
  -1   3  11   10.90    0.35 
  -1  -3  11   10.41    0.34 
   1   3 -11   10.29    1.00 
   1  -3 -11   10.32    0.30 
   1  -3 -11   10.89    0.33 
  -1  -3  11   10.86    0.33 
   1  -3 -10    3.65    0.18 
   1   3 -10    3.89    0.58 
   1  -3 -10    3.40    0.18 
  -1  -3  10    3.56    0.18 
  -1  -3  10    3.92    0.20 
  -1   3  10    3.79    0.19 
   1  -3  -9    0.46    0.07 
   1  -3  -9    0.61    0.07 
   1   3  -9    0.51    0.20 
  -1  -3   9    0.52    0.07 
   1   3  -8    2.57    0.41 
   1   3  -7    0.77    0.22 
   1   3  -6    2.52    0.36 
   1   3  -5    7.46    0.56 
   1   3  -4    0.87    0.18 
  -1   3   3   93.89    1.43 
  -1   3   2    1.47    0.19 
   1   3  -1    4.66    0.43 
  -1   3   1    5.05    0.35 
   1   3   0   65.63    1.57 
  -1   3   0   66.10    1.33 
   1   3   1    2.16    0.30 
   1   3   2   13.95    0.74 
   1   3   3    7.35    0.55 
   1   3   4    0.92    0.20 
   1   3   5    1.45    0.25 
   1   3   6    0.21    0.10 
   1   3   7   38.72    1.40 
  -1  -3  -8   20.00    0.43 
   1   3   8   19.80    1.05 
  -1  -3  -9    0.84    0.09 
   1  -3   9    0.60    0.08 
  -1   3  -9    0.95    0.30 
   1   3   9    0.79    0.22 
   1  -3   9    0.70    0.08 
  -1  -3  -9    0.94    0.10 
   1  -3  10    1.08    0.10 
  -1  -3 -10    1.02    0.11 
   1  -3  10    0.89    0.10 
  -1   3 -10    1.19    0.35 
  -1  -3 -10    1.03    0.10 
  -1  -3 -11    0.12    0.05 
  -1   3 -11    0.26    0.23 
   1  -3  11    0.25    0.06 
  -1  -3 -11    0.14    0.05 
   1   3  11    0.16    0.06 
   1  -3  11    0.10    0.04 
  -1  -3 -12    0.02    0.05 
   1  -3  12    0.01    0.04 
   1  -3  12    0.00    0.03 
  -1   3 -12    0.10    0.16 
   1   3  12   -0.01    0.05 
   1  -3  13    4.75    0.25 
  -1  -3 -13    4.90    0.26 
   1  -3  13    4.30    0.24 
   1   3  13    4.55    0.27 
   1  -3  14    0.74    0.11 
  -1  -3 -14    0.71    0.10 
   1  -3  14    0.81    0.11 
   1   3  14    0.84    0.13 
  -1  -3 -15    4.08    0.24 
   1   3  15    3.60    0.25 
   1  -3  15    3.91    0.24 
   1  -3  15    4.12    0.25 
   1  -3  16    0.63    0.11 
   1   3  16    0.70    0.12 
   1  -3  16    0.59    0.10 
  -1  -3 -16    0.73    0.11 
   1   3  17    6.06    0.33 
   1  -3  17    5.72    0.30 
   1  -3  17    5.73    0.29 
   1  -3  18    1.22    0.14 
   1   3  18    1.09    0.15 
   1   3  19    2.62    0.20 
   1   3  20    0.13    0.06 
  -1   4  20    0.63    0.09 
  -1   4  20    0.64    0.09 
  -1   4  19    2.17    0.17 
  -1   4  19    2.15    0.17 
  -1   4  18    6.15    0.30 
  -1   4  18    5.86    0.29 
  -1   4  17    0.60    0.10 
  -1   4  16    7.35    0.34 
  -1   4  15    6.42    0.32 
   1  -4 -14   11.69    0.38 
  -1   4  14   12.21    0.43 
   1  -4 -13    5.52    0.26 
  -1   4  13    5.70    0.29 
   1  -4 -12    0.08    0.05 
  -1   4  12    0.09    0.06 
  -1   4  11   19.52    0.49 
   1  -4 -11   19.25    0.47 
   1  -4 -10    0.16    0.05 
  -1   4  10    0.17    0.05 
   1  -4  -9    5.67    0.25 
   1  -4  -8   24.79    0.50 
   1  -4  -8   24.70    0.51 
   1  -4  -7   13.91    0.38 
  -1  -4   7   13.59    0.34 
   1  -4  -7   14.89    0.37 
   1  -4  -6   17.91    0.40 
   1  -4  -5   23.50    0.44 
   1  -4  -4   10.98    0.29 
   1   4  -3   51.86    1.75 
   1   4  -2   76.82    2.06 
   1   4  -1   45.06    1.55 
   1   4   0  136.48    2.67 
   1   4   1    1.16    0.25 
   1   4   2    0.01    0.04 
  -1  -4  -3    1.60    0.12 
   1   4   3    1.74    0.31 
  -1  -4  -4    9.69    0.30 
  -1  -4  -4    9.62    0.29 
   1  -4   4    9.87    0.33 
   1  -4   4    9.33    0.28 
  -1  -4  -5    1.82    0.13 
  -1  -4  -5    1.86    0.14 
   1  -4   5    1.64    0.13 
  -1  -4  -6    0.57    0.08 
  -1  -4  -6    0.48    0.08 
   1  -4   6    0.47    0.07 
  -1  -4  -7    4.21    0.22 
   1  -4   7    4.02    0.21 
  -1  -4  -7    4.39    0.21 
  -1  -4  -8    0.31    0.06 
  -1  -4  -8    0.35    0.08 
  -1   4  -8    0.23    0.15 
  -1  -4  -9    0.15    0.06 
  -1  -4  -9    0.11    0.05 
  -1   4 -10   14.59    1.25 
  -1  -4 -10   15.70    0.46 
  -1  -4 -10   15.39    0.41 
  -1  -4 -11    1.06    0.13 
  -1  -4 -11    1.19    0.12 
  -1  -4 -12    1.43    0.13 
  -1  -4 -12    1.29    0.14 
   1   4  12    1.40    0.15 
  -1  -4 -13   12.52    0.38 
   1   4  13   13.09    0.46 
   1  -4  13   13.86    0.42 
  -1  -4 -13   13.31    0.45 
  -1  -4 -14    3.49    0.23 
   1   4  14    3.37    0.24 
   1  -4  14    3.74    0.22 
   1   4  15    3.32    0.24 
   1  -4  15    3.34    0.21 
   1   4  16    2.80    0.22 
   1   4  17    2.73    0.21 
   1   4  18    1.03    0.13 
   1   4  19    0.06    0.04 
   1   4  19   -0.07    0.04 
  -1   5  18    0.13    0.06 
  -1   5  17    1.28    0.14 
  -1   5  16    0.71    0.10 
  -1   5  15    2.12    0.18 
   1  -5 -15    2.06    0.16 
  -1   5  14    0.11    0.05 
   1  -5 -14    0.08    0.05 
  -1   5  13    0.00    0.05 
   1  -5 -13    0.00    0.04 
   1  -5 -12    0.27    0.08 
  -1   5  12    0.19    0.07 
   1  -5 -11   22.07    0.55 
   1  -5 -10    0.04    0.05 
   1  -5  -9    1.33    0.14 
   1  -5  -8    1.25    0.13 
  -1  -5   7   24.03    0.51 
   1  -5  -7   25.16    0.55 
   1   5  -7   23.22    1.47 
  -1  -5   6    0.12    0.06 
   1   5  -6    0.10    0.09 
   1  -5  -6    0.12    0.06 
   1  -5  -5    1.30    0.13 
  -1  -5   5    1.33    0.12 
   1   5  -5    1.35    0.36 
   1  -5  -5    1.11    0.12 
  -1  -5   4   21.21    0.46 
   1  -5  -4   22.29    0.48 
   1  -5  -4   22.86    0.52 
   1  -5  -3    0.60    0.09 
  -1  -5   3    0.53    0.08 
   1  -5  -3    0.65    0.09 
   1  -5  -2   12.39    0.39 
  -1  -5   2   11.32    0.33 
   1  -5  -2   11.51    0.33 
  -1  -5   2   11.91    0.32 
   1  -5  -1    9.59    0.29 
  -1  -5   1    8.54    0.28 
  -1  -5   1    9.02    0.29 
  -1  -5   1    9.10    0.32 
   1  -5  -1    9.52    0.34 
  -1  -5   0    1.09    0.11 
   1  -5   0    1.51    0.13 
   1  -5   0    1.24    0.11 
  -1  -5   0    1.31    0.12 
   1  -5   0    1.11    0.13 
   1  -5   1    1.16    0.12 
  -1  -5  -1    1.01    0.11 
   1  -5   1    1.42    0.14 
  -1  -5  -1    1.27    0.12 
   1  -5   2    0.02    0.04 
  -1  -5  -2    0.07    0.05 
   1  -5   2    0.04    0.06 
   1  -5   3   27.88    0.63 
  -1  -5  -3   29.03    0.56 
   1  -5   3   28.42    0.56 
  -1  -5  -4    0.07    0.04 
   1  -5   4    0.09    0.06 
   1  -5   5    2.70    0.18 
  -1  -5  -5    2.77    0.18 
  -1  -5  -6    1.45    0.14 
   1  -5   6    1.30    0.13 
   1  -5   7    3.19    0.21 
  -1  -5  -7    3.75    0.22 
  -1  -5  -8   -0.02    0.05 
  -1  -5  -9    9.52    0.36 
  -1  -5 -10    0.10    0.06 
  -1  -5 -11    0.31    0.08 
   1   5  11    0.36    0.09 
  -1  -5 -12    4.41    0.25 
   1   5  12    4.65    0.28 
  -1  -5 -13    0.87    0.11 
   1   5  13    0.95    0.13 
  -1  -5 -14    1.10    0.12 
   1   5  14    1.13    0.14 
   1   5  15    0.19    0.07 
   1   5  16    0.05    0.05 
   1   5  17    0.70    0.10 
   1   5  18   -0.08    0.05 
  -1   6  16    0.58    0.09 
  -1   6  15    0.01    0.04 
   1  -6 -14    0.12    0.05 
   1  -6 -13    1.03    0.12 
   1  -6 -12    0.05    0.04 
   1  -6 -11    0.27    0.07 
   1  -6 -10    0.10    0.05 
   1  -6  -9    0.60    0.10 
   1  -6  -8    0.15    0.07 
   1  -6  -7    4.52    0.26 
  -1  -6   6    2.70    0.19 
   1  -6  -6    3.07    0.21 
   1  -6  -5    0.58    0.10 
   1  -6  -5    0.63    0.10 
  -1  -6   5    0.55    0.09 
   1  -6  -4    0.14    0.07 
   1  -6  -4    0.28    0.07 
  -1  -6   4    0.21    0.07 
   1  -6  -3    0.33    0.09 
   1  -6  -3    0.18    0.06 
  -1  -6   3    0.29    0.08 
  -1  -6   2    0.33    0.07 
   1  -6  -2    0.40    0.08 
   1  -6  -2    0.31    0.09 
   1  -6  -2    0.36    0.09 
  -1  -6   2    0.29    0.08 
   1  -6  -1    0.39    0.09 
  -1  -6   1    0.59    0.09 
   1  -6  -1    0.33    0.09 
  -1  -6   1    0.31    0.07 
   1  -6  -1    0.34    0.07 
  -1  -6   0    0.20    0.06 
   1  -6   0    0.21    0.06 
   1  -6   0    0.31    0.08 
  -1  -6   0    0.27    0.07 
   1  -6   0    0.15    0.07 
   1  -6   1    1.09    0.13 
   1  -6   1    1.18    0.15 
  -1  -6  -1    1.12    0.12 
  -1  -6  -1    1.18    0.12 
   1  -6   2    0.83    0.12 
  -1  -6  -2    0.81    0.11 
  -1  -6  -3    1.16    0.12 
   1  -6   3    1.36    0.15 
  -1  -6  -4    2.62    0.19 
   1  -6   4    2.58    0.20 
   1  -6   5    0.11    0.06 
  -1  -6  -5    0.21    0.07 
   1  -6   6    4.41    0.26 
  -1  -6  -6    4.61    0.26 
  -1  -6  -7    0.15    0.07 
  -1  -6  -8    0.12    0.06 
  -1  -6  -9    4.05    0.25 
  -1  -6 -10    0.26    0.08 
   1   6  10    0.19    0.07 
   1   6  11    4.58    0.26 
  -1  -6 -11    4.76    0.26 
   1   6  12    0.03    0.04 
  -1  -6 -12    0.00    0.04 
   1   6  13    2.57    0.19 
  -1  -6 -13    2.51    0.18 
  -1  -6 -14    0.06    0.04 
   1   6  14    0.11    0.06 
   1   6  15    0.77    0.09 
   1  -7 -13    1.05    0.11 
  -1   7  13    1.00    0.11 
   1  -7 -12    0.20    0.06 
  -1   7  12    0.15    0.05 
   1  -7 -11    0.13    0.06 
  -1   7  11    0.20    0.05 
   1  -7 -10    0.49    0.09 
   1  -7  -9    2.33    0.18 
   1  -7  -8    0.06    0.05 
   1  -7  -7    0.53    0.09 
   1  -7  -6    1.15    0.13 
   1  -7  -5    1.00    0.13 
   1  -7  -5    1.21    0.15 
   1  -7  -4    3.09    0.21 
   1  -7  -4    3.39    0.24 
  -1  -7   4    2.97    0.20 
  -1  -7   3    1.59    0.15 
   1  -7  -3    1.70    0.17 
   1  -7  -3    1.60    0.15 
  -1  -7   2    6.21    0.29 
   1  -7  -2    6.52    0.28 
   1  -7  -2    6.61    0.32 
   1  -7  -1    0.17    0.05 
  -1  -7   1    0.21    0.07 
   1  -7  -1    0.20    0.08 
  -1  -7   0    0.39    0.09 
   1  -7   0    0.47    0.10 
  -1  -7   0    0.43    0.08 
   1  -7   1    1.95    0.18 
  -1  -7  -1    2.00    0.17 
  -1  -7  -1    2.13    0.17 
  -1  -7  -2    0.01    0.05 
   1  -7   2   -0.01    0.06 
  -1  -7  -2    0.01    0.04 
   1  -7   3    0.16    0.07 
  -1  -7  -3    0.18    0.07 
  -1  -7  -3    0.13    0.06 
  -1  -7  -4    1.07    0.13 
   1  -7   4    1.10    0.14 
  -1  -7  -4    0.95    0.12 
   1  -7   5    1.78    0.17 
  -1  -7  -5    1.89    0.17 
  -1  -7  -6    0.45    0.09 
  -1  -7  -7    0.19    0.07 
  -1  -7  -8    0.13    0.06 
  -1  -7  -9    0.02    0.04 
  -1  -7 -10    0.89    0.11 
  -1  -7 -11    0.53    0.09 
  -1  -7 -12    1.31    0.12 
   1  -8  -8    0.15    0.05 
   1  -8  -8    0.02    0.04 
   1  -8  -7   -0.03    0.04 
   1  -8  -7    0.00    0.04 
   1  -8  -6    0.06    0.04 
   1  -8  -6    0.16    0.06 
   1  -8  -5    0.28    0.07 
   1  -8  -5    0.34    0.07 
   1  -8  -4    0.02    0.04 
   1  -8  -4    0.02    0.03 
   1  -8  -3    0.06    0.04 
   1  -8  -3    0.00    0.05 
   1  -8  -2    0.01    0.05 
   1  -8  -1    0.17    0.06 
   1  -8   0    0.37    0.08 
  -1  -8   0    0.37    0.07 
   1  -8   1    0.00    0.05 
  -1  -8  -1    0.09    0.05 
   1  -8   2    1.42    0.14 
  -1  -8  -2    1.45    0.14 
  -1  -8  -2    1.34    0.12 
   1  -8   3    1.10    0.12 
  -1  -8  -3    1.04    0.12 
  -1  -8  -3    1.02    0.11 
  -1  -8  -4    0.17    0.06 
  -1  -8  -4    0.32    0.07 
  -1  -8  -5    0.08    0.05 
  -1  -8  -5    0.08    0.04 
  -1  -8  -6    0.08    0.04 
  -1  -8  -6    0.10    0.05 
  -1  -8  -7    0.09    0.04 
  -1  -8  -7    0.02    0.04 
  -1  -8  -8    1.69    0.13 
  -2   0  23   -0.05    0.04 
  -2   0  22    0.13    0.06 
  -2   0  21   -0.02    0.04 
  -2   0  20    2.44    0.21 
  -2   0  19    0.12    0.08 
  -2   0  18   67.56    1.06 
  -2   0  17   -0.06    0.07 
  -2   0  17    0.07    0.07 
  -2   0  16   15.22    0.46 
  -2   0  16   16.87    0.50 
  -2   0  15   -0.02    0.04 
  -2   0  15   -0.05    0.06 
  -2   0  14   57.36    0.82 
  -2   0  14   56.80    0.84 
   2   0 -14   59.20    2.62 
  -2   0  13    0.00    0.04 
  -2   0  13   -0.02    0.03 
  -2   0  12    9.14    0.29 
   2   0 -12    8.60    0.90 
  -2   0  12    9.13    0.30 
   2   0 -11    0.29    0.18 
   2   0 -10   23.94    1.33 
   2   0  -9   -0.02    0.07 
   2   0  -8  369.79    4.56 
   2   0  -7    0.03    0.08 
   2   0  -6   56.99    1.52 
   2   0  -5    0.00    0.07 
   2   0  -4  388.22    3.24 
   2   0  -3    0.08    0.07 
   2   0  -2    7.70    0.35 
   2   0  -1    0.01    0.03 
   2   0   0   22.59    0.55 
   2   0   1    0.00    0.04 
   2   0   2  204.66    2.03 
   2   0   3   -0.01    0.05 
   2   0   4    8.73    0.51 
   2   0   5    0.08    0.06 
   2   0   6   11.52    0.68 
   2   0   7    0.11    0.09 
  -2   0  -7    0.09    0.08 
  -2   0  -8   47.81    1.72 
  -2   0  -9   -0.14    0.13 
  -2   0 -10   47.43    1.98 
  -2   0 -11   -0.65    0.27 
   2   0  11   -0.03    0.04 
  -2   0 -12    7.98    0.92 
   2   0  12    8.88    0.32 
  -2   0 -13    0.09    0.17 
   2   0  13    0.03    0.04 
   2   0  14    3.07    0.21 
   2   0  14    3.02    0.20 
  -2   0 -14    3.18    0.63 
   2   0  15   -0.01    0.05 
   2   0  15    0.01    0.06 
   2   0  16    2.30    0.20 
   2   0  16    2.43    0.20 
   2   0  17    0.00    0.05 
   2   0  17   -0.02    0.06 
   2   0  18    0.29    0.08 
   2   0  18    0.29    0.08 
   2   0  19   -0.08    0.07 
   2   0  19    0.03    0.05 
   2   0  20    0.03    0.05 
   2   0  20   -0.05    0.05 
   2   0  21   -0.06    0.04 
  -2   1  23   -0.01    0.04 
  -2  -1  23   -0.07    0.04 
  -2  -1  22    0.03    0.04 
  -2   1  22    0.00    0.05 
  -2   1  21    0.36    0.08 
  -2  -1  21    0.25    0.07 
  -2   1  20    0.26    0.08 
  -2  -1  20    0.23    0.08 
  -2   1  19    5.09    0.29 
  -2  -1  19    4.71    0.29 
  -2   1  18    1.07    0.14 
  -2  -1  18    1.08    0.14 
  -2  -1  17    1.89    0.18 
  -2   1  17    2.09    0.19 
  -2  -1  17    2.04    0.19 
  -2  -1  16    1.51    0.15 
  -2  -1  16    1.60    0.16 
  -2   1  16    1.52    0.16 
  -2  -1  15    9.60    0.36 
  -2   1  15    9.50    0.34 
   2   1 -15    9.21    1.09 
  -2  -1  15    9.75    0.37 
   2  -1 -15    9.02    1.02 
  -2   1  15    9.77    0.37 
  -2   1  14    4.34    0.22 
  -2  -1  14    4.94    0.25 
   2  -1 -14    4.38    0.69 
  -2   1  14    4.88    0.25 
   2   1 -14    4.70    0.74 
  -2  -1  14    4.76    0.24 
  -2  -1  13    0.98    0.11 
  -2   1  13    0.93    0.11 
  -2   1  13    0.78    0.09 
  -2  -1  13    0.93    0.11 
   2   1 -13    1.00    0.33 
  -2  -1  12    0.99    0.10 
  -2   1  12    0.78    0.08 
   2   1 -12    0.59    0.27 
  -2   1  12    0.93    0.10 
  -2  -1  12    0.74    0.09 
   2  -1 -12    0.92    0.30 
   2  -1 -11    9.40    0.88 
   2   1 -11    8.13    0.85 
   2  -1 -10   21.84    1.27 
   2   1 -10   20.95    1.26 
   2   1  -9   10.99    0.85 
   2  -1  -9   10.44    0.81 
   2   1  -8    0.06    0.11 
   2  -1  -8    0.33    0.16 
   2   1  -7   44.76    1.47 
   2  -1  -7   44.08    1.48 
   2  -1  -6    1.37    0.25 
   2   1  -6    1.05    0.22 
   2  -1  -5    2.89    0.32 
   2   1  -5    2.42    0.29 
   2   1  -4   51.20    1.15 
   2  -1  -4   48.02    1.19 
   2   1  -3    8.65    0.42 
   2   1  -2   36.76    0.70 
   2   1  -1    0.80    0.13 
   2   1   0   48.58    1.01 
   2   1   1   26.27    0.79 
   2   1   2   70.61    1.36 
   2   1   3    0.12    0.07 
  -2  -1  -4   14.06    0.60 
   2   1   4   14.62    0.70 
   2   1   5    1.57    0.26 
  -2  -1  -5    1.39    0.22 
  -2  -1  -6    2.31    0.31 
   2   1   6    2.13    0.31 
  -2  -1  -7  106.19    2.26 
   2   1   7  108.30    2.28 
   2   1   8    4.03    0.47 
  -2  -1  -8    3.88    0.48 
  -2  -1  -9   10.61    0.84 
   2   1   9   10.87    0.81 
  -2   1  -9   10.68    0.92 
  -2  -1 -10    1.90    0.39 
   2   1  10    2.34    0.15 
  -2   1 -10    1.52    0.38 
  -2   1 -11    1.18    0.38 
   2  -1  11    1.01    0.11 
  -2  -1 -11    1.15    0.11 
  -2  -1 -11    1.73    0.40 
   2   1  11    1.13    0.12 
   2   1  12    3.42    0.21 
  -2  -1 -12    3.22    0.18 
  -2  -1 -12    2.71    0.51 
   2  -1  12    3.19    0.19 
  -2  -1 -13   12.46    1.18 
   2  -1  13   12.96    0.41 
   2   1  13   12.96    0.38 
   2  -1  13   13.68    0.42 
   2   1  13   12.94    0.42 
  -2   1 -13   12.74    1.26 
  -2  -1 -14   16.38    1.40 
   2  -1  14   19.08    0.51 
   2   1  14   18.40    0.48 
   2  -1  14   18.43    0.50 
   2   1  14   18.88    0.53 
  -2   1 -14   17.56    1.52 
   2   1  15    1.28    0.14 
   2   1  15    1.29    0.15 
   2  -1  15    1.31    0.15 
   2  -1  15    1.62    0.16 
   2   1  16   32.32    0.74 
   2  -1  16   32.33    0.71 
   2   1  16   33.07    0.68 
   2  -1  16   32.42    0.71 
   2  -1  17    0.25    0.08 
   2   1  17    0.25    0.08 
   2   1  17    0.21    0.09 
   2  -1  17    0.31    0.08 
   2  -1  18    0.05    0.05 
   2   1  18    0.07    0.04 
   2  -1  18    0.10    0.06 
   2  -1  19    0.08    0.05 
   2   1  19    0.13    0.07 
   2   1  19    0.09    0.06 
   2  -1  19    0.05    0.05 
   2  -1  20    0.61    0.10 
   2  -1  20    0.47    0.08 
   2   1  20    0.39    0.07 
   2   1  20    0.49    0.09 
   2  -1  21    0.18    0.05 
   2   1  21   -0.08    0.05 
  -2   2  22    0.12    0.05 
  -2  -2  21    0.60    0.10 
  -2   2  21    0.48    0.09 
  -2   2  20    1.42    0.15 
  -2  -2  20    1.61    0.16 
  -2   2  19   -0.01    0.05 
  -2  -2  19   -0.05    0.07 
  -2   2  18   10.64    0.38 
  -2   2  18   11.28    0.43 
  -2  -2  18   11.12    0.44 
  -2   2  17    1.40    0.16 
  -2  -2  17    1.06    0.14 
  -2   2  17    1.38    0.15 
  -2  -2  16   13.51    0.46 
  -2   2  16   12.54    0.44 
  -2  -2  15    4.87    0.27 
  -2  -2  15    4.95    0.27 
  -2   2  15    4.51    0.26 
   2  -2 -15    5.33    0.76 
  -2  -2  14    3.09    0.21 
   2  -2 -14    2.93    0.54 
   2   2 -14    2.41    0.54 
  -2   2  14    3.09    0.20 
  -2  -2  14    2.90    0.20 
  -2   2  13    0.19    0.06 
  -2  -2  13    0.15    0.06 
  -2  -2  13    0.18    0.05 
   2   2 -12    4.02    0.61 
  -2  -2  12    4.09    0.21 
  -2  -2  12    4.11    0.21 
   2  -2 -12    3.56    0.17 
   2  -2 -12    4.45    0.62 
  -2   2  12    3.89    0.20 
   2  -2 -11   10.37    0.92 
  -2  -2  11   11.32    0.34 
  -2   2  11   11.12    0.32 
   2   2 -11   11.27    1.00 
  -2  -2  11   10.81    0.32 
   2   2 -10   61.83    2.20 
   2  -2 -10   67.85    2.20 
   2  -2  -9   34.00    1.48 
   2   2  -9   35.52    1.56 
   2  -2  -8    6.48    0.61 
   2   2  -8    6.25    0.61 
   2   2  -7   19.42    0.99 
   2  -2  -7   19.14    0.99 
   2   2  -6   28.36    1.09 
   2  -2  -6   28.70    1.14 
   2   2  -5    2.56    0.31 
   2   2  -4  183.59    2.23 
   2   2  -3    4.49    0.30 
   2   2  -2    1.85    0.15 
   2   2  -1   41.75    1.14 
  -2   2   1   39.93    0.58 
   2   2   0   11.91    0.61 
   2   2   1    3.72    0.36 
   2   2   2    2.39    0.30 
   2   2   3    3.39    0.36 
  -2  -2  -3    3.10    0.20 
   2   2   4   22.65    0.96 
  -2  -2  -4   21.12    0.67 
   2   2   5    3.18    0.38 
  -2  -2  -5    3.34    0.31 
  -2  -2  -6    6.60    0.50 
   2   2   6    6.34    0.56 
  -2  -2  -7    5.16    0.49 
   2   2   7    6.00    0.57 
   2   2   8   -0.04    0.09 
  -2  -2  -8    0.57    0.18 
   2   2   9   38.91    1.58 
  -2  -2  -9   37.95    1.55 
  -2   2 -10   29.78    1.71 
  -2  -2 -10   29.59    0.55 
   2   2  10   32.08    1.49 
   2   2  11   46.25    0.75 
  -2  -2 -11   46.81    0.72 
  -2   2 -11   47.92    2.29 
   2  -2  11   44.93    0.68 
   2  -2  12    0.29    0.06 
  -2  -2 -12    0.25    0.06 
   2  -2  12    0.23    0.06 
   2   2  12    0.20    0.07 
  -2  -2 -13   26.68    0.57 
   2   2  13   25.83    0.62 
   2  -2  13   26.54    0.59 
   2  -2  13   25.73    0.57 
  -2   2 -13   26.22    1.84 
   2  -2  14    0.24    0.07 
   2   2  14    0.29    0.08 
   2  -2  14    0.34    0.08 
  -2  -2 -14    0.23    0.07 
  -2  -2 -15    5.53    0.27 
   2  -2  15    5.52    0.29 
   2   2  15    5.10    0.30 
   2  -2  15    5.40    0.28 
   2  -2  16    1.04    0.13 
   2  -2  16    1.32    0.15 
   2   2  16    1.07    0.15 
   2  -2  17    0.40    0.08 
   2  -2  17    0.44    0.09 
   2   2  17    0.40    0.11 
   2  -2  18    0.05    0.05 
   2   2  18    0.06    0.05 
   2  -2  18    0.11    0.06 
   2  -2  19    0.47    0.08 
   2  -2  19    0.45    0.09 
   2   2  19    0.59    0.11 
   2   2  20    0.44    0.09 
   2  -2  20    0.73    0.11 
   2   2  21    2.06    0.16 
  -2   3  21    1.60    0.14 
  -2   3  20    0.60    0.10 
  -2   3  20    0.71    0.10 
  -2   3  19   -0.01    0.04 
  -2   3  19    0.09    0.06 
  -2   3  18    0.07    0.05 
  -2   3  18    0.17    0.07 
  -2   3  17    4.15    0.26 
  -2   3  16    7.78    0.35 
  -2  -3  16    8.06    0.37 
  -2  -3  15    0.10    0.06 
  -2   3  15    0.29    0.08 
  -2  -3  14   18.17    0.52 
  -2   3  14   17.76    0.49 
   2  -3 -14   16.40    0.42 
  -2  -3  13    0.47    0.10 
   2  -3 -13    0.63    0.09 
  -2   3  13    0.66    0.10 
   2  -3 -12    6.62    0.26 
  -2  -3  12    7.10    0.28 
  -2  -3  12    6.76    0.30 
  -2   3  12    7.04    0.28 
  -2  -3  11   17.25    0.45 
   2  -3 -11   17.29    0.40 
  -2  -3  11   17.47    0.42 
   2   3 -11   17.30    1.27 
  -2   3  11   16.46    0.41 
  -2  -3  10    0.98    0.11 
   2  -3 -10    0.90    0.09 
  -2  -3  10    0.75    0.09 
  -2   3  10    0.83    0.09 
   2  -3  -9   16.11    0.36 
   2   3  -9   15.98    1.07 
   2   3  -8    0.71    0.21 
   2   3  -7   25.47    1.17 
   2   3  -6   53.78    1.56 
   2   3  -5   -0.01    0.05 
   2   3  -2    2.84    0.36 
   2   3  -1    2.06    0.30 
   2   3   0   38.64    1.32 
  -2   3   0   37.63    0.91 
   2   3   1    9.57    0.67 
   2   3   2    7.25    0.59 
   2   3   3    1.18    0.24 
   2   3   4    6.40    0.57 
   2   3   5    6.83    0.60 
   2   3   6   27.69    1.27 
  -2  -3  -7    0.21    0.05 
   2   3   7    0.02    0.06 
  -2  -3  -8    4.86    0.23 
  -2  -3  -8    4.93    0.20 
  -2  -3  -9    0.17    0.06 
   2   3   9    0.36    0.17 
  -2  -3  -9    0.26    0.05 
   2  -3   9    0.22    0.05 
   2  -3  10   14.71    0.38 
  -2  -3 -10   15.06    0.43 
   2   3  10   16.59    1.11 
  -2  -3 -10   13.99    0.35 
  -2   3 -10   15.57    1.30 
   2  -3  11   13.17    0.38 
  -2  -3 -11   14.11    0.43 
   2   3  11   13.99    1.06 
  -2   3 -11   13.28    1.25 
   2   3  12    0.51    0.10 
  -2  -3 -12    0.50    0.10 
   2  -3  12    0.33    0.07 
   2  -3  13    2.21    0.18 
   2   3  13    2.19    0.19 
  -2  -3 -13    1.96    0.17 
   2  -3  14    0.94    0.12 
  -2  -3 -14    0.85    0.12 
   2   3  14    1.04    0.14 
  -2  -3 -15    2.71    0.20 
   2  -3  15    2.80    0.21 
   2   3  15    2.70    0.23 
  -2  -3 -16    7.01    0.31 
   2  -3  16    7.19    0.33 
   2   3  16    6.92    0.35 
   2   3  17    0.31    0.09 
   2  -3  17    0.36    0.08 
   2   3  18    0.02    0.05 
   2  -3  18    0.01    0.04 
   2  -3  19    0.04    0.05 
   2   3  19    0.09    0.05 
   2   3  20    0.05    0.04 
  -2   4  20    0.03    0.03 
  -2   4  20    0.07    0.04 
  -2   4  19    0.84    0.11 
  -2   4  19    0.71    0.10 
  -2   4  18    2.01    0.18 
  -2   4  18    1.90    0.16 
  -2   4  17   -0.06    0.05 
  -2   4  17    0.06    0.06 
  -2   4  16    1.18    0.14 
   2  -4 -15    1.02    0.12 
  -2   4  15    1.20    0.14 
  -2   4  14    0.45    0.09 
   2  -4 -14    0.61    0.09 
   2  -4 -13    0.06    0.05 
  -2   4  13    0.02    0.04 
   2  -4 -12    4.30    0.23 
   2  -4 -12    4.66    0.26 
  -2   4  12    4.71    0.24 
   2  -4 -11    4.48    0.25 
   2  -4 -11    4.73    0.24 
   2  -4 -10    6.00    0.26 
   2  -4 -10    5.93    0.28 
   2  -4  -9    6.42    0.26 
   2  -4  -9    6.78    0.30 
   2  -4  -8    1.14    0.11 
   2  -4  -8    1.09    0.12 
   2  -4  -7    6.98    0.26 
   2  -4  -7    7.21    0.29 
   2  -4  -6  100.31    1.06 
   2  -4  -6  102.71    0.95 
   2  -4  -5  112.75    1.10 
   2  -4  -5  112.14    0.96 
   2  -4  -4   53.50    0.64 
   2   4  -4   53.38    1.90 
   2   4  -3   92.40    2.44 
   2   4  -2  108.10    2.58 
   2   4  -1    6.60    0.64 
   2   4   0   17.50    1.03 
   2   4   1   11.56    0.84 
   2  -4   2    5.70    0.25 
  -2  -4  -2    5.34    0.21 
   2   4   2    4.97    0.55 
   2  -4   2    5.51    0.21 
   2   4   3    0.08    0.10 
   2  -4   3    0.14    0.04 
  -2  -4  -3    0.09    0.04 
   2  -4   3    0.07    0.06 
  -2  -4  -3    0.05    0.03 
  -2  -4  -4   12.33    0.34 
   2   4   4   12.16    0.88 
  -2  -4  -4   12.18    0.34 
   2  -4   4   11.98    0.37 
   2  -4   4   11.96    0.33 
  -2  -4  -5    5.78    0.24 
  -2  -4  -5    6.06    0.25 
   2   4   5    5.92    0.63 
   2  -4   5    5.92    0.24 
  -2  -4  -6    0.59    0.09 
   2  -4   6    0.55    0.08 
  -2  -4  -6    0.55    0.08 
  -2  -4  -7    1.64    0.15 
  -2  -4  -7    1.49    0.13 
   2  -4   7    1.42    0.14 
  -2  -4  -8   10.16    0.37 
  -2  -4  -8    9.93    0.33 
  -2  -4  -9    5.45    0.27 
  -2  -4  -9    5.22    0.24 
  -2   4  -9    5.53    0.76 
  -2  -4 -10    0.02    0.04 
  -2  -4 -10   -0.03    0.04 
  -2   4 -10    0.10    0.12 
  -2  -4 -11    4.25    0.25 
  -2  -4 -11    4.22    0.22 
   2   4  12    0.05    0.06 
  -2  -4 -12    0.04    0.04 
  -2  -4 -12    0.05    0.06 
   2  -4  13    9.08    0.34 
  -2  -4 -13    8.70    0.38 
  -2  -4 -14    7.54    0.35 
   2   4  14    7.85    0.37 
   2  -4  14    7.73    0.32 
  -2  -4 -15    3.84    0.24 
   2  -4  15    3.96    0.23 
   2   4  15    4.09    0.27 
   2   4  16    0.17    0.07 
   2  -4  16    0.20    0.06 
   2   4  17    2.39    0.20 
   2   4  18    0.49    0.09 
   2   4  19    0.10    0.05 
  -2   5  19    0.50    0.08 
  -2   5  18    0.14    0.06 
  -2   5  17    0.10    0.06 
  -2   5  16    0.28    0.08 
   2  -5 -14    1.49    0.15 
   2  -5 -13    0.15    0.06 
   2  -5 -12    3.54    0.23 
   2  -5 -11    1.32    0.14 
   2  -5 -10    0.19    0.06 
   2  -5 -10    0.15    0.06 
   2  -5  -9    1.09    0.13 
   2  -5  -9    1.20    0.13 
   2  -5  -8    1.47    0.14 
   2   5  -8    1.14    0.34 
   2  -5  -7    5.13    0.25 
   2   5  -7    4.51    0.66 
   2  -5  -6    6.32    0.27 
   2   5  -6    5.88    0.75 
   2  -5  -5    0.17    0.06 
   2   5  -5   -0.67    0.24 
   2  -5  -4    5.78    0.28 
  -2  -5   4    5.51    0.23 
   2  -5  -4    5.63    0.24 
   2   5  -4    5.10    0.64 
   2  -5  -3    3.95    0.23 
  -2  -5   3    3.79    0.19 
  -2  -5   3    3.63    0.18 
   2  -5  -3    3.87    0.20 
   2  -5  -2    0.04    0.04 
  -2  -5   2    0.04    0.04 
   2  -5  -2    0.01    0.05 
  -2  -5   2    0.03    0.03 
   2  -5  -1    0.46    0.08 
   2  -5  -1    0.39    0.08 
   2  -5  -1    0.42    0.07 
  -2  -5   1    0.46    0.07 
  -2  -5   1    0.47    0.08 
   2  -5   0    1.36    0.11 
  -2  -5   0    1.50    0.13 
   2  -5   0    1.45    0.13 
   2  -5   0    1.40    0.14 
   2  -5   1    1.13    0.14 
  -2  -5  -1    0.83    0.10 
   2  -5   1    0.82    0.10 
  -2  -5  -2    1.90    0.15 
   2  -5   2    1.89    0.18 
   2  -5   2    1.98    0.16 
   2  -5   3    1.41    0.13 
  -2  -5  -3    1.43    0.13 
   2  -5   3    1.29    0.15 
  -2  -5  -4    0.02    0.04 
   2  -5   4    0.06    0.06 
  -2  -5  -5    9.72    0.36 
   2  -5   5    8.84    0.33 
  -2  -5  -5    9.72    0.35 
  -2  -5  -6    4.32    0.24 
  -2  -5  -6    4.17    0.24 
   2  -5   6    3.84    0.23 
  -2  -5  -7    0.14    0.06 
   2  -5   7    0.11    0.07 
  -2  -5  -7    0.04    0.06 
  -2  -5  -8    6.69    0.30 
  -2  -5  -8    6.78    0.32 
  -2  -5  -9   14.66    0.48 
  -2  -5  -9   14.20    0.44 
  -2  -5 -10    1.60    0.15 
  -2  -5 -10    1.82    0.18 
  -2  -5 -11    0.56    0.10 
  -2  -5 -11    0.44    0.09 
   2   5  12    7.98    0.36 
  -2  -5 -12    7.73    0.32 
  -2  -5 -13    1.29    0.13 
   2   5  13    1.31    0.16 
   2   5  14    0.01    0.05 
   2   5  15    1.41    0.15 
   2   5  16    0.10    0.06 
   2   5  17    0.00    0.04 
  -2   6  16    0.11    0.05 
  -2   6  15    0.10    0.06 
   2  -6 -14    0.88    0.11 
  -2   6  14    0.97    0.12 
   2  -6 -13    0.64    0.10 
  -2   6  13    0.57    0.10 
   2  -6 -12    0.06    0.06 
   2  -6 -11    0.77    0.11 
   2  -6 -10    0.03    0.05 
   2  -6  -9    0.18    0.07 
   2  -6  -8    6.37    0.31 
   2  -6  -8    6.78    0.32 
   2  -6  -7    1.85    0.17 
   2  -6  -7    1.58    0.16 
   2  -6  -6    0.10    0.06 
   2  -6  -6    0.22    0.07 
   2  -6  -5   16.47    0.52 
   2  -6  -5   15.35    0.45 
   2  -6  -4   28.94    0.60 
   2  -6  -4   29.35    0.69 
   2  -6  -3   39.27    0.75 
   2  -6  -3   37.31    0.79 
   2  -6  -3   37.70    0.67 
  -2  -6   3   36.62    0.65 
   2  -6  -2    0.66    0.09 
  -2  -6   2    0.73    0.10 
   2  -6  -2    0.81    0.12 
  -2  -6   2    0.50    0.09 
  -2  -6   1    7.38    0.30 
   2  -6  -1    7.45    0.36 
   2  -6  -1    7.37    0.33 
  -2  -6   1    6.99    0.29 
   2  -6  -1    7.10    0.28 
  -2  -6   0    0.53    0.09 
  -2  -6   0    0.78    0.11 
   2  -6   0    0.73    0.13 
   2  -6   0    0.87    0.12 
   2  -6   1    0.56    0.10 
  -2  -6  -1    0.63    0.10 
   2  -6   1    0.64    0.12 
  -2  -6  -2    1.39    0.14 
   2  -6   2    1.41    0.15 
   2  -6   3    0.57    0.10 
  -2  -6  -3    0.48    0.09 
   2  -6   4    0.02    0.06 
  -2  -6  -4    0.08    0.06 
  -2  -6  -5    2.45    0.20 
   2  -6   5    2.42    0.20 
   2  -6   6    0.14    0.08 
  -2  -6  -6    0.05    0.05 
  -2  -6  -7    0.76    0.11 
  -2  -6  -8    0.08    0.05 
  -2  -6  -9    0.77    0.11 
  -2  -6 -10    0.68    0.11 
   2   6  11    0.19    0.07 
  -2  -6 -11    0.21    0.07 
  -2  -6 -12    3.99    0.23 
   2   6  12    4.22    0.25 
  -2  -6 -13    0.38    0.07 
   2   6  13    0.19    0.07 
   2   6  14    0.05    0.05 
   2   6  15    1.54    0.13 
  -2   7  13    0.19    0.05 
   2  -7 -12    0.11    0.05 
  -2   7  12    0.10    0.04 
   2  -7 -11    0.13    0.05 
   2  -7 -10    0.15    0.06 
   2  -7  -9    0.06    0.05 
   2  -7  -8    0.00    0.04 
   2  -7  -7    0.22    0.07 
   2  -7  -7    0.25    0.08 
   2  -7  -6    4.45    0.25 
   2  -7  -6    4.72    0.28 
   2  -7  -5    0.50    0.10 
   2  -7  -5    0.52    0.09 
   2  -7  -5    0.44    0.10 
   2  -7  -4    2.34    0.21 
   2  -7  -4    2.44    0.20 
   2  -7  -4    2.01    0.17 
   2  -7  -3    0.35    0.09 
   2  -7  -3    0.14    0.05 
   2  -7  -3    0.30    0.09 
   2  -7  -2    0.68    0.10 
   2  -7  -2    0.79    0.13 
   2  -7  -2    0.78    0.13 
  -2  -7   1    0.20    0.06 
   2  -7  -1    0.23    0.08 
  -2  -7   0    0.01    0.04 
  -2  -7   0   -0.09    0.06 
   2  -7   0    0.01    0.06 
  -2  -7  -1    0.61    0.10 
   2  -7   1    0.63    0.11 
  -2  -7  -1    0.61    0.10 
  -2  -7  -2    0.04    0.04 
  -2  -7  -2    0.01    0.05 
   2  -7   2    0.03    0.06 
   2  -7   3    0.09    0.07 
  -2  -7  -3    0.02    0.05 
  -2  -7  -3    0.02    0.05 
   2  -7   4    0.50    0.10 
  -2  -7  -4    0.50    0.09 
  -2  -7  -4    0.44    0.09 
  -2  -7  -5    0.07    0.05 
   2  -7   5    0.07    0.07 
  -2  -7  -6   -0.03    0.04 
  -2  -7  -7    0.04    0.05 
  -2  -7  -8    0.49    0.09 
  -2  -7  -9    0.07    0.04 
  -2  -7 -10    2.35    0.17 
  -2  -7 -11    0.06    0.04 
  -2  -7 -12    0.09    0.04 
   2  -8  -8    0.29    0.07 
   2  -8  -8    0.35    0.07 
   2  -8  -7    0.35    0.07 
   2  -8  -7    0.27    0.06 
   2  -8  -6    0.34    0.06 
   2  -8  -6    0.38    0.08 
   2  -8  -5    1.73    0.13 
   2  -8  -5    1.79    0.16 
   2  -8  -4   -0.02    0.03 
   2  -8  -4    0.02    0.05 
   2  -8  -3    0.17    0.07 
   2  -8  -2    0.27    0.08 
   2  -8  -1    1.30    0.14 
   2  -8   0    1.63    0.15 
   2  -8   1    0.02    0.04 
  -2  -8  -1   -0.01    0.03 
  -2  -8  -2    0.05    0.04 
   2  -8   2   -0.10    0.05 
  -2  -8  -3    0.00    0.04 
   2  -8   3    0.01    0.05 
  -2  -8  -4    0.02    0.03 
  -2  -8  -5    0.01    0.04 
  -2  -8  -6    1.19    0.12 
  -2  -8  -7    0.03    0.04 
  -3   0  23   -0.13    0.05 
  -3   0  22    0.18    0.06 
  -3   0  21   -0.07    0.05 
  -3   0  20    5.22    0.29 
  -3   0  19   -0.01    0.06 
  -3   0  18   19.87    0.57 
  -3   0  17    0.10    0.06 
  -3   0  16    3.07    0.21 
  -3   0  15    0.03    0.04 
   3   0 -15    0.32    0.23 
   3   0 -14    1.22    0.37 
  -3   0  14    1.37    0.13 
  -3   0  13    0.03    0.03 
   3   0 -13   -0.01    0.10 
  -3   0  13   -0.04    0.03 
   3   0 -12   33.67    1.76 
  -3   0  12   34.40    0.56 
  -3   0  12   36.27    0.58 
   3   0 -11    0.27    0.17 
   3   0 -10  132.84    3.13 
   3   0  -9    0.14    0.13 
   3   0  -8    5.20    0.55 
   3   0  -7    0.02    0.08 
   3   0  -6   44.34    1.35 
   3   0  -5    0.03    0.08 
   3   0  -4    2.57    0.28 
   3   0  -3    0.04    0.05 
   3   0  -2  228.93    1.92 
   3   0  -1    0.08    0.07 
   3   0   0  223.28    2.13 
   3   0   1    0.06    0.07 
   3   0   2  436.72    3.44 
   3   0   3    0.01    0.08 
   3   0   4   80.18    1.70 
   3   0   5   -0.11    0.09 
   3   0   6   55.23    1.62 
   3   0   7    0.00    0.08 
  -3   0  -8  264.41    4.26 
  -3   0  -9   -0.15    0.14 
  -3   0 -10   60.14    2.29 
   3   0  10   37.53    0.60 
  -3   0 -11    0.03    0.04 
   3   0  11    0.02    0.04 
  -3   0 -12   31.71    1.88 
   3   0  12   32.64    0.63 
   3   0  13    0.01    0.04 
  -3   0 -13   -0.07    0.10 
   3   0  14   12.23    0.43 
   3   0  15    0.00    0.05 
   3   0  15   -0.08    0.08 
   3   0  16    4.60    0.27 
   3   0  16    4.31    0.27 
   3   0  17    0.04    0.05 
   3   0  17   -0.01    0.05 
   3   0  18   24.20    0.61 
   3   0  18   25.58    0.62 
   3   0  19    0.06    0.05 
   3   0  19   -0.05    0.05 
   3   0  20    1.10    0.12 
   3   0  20    1.08    0.12 
   3   0  21    0.02    0.04 
  -3  -1  23    0.43    0.08 
  -3   1  23    0.46    0.08 
  -3  -1  22    1.10    0.13 
  -3   1  22    1.25    0.13 
  -3  -1  21    0.97    0.13 
  -3   1  21    0.89    0.12 
  -3  -1  20    0.03    0.05 
  -3   1  20    0.01    0.05 
  -3   1  19    1.17    0.14 
  -3  -1  19    1.47    0.16 
  -3  -1  18    0.46    0.10 
  -3   1  18    0.38    0.09 
  -3  -1  17   16.44    0.51 
  -3   1  17   16.12    0.49 
  -3   1  16    8.58    0.32 
  -3  -1  16    9.07    0.37 
  -3   1  16    8.92    0.36 
  -3   1  15    2.60    0.17 
   3  -1 -15    1.78    0.46 
   3   1 -15    1.84    0.50 
  -3  -1  15    2.60    0.19 
  -3   1  15    2.46    0.18 
  -3   1  14    4.19    0.21 
   3   1 -14    3.87    0.67 
   3  -1 -14    3.99    0.66 
  -3  -1  14    4.42    0.24 
  -3   1  14    4.31    0.23 
   3  -1 -13   27.04    1.63 
  -3  -1  13   28.32    0.56 
   3   1 -13   27.79    1.72 
  -3  -1  13   27.52    0.55 
  -3   1  13   28.06    0.52 
  -3   1  13   27.74    0.54 
  -3  -1  12   17.18    0.41 
  -3   1  12   16.33    0.39 
   3   1 -12   17.42    1.29 
   3  -1 -12   16.84    1.24 
  -3  -1  12   17.49    0.42 
  -3  -1  11   13.94    0.35 
   3   1 -11   13.71    1.08 
   3  -1 -11   13.31    1.05 
  -3  -1  11   14.39    0.36 
   3  -1 -10    7.11    0.72 
   3   1 -10    6.94    0.73 
   3   1  -9   41.57    1.65 
   3  -1  -9   42.05    1.65 
   3  -1  -8   89.42    2.25 
   3   1  -8   87.76    2.24 
   3  -1  -7    0.28    0.12 
   3   1  -7    0.15    0.09 
   3  -1  -6    7.83    0.59 
   3   1  -6    8.61    0.60 
   3  -1  -5  147.35    2.39 
   3   1  -5  145.03    2.22 
   3   1  -4    0.83    0.15 
   3   1  -3  137.16    1.65 
   3  -1  -3  121.74    0.82 
   3   1  -2   81.93    1.47 
   3  -1  -2   78.69    0.65 
   3   1  -1   70.66    1.37 
   3  -1  -1   69.64    0.79 
   3   1   0   10.73    0.55 
   3  -1   0   10.46    0.37 
   3  -1   1  308.74    2.38 
   3   1   1  318.95    3.12 
   3  -1   2   20.49    0.69 
   3   1   2   19.54    0.81 
   3  -1   3  103.32    1.72 
   3   1   3  102.11    1.94 
   3   1   4   14.55    0.78 
   3   1   5    3.48    0.40 
  -3  -1  -6    0.62    0.17 
   3   1   6    0.58    0.19 
   3   1   7   38.52    1.47 
  -3  -1  -7   39.69    1.45 
  -3  -1  -8   31.84    1.40 
   3   1   8   34.50    1.47 
   3   1   9    0.44    0.19 
  -3  -1  -9    0.16    0.13 
   3   1  10    9.13    0.84 
  -3  -1 -10    9.03    0.31 
  -3  -1 -10    9.59    0.88 
  -3   1 -10    9.77    0.99 
   3   1  10    9.10    0.31 
  -3  -1 -11    3.29    0.20 
  -3  -1 -11    2.76    0.51 
  -3   1 -11    2.72    0.53 
   3  -1  11    2.86    0.17 
   3   1  11    2.83    0.18 
   3   1  12    0.03    0.04 
  -3  -1 -12   -0.01    0.05 
   3  -1  12    0.03    0.04 
   3   1  13    0.23    0.08 
  -3  -1 -13    0.00    0.18 
  -3  -1 -13    0.15    0.05 
   3  -1  13    0.23    0.06 
  -3  -1 -14    7.95    0.32 
   3   1  14    7.74    0.32 
   3  -1  14    8.00    0.34 
   3  -1  14    7.94    0.33 
   3   1  14    7.33    0.34 
   3  -1  15    0.45    0.09 
   3   1  15    0.34    0.08 
   3   1  15    0.33    0.08 
   3  -1  15    0.45    0.09 
   3   1  16    2.59    0.20 
   3  -1  16    2.54    0.21 
   3  -1  16    2.52    0.20 
   3   1  16    2.68    0.22 
   3  -1  17    0.33    0.09 
   3   1  17    0.36    0.09 
   3   1  17    0.28    0.08 
   3  -1  17    0.16    0.07 
   3  -1  18    0.02    0.04 
   3   1  18   -0.03    0.04 
   3   1  18    0.11    0.07 
   3  -1  18   -0.01    0.04 
   3  -1  19    0.65    0.10 
   3   1  19    0.55    0.10 
   3   1  19    0.61    0.09 
   3  -1  19    0.64    0.11 
   3   1  20    0.04    0.04 
   3  -1  20    0.03    0.04 
   3  -1  20    0.05    0.05 
   3   1  21    0.52    0.08 
   3  -1  21    0.29    0.06 
  -3   2  22    0.43    0.08 
  -3   2  21    5.06    0.26 
  -3   2  20    0.79    0.11 
  -3  -2  20    0.59    0.10 
  -3   2  19    5.86    0.28 
  -3  -2  19    5.92    0.32 
  -3   2  19    6.01    0.30 
  -3   2  18   11.29    0.40 
  -3  -2  18   11.05    0.44 
  -3   2  18   11.00    0.41 
  -3   2  17    1.66    0.16 
  -3  -2  17    1.70    0.18 
  -3   2  17    1.88    0.17 
  -3  -2  16    0.02    0.06 
  -3   2  16   -0.01    0.05 
  -3   2  16    0.05    0.04 
  -3  -2  15    0.85    0.12 
  -3   2  15    0.89    0.11 
  -3   2  15    0.93    0.12 
   3  -2 -14    3.70    0.62 
   3   2 -14    3.41    0.63 
  -3  -2  14    3.82    0.23 
  -3   2  14    3.51    0.21 
   3  -2 -13    8.86    0.92 
  -3  -2  13    8.55    0.33 
   3   2 -13    7.51    0.91 
  -3   2  13    8.20    0.30 
   3  -2 -12    5.12    0.68 
   3   2 -12    4.88    0.69 
  -3  -2  12    5.54    0.25 
  -3   2  12    5.14    0.23 
   3   2 -11   52.25    2.13 
   3  -2 -11   49.75    0.62 
  -3  -2  11   54.10    0.73 
   3  -2 -11   55.53    2.14 
  -3   2  11   49.58    0.65 
   3  -2 -10   17.89    1.16 
  -3  -2  10   18.09    0.40 
   3   2 -10   17.48    1.16 
   3  -2  -9   12.84    0.95 
   3   2  -9   12.74    0.93 
   3  -2  -8   25.67    1.27 
   3   2  -8   24.01    1.19 
   3   2  -7   26.18    1.15 
   3   2  -6   43.06    1.34 
   3   2  -5    1.26    0.22 
   3   2  -4    9.40    0.49 
   3   2  -3    0.60    0.10 
   3   2  -3    0.77    0.19 
   3   2  -2    0.12    0.09 
   3   2  -1    1.17    0.22 
   3   2   0   57.48    1.49 
   3   2   1   23.53    1.01 
   3   2   2    1.48    0.26 
   3   2   3    2.59    0.35 
   3   2   4    2.77    0.38 
   3   2   5    7.63    0.64 
   3   2   6   65.00    1.94 
   3   2   7    0.67    0.21 
  -3  -2  -8   22.71    0.48 
   3   2   8   21.80    1.22 
   3   2   9   21.90    1.27 
  -3  -2  -9   22.49    0.50 
  -3  -2 -10   24.49    0.54 
   3   2  10   24.86    1.40 
  -3   2 -10   24.80    1.62 
  -3   2 -11    0.57    0.28 
  -3  -2 -11    0.41    0.08 
   3   2  11    0.84    0.27 
   3   2  11    0.31    0.07 
  -3  -2 -12    2.23    0.18 
  -3   2 -12    1.90    0.51 
   3   2  12    2.43    0.19 
   3  -2  13    0.01    0.05 
  -3  -2 -13    0.05    0.04 
   3   2  13   -0.02    0.04 
  -3  -2 -14    2.88    0.20 
   3   2  14    2.63    0.21 
   3  -2  14    2.77    0.21 
  -3  -2 -15    0.05    0.04 
   3  -2  15    0.00    0.05 
   3   2  15    0.00    0.05 
   3  -2  16    0.00    0.06 
  -3  -2 -16    0.02    0.04 
   3   2  16   -0.03    0.05 
   3   2  17    0.08    0.06 
   3  -2  17    0.13    0.06 
   3   2  18    0.66    0.11 
   3  -2  18    0.62    0.11 
   3   2  19    0.49    0.09 
   3  -2  19    0.48    0.09 
   3  -2  20    2.68    0.19 
   3   2  20    2.66    0.18 
  -3   3  21    0.53    0.08 
  -3   3  21    0.38    0.06 
  -3   3  20    0.21    0.06 
  -3   3  20    0.24    0.06 
  -3   3  19    0.70    0.10 
  -3   3  19    0.65    0.11 
  -3   3  18    0.17    0.06 
  -3   3  18    0.15    0.06 
  -3   3  17    4.19    0.26 
  -3   3  17    3.96    0.24 
  -3   3  16    1.66    0.17 
  -3   3  16    1.67    0.16 
  -3   3  15    4.50    0.25 
  -3   3  14   -0.05    0.05 
   3  -3 -13    0.10    0.05 
  -3   3  13    0.06    0.04 
   3  -3 -12    1.67    0.13 
  -3   3  12    1.69    0.13 
   3   3 -12    1.63    0.39 
   3  -3 -11   22.19    0.46 
   3   3 -11   20.87    1.35 
   3  -3 -10    0.10    0.04 
   3   3 -10    0.02    0.08 
   3  -3  -9    0.10    0.04 
   3   3  -9    0.42    0.17 
   3  -3  -8    2.92    0.15 
   3   3  -4    1.75    0.33 
   3   3  -3   19.11    1.02 
   3   3  -2    0.06    0.09 
   3   3  -1   66.17    1.84 
   3   3   0    0.98    0.24 
   3   3   1    1.73    0.31 
   3   3   2    6.79    0.62 
   3   3   3   13.39    0.88 
   3   3   4   11.42    0.83 
   3   3   5    3.25    0.45 
  -3  -3  -6   12.92    0.36 
   3   3   6   13.46    0.96 
   3  -3   6   13.11    0.34 
  -3  -3  -7    2.50    0.17 
   3   3   7    2.43    0.42 
  -3  -3  -7    2.38    0.14 
   3   3   8    3.10    0.48 
  -3  -3  -8    3.39    0.17 
  -3  -3  -8    3.09    0.19 
  -3  -3  -9   23.19    0.45 
   3   3   9   24.64    1.41 
  -3  -3  -9   25.10    0.56 
   3   3  10    2.46    0.46 
  -3   3 -10    2.29    0.52 
  -3  -3 -10    2.58    0.19 
  -3  -3 -11    7.34    0.33 
   3  -3  11    7.31    0.30 
   3   3  11    6.63    0.77 
  -3   3 -11    7.23    0.95 
   3  -3  12    8.90    0.34 
  -3  -3 -12    8.62    0.36 
   3   3  12    8.13    0.36 
   3  -3  13    4.53    0.25 
  -3  -3 -13    4.70    0.27 
   3   3  13    4.58    0.28 
  -3  -3 -14    8.56    0.37 
   3  -3  14    8.81    0.36 
   3   3  15    0.13    0.07 
  -3  -3 -15    0.11    0.06 
   3  -3  15    0.20    0.07 
  -3  -3 -16    1.54    0.15 
   3  -3  16    1.56    0.16 
   3   3  16    1.66    0.18 
   3   3  17    0.25    0.08 
   3  -3  17    0.11    0.05 
  -3  -3 -17    0.16    0.06 
   3  -3  18    0.20    0.07 
   3   3  18    0.24    0.07 
   3  -3  19    1.33    0.13 
   3   3  19    1.43    0.14 
  -3   4  20    0.62    0.09 
  -3   4  19    1.39    0.14 
  -3   4  18    0.87    0.12 
  -3   4  17    0.01    0.05 
  -3   4  16    0.08    0.06 
   3  -4 -15    0.20    0.08 
   3  -4 -14    0.45    0.09 
   3  -4 -14    0.57    0.11 
   3  -4 -13    1.08    0.12 
   3  -4 -13    1.16    0.15 
   3  -4 -12    3.52    0.21 
   3  -4 -12    3.50    0.24 
   3  -4 -11    5.06    0.25 
   3  -4 -11    5.10    0.28 
   3  -4 -10    1.22    0.13 
   3  -4 -10    1.11    0.14 
   3  -4  -9    0.19    0.06 
   3  -4  -9    0.16    0.06 
   3  -4  -8    4.74    0.22 
   3  -4  -8    4.39    0.25 
   3  -4  -7    1.43    0.14 
   3  -4  -7    1.88    0.14 
   3  -4  -6    3.18    0.17 
   3  -4  -6    3.09    0.20 
   3   4  -6    2.95    0.48 
   3  -4  -5   17.00    0.45 
   3   4  -5   16.73    1.13 
   3  -4  -5   18.62    0.40 
   3  -4  -4   46.86    0.73 
   3   4  -4   46.90    1.85 
   3  -4  -4   47.75    0.61 
   3   4  -3    7.93    0.74 
   3  -4  -3    8.57    0.31 
   3   4  -2    2.02    0.39 
   3   4  -1    4.99    0.58 
  -3  -4   0    3.75    0.18 
   3  -4   0    4.15    0.21 
   3   4   0    3.81    0.53 
   3  -4   0    3.86    0.18 
   3  -4   1    0.12    0.06 
   3   4   1    0.28    0.15 
   3  -4   1    0.20    0.05 
  -3  -4  -1    0.08    0.04 
   3  -4   2   32.92    0.61 
  -3  -4  -2   32.22    0.55 
   3  -4   2   32.30    0.53 
   3   4   2   31.90    1.49 
   3  -4   3    0.03    0.05 
  -3  -4  -3    0.09    0.04 
   3  -4   3    0.11    0.04 
  -3  -4  -3    0.06    0.04 
   3  -4   4    0.20    0.06 
   3  -4   4    0.09    0.06 
   3   4   4    0.16    0.15 
  -3  -4  -4    0.05    0.04 
  -3  -4  -4    0.01    0.04 
  -3  -4  -5    9.90    0.32 
  -3  -4  -5    9.08    0.32 
   3   4   5    9.59    0.85 
   3  -4   5    9.32    0.31 
  -3  -4  -6    7.51    0.31 
  -3  -4  -6    7.94    0.30 
   3  -4   6    7.59    0.29 
   3   4   6    7.36    0.76 
  -3  -4  -7    0.11    0.05 
  -3  -4  -7    0.08    0.04 
  -3  -4  -8   -0.01    0.05 
  -3  -4  -8    0.10    0.06 
  -3  -4  -9    0.54    0.10 
  -3  -4  -9    0.59    0.09 
  -3  -4 -10   11.01    0.41 
  -3  -4 -10   10.10    0.35 
  -3  -4 -11    2.35    0.17 
  -3  -4 -11    2.58    0.21 
   3   4  12   -0.02    0.06 
  -3  -4 -12    0.11    0.07 
  -3  -4 -13    2.01    0.19 
   3  -4  13    2.16    0.17 
   3   4  13    2.13    0.20 
   3  -4  14    0.40    0.08 
  -3  -4 -14    0.47    0.10 
   3   4  14    0.38    0.09 
   3  -4  15    2.45    0.18 
  -3  -4 -15    2.36    0.19 
   3   4  15    2.42    0.21 
   3  -4  16    3.90    0.22 
  -3  -4 -16    3.58    0.23 
   3   4  16    3.66    0.25 
   3  -4  17    0.08    0.04 
   3   4  17    0.10    0.06 
   3   4  18    0.50    0.09 
  -3   5  19    2.86    0.18 
  -3   5  18    0.24    0.07 
  -3   5  17    0.57    0.10 
  -3   5  16    0.00    0.05 
  -3   5  15   10.39    0.41 
   3  -5 -14    1.37    0.15 
  -3   5  14    1.57    0.17 
   3  -5 -13    3.07    0.21 
   3  -5 -12    2.14    0.19 
   3  -5 -12    2.13    0.18 
   3  -5 -11    0.44    0.09 
   3  -5 -11    0.48    0.10 
   3  -5 -10    1.78    0.16 
   3  -5 -10    1.56    0.16 
   3  -5  -9   12.72    0.41 
   3  -5  -9   12.78    0.46 
   3  -5  -8    4.08    0.26 
   3  -5  -8    4.38    0.24 
   3  -5  -7    2.80    0.19 
   3   5  -7    2.91    0.54 
   3  -5  -6    7.12    0.29 
   3   5  -6    7.82    0.86 
   3  -5  -5    4.36    0.22 
   3   5  -5    4.59    0.66 
   3  -5  -4    0.27    0.06 
  -3  -5   4    0.27    0.06 
   3   5  -3    0.21    0.17 
  -3  -5   3    0.36    0.07 
   3  -5  -3    0.32    0.06 
   3  -5  -3    0.48    0.10 
   3  -5  -2    1.14    0.13 
  -3  -5   2    1.15    0.11 
   3  -5  -2    1.11    0.11 
   3   5  -2    1.13    0.32 
  -3  -5   1    6.64    0.27 
   3  -5  -1    6.41    0.31 
   3  -5  -1    6.82    0.28 
   3  -5  -1    6.50    0.24 
   3   5  -1    7.06    0.76 
   3   5   0   -0.08    0.13 
  -3  -5   0    0.03    0.04 
   3  -5   0    0.04    0.06 
   3  -5   0    0.06    0.05 
  -3  -5  -1   12.22    0.38 
   3  -5   1   12.60    0.44 
   3  -5   1   12.81    0.38 
   3   5   1   13.43    1.07 
   3  -5   2    0.03    0.06 
   3  -5   2    0.05    0.06 
  -3  -5  -2    0.02    0.04 
   3  -5   3    0.32    0.08 
  -3  -5  -3    0.28    0.06 
  -3  -5  -3    0.36    0.08 
   3  -5   3    0.27    0.09 
  -3  -5  -4    1.21    0.13 
  -3  -5  -4    1.17    0.13 
   3  -5   4    1.42    0.14 
  -3  -5  -5   18.18    0.50 
   3  -5   5   18.30    0.49 
  -3  -5  -5   19.10    0.50 
  -3  -5  -6    1.39    0.14 
   3  -5   6    1.22    0.14 
  -3  -5  -6    1.20    0.14 
  -3  -5  -7    0.46    0.09 
  -3  -5  -7    0.40    0.09 
  -3  -5  -8    0.51    0.10 
  -3  -5  -8    0.46    0.10 
  -3  -5  -9    2.04    0.19 
  -3  -5  -9    1.87    0.17 
  -3  -5 -10    0.00    0.06 
  -3  -5 -10    0.03    0.05 
  -3  -5 -11    3.00    0.20 
  -3  -5 -11    3.16    0.24 
  -3  -5 -12    0.70    0.10 
  -3  -5 -12    0.75    0.13 
   3   5  12    0.84    0.13 
  -3  -5 -13    1.64    0.17 
   3   5  13    1.92    0.19 
   3   5  14    0.68    0.11 
   3   5  15    0.34    0.08 
   3   5  16    0.05    0.05 
   3   5  17    0.04    0.04 
  -3   6  16    0.40    0.08 
  -3   6  15    0.21    0.06 
  -3   6  14    0.14    0.07 
  -3   6  13    0.17    0.06 
   3  -6 -13    0.27    0.07 
   3  -6 -12   -0.03    0.05 
  -3   6  12    0.00    0.04 
   3  -6 -11    0.16    0.06 
  -3   6  11    0.05    0.04 
   3  -6 -10    0.97    0.13 
   3  -6 -10    0.91    0.13 
   3  -6  -9    7.05    0.32 
   3  -6  -9    7.39    0.35 
   3  -6  -8    4.92    0.29 
   3  -6  -8    5.35    0.28 
   3  -6  -7    5.34    0.31 
   3  -6  -7    5.43    0.28 
   3  -6  -6    4.85    0.26 
   3  -6  -6    4.77    0.30 
   3  -6  -5   20.52    0.60 
   3  -6  -5   20.57    0.51 
   3  -6  -4    3.91    0.27 
   3  -6  -4    4.00    0.22 
   3  -6  -4    3.87    0.25 
   3  -6  -3    4.70    0.27 
  -3  -6   3    4.68    0.24 
   3  -6  -3    4.50    0.29 
   3  -6  -3    4.36    0.23 
  -3  -6   2    3.38    0.21 
   3  -6  -2    3.38    0.23 
   3  -6  -2    3.32    0.19 
   3  -6  -2    3.52    0.26 
   3  -6  -1   -0.01    0.06 
  -3  -6   1    0.03    0.04 
   3  -6  -1    0.00    0.06 
  -3  -6   0    0.05    0.05 
   3  -6   0    0.02    0.06 
   3  -6   0    0.06    0.07 
  -3  -6  -1    0.01    0.04 
   3  -6   1    0.02    0.07 
   3  -6   1    0.05    0.06 
   3  -6   2    0.61    0.12 
  -3  -6  -2    0.70    0.11 
   3  -6   2    0.67    0.11 
  -3  -6  -3    2.38    0.19 
   3  -6   3    2.08    0.18 
   3  -6   4    3.52    0.24 
  -3  -6  -4    3.37    0.23 
   3  -6   5    3.97    0.25 
  -3  -6  -5    3.86    0.25 
  -3  -6  -6    0.27    0.08 
  -3  -6  -7    0.21    0.07 
  -3  -6  -8    3.55    0.23 
  -3  -6  -9    0.51    0.10 
  -3  -6 -10    0.62    0.10 
  -3  -6 -11    1.69    0.15 
   3   6  11    1.61    0.16 
  -3  -6 -12    3.79    0.21 
   3   6  12    4.34    0.25 
  -3  -6 -13    2.59    0.16 
   3   6  13    2.65    0.19 
   3   6  14    0.19    0.06 
   3  -7 -11    0.97    0.12 
   3  -7 -10    0.08    0.05 
   3  -7  -9    0.18    0.06 
   3  -7  -9    0.08    0.06 
   3  -7  -8    0.52    0.09 
   3  -7  -8    0.48    0.09 
   3  -7  -8    0.47    0.09 
   3  -7  -7    0.89    0.13 
   3  -7  -7    0.92    0.12 
   3  -7  -7    1.02    0.13 
   3  -7  -6    2.98    0.20 
   3  -7  -6    2.93    0.23 
   3  -7  -6    3.53    0.24 
   3  -7  -5    0.07    0.05 
   3  -7  -5    0.02    0.06 
   3  -7  -5    0.03    0.05 
   3  -7  -4   -0.01    0.03 
   3  -7  -4    0.00    0.06 
   3  -7  -4   -0.04    0.06 
   3  -7  -3    1.63    0.14 
   3  -7  -3    1.65    0.17 
   3  -7  -3    1.63    0.18 
  -3  -7   2    0.03    0.04 
   3  -7  -2   -0.02    0.07 
   3  -7  -2    0.08    0.07 
   3  -7  -1    0.82    0.14 
   3  -7  -1    0.94    0.13 
  -3  -7   1    0.64    0.10 
   3  -7   0    0.22    0.09 
  -3  -7   0    0.14    0.06 
  -3  -7  -1   -0.02    0.04 
   3  -7   1    0.03    0.06 
  -3  -7  -2    1.31    0.14 
   3  -7   2    1.48    0.16 
  -3  -7  -3    1.71    0.17 
   3  -7   3    1.98    0.19 
   3  -7   4    0.27    0.08 
  -3  -7  -4    0.17    0.06 
  -3  -7  -5    0.08    0.06 
  -3  -7  -6    0.46    0.09 
  -3  -7  -7    0.57    0.10 
  -3  -7  -8   -0.04    0.05 
   3   7   9    0.16    0.06 
  -3  -7  -9    0.09    0.04 
  -3  -7 -10    1.75    0.14 
   3   7  10    1.90    0.15 
  -3  -7 -11    0.04    0.03 
   3  -8  -8    0.93    0.10 
   3  -8  -7    1.08    0.12 
   3  -8  -6    3.83    0.22 
   3  -8  -5    3.42    0.21 
   3  -8  -4    0.51    0.09 
   3  -8  -3    0.27    0.07 
   3  -8  -2   -0.03    0.06 
   3  -8  -1    0.43    0.09 
   3  -8   0    0.38    0.08 
  -3  -8   0    0.42    0.07 
  -3  -8  -1   -0.03    0.03 
   3  -8   1   -0.06    0.05 
  -3  -8  -2    0.38    0.07 
   3  -8   2    0.35    0.08 
  -3  -8  -3   -0.01    0.03 
  -3  -8  -4    0.28    0.07 
  -3  -8  -5    0.61    0.08 
  -3  -8  -6   -0.01    0.03 
  -4   0  23    0.04    0.04 
  -4   0  22    2.13    0.17 
  -4   0  21    0.01    0.04 
  -4   0  20    0.17    0.07 
  -4   0  19    0.00    0.05 
  -4   0  18    0.04    0.05 
  -4   0  17    0.01    0.05 
  -4   0  16    8.14    0.34 
   4   0 -15    0.11    0.12 
  -4   0  15    0.07    0.05 
   4   0 -14   15.51    1.31 
  -4   0  14   15.18    0.42 
  -4   0  13    0.02    0.03 
  -4   0  13   -0.06    0.03 
   4   0 -13    0.04    0.12 
   4   0 -12   38.96    1.89 
  -4   0  12   37.69    0.59 
   4   0 -11   -0.28    0.18 
   4   0 -10   80.23    2.43 
   4   0  -9   -0.01    0.11 
   4   0  -8    0.46    0.19 
   4   0  -7    0.04    0.09 
   4   0  -6  179.75    2.78 
   4   0  -5   -0.06    0.08 
   4   0  -4    2.09    0.22 
   4   0  -3    0.08    0.05 
   4   0  -2   81.68    1.39 
   4   0  -1   -0.15    0.08 
   4   0   0   36.94    1.01 
   4   0   1   -0.09    0.08 
   4   0   2    6.19    0.47 
   4   0   3    0.06    0.11 
   4   0   4   10.73    0.69 
   4   0   5    0.00    0.08 
   4   0   6   33.02    1.35 
   4   0   7   -0.09    0.09 
   4   0   8    3.96    0.52 
  -4   0  -9    0.14    0.14 
  -4   0  -9    0.06    0.04 
  -4   0 -10    0.64    0.27 
   4   0  10    0.56    0.08 
  -4   0 -10    0.59    0.09 
  -4   0 -11   -0.10    0.14 
  -4   0 -11   -0.05    0.05 
   4   0  11    0.04    0.04 
  -4   0 -12    1.48    0.15 
   4   0  12    1.33    0.13 
   4   0  13    0.08    0.05 
  -4   0 -13    0.65    0.31 
   4   0  14    0.73    0.11 
   4   0  15    0.01    0.04 
   4   0  15   -0.01    0.06 
   4   0  16    1.07    0.13 
   4   0  16    1.09    0.14 
   4   0  17    0.08    0.05 
   4   0  17    0.02    0.06 
   4   0  18    9.48    0.38 
   4   0  18    9.21    0.36 
   4   0  19    0.14    0.05 
   4   0  19   -0.06    0.05 
   4   0  20    0.11    0.04 
   4   0  20    0.20    0.06 
  -4   1  23    0.12    0.04 
  -4   1  22   -0.01    0.04 
  -4  -1  22    0.07    0.05 
  -4  -1  21    0.37    0.08 
  -4   1  21    0.29    0.07 
  -4  -1  20    1.01    0.13 
  -4   1  20    1.17    0.14 
  -4  -1  19    2.43    0.20 
  -4   1  19    2.39    0.19 
  -4  -1  18    0.20    0.07 
  -4   1  18    0.17    0.07 
  -4   1  17    2.10    0.17 
  -4  -1  17    2.06    0.19 
  -4   1  17    2.25    0.19 
  -4   1  16   13.62    0.41 
  -4  -1  16   14.19    0.46 
  -4   1  16   13.97    0.44 
  -4   1  15    3.45    0.21 
   4  -1 -15    3.11    0.62 
   4   1 -15    3.07    0.61 
  -4  -1  15    3.31    0.21 
  -4   1  15    3.60    0.21 
  -4  -1  14    0.17    0.07 
  -4   1  14    0.09    0.05 
  -4   1  14    0.06    0.04 
  -4  -1  13    0.07    0.04 
  -4   1  13    0.19    0.05 
  -4   1  13    0.11    0.05 
   4   1 -12   10.99    1.02 
  -4   1  12   10.15    0.31 
   4  -1 -12   10.18    0.97 
  -4  -1  12   10.37    0.32 
  -4   1  12    9.78    0.29 
  -4   1  11    8.84    0.28 
   4  -1 -11    8.61    0.85 
   4   1 -11    9.11    0.88 
  -4  -1  11    9.13    0.29 
   4  -1 -10   41.74    1.76 
   4   1 -10   41.53    1.75 
   4   1  -9    2.93    0.45 
   4  -1  -9    3.44    0.48 
   4   1  -8   34.85    1.41 
   4  -1  -8   37.16    1.50 
   4  -1  -7    6.18    0.59 
   4   1  -7    5.90    0.54 
   4   1  -6    2.31    0.32 
   4  -1  -6    2.30    0.35 
   4  -1  -5   48.26    0.77 
   4   1  -5   48.87    1.28 
   4   1  -4   19.87    0.75 
   4  -1  -4   19.22    0.45 
   4   1  -4   19.84    0.82 
   4   1  -3    3.80    0.36 
   4  -1  -3    4.21    0.21 
   4   1  -2   93.57    1.75 
   4  -1  -2   87.24    1.05 
   4   1  -1   28.24    0.98 
   4  -1  -1   28.30    0.67 
   4   1   0   23.07    0.91 
   4  -1   0   21.76    0.67 
   4  -1   1    7.40    0.43 
   4   1   1    7.16    0.53 
   4  -1   2   26.07    0.88 
   4   1   2   26.88    1.05 
   4  -1   3    0.11    0.09 
   4   1   3    0.15    0.11 
   4  -1   4   42.92    1.33 
   4   1   4   43.10    1.47 
   4   1   5   36.09    1.41 
   4   1   6   57.25    1.86 
  -4  -1  -6   57.36    1.70 
   4   1   7   23.07    1.22 
  -4  -1  -7   23.50    1.17 
   4   1   8   20.21    1.21 
  -4  -1  -8   20.45    1.17 
  -4  -1  -9    6.55    0.28 
  -4   1  -9    5.87    0.25 
  -4  -1  -9    6.45    0.71 
   4   1   9    6.77    0.74 
   4   1   9    6.30    0.25 
  -4   1 -10    1.75    0.42 
  -4  -1 -10    1.05    0.31 
  -4  -1 -10    1.58    0.14 
  -4   1 -10    1.43    0.13 
   4   1  10    1.68    0.38 
   4   1  10    1.60    0.14 
   4   1  11    0.84    0.11 
  -4   1 -11    0.80    0.31 
  -4  -1 -11    0.72    0.10 
  -4  -1 -11    0.82    0.28 
  -4   1 -12    9.20    1.09 
  -4  -1 -12    9.68    0.37 
   4  -1  12    9.76    0.34 
   4   1  12    9.68    0.36 
   4  -1  13    0.99    0.12 
  -4  -1 -13    1.05    0.13 
   4   1  13    0.81    0.12 
  -4  -1 -14    4.03    0.24 
   4  -1  14    4.28    0.24 
   4   1  14    3.90    0.25 
   4  -1  15    1.33    0.14 
   4   1  15    1.21    0.14 
   4   1  15    1.17    0.14 
   4  -1  15    1.04    0.14 
   4  -1  16    0.04    0.04 
   4   1  16    0.03    0.05 
   4   1  16    0.00    0.04 
   4  -1  16    0.04    0.05 
   4   1  17    0.02    0.05 
   4   1  17    0.02    0.05 
   4  -1  17    0.07    0.05 
   4  -1  18    1.34    0.15 
   4   1  18    1.72    0.16 
   4   1  18    1.51    0.15 
   4   1  19    0.79    0.10 
   4  -1  19    0.79    0.11 
   4   1  19    0.84    0.10 
   4   1  20    0.75    0.09 
   4  -1  20    0.86    0.11 
  -4   2  22    0.69    0.09 
  -4   2  21    0.49    0.09 
  -4   2  20    0.10    0.06 
  -4  -2  20    0.08    0.04 
  -4   2  19    1.37    0.14 
  -4  -2  19    1.65    0.18 
  -4   2  19    1.56    0.15 
  -4  -2  18    1.24    0.15 
  -4   2  18    1.14    0.14 
  -4   2  18    1.17    0.14 
  -4  -2  17    0.27    0.09 
  -4   2  17    0.24    0.07 
  -4   2  17    0.30    0.08 
  -4  -2  16    0.13    0.07 
  -4   2  16    0.06    0.04 
  -4   2  16    0.15    0.06 
  -4   2  15    3.82    0.23 
  -4  -2  15    4.01    0.25 
  -4   2  15    4.14    0.23 
  -4   2  14    5.33    0.27 
   4   2 -14    6.24    0.83 
  -4  -2  14    5.32    0.28 
  -4   2  14    5.34    0.25 
   4  -2 -14    4.98    0.75 
  -4   2  13    5.29    0.26 
   4   2 -13    5.29    0.75 
  -4  -2  13    5.06    0.25 
  -4   2  13    5.01    0.23 
   4  -2 -13    5.31    0.75 
   4   2 -12   13.34    1.12 
  -4   2  12   12.90    0.38 
   4  -2 -12   13.09    1.12 
  -4  -2  12   12.68    0.38 
  -4   2  12   11.67    0.33 
   4   2 -11    2.58    0.47 
  -4  -2  11    2.38    0.16 
   4  -2 -11    2.48    0.47 
  -4  -2  10    0.01    0.03 
   4   2 -10   -0.07    0.10 
   4  -2 -10   -0.05    0.11 
   4   2  -9   45.75    1.74 
   4   2  -8   61.92    1.89 
   4   2  -7   19.08    0.96 
   4   2  -6    1.25    0.22 
   4   2  -5   79.27    1.56 
   4   2  -4   38.12    0.94 
   4   2  -4   37.51    1.33 
   4   2  -3    0.68    0.17 
   4   2  -2   12.13    0.75 
   4   2  -1    1.61    0.29 
   4   2   0    6.93    0.58 
   4   2   1    4.81    0.49 
   4   2   2   29.80    1.23 
   4   2   3   47.92    1.60 
   4   2   4    3.34    0.45 
   4   2   5   57.24    1.90 
   4   2   6   16.15    1.04 
  -4  -2  -7   32.20    0.59 
   4   2   7   31.97    1.52 
  -4  -2  -8   17.17    0.45 
   4   2   8   15.98    1.12 
  -4  -2  -9   21.74    0.53 
   4   2   9   21.63    1.35 
  -4  -2 -10    0.19    0.07 
   4   2  10    0.16    0.17 
  -4   2 -11    3.63    0.66 
  -4  -2 -11    3.93    0.24 
   4   2  11    3.81    0.60 
   4   2  11    3.77    0.23 
  -4  -2 -12    3.97    0.24 
   4   2  12    4.06    0.25 
  -4  -2 -13    8.67    0.36 
   4   2  13    9.02    0.38 
   4   2  14    0.71    0.12 
  -4  -2 -14    0.75    0.11 
   4  -2  14    0.62    0.11 
   4  -2  15    1.19    0.15 
  -4  -2 -15    1.10    0.13 
   4   2  15    1.44    0.16 
   4  -2  16    2.45    0.20 
  -4  -2 -16    2.26    0.18 
   4   2  16    2.38    0.21 
   4  -2  17    2.07    0.18 
   4   2  17    1.89    0.18 
   4  -2  18    2.08    0.18 
   4   2  18    2.03    0.17 
   4   2  19   -0.05    0.04 
   4  -2  19    0.07    0.05 
   4  -2  20    0.36    0.07 
  -4   3  21    0.17    0.05 
  -4   3  20    0.56    0.09 
  -4   3  19    3.46    0.23 
   4  -3 -19    2.95    0.21 
  -4   3  18    2.66    0.21 
  -4   3  17    7.07    0.34 
  -4   3  16    0.34    0.09 
  -4   3  15    3.85    0.25 
  -4   3  14    0.06    0.06 
  -4   3  13    3.04    0.22 
   4  -3 -12    2.61    0.17 
   4  -3 -11    0.06    0.04 
   4  -3 -10   19.42    0.44 
   4  -3  -9    3.03    0.17 
   4  -3  -8    0.72    0.08 
   4  -3  -7    3.31    0.16 
   4   3  -5    4.67    0.56 
   4   3  -4    1.88    0.35 
   4   3  -3   18.96    1.08 
   4   3  -2   11.31    0.82 
   4   3  -1   10.17    0.79 
   4   3   0    0.43    0.18 
   4   3   1    0.32    0.16 
   4   3   2   25.13    1.28 
   4   3   3   38.18    1.59 
   4   3   4    6.67    0.68 
  -4  -3  -5    0.08    0.04 
   4  -3   5    0.17    0.06 
  -4  -3  -5    0.15    0.04 
  -4  -3  -6    0.37    0.07 
  -4  -3  -6    0.46    0.07 
  -4  -3  -7    0.92    0.10 
  -4  -3  -7    0.83    0.11 
   4   3   8   16.88    1.21 
  -4  -3  -8   16.08    0.46 
  -4  -3  -8   16.21    0.39 
  -4  -3  -9    1.53    0.15 
   4   3   9    1.28    0.35 
   4   3  10    0.28    0.17 
  -4  -3 -10    0.04    0.05 
  -4  -3 -11   -0.03    0.06 
  -4  -3 -12    0.50    0.10 
   4   3  12    0.48    0.10 
   4  -3  12    0.49    0.09 
   4  -3  13    6.83    0.32 
  -4  -3 -13    7.42    0.35 
   4   3  13    6.94    0.35 
  -4  -3 -14    0.75    0.12 
   4  -3  14    0.69    0.11 
   4   3  14    0.73    0.12 
  -4  -3 -15    0.15    0.06 
   4  -3  15    0.13    0.06 
   4   3  15    0.25    0.08 
   4   3  16    0.12    0.06 
   4  -3  16    0.09    0.06 
  -4  -3 -16    0.07    0.05 
  -4  -3 -17    0.04    0.04 
   4   3  17   -0.03    0.05 
   4  -3  17   -0.04    0.05 
   4   3  18    0.02    0.05 
   4  -3  18    0.09    0.05 
   4   3  19    0.10    0.05 
   4  -3  19    0.06    0.04 
  -4   4  20    0.89    0.11 
  -4   4  19    1.89    0.17 
  -4   4  18    0.15    0.07 
   4  -4 -17    0.02    0.05 
  -4   4  17    0.02    0.05 
   4  -4 -16    0.76    0.12 
  -4   4  16    0.56    0.11 
   4  -4 -15    0.10    0.07 
  -4   4  15    0.00    0.05 
  -4   4  14   13.26    0.48 
   4  -4 -14   12.98    0.48 
   4  -4 -13    7.47    0.37 
  -4   4  13    7.38    0.35 
   4  -4 -12    0.44    0.10 
  -4   4  12    0.65    0.11 
   4  -4 -12    0.55    0.09 
   4  -4 -11    2.15    0.20 
   4  -4 -11    2.32    0.18 
   4  -4 -10   26.15    0.56 
   4  -4 -10   24.16    0.63 
   4  -4  -9   11.12    0.42 
   4  -4  -9   12.70    0.38 
   4  -4  -8    0.18    0.08 
   4  -4  -8    0.25    0.06 
   4   4  -8    0.12    0.14 
   4  -4  -7    1.27    0.14 
   4  -4  -7    1.26    0.12 
   4   4  -7    0.94    0.29 
   4   4  -6   16.24    1.19 
   4  -4  -6   16.62    0.48 
   4  -4  -6   17.80    0.41 
  -4  -4   6   16.95    0.39 
  -4   4   5    2.54    0.15 
   4  -4  -5    2.78    0.20 
   4  -4  -5    2.96    0.17 
  -4  -4   5    2.53    0.15 
   4   4  -5    2.18    0.43 
   4  -4  -4    0.95    0.09 
   4  -4  -4    1.11    0.12 
  -4  -4   4    1.00    0.10 
   4   4  -4    1.17    0.31 
   4   4  -3   10.33    0.90 
   4  -4  -3   11.13    0.30 
  -4  -4   3   10.45    0.31 
   4  -4  -3   10.63    0.37 
   4  -4  -2    1.06    0.09 
  -4  -4   2    1.03    0.10 
   4   4  -2    0.77    0.26 
   4   4  -1    6.60    0.72 
  -4  -4   1    6.84    0.26 
   4  -4  -1    6.34    0.23 
   4   4   0    4.95    0.63 
   4  -4   0    5.83    0.26 
  -4  -4   0    5.71    0.24 
   4  -4   0    5.37    0.22 
  -4  -4  -1    0.45    0.07 
   4  -4   1    0.52    0.09 
   4  -4   1    0.50    0.08 
  -4  -4  -1    0.56    0.08 
   4  -4   2    1.45    0.14 
  -4  -4  -2    1.48    0.12 
  -4  -4  -2    1.53    0.13 
   4  -4   2    1.78    0.13 
  -4  -4  -3   32.92    0.59 
   4  -4   3   31.34    0.63 
  -4  -4  -3   30.95    0.57 
   4  -4   3   32.31    0.57 
   4   4   3   32.63    1.61 
   4   4   4    0.44    0.19 
  -4  -4  -4    0.46    0.08 
   4  -4   4    0.37    0.08 
   4  -4   4    0.34    0.08 
  -4  -4  -4    0.47    0.08 
   4   4   5   25.86    1.48 
  -4  -4  -5   24.58    0.53 
  -4  -4  -5   24.19    0.55 
   4  -4   5   24.47    0.53 
  -4  -4  -6   11.65    0.40 
  -4  -4  -6   11.49    0.37 
   4   4   6   12.37    1.04 
  -4  -4  -7   19.74    0.48 
  -4  -4  -7   18.94    0.52 
   4   4   7   18.04    1.28 
   4   4   8    0.36    0.21 
  -4  -4  -8    0.14    0.06 
  -4  -4  -8    0.20    0.07 
  -4  -4  -9    1.91    0.16 
  -4  -4  -9    2.04    0.18 
  -4  -4 -10    1.04    0.14 
  -4  -4 -10    0.95    0.11 
  -4  -4 -11    2.63    0.22 
  -4  -4 -12    0.68    0.12 
   4   4  12    0.69    0.12 
   4   4  13    0.10    0.07 
   4  -4  13    0.14    0.05 
  -4  -4 -13    0.25    0.08 
   4  -4  14    0.11    0.05 
  -4  -4 -14    0.09    0.06 
   4   4  14    0.06    0.06 
  -4  -4 -15    0.09    0.06 
   4  -4  15    0.00    0.03 
   4   4  15    0.07    0.06 
   4  -4  16    0.01    0.03 
  -4  -4 -16    0.05    0.05 
   4   4  16    0.08    0.06 
   4  -4  17    0.05    0.04 
   4   4  17   -0.05    0.05 
   4   4  18    1.45    0.13 
  -4   5  19    0.01    0.04 
  -4   5  18    0.28    0.08 
  -4   5  17    0.40    0.09 
  -4   5  16    0.02    0.06 
   4  -5 -15    0.29    0.08 
  -4   5  15    0.34    0.09 
   4  -5 -14    3.30    0.24 
  -4   5  14    2.98    0.23 
  -4   5  13    2.07    0.19 
   4  -5 -13    2.11    0.20 
   4  -5 -12    0.55    0.12 
  -4   5  12    0.70    0.12 
   4  -5 -12    0.69    0.11 
  -4   5  11    0.28    0.08 
   4  -5 -11    0.16    0.07 
   4  -5 -11    0.35    0.09 
   4  -5 -10    1.52    0.15 
  -4   5  10    1.34    0.15 
   4  -5 -10    1.27    0.16 
   4  -5  -9    5.88    0.33 
  -4   5   9    5.51    0.28 
   4  -5  -9    5.99    0.29 
   4  -5  -8    4.82    0.25 
  -4   5   8    4.64    0.25 
   4  -5  -8    4.45    0.28 
   4  -5  -7    0.03    0.06 
  -4   5   7    0.04    0.03 
   4  -5  -7    0.03    0.04 
   4   5  -7    0.05    0.07 
   4  -5  -6    1.68    0.15 
   4   5  -6    1.55    0.42 
   4  -5  -5    2.43    0.17 
  -4  -5   5    2.10    0.16 
   4  -5  -4    0.19    0.06 
   4   5  -4    0.32    0.20 
  -4  -5   4    0.20    0.06 
   4  -5  -3    7.42    0.27 
  -4  -5   3    7.54    0.30 
   4  -5  -3    7.18    0.34 
   4   5  -3    8.15    0.88 
   4  -5  -3    7.27    0.29 
   4  -5  -2    0.49    0.07 
   4   5  -2    0.29    0.22 
   4  -5  -2    0.42    0.10 
   4  -5  -2    0.42    0.08 
  -4  -5   2    0.46    0.08 
   4  -5  -1    3.29    0.23 
  -4  -5   1    3.12    0.20 
   4  -5  -1    3.21    0.20 
   4  -5   0    0.27    0.09 
   4  -5   0    0.20    0.07 
  -4  -5   0    0.32    0.07 
   4  -5   1   16.60    0.45 
   4  -5   1   16.14    0.51 
  -4  -5  -1   15.31    0.45 
   4   5   1   16.61    1.22 
   4  -5   2    0.54    0.10 
   4  -5   2    0.50    0.11 
   4   5   2    0.53    0.25 
  -4  -5  -2    0.41    0.08 
  -4  -5  -2    0.48    0.08 
   4  -5   3    0.26    0.08 
   4   5   3    0.28    0.17 
  -4  -5  -3    0.27    0.07 
  -4  -5  -3    0.16    0.06 
   4  -5   3    0.05    0.07 
  -4  -5  -4    0.13    0.06 
   4  -5   4    0.15    0.07 
  -4  -5  -4    0.17    0.07 
  -4  -5  -5    4.80    0.27 
  -4  -5  -5    5.12    0.27 
   4  -5   5    5.18    0.27 
  -4  -5  -6    0.09    0.06 
  -4  -5  -6    0.18    0.07 
  -4  -5  -7   13.69    0.47 
  -4  -5  -7   12.87    0.43 
  -4  -5  -8    0.01    0.06 
  -4  -5  -8    0.12    0.07 
  -4  -5  -9    0.23    0.09 
  -4  -5  -9    0.25    0.07 
  -4  -5 -10    0.07    0.07 
  -4  -5 -10    0.17    0.06 
  -4  -5 -11   10.32    0.36 
  -4  -5 -11   10.60    0.43 
   4   5  12    0.37    0.09 
  -4  -5 -12    0.40    0.10 
  -4  -5 -13    1.27    0.15 
   4   5  13    1.60    0.17 
   4   5  14   -0.01    0.05 
   4   5  15    0.02    0.06 
   4   5  16    0.03    0.04 
  -4   6  16    1.00    0.12 
  -4   6  15    0.00    0.04 
  -4   6  14    0.29    0.07 
  -4   6  13    0.36    0.08 
  -4   6  12    0.60    0.10 
  -4   6  11    6.38    0.30 
   4  -6 -11    7.11    0.32 
  -4   6  10    0.64    0.10 
   4  -6 -10    0.68    0.11 
   4  -6  -9   -0.03    0.07 
  -4   6   9    0.00    0.04 
   4  -6  -9    0.03    0.05 
   4  -6  -8    2.19    0.18 
   4  -6  -8    2.02    0.20 
   4  -6  -7    1.79    0.19 
   4  -6  -7    1.76    0.16 
   4  -6  -6    2.23    0.21 
   4  -6  -6    2.51    0.19 
   4  -6  -5    1.72    0.15 
   4  -6  -5    1.72    0.19 
   4  -6  -5    1.60    0.16 
   4  -6  -4    1.94    0.20 
  -4  -6   4    1.92    0.16 
   4  -6  -4    1.91    0.16 
   4  -6  -4    2.11    0.18 
   4  -6  -3    0.50    0.10 
   4  -6  -3    0.39    0.11 
   4  -6  -3    0.46    0.09 
  -4  -6   3    0.44    0.09 
  -4  -6   2    1.17    0.13 
   4  -6  -2    1.58    0.16 
   4  -6  -2    1.26    0.17 
   4  -6  -1    4.69    0.31 
  -4  -6   1    4.55    0.26 
   4  -6  -1    5.14    0.28 
   4  -6   0    1.53    0.18 
  -4  -6   0    1.48    0.15 
   4  -6   0    1.70    0.17 
   4  -6   1    2.35    0.23 
  -4  -6  -1    2.63    0.20 
   4  -6   1    2.60    0.21 
   4  -6   2    0.10    0.08 
   4  -6   2    0.03    0.06 
  -4  -6  -2    0.04    0.06 
   4  -6   3    0.10    0.06 
  -4  -6  -3    0.09    0.05 
   4  -6   4    0.02    0.06 
  -4  -6  -4    0.20    0.06 
  -4  -6  -5    1.95    0.18 
   4  -6   5    2.07    0.19 
  -4  -6  -6    0.70    0.12 
  -4  -6  -7    0.27    0.08 
  -4  -6  -8    0.64    0.11 
  -4  -6  -9    0.40    0.08 
  -4  -6 -10    2.08    0.17 
   4   6  11    0.52    0.09 
  -4  -6 -11    0.52    0.08 
   4   6  12    0.09    0.06 
  -4  -6 -12   -0.03    0.04 
   4   6  13    0.08    0.05 
   4  -7 -13   -0.02    0.04 
   4  -7 -12    0.15    0.06 
   4  -7 -11   -0.02    0.05 
   4  -7 -10    0.04    0.05 
   4  -7 -10    0.05    0.05 
   4  -7  -9    0.09    0.05 
   4  -7  -9    0.08    0.05 
   4  -7  -8    0.30    0.08 
   4  -7  -8    0.33    0.09 
   4  -7  -8    0.29    0.08 
   4  -7  -7   -0.01    0.05 
   4  -7  -7    0.01    0.06 
   4  -7  -7    0.03    0.05 
   4  -7  -6    0.53    0.11 
   4  -7  -6    0.61    0.11 
   4  -7  -6    0.67    0.10 
   4  -7  -5    0.36    0.10 
   4  -7  -5    0.50    0.08 
   4  -7  -5    0.59    0.11 
   4  -7  -4    0.03    0.06 
   4  -7  -4   -0.02    0.04 
   4  -7  -4   -0.07    0.07 
   4  -7  -3    0.02    0.06 
  -4  -7   3    0.04    0.03 
   4  -7  -3    0.00    0.06 
   4  -7  -2    0.15    0.07 
  -4  -7   2    0.03    0.04 
   4  -7  -2    0.01    0.06 
   4  -7  -1    1.64    0.19 
  -4  -7   1    1.48    0.15 
   4  -7  -1    1.43    0.16 
  -4  -7   0    0.64    0.10 
   4  -7   0    0.49    0.10 
  -4  -7  -1    0.02    0.04 
   4  -7   1   -0.02    0.06 
  -4  -7  -2    0.00    0.05 
   4  -7   2    0.04    0.05 
  -4  -7  -3    0.87    0.12 
   4  -7   3    0.80    0.12 
  -4  -7  -4    0.44    0.09 
  -4  -7  -5    0.98    0.13 
  -4  -7  -6    0.20    0.06 
  -4  -7  -7    0.48    0.09 
  -4  -7  -8    0.12    0.05 
  -4  -7  -9    1.24    0.12 
   4   7   9    1.37    0.13 
   4   7  10    0.10    0.04 
  -4  -7 -10    0.05    0.04 
   4  -8  -7    1.41    0.13 
   4  -8  -6    0.35    0.08 
   4  -8  -5    0.06    0.06 
   4  -8  -4    0.22    0.06 
   4  -8  -3    0.37    0.08 
   4  -8  -2    1.32    0.14 
  -4  -8   1    0.24    0.05 
   4  -8  -1    0.17    0.07 
  -4  -8   0    0.14    0.05 
   4  -8   0   -0.04    0.06 
  -4  -8  -1    0.31    0.06 
   4  -8   1    0.22    0.07 
  -4  -8  -2    0.81    0.10 
  -4  -8  -3    0.05    0.04 
  -4  -8  -4    0.18    0.05 
  -4  -8  -5    0.12    0.05 
  -5   0  23    0.19    0.06 
  -5   0  23    0.12    0.05 
  -5   0  22   -0.02    0.04 
  -5   0  21   -0.03    0.04 
  -5   0  20    0.66    0.11 
  -5   0  19   -0.02    0.05 
  -5   0  18    2.39    0.19 
  -5   0  17   -0.02    0.05 
  -5   0  16    6.54    0.30 
  -5   0  15   -0.05    0.05 
   5   0 -15    0.41    0.23 
   5   0 -14    2.84    0.55 
  -5   0  14    3.01    0.18 
  -5   0  14    3.37    0.20 
  -5   0  13    0.03    0.04 
  -5   0  13   -0.04    0.03 
   5   0 -13   -0.07    0.14 
   5   0 -12   12.28    1.05 
  -5   0  12   13.06    0.35 
  -5   0  12   13.33    0.35 
   5   0 -11    0.05    0.11 
   5   0 -10  115.68    2.93 
   5   0  -9    0.11    0.11 
   5   0  -8   77.66    2.17 
   5   0  -7   -0.07    0.10 
   5   0  -6  102.39    1.80 
   5   0  -5   -0.07    0.07 
   5   0  -4   47.22    1.16 
   5   0  -3    0.07    0.06 
   5   0  -2    4.07    0.36 
   5   0  -1    0.09    0.10 
   5   0   0  276.58    3.10 
   5   0   1    0.10    0.08 
   5   0   2   31.90    1.17 
   5   0   3   -0.02    0.08 
   5   0   4    8.45    0.67 
   5   0   5   -0.10    0.13 
   5   0   6    0.18    0.13 
   5   0   7    0.08    0.12 
  -5   0  -8    2.43    0.17 
   5   0   8    2.95    0.48 
   5   0   9    0.06    0.03 
  -5   0  -9    0.07    0.11 
  -5   0  -9    0.03    0.05 
  -5   0 -10   50.97    0.85 
  -5   0 -10   51.09    2.29 
   5   0  10   53.81    0.75 
   5   0  11    0.03    0.05 
  -5   0 -11    0.04    0.05 
  -5   0 -12    7.61    0.34 
   5   0  12    8.52    0.33 
   5   0  13    0.01    0.04 
  -5   0 -13   -0.04    0.05 
   5   0  14    0.16    0.06 
   5   0  15   -0.01    0.04 
   5   0  16    3.35    0.23 
   5   0  16    3.75    0.23 
   5   0  17    0.06    0.04 
   5   0  17   -0.13    0.06 
   5   0  18    0.83    0.11 
   5   0  19   -0.14    0.05 
  -5  -1  22    2.77    0.19 
  -5   1  22    2.78    0.18 
  -5  -1  21    2.59    0.20 
  -5   1  21    2.53    0.18 
  -5  -1  20    5.71    0.30 
  -5   1  20    5.25    0.27 
  -5  -1  19    0.09    0.06 
  -5   1  19    0.18    0.07 
  -5   1  18    8.56    0.34 
  -5  -1  18    8.74    0.37 
  -5   1  18    8.62    0.35 
  -5   1  17   12.66    0.41 
  -5  -1  17   12.85    0.44 
  -5   1  17   13.31    0.43 
  -5  -1  16    0.27    0.08 
  -5   1  16    0.28    0.07 
  -5   1  16    0.23    0.07 
  -5   1  15    7.34    0.31 
   5   1 -15    7.95    0.97 
  -5  -1  15    7.28    0.31 
  -5   1  15    7.20    0.30 
  -5  -1  14    0.99    0.12 
   5  -1 -14    1.12    0.35 
  -5   1  14    0.84    0.10 
   5   1 -14    1.02    0.34 
  -5   1  14    0.93    0.11 
   5  -1 -13    0.75    0.28 
  -5   1  13    1.08    0.11 
  -5  -1  13    1.00    0.11 
  -5   1  13    1.10    0.11 
   5  -1 -12   23.78    1.50 
  -5   1  12   22.57    0.48 
   5   1 -12   21.44    1.41 
  -5  -1  12   22.06    0.47 
  -5   1  12   20.63    0.42 
   5  -1 -11    2.73    0.49 
   5   1 -11    2.85    0.48 
  -5   1  11    2.54    0.16 
  -5  -1  11    2.60    0.15 
   5  -1 -10   25.41    1.42 
   5   1 -10   24.94    1.36 
   5   1  -9    3.71    0.50 
   5  -1  -9    2.59    0.45 
   5   1  -8   -0.01    0.07 
   5   1  -7    4.22    0.46 
   5   1  -6   12.13    0.73 
   5   1  -5    5.13    0.46 
   5   1  -4    1.34    0.24 
   5  -1  -4    1.80    0.17 
   5   1  -3    4.92    0.44 
   5  -1  -3    4.55    0.28 
   5   1  -2   54.65    1.48 
   5  -1  -2   50.60    0.99 
   5   1  -1  129.47    2.35 
   5  -1  -1  121.19    1.68 
   5  -1   0    0.39    0.11 
   5   1   0    0.23    0.13 
   5  -1   1    9.87    0.56 
   5   1   1   11.70    0.74 
   5  -1   2   88.23    1.80 
   5   1   2   93.84    2.15 
   5  -1   3   21.52    0.96 
   5   1   3   23.75    1.13 
   5  -1   4   23.81    1.07 
   5   1   4   26.29    1.24 
   5   1   5    0.20    0.14 
   5  -1   5    0.04    0.09 
   5   1   6   50.74    1.87 
   5   1   7    2.27    0.41 
  -5  -1  -7    1.48    0.30 
  -5  -1  -7    2.02    0.16 
   5   1   8   -0.10    0.14 
  -5  -1  -8   -0.01    0.04 
  -5   1  -8    0.04    0.04 
  -5  -1  -8   -0.01    0.11 
   5   1   9    0.92    0.10 
  -5  -1  -9    0.82    0.11 
  -5   1  -9    0.86    0.11 
   5   1   9    0.88    0.29 
   5   1  10    0.32    0.07 
   5   1  10    0.66    0.25 
  -5   1 -10    0.04    0.10 
  -5  -1 -10    0.38    0.08 
  -5   1 -10    0.38    0.08 
  -5   1 -11    6.33    0.30 
  -5  -1 -11    6.87    0.33 
   5   1  11    7.00    0.30 
  -5  -1 -12    1.73    0.17 
  -5   1 -12    1.72    0.16 
   5   1  12    1.74    0.16 
  -5  -1 -13    0.01    0.05 
   5   1  13    0.03    0.04 
   5   1  14    0.22    0.07 
  -5  -1 -14    0.12    0.06 
   5   1  15    1.08    0.13 
  -5  -1 -15    0.99    0.13 
   5   1  15    1.10    0.13 
   5  -1  15    1.06    0.14 
   5   1  16    0.43    0.08 
   5  -1  16    0.49    0.10 
   5   1  16    0.51    0.10 
   5   1  17   -0.04    0.05 
   5   1  17   -0.01    0.05 
   5  -1  17    0.01    0.06 
   5  -1  18    0.16    0.06 
   5   1  18    0.11    0.05 
   5   1  18   -0.03    0.04 
   5   1  19    0.51    0.08 
   5   1  19    0.60    0.08 
   5  -1  19    0.76    0.10 
  -5  -2  21    0.50    0.09 
  -5   2  20    0.18    0.06 
  -5   2  20    0.13    0.05 
  -5  -2  20    0.21    0.06 
  -5  -2  19    1.76    0.17 
  -5   2  19    1.86    0.17 
  -5   2  19    1.73    0.16 
  -5   2  18    0.97    0.12 
  -5  -2  18    1.03    0.13 
  -5   2  18    0.89    0.13 
  -5  -2  17    3.28    0.23 
  -5   2  17    3.32    0.23 
  -5  -2  17    3.24    0.23 
  -5   2  17    2.90    0.20 
  -5   2  16   10.04    0.39 
  -5  -2  16    9.74    0.40 
  -5   2  15    7.36    0.33 
  -5  -2  15    7.30    0.33 
  -5  -2  14    0.82    0.11 
  -5   2  14    0.75    0.11 
   5   2 -14    0.77    0.30 
  -5   2  13    1.37    0.14 
  -5  -2  13    1.12    0.13 
   5   2 -12    0.56    0.22 
  -5   2  12    0.76    0.10 
  -5  -2  12    0.59    0.09 
   5   2 -11   11.92    0.98 
  -5  -2  11   12.24    0.36 
  -5   2  11   12.61    0.38 
  -5  -2  11   11.80    0.36 
  -5   2  10    3.28    0.19 
   5   2 -10    3.54    0.50 
  -5  -2  10    3.10    0.17 
  -5   2   9    6.25    0.24 
   5   2  -9    6.08    0.62 
   5   2  -8   53.07    1.69 
   5   2  -7    0.21    0.11 
   5   2  -6    0.96    0.19 
   5   2  -6    0.80    0.23 
   5   2  -5    2.18    0.35 
   5   2  -4    1.35    0.28 
   5   2  -3    5.99    0.57 
   5   2  -2    0.65    0.20 
   5   2  -1    0.62    0.20 
   5   2   0   48.66    1.64 
   5   2   1    3.78    0.48 
   5   2   2   18.80    1.07 
   5   2   3    1.83    0.35 
   5   2   4    0.18    0.14 
   5   2   5    3.76    0.53 
  -5  -2  -6    8.09    0.31 
   5   2   6    7.76    0.78 
   5   2   7    0.54    0.23 
  -5  -2  -7    0.25    0.07 
  -5  -2  -8    5.18    0.27 
   5   2   8    5.48    0.68 
   5   2   9    0.63    0.27 
  -5  -2  -9    0.52    0.10 
   5   2  10    1.24    0.36 
  -5  -2 -10    1.30    0.15 
  -5   2 -10    1.12    0.13 
   5   2  10    1.24    0.13 
  -5  -2 -11    0.21    0.07 
   5   2  11    0.20    0.07 
  -5  -2 -12    3.65    0.25 
   5   2  12    3.52    0.24 
   5   2  13    1.07    0.14 
  -5  -2 -13    1.22    0.15 
  -5  -2 -14    3.72    0.25 
   5  -2  14    3.44    0.24 
   5   2  15    0.96    0.13 
  -5  -2 -15    1.20    0.14 
   5  -2  15    1.14    0.14 
   5  -2  16    1.39    0.15 
  -5  -2 -16    1.50    0.15 
   5   2  16    1.41    0.15 
   5  -2  17    0.05    0.04 
   5   2  17    0.00    0.04 
   5   2  18    1.07    0.12 
   5  -2  18    1.01    0.12 
   5   2  19    0.70    0.09 
   5  -2  19    0.69    0.09 
  -5   3  21    0.15    0.05 
  -5   3  20    0.15    0.07 
   5  -3 -20    0.22    0.08 
  -5   3  19    3.75    0.24 
   5  -3 -19    3.97    0.25 
  -5   3  18    0.03    0.06 
  -5   3  17    0.78    0.12 
  -5   3  16    0.10    0.06 
  -5   3  15    2.36    0.20 
  -5  -3  14    5.78    0.28 
  -5   3  14    5.99    0.31 
  -5  -3  13    3.21    0.20 
  -5   3  13    3.00    0.22 
  -5   3  12    8.60    0.35 
  -5  -3  12    8.48    0.32 
  -5  -3  11    3.93    0.21 
  -5   3  11    4.42    0.24 
  -5  -3  10   10.28    0.33 
  -5   3  10   11.23    0.37 
  -5  -3   9   15.22    0.38 
  -5   3   9   15.32    0.42 
   5  -3  -9   15.58    0.39 
  -5  -3   8    0.00    0.02 
  -5   3   8    0.01    0.03 
   5  -3  -8    0.04    0.03 
   5  -3  -7    0.62    0.09 
  -5   3   7    0.69    0.08 
   5  -3  -7    0.59    0.08 
   5   3  -7    0.89    0.28 
   5  -3  -6   16.47    0.44 
   5  -3  -6   17.90    0.38 
   5   3  -6   16.87    1.13 
   5   3  -5   13.29    0.98 
   5   3  -4   29.54    1.43 
   5   3  -3   40.42    1.66 
   5   3  -2    9.08    0.79 
   5   3  -1    2.40    0.42 
   5   3   0    8.66    0.79 
   5   3   1   32.37    1.51 
   5   3   2    3.72    0.54 
  -5  -3  -2    4.46    0.20 
  -5  -3  -3    0.21    0.06 
  -5  -3  -3    0.16    0.05 
   5  -3   4   13.78    0.37 
  -5  -3  -4   14.28    0.40 
  -5  -3  -4   14.15    0.36 
   5  -3   4   15.00    0.37 
   5   3   5    0.82    0.27 
  -5  -3  -5    0.93    0.11 
  -5  -3  -5    0.93    0.10 
  -5  -3  -6   11.26    0.39 
  -5  -3  -6   10.69    0.32 
   5   3   6   10.98    0.98 
   5   3   7    3.27    0.54 
  -5  -3  -7    3.06    0.21 
  -5  -3  -7    3.03    0.18 
   5   3   8    5.73    0.75 
  -5  -3  -8    6.86    0.32 
  -5  -3  -9    1.76    0.17 
   5   3   9    1.23    0.35 
  -5  -3 -10   -0.01    0.05 
  -5  -3 -11   13.06    0.47 
   5   3  11   13.55    0.46 
   5   3  12    0.35    0.09 
  -5  -3 -12    0.36    0.10 
   5   3  13    0.09    0.06 
  -5  -3 -13    0.09    0.05 
   5  -3  13    0.07    0.05 
  -5  -3 -14    1.66    0.17 
   5  -3  14    1.84    0.17 
   5   3  14    2.17    0.20 
  -5  -3 -15    0.12    0.06 
   5  -3  15    0.12    0.06 
   5   3  15    0.03    0.05 
   5   3  16    0.24    0.07 
  -5  -3 -16    0.34    0.08 
   5  -3  16    0.31    0.07 
   5  -3  17    0.28    0.07 
  -5  -3 -17    0.21    0.06 
   5   3  17    0.29    0.07 
   5   3  18    0.40    0.07 
   5  -3  18    0.46    0.07 
  -5   4  20    1.30    0.13 
  -5   4  19    1.05    0.13 
  -5   4  18    0.31    0.08 
   5  -4 -18    0.21    0.07 
  -5   4  17    0.30    0.09 
   5  -4 -17    0.39    0.09 
  -5   4  16    0.12    0.07 
   5  -4 -16    0.22    0.07 
   5  -4 -15    0.56    0.12 
  -5   4  15    0.49    0.11 
   5  -4 -14    0.75    0.13 
  -5   4  14    0.80    0.13 
  -5   4  13   11.71    0.45 
   5  -4 -13   11.13    0.46 
  -5   4  12    3.01    0.23 
   5  -4 -12    2.96    0.24 
   5  -4 -11    0.06    0.06 
  -5   4  11    0.07    0.05 
   5  -4 -10    0.59    0.11 
  -5   4  10    0.24    0.07 
   5  -4 -10    0.26    0.07 
   5   4 -10    0.22    0.19 
   5  -4  -9    3.98    0.27 
  -5   4   9    4.14    0.24 
   5  -4  -9    4.26    0.23 
   5   4  -9    4.54    0.69 
   5  -4  -8    0.96    0.11 
  -5   4   8    0.99    0.11 
   5  -4  -8    1.05    0.13 
   5   4  -8    0.98    0.32 
   5  -4  -7    3.59    0.24 
  -5   4   7    3.34    0.20 
   5  -4  -7    3.42    0.20 
  -5  -4   7    3.33    0.19 
   5  -4  -6    1.40    0.15 
  -5   4   6    1.16    0.11 
   5  -4  -6    1.29    0.12 
  -5  -4   6    1.37    0.12 
   5   4  -6    1.68    0.40 
   5  -4  -5    0.11    0.06 
   5  -4  -5    0.03    0.04 
  -5   4   5    0.15    0.05 
  -5  -4   5    0.07    0.03 
   5  -4  -4    0.08    0.04 
   5   4  -4   -0.06    0.14 
  -5  -4   4    0.07    0.04 
   5   4  -3   15.40    1.15 
   5  -4  -3   14.75    0.35 
  -5  -4   3   14.66    0.40 
   5  -4  -3   14.26    0.35 
   5   4  -2   23.97    1.43 
   5  -4  -2   23.58    0.43 
  -5  -4   2   22.74    0.50 
   5  -4  -2   23.68    0.46 
  -5  -4   1    5.61    0.25 
   5   4  -1    5.47    0.69 
   5  -4  -1    5.74    0.23 
   5   4   0    0.21    0.17 
   5  -4   0    0.18    0.06 
   5  -4   0    0.19    0.06 
  -5  -4   0    0.25    0.07 
   5  -4   1    1.25    0.13 
  -5  -4  -1    1.21    0.11 
   5   4   1    1.45    0.36 
  -5  -4  -1    1.27    0.12 
   5  -4   1    1.50    0.13 
   5  -4   2    6.87    0.30 
  -5  -4  -2    6.81    0.27 
   5   4   2    7.18    0.80 
  -5  -4  -2    6.81    0.28 
   5  -4   2    7.07    0.27 
  -5  -4  -3   29.86    0.59 
  -5  -4  -3   29.13    0.59 
   5  -4   3   29.43    0.56 
   5   4   3   29.52    1.62 
   5  -4   3   28.74    0.62 
   5  -4   4    0.13    0.07 
   5   4   4    0.24    0.17 
  -5  -4  -4    0.06    0.05 
   5  -4   4    0.05    0.06 
  -5  -4  -4    0.13    0.05 
  -5  -4  -5   13.29    0.43 
  -5  -4  -5   13.43    0.41 
   5  -4   5   13.29    0.40 
   5   4   5   13.38    1.13 
   5   4   6    3.69    0.59 
  -5  -4  -6    3.17    0.22 
  -5  -4  -6    3.14    0.20 
  -5  -4  -7   17.75    0.53 
  -5  -4  -7   16.96    0.46 
   5   4   7   18.19    1.34 
  -5  -4  -8    2.79    0.22 
  -5  -4  -8    2.71    0.19 
  -5  -4  -9    1.21    0.13 
  -5  -4  -9    1.17    0.15 
  -5  -4 -10    0.12    0.08 
  -5  -4 -11    0.35    0.09 
  -5  -4 -12    2.88    0.23 
   5   4  12    2.99    0.23 
   5   4  13    0.16    0.07 
  -5  -4 -13    0.18    0.08 
   5   4  14    0.12    0.07 
  -5  -4 -14    0.18    0.07 
  -5  -4 -15    0.82    0.12 
   5   4  15    0.98    0.13 
   5   4  16    1.18    0.13 
  -5  -4 -16    1.38    0.13 
   5   4  17    0.12    0.05 
  -5   5  18    0.12    0.05 
  -5   5  17    1.79    0.16 
   5  -5 -16    1.34    0.15 
  -5   5  16    1.78    0.17 
   5  -5 -15    0.23    0.08 
  -5   5  15    0.23    0.07 
  -5   5  14    0.15    0.07 
   5  -5 -14    0.13    0.07 
   5  -5 -13    3.20    0.25 
  -5   5  13    2.98    0.23 
   5  -5 -12   -0.05    0.06 
  -5   5  12    0.04    0.05 
   5  -5 -11   -0.01    0.06 
  -5   5  11    0.07    0.05 
   5  -5 -10   -0.03    0.07 
  -5   5  10    0.02    0.04 
   5  -5 -10    0.03    0.06 
   5  -5  -9    0.49    0.11 
  -5   5   9    0.39    0.09 
   5  -5  -9    0.34    0.08 
  -5   5   8    0.06    0.04 
   5  -5  -8    0.12    0.05 
   5  -5  -8    0.02    0.06 
   5  -5  -7    8.14    0.39 
  -5   5   7    7.87    0.32 
   5  -5  -7    8.28    0.33 
   5  -5  -6    0.83    0.11 
  -5  -5   6    0.89    0.11 
   5  -5  -5    0.05    0.04 
   5   5  -5    0.22    0.24 
  -5  -5   5    0.13    0.05 
   5  -5  -4    0.20    0.06 
   5  -5  -4    0.22    0.07 
  -5  -5   4    0.17    0.06 
   5  -5  -3    2.14    0.20 
   5  -5  -3    2.17    0.15 
  -5  -5   3    2.44    0.18 
   5  -5  -3    2.19    0.17 
   5  -5  -2    0.05    0.06 
   5  -5  -2    0.07    0.04 
   5  -5  -2    0.01    0.05 
  -5  -5   2    0.18    0.06 
   5   5  -1    1.68    0.43 
   5  -5  -1    1.67    0.17 
   5  -5  -1    1.54    0.14 
  -5  -5   1    1.67    0.16 
   5  -5   0    3.01    0.23 
  -5  -5   0    2.94    0.20 
   5   5   0    2.92    0.53 
   5  -5   0    3.29    0.21 
   5  -5   1    2.39    0.21 
   5   5   1    2.67    0.53 
  -5  -5  -1    2.42    0.19 
   5  -5   1    2.49    0.18 
  -5  -5  -2    1.36    0.13 
  -5  -5  -2    1.32    0.14 
   5  -5   2    1.55    0.15 
   5  -5   2    1.51    0.17 
   5  -5   3    0.04    0.07 
  -5  -5  -3    0.10    0.05 
   5  -5   3    0.01    0.05 
  -5  -5  -3    0.01    0.05 
  -5  -5  -4    1.52    0.16 
  -5  -5  -4    1.61    0.16 
   5  -5   4    1.63    0.16 
  -5  -5  -5    0.03    0.04 
  -5  -5  -5    0.05    0.05 
   5  -5   5    0.09    0.07 
  -5  -5  -6    7.13    0.34 
  -5  -5  -6    7.15    0.33 
  -5  -5  -7    0.08    0.06 
  -5  -5  -7    0.13    0.06 
  -5  -5  -8    0.06    0.06 
  -5  -5  -8    0.07    0.05 
  -5  -5  -9    0.42    0.09 
  -5  -5  -9    0.35    0.08 
  -5  -5 -10    0.07    0.06 
  -5  -5 -10    0.27    0.07 
  -5  -5 -11    2.58    0.21 
   5   5  11    2.73    0.22 
  -5  -5 -12    0.85    0.13 
   5   5  12    0.98    0.13 
   5   5  13    0.04    0.05 
  -5  -5 -13   -0.01    0.05 
   5   5  14    0.00    0.04 
  -5  -5 -14   -0.02    0.05 
   5   5  15    0.02    0.04 
  -5   6  16    0.18    0.05 
  -5   6  15    0.90    0.11 
  -5   6  14    0.18    0.06 
  -5   6  13    5.27    0.27 
  -5   6  12    0.16    0.06 
  -5   6  11    2.65    0.20 
  -5   6  10    0.00    0.04 
   5  -6  -9    0.01    0.07 
   5  -6  -8    0.89    0.15 
   5  -6  -8    0.81    0.12 
   5  -6  -8    0.88    0.12 
   5  -6  -7    0.00    0.08 
   5  -6  -7   -0.01    0.05 
   5  -6  -7    0.06    0.05 
   5  -6  -6    3.03    0.25 
   5  -6  -6    3.10    0.21 
   5  -6  -6    3.11    0.22 
   5  -6  -5    3.22    0.21 
  -5  -6   5    3.21    0.21 
   5  -6  -5    3.42    0.27 
   5  -6  -5    3.38    0.23 
   5  -6  -4    3.10    0.25 
   5  -6  -4    3.11    0.20 
  -5  -6   4    3.03    0.21 
   5  -6  -4    3.07    0.22 
   5  -6  -3    4.28    0.22 
   5  -6  -3    4.01    0.29 
  -5  -6   3    4.52    0.26 
   5  -6  -3    4.81    0.27 
   5  -6  -2    0.17    0.09 
  -5  -6   2   -0.01    0.05 
   5  -6  -2    0.02    0.06 
  -5  -6   1    2.59    0.20 
   5  -6  -1    2.69    0.21 
  -5  -6   0    5.04    0.28 
   5  -6   0    4.92    0.32 
   5  -6   0    5.31    0.29 
  -5  -6  -1    1.36    0.15 
   5  -6   1    1.15    0.14 
   5  -6   1    1.51    0.19 
   5  -6   2    0.80    0.14 
   5  -6   2    0.95    0.13 
  -5  -6  -2    1.04    0.14 
  -5  -6  -3    4.55    0.27 
   5  -6   3    4.94    0.28 
   5  -6   4    1.65    0.17 
  -5  -6  -4    1.22    0.15 
  -5  -6  -5    8.46    0.37 
  -5  -6  -6    0.00    0.05 
  -5  -6  -7    1.18    0.14 
  -5  -6  -8   -0.05    0.07 
  -5  -6  -9    0.08    0.05 
  -5  -6 -10    2.13    0.16 
   5   6  11    0.03    0.04 
  -5  -6 -11    0.05    0.04 
   5   6  12    0.74    0.10 
   5   6  13   -0.05    0.04 
   5  -7 -12    0.55    0.08 
   5  -7 -11    1.40    0.14 
   5  -7 -11    1.70    0.14 
   5  -7 -10    0.03    0.06 
   5  -7 -10    0.05    0.05 
   5  -7  -9    0.79    0.12 
   5  -7  -9    0.99    0.12 
   5  -7  -8    0.21    0.08 
   5  -7  -8    0.22    0.07 
   5  -7  -7    0.03    0.06 
   5  -7  -7    0.08    0.05 
   5  -7  -6    0.27    0.09 
   5  -7  -6    0.28    0.07 
   5  -7  -5    1.87    0.20 
   5  -7  -5    2.33    0.19 
   5  -7  -4    1.10    0.16 
  -5  -7   4    0.75    0.10 
   5  -7  -4    1.13    0.14 
   5  -7  -3    0.08    0.06 
  -5  -7   3    0.11    0.05 
   5  -7  -3    0.08    0.06 
   5  -7  -2    2.59    0.24 
  -5  -7   2    2.49    0.19 
   5  -7  -2    2.79    0.21 
   5  -7  -1    0.59    0.13 
  -5  -7   1    0.77    0.11 
   5  -7  -1    0.86    0.12 
   5  -7   0    0.34    0.09 
  -5  -7   0    0.35    0.08 
  -5  -7  -1    0.11    0.05 
   5  -7   1    0.11    0.06 
  -5  -7  -2    0.10    0.06 
   5  -7   2    0.17    0.08 
   5  -7   3    0.05    0.06 
  -5  -7  -3    0.01    0.05 
  -5  -7  -4    0.14    0.06 
  -5  -7  -5    0.17    0.07 
  -5  -7  -6    0.58    0.10 
  -5  -7  -7    0.09    0.05 
  -5  -7  -8   -0.03    0.04 
   5   7   9   -0.12    0.05 
  -5  -7  -9    0.03    0.03 
   5  -8  -6    0.13    0.05 
   5  -8  -5    0.11    0.05 
   5  -8  -4    0.21    0.06 
   5  -8  -3    1.41    0.14 
   5  -8  -2    0.09    0.05 
  -5  -8   1   -0.01    0.04 
   5  -8  -1   -0.08    0.05 
  -5  -8   0    0.06    0.04 
   5  -8   0    0.02    0.04 
  -5  -8  -1    0.07    0.04 
  -5  -8  -2    0.18    0.05 
  -6   0  23    0.08    0.04 
  -6   0  22    1.08    0.13 
  -6   0  21    0.05    0.05 
  -6   0  20    3.67    0.23 
  -6   0  19   -0.13    0.06 
  -6   0  18    0.20    0.07 
  -6   0  17    0.00    0.04 
  -6   0  16    0.62    0.10 
  -6   0  15    0.01    0.04 
  -6   0  15   -0.01    0.04 
   6   0 -14   21.12    1.54 
  -6   0  14   21.85    0.50 
  -6   0  14   21.09    0.49 
   6   0 -13    0.00    0.10 
  -6   0  13   -0.06    0.04 
  -6   0  13   -0.03    0.03 
   6   0 -12    2.89    0.55 
  -6   0  12    2.62    0.17 
  -6   0  12    2.57    0.16 
  -6   0  11    0.05    0.03 
  -6   0  11    0.01    0.04 
   6   0 -11    0.14    0.16 
  -6   0  10    4.64    0.21 
   6   0 -10    4.27    0.59 
   6   0  -9   -0.05    0.10 
   6   0  -8   59.63    1.57 
   6   0  -7   -0.06    0.06 
   6   0  -6    1.83    0.26 
   6   0  -5    0.01    0.05 
   6   0  -4   41.68    1.22 
   6   0  -3   -0.09    0.08 
   6   0  -2   15.87    0.78 
   6   0  -1   -0.13    0.09 
   6   0   0   37.52    1.27 
   6   0   1   -0.04    0.07 
   6   0   2    5.98    0.57 
   6   0   3    0.02    0.11 
   6   0   4    4.30    0.52 
   6   0   5   -0.10    0.14 
   6   0   6   -0.10    0.12 
  -6   0  -6    0.03    0.04 
   6   0   7   -0.01    0.08 
  -6   0  -7    0.02    0.04 
  -6   0  -8    8.06    0.34 
   6   0   8    8.38    0.85 
  -6   0  -9   -0.78    0.30 
  -6   0  -9   -0.02    0.06 
  -6   0 -10    5.35    0.77 
  -6   0 -10    5.25    0.29 
  -6   0 -11   -0.61    0.27 
  -6   0 -11   -0.02    0.05 
  -6   0 -12    4.55    0.28 
  -6   0 -13   -0.02    0.05 
  -6   0 -14    1.44    0.15 
   6   0  16    5.78    0.30 
   6   0  17    0.01    0.04 
   6   0  18    0.72    0.10 
  -6   1  23    1.00    0.11 
  -6   1  22    1.10    0.11 
  -6  -1  22    1.54    0.14 
  -6   1  21    0.74    0.10 
  -6  -1  21    0.82    0.12 
  -6  -1  20    4.18    0.26 
  -6   1  20    3.80    0.22 
  -6  -1  19    1.97    0.18 
  -6   1  19    2.06    0.17 
  -6  -1  18    0.23    0.07 
  -6   1  18    0.13    0.05 
  -6   1  18    0.15    0.06 
  -6  -1  17    0.71    0.11 
  -6   1  17    0.75    0.11 
  -6   1  17    0.68    0.11 
  -6   1  16    6.45    0.31 
  -6  -1  16    6.49    0.31 
  -6   1  16    6.23    0.28 
  -6  -1  15    0.57    0.10 
  -6   1  15    0.55    0.08 
  -6   1  15    0.49    0.09 
   6   1 -14   16.28    1.33 
  -6   1  14   16.88    0.47 
  -6  -1  14   16.37    0.45 
   6  -1 -14   16.79    1.39 
   6   1 -13    3.22    0.56 
  -6   1  13    3.89    0.22 
  -6  -1  13    3.67    0.21 
   6  -1 -13    3.78    0.63 
   6   1 -12    1.14    0.32 
  -6   1  12    1.43    0.13 
  -6  -1  12    1.39    0.12 
  -6  -1  11    0.98    0.10 
   6   1 -11    0.84    0.27 
  -6   1  11    0.96    0.11 
  -6  -1  11    0.85    0.09 
   6   1 -10    6.12    0.68 
  -6   1  10    6.04    0.25 
  -6  -1  10    5.89    0.22 
  -6   1   9    2.27    0.15 
  -6  -1   9    2.16    0.14 
   6   1  -9    2.59    0.43 
   6   1  -8    2.05    0.35 
   6   1  -8    1.89    0.33 
   6   1  -7    7.24    0.61 
   6   1  -6   37.47    1.36 
   6   1  -5   18.07    0.93 
   6   1  -4   69.85    1.82 
   6   1  -3   81.56    1.97 
   6   1  -2   18.22    0.95 
   6  -1  -2   17.48    0.68 
   6  -1  -1    0.16    0.09 
   6   1  -1    0.26    0.14 
   6  -1   0    6.16    0.46 
   6   1   0    5.89    0.56 
   6  -1   1  132.22    2.26 
   6   1   1  136.52    2.72 
   6  -1   2   34.50    1.24 
   6   1   2   36.25    1.45 
   6  -1   3   27.03    1.17 
   6   1   3   27.33    1.32 
   6  -1   4   18.83    1.03 
   6   1   4   21.10    1.20 
  -6  -1  -5    4.53    0.24 
   6  -1   5    4.16    0.52 
  -6  -1  -6   17.54    0.48 
   6   1   6   16.63    1.14 
   6   1   7    0.25    0.15 
  -6  -1  -7    0.02    0.05 
  -6  -1  -8    8.06    0.35 
  -6   1  -8    8.62    0.35 
   6   1   8    9.06    0.91 
   6   1   8    7.98    0.29 
   6   1   9    2.79    0.52 
  -6  -1  -9    2.93    0.22 
  -6   1  -9    3.09    0.22 
   6   1   9    2.76    0.18 
  -6  -1 -10    8.14    0.37 
  -6   1 -10    8.17    0.36 
   6   1  10    7.70    0.88 
   6   1  10    8.58    0.32 
  -6  -1 -11    4.55    0.28 
  -6   1 -11    4.54    0.28 
   6   1  11    4.82    0.25 
  -6   1 -12    3.15    0.23 
  -6  -1 -12    3.41    0.25 
   6   1  12    3.03    0.21 
   6   1  13    0.04    0.06 
  -6  -1 -13    0.09    0.06 
  -6  -1 -14    1.30    0.15 
   6   1  14    1.49    0.15 
  -6  -1 -15    2.74    0.20 
   6   1  15    2.68    0.20 
   6   1  16    0.50    0.09 
  -6  -1 -16    0.71    0.10 
   6   1  16    0.66    0.10 
   6  -1  16    0.67    0.11 
   6   1  17    0.01    0.03 
   6   1  17    0.03    0.05 
   6  -1  17    0.04    0.05 
   6   1  18    0.88    0.10 
   6  -1  18    0.88    0.11 
  -6  -2  21    0.46    0.08 
  -6  -2  20    1.04    0.12 
  -6   2  20    1.27    0.13 
  -6  -2  19    0.32    0.08 
  -6   2  19    0.31    0.08 
  -6  -2  18    2.44    0.20 
  -6   2  18    2.50    0.20 
  -6  -2  17    0.64    0.11 
  -6   2  17    0.75    0.12 
  -6   2  16   15.70    0.50 
  -6  -2  16   15.67    0.50 
  -6   2  15   18.35    0.53 
  -6  -2  15   18.61    0.53 
  -6  -2  14    2.95    0.21 
  -6   2  14    3.07    0.22 
  -6   2  13    9.12    0.36 
  -6  -2  13    9.29    0.36 
  -6  -2  12    0.09    0.05 
  -6   2  12    0.19    0.06 
  -6  -2  11    5.92    0.26 
  -6   2  11    6.20    0.28 
   6   2 -10   30.53    1.47 
  -6   2  10   30.37    0.59 
  -6  -2  10   29.43    0.57 
  -6  -2   9   13.97    0.38 
  -6   2   9   13.31    0.37 
  -6  -2   8    0.03    0.03 
  -6   2   8    0.04    0.03 
   6   2  -7    3.79    0.51 
   6   2  -6   14.28    0.96 
   6   2  -5   52.23    1.80 
   6   2  -4    1.70    0.34 
   6   2  -3   68.02    2.04 
   6   2  -2   16.31    1.00 
   6   2  -1   46.77    1.73 
   6   2   0   56.83    1.91 
   6   2   1    7.48    0.71 
   6   2   2    0.97    0.27 
   6   2   3    7.79    0.76 
  -6  -2  -4   26.08    0.56 
   6   2   4   28.39    1.47 
   6   2   5    3.44    0.55 
  -6  -2  -5    3.40    0.21 
   6   2   6    0.32    0.20 
  -6  -2  -6    0.19    0.07 
  -6  -2  -7    9.18    0.37 
   6   2   7   10.23    0.97 
  -6  -2  -8    2.46    0.20 
   6   2   8    2.46    0.49 
   6   2   9    7.56    0.88 
  -6   2  -9    7.56    0.34 
  -6  -2  -9    7.40    0.35 
   6   2  10    0.28    0.07 
  -6  -2 -10    0.35    0.10 
  -6   2 -10    0.39    0.10 
  -6  -2 -11    1.30    0.16 
  -6   2 -11    1.20    0.15 
   6   2  11    1.35    0.15 
   6   2  12   -0.01    0.04 
  -6  -2 -12   -0.04    0.06 
   6   2  13    1.22    0.14 
  -6  -2 -13    1.06    0.14 
   6   2  14    0.00    0.04 
  -6  -2 -14   -0.03    0.05 
   6   2  15    1.17    0.14 
  -6  -2 -15    1.18    0.14 
   6  -2  15    1.08    0.14 
  -6  -2 -16    0.73    0.11 
   6  -2  16    0.80    0.12 
   6   2  16    0.74    0.10 
   6   2  17    0.37    0.07 
  -6  -2 -17    0.32    0.07 
   6  -2  17    0.36    0.08 
   6  -2  18    0.38    0.07 
   6  -3 -21    1.01    0.11 
  -6   3  21    1.06    0.11 
  -6   3  20    0.33    0.08 
   6  -3 -20    0.31    0.08 
  -6   3  19    0.15    0.06 
   6  -3 -19   -0.01    0.05 
  -6   3  18    0.18    0.07 
  -6  -3  17    0.70    0.11 
  -6   3  17    0.82    0.13 
  -6   3  16    0.19    0.08 
  -6  -3  16    0.09    0.05 
  -6  -3  15    4.50    0.26 
  -6   3  15    4.43    0.28 
  -6   3  14    0.47    0.10 
  -6  -3  14    0.53    0.09 
  -6  -3  13    6.18    0.29 
  -6   3  13    6.47    0.32 
  -6   3  12    0.55    0.10 
   6   3 -12    0.60    0.28 
  -6  -3  12    0.58    0.09 
  -6  -3  11    0.13    0.05 
  -6   3  11    0.26    0.08 
  -6  -3  10    2.05    0.16 
  -6   3  10    2.24    0.18 
  -6  -3   9    1.74    0.14 
  -6   3   9    1.93    0.16 
  -6   3   8    7.17    0.29 
  -6  -3   8    7.01    0.27 
   6  -3  -8    7.42    0.33 
   6   3  -8    7.27    0.81 
  -6  -3   7    1.79    0.14 
  -6   3   7    2.15    0.15 
   6  -3  -7    2.44    0.19 
   6   3  -7    1.90    0.40 
   6  -3  -6    0.07    0.04 
  -6  -3   6    0.02    0.03 
  -6  -3   6   -0.01    0.04 
  -6   3   6    0.05    0.03 
   6   3  -6    0.01    0.09 
  -6  -3   5   10.71    0.32 
  -6   3   5   10.27    0.30 
   6   3  -5   10.72    0.93 
  -6  -3   5   10.91    0.35 
   6  -3  -5   11.07    0.36 
   6  -3  -4    0.50    0.08 
  -6  -3   4    0.71    0.10 
   6   3  -4    0.50    0.23 
  -6  -3   3    0.66    0.09 
   6  -3  -3    0.54    0.09 
   6   3  -3    0.34    0.17 
   6  -3  -2    8.25    0.29 
  -6  -3   2    8.44    0.31 
  -6  -3   1   40.42    0.68 
   6   3  -1   36.94    1.70 
  -6  -3   0    0.62    0.09 
   6   3   0    0.83    0.27 
   6  -3   1    0.02    0.04 
   6   3   1    0.10    0.13 
  -6  -3  -1    0.05    0.04 
   6  -3   1    0.12    0.05 
  -6  -3  -1    0.03    0.03 
  -6  -3  -2   16.98    0.44 
   6  -3   2   16.94    0.41 
  -6  -3  -2   16.47    0.43 
  -6  -3  -2   17.46    0.42 
   6  -3   2   17.00    0.38 
   6   3   2   16.48    1.16 
   6  -3   3    1.94    0.15 
   6   3   3    1.91    0.43 
  -6  -3  -3    1.99    0.16 
  -6  -3  -3    1.95    0.14 
   6  -3   3    1.82    0.13 
   6  -3   4    7.48    0.28 
  -6  -3  -4    7.88    0.32 
  -6  -3  -4    8.22    0.29 
   6   3   5    2.08    0.45 
  -6  -3  -5    1.96    0.17 
  -6  -3  -5    1.97    0.15 
  -6  -3  -6    0.03    0.05 
  -6  -3  -6   -0.02    0.03 
   6   3   7    4.63    0.68 
  -6  -3  -7    4.56    0.27 
  -6  -3  -7    4.31    0.21 
  -6  -3  -8    0.08    0.06 
  -6  -3  -9    0.07    0.05 
  -6  -3 -10   -0.02    0.06 
  -6  -3 -11    0.00    0.06 
   6   3  11    0.03    0.05 
   6   3  12    1.19    0.15 
  -6  -3 -12    1.19    0.15 
   6   3  13    0.25    0.08 
  -6  -3 -13    0.38    0.10 
   6  -3  13    0.38    0.08 
  -6  -3 -14    1.20    0.15 
   6  -3  14    1.45    0.15 
   6   3  14    1.40    0.16 
  -6  -3 -15    0.50    0.09 
   6  -3  15    0.53    0.09 
   6   3  15    0.53    0.10 
   6   3  16    0.40    0.08 
   6  -3  16    0.45    0.09 
  -6  -3 -16    0.32    0.08 
   6   3  17    0.85    0.10 
  -6  -3 -17    0.70    0.09 
   6  -3  17    0.83    0.10 
  -6   4  20    0.31    0.07 
   6  -4 -19    0.82    0.11 
  -6   4  19    0.88    0.11 
  -6   4  18    2.26    0.19 
   6  -4 -18    2.28    0.19 
  -6   4  17    0.09    0.06 
   6  -4 -17    0.14    0.06 
   6  -4 -16    0.11    0.07 
  -6   4  16    0.03    0.06 
  -6   4  15    5.00    0.30 
   6  -4 -15    4.97    0.32 
   6  -4 -14    1.68    0.19 
  -6   4  14    1.74    0.18 
   6  -4 -13    6.25    0.36 
  -6   4  13    5.58    0.31 
   6  -4 -12   12.08    0.49 
  -6   4  12   12.10    0.44 
   6  -4 -11    0.75    0.13 
  -6   4  11    0.56    0.11 
  -6   4  10    0.13    0.06 
   6  -4 -10    0.19    0.09 
  -6   4   9    5.33    0.28 
   6  -4  -9    5.43    0.32 
   6   4  -9    4.58    0.70 
  -6   4   8    5.41    0.27 
  -6  -4   8    5.47    0.26 
   6  -4  -8    5.72    0.32 
   6   4  -8    5.15    0.75 
   6  -4  -7    3.20    0.24 
  -6   4   7    2.71    0.18 
   6   4  -7    3.02    0.57 
   6  -4  -6    0.18    0.07 
  -6   4   6    0.35    0.07 
   6   4  -6    0.43    0.21 
  -6  -4   6    0.25    0.07 
   6   4  -5    8.78    0.93 
   6  -4  -5    8.77    0.37 
  -6  -4   5    8.41    0.32 
   6  -4  -5    8.45    0.28 
   6  -4  -4    4.08    0.25 
  -6  -4   4    3.98    0.22 
   6   4  -4    3.49    0.59 
   6  -4  -4    3.76    0.19 
   6   4  -3    9.67    0.96 
  -6  -4   3    8.99    0.33 
   6  -4  -3    9.19    0.29 
   6   4  -2    0.45    0.25 
   6  -4  -2    0.18    0.05 
  -6  -4   2    0.21    0.07 
   6  -4  -1    4.51    0.25 
  -6  -4   1    4.37    0.24 
   6   4  -1    4.72    0.67 
   6  -4  -1    4.39    0.21 
   6  -4   0    3.20    0.21 
  -6  -4   0    3.16    0.20 
   6  -4   0    3.23    0.19 
   6  -4   1    0.01    0.05 
  -6  -4  -1    0.06    0.03 
   6  -4   1    0.11    0.05 
  -6  -4  -1    0.05    0.05 
   6  -4   2    4.45    0.25 
  -6  -4  -2    4.34    0.23 
   6   4   2    5.04    0.70 
  -6  -4  -2    4.71    0.25 
   6  -4   2    4.90    0.24 
   6  -4   3    5.22    0.28 
   6   4   3    4.87    0.68 
  -6  -4  -3    5.34    0.27 
  -6  -4  -3    5.24    0.26 
   6  -4   3    5.64    0.26 
   6  -4   4    0.85    0.12 
   6   4   4    0.81    0.30 
  -6  -4  -4    1.07    0.13 
  -6  -4  -4    0.99    0.12 
  -6  -4  -5    0.01    0.05 
  -6  -4  -5    0.03    0.04 
  -6  -4  -6    1.16    0.14 
  -6  -4  -6    1.19    0.13 
  -6  -4  -7    5.34    0.30 
  -6  -4  -7    5.56    0.27 
  -6  -4  -8    0.38    0.10 
  -6  -4  -8    0.40    0.08 
  -6  -4  -9    0.41    0.10 
  -6  -4 -10    1.36    0.16 
   6   4  11    0.03    0.07 
  -6  -4 -11    0.02    0.06 
  -6  -4 -12    0.30    0.09 
   6   4  12    0.19    0.08 
  -6  -4 -13    5.69    0.30 
   6   4  13    5.75    0.30 
   6   4  14    0.64    0.11 
  -6  -4 -14    0.50    0.10 
  -6  -4 -15    1.36    0.14 
   6   4  15    1.42    0.14 
   6   4  16    0.06    0.04 
  -6  -4 -16    0.04    0.04 
  -6   5  18    0.03    0.04 
  -6   5  17    0.87    0.12 
   6  -5 -17    0.82    0.11 
  -6   5  16    0.14    0.06 
   6  -5 -16   -0.02    0.05 
   6  -5 -15    0.33    0.09 
  -6   5  15    0.28    0.08 
   6  -5 -14    0.32    0.09 
  -6   5  14    0.04    0.05 
  -6   5  13    4.27    0.27 
   6  -5 -13    4.12    0.29 
   6  -5 -12    0.34    0.10 
  -6   5  12    0.37    0.09 
   6  -5 -11    2.38    0.22 
  -6   5  11    2.33    0.20 
   6  -5 -10    1.79    0.20 
  -6   5  10    1.90    0.17 
   6  -5  -9    1.90    0.21 
  -6   5   9    1.70    0.16 
   6  -5  -8    0.22    0.09 
  -6   5   8    0.25    0.07 
  -6  -5   7   12.25    0.40 
   6  -5  -7   12.86    0.40 
   6  -5  -6    1.13    0.12 
  -6  -5   6    1.13    0.13 
   6  -5  -5    0.87    0.11 
  -6  -5   5    1.11    0.13 
  -6  -5   4    8.36    0.34 
   6  -5  -4    8.75    0.33 
   6  -5  -3    2.90    0.23 
  -6  -5   3    3.29    0.22 
   6  -5  -3    3.33    0.21 
   6  -5  -2    3.54    0.26 
  -6  -5   2    3.46    0.23 
   6  -5  -2    3.26    0.21 
   6  -5  -1    5.98    0.33 
  -6  -5   1    6.00    0.30 
   6  -5  -1    6.23    0.28 
   6  -5   0    1.55    0.17 
  -6  -5   0    1.38    0.15 
   6  -5   0    1.43    0.14 
   6  -5   1    0.40    0.10 
   6  -5   1    0.44    0.09 
  -6  -5  -1    0.48    0.09 
  -6  -5  -2    0.13    0.05 
   6  -5   2    0.05    0.07 
   6  -5   2    0.17    0.07 
  -6  -5  -2    0.04    0.05 
  -6  -5  -3   12.76    0.43 
  -6  -5  -3   13.01    0.45 
   6  -5   3   13.46    0.48 
   6  -5   3   13.00    0.43 
  -6  -5  -4    0.05    0.05 
  -6  -5  -4    0.15    0.06 
  -6  -5  -5    0.01    0.06 
  -6  -5  -5    0.03    0.05 
  -6  -5  -6   -0.01    0.06 
  -6  -5  -6    0.05    0.05 
  -6  -5  -7    0.52    0.11 
  -6  -5  -7    0.49    0.10 
  -6  -5  -8    1.34    0.14 
  -6  -5  -8    1.15    0.15 
  -6  -5  -9    1.74    0.18 
  -6  -5  -9    1.78    0.15 
  -6  -5 -10    0.00    0.05 
  -6  -5 -10    0.04    0.04 
   6   5  11    0.31    0.09 
  -6  -5 -11    0.32    0.08 
  -6  -5 -12    1.85    0.17 
   6   5  12    1.98    0.18 
  -6  -5 -13    2.48    0.19 
   6   5  13    2.47    0.19 
  -6  -5 -14    1.18    0.12 
   6   5  14    1.30    0.13 
   6  -6 -15   -0.02    0.04 
  -6   6  15    0.16    0.05 
  -6   6  14    1.11    0.12 
   6  -6 -14    0.92    0.10 
  -6   6  13    0.74    0.10 
   6  -6 -13    0.75    0.10 
  -6   6  12    1.05    0.12 
   6  -6 -12    1.09    0.12 
  -6   6  11    0.27    0.07 
   6  -6 -11    0.42    0.08 
   6  -6 -10   -0.06    0.05 
   6  -6  -9    3.50    0.27 
   6  -6  -9    3.70    0.22 
   6  -6  -8    2.63    0.24 
   6  -6  -8    3.10    0.21 
   6  -6  -7    0.08    0.07 
   6  -6  -7    0.01    0.05 
   6  -6  -6    0.04    0.07 
   6  -6  -6    0.10    0.06 
  -6  -6   6    0.04    0.04 
   6  -6  -5   -0.05    0.06 
  -6  -6   5   -0.03    0.05 
   6  -6  -4    0.01    0.07 
   6  -6  -4    0.02    0.05 
  -6  -6   4    0.02    0.05 
   6  -6  -3    0.07    0.08 
   6  -6  -3    0.06    0.06 
  -6  -6   3    0.05    0.05 
   6  -6  -2    0.01    0.07 
   6  -6  -2    0.03    0.06 
  -6  -6   2   -0.02    0.05 
   6  -6  -1    0.03    0.08 
   6  -6  -1    0.09    0.06 
  -6  -6   1    0.08    0.04 
   6  -6   0    0.46    0.12 
   6  -6   0    0.41    0.10 
  -6  -6   0    0.60    0.11 
   6  -6   1    2.87    0.25 
  -6  -6  -1    2.94    0.22 
   6  -6   1    2.89    0.22 
  -6  -6  -2    1.76    0.18 
   6  -6   2    2.03    0.18 
  -6  -6  -3    2.14    0.19 
   6  -6   3    2.16    0.19 
  -6  -6  -4    0.06    0.05 
  -6  -6  -5    0.22    0.07 
  -6  -6  -6    0.01    0.04 
  -6  -6  -7    0.10    0.05 
  -6  -6  -8    0.30    0.07 
  -6  -6  -9   -0.02    0.05 
   6   6  10    0.06    0.05 
  -6  -6 -10   -0.04    0.04 
   6   6  11    0.39    0.08 
   6   6  12   -0.03    0.05 
   6  -7 -11    0.42    0.09 
   6  -7 -11    0.59    0.08 
   6  -7 -10    0.08    0.05 
   6  -7 -10    0.03    0.04 
   6  -7  -9    2.26    0.19 
   6  -7  -9    2.28    0.16 
   6  -7  -8    0.24    0.08 
   6  -7  -8    0.10    0.05 
   6  -7  -7    0.32    0.09 
   6  -7  -7    0.24    0.07 
   6  -7  -6    0.15    0.07 
   6  -7  -6    0.00    0.05 
   6  -7  -5    0.50    0.12 
   6  -7  -5    0.75    0.11 
   6  -7  -4    0.85    0.14 
  -6  -7   4    0.78    0.10 
   6  -7  -4    1.09    0.13 
  -6  -7   3   -0.10    0.05 
   6  -7  -3    0.02    0.04 
   6  -7  -3    0.01    0.06 
   6  -7  -2    0.69    0.13 
  -6  -7   2    0.74    0.11 
   6  -7  -2    0.69    0.11 
   6  -7  -1    0.15    0.08 
   6  -7  -1   -0.01    0.05 
  -6  -7   1    0.06    0.05 
   6  -7   0    0.07    0.06 
  -6  -7   0   -0.05    0.05 
  -6  -7  -1    0.57    0.09 
   6  -7   1    0.79    0.11 
  -6  -7  -2    0.01    0.05 
  -6  -7  -3    0.20    0.07 
  -6  -7  -4    0.26    0.07 
  -6  -7  -5    1.56    0.14 
  -6  -7  -6    0.10    0.05 
  -6  -7  -7    0.34    0.07 
   6  -8  -2    0.04    0.04 
  -7   0  22    0.04    0.04 
  -7   0  21   -0.02    0.04 
  -7   0  20    0.23    0.07 
  -7   0  19    0.02    0.04 
  -7   0  18   13.14    0.42 
  -7   0  17   -0.02    0.04 
  -7   0  16   15.23    0.45 
  -7   0  16   14.75    0.44 
  -7   0  15    0.04    0.04 
  -7   0  15   -0.07    0.05 
  -7   0  14    3.15    0.20 
  -7   0  14    2.87    0.18 
  -7   0  13    0.02    0.05 
  -7   0  12   10.50    0.35 
  -7   0  11    0.00    0.04 
  -7   0  10   10.40    0.34 
  -7   0  10   10.85    0.34 
  -7   0   9    0.03    0.04 
  -7   0   9    0.01    0.03 
  -7   0   8  135.51    1.12 
  -7   0   8  134.48    1.13 
   7   0  -6  101.62    2.04 
   7   0  -5    0.06    0.08 
   7   0  -4   91.28    1.96 
   7   0  -3    0.04    0.05 
   7   0  -2    0.72    0.20 
   7   0  -1    0.03    0.08 
   7   0   0   95.99    2.23 
   7   0   1    0.24    0.14 
   7   0   2   65.02    1.98 
   7   0   3    0.10    0.11 
   7   0   4    3.49    0.49 
  -7   0  -4    3.86    0.23 
   7   0   5    0.15    0.15 
  -7   0  -5    0.02    0.04 
  -7   0  -6   22.20    0.57 
   7   0   6   21.96    1.34 
   7   0   7   -0.05    0.13 
  -7   0  -7    0.01    0.05 
  -7   0  -8    0.87    0.13 
   7   0   8    0.65    0.26 
  -7   0  -9   -0.45    0.24 
  -7   0  -9   -0.01    0.06 
  -7   0 -10    0.18    0.08 
  -7   0 -11   -0.05    0.06 
  -7   0 -12    9.49    0.42 
  -7   0 -13   -0.02    0.06 
  -7   0 -14    0.56    0.11 
  -7   0 -15    0.11    0.06 
   7   0  16    0.04    0.05 
   7   0  17   -0.01    0.04 
   7   0  18    0.02    0.04 
  -7   1  22   -0.03    0.04 
  -7  -1  22   -0.09    0.05 
  -7  -1  21    0.13    0.05 
  -7   1  21    0.17    0.07 
  -7  -1  20    0.05    0.04 
  -7  -1  19    1.00    0.14 
  -7   1  19    0.76    0.11 
  -7  -1  18    2.49    0.21 
  -7   1  18    2.51    0.19 
  -7   1  17    2.56    0.20 
  -7  -1  17    2.55    0.22 
  -7  -1  16    5.04    0.29 
  -7   1  16    4.68    0.26 
  -7  -1  15    4.94    0.28 
  -7   1  15    4.39    0.26 
  -7  -1  14    0.12    0.06 
  -7   1  14    0.06    0.05 
  -7  -1  13    0.97    0.12 
  -7   1  13    1.13    0.13 
   7   1 -13    1.21    0.36 
  -7  -1  12    1.52    0.13 
  -7   1  12    1.40    0.14 
  -7  -1  12    1.52    0.15 
   7   1 -12    1.73    0.40 
  -7  -1  11    2.01    0.15 
  -7   1  11    1.88    0.15 
  -7  -1  11    1.89    0.16 
   7   1 -11    1.76    0.36 
  -7  -1  10    2.11    0.16 
  -7  -1  10    2.22    0.15 
  -7   1  10    2.10    0.16 
   7   1 -10    2.28    0.41 
  -7  -1   9   27.16    0.51 
  -7  -1   9   27.90    0.55 
  -7   1   9   27.13    0.54 
  -7  -1   8    4.45    0.21 
  -7   1   8    4.63    0.21 
  -7  -1   8    4.41    0.20 
  -7   1   8    4.43    0.21 
   7   1  -8    3.72    0.49 
  -7  -1   7   17.38    0.41 
  -7   1   7   17.56    0.41 
   7   1  -6    1.50    0.30 
   7   1  -5   11.19    0.79 
   7   1  -4   15.86    0.94 
   7   1  -3    1.80    0.33 
   7   1  -2   79.74    2.13 
   7   1  -1    1.10    0.26 
   7  -1   0   12.17    0.71 
   7   1   0   12.11    0.86 
   7   1   1    0.05    0.10 
   7  -1   1    0.00    0.08 
   7  -1   2   13.30    0.83 
   7   1   2   12.89    0.94 
   7   1   3    2.89    0.45 
  -7  -1  -3    2.43    0.18 
   7  -1   3    2.70    0.39 
   7  -1   4    1.16    0.27 
   7   1   4    1.00    0.29 
  -7  -1  -4    1.32    0.14 
   7   1   5    4.24    0.60 
  -7  -1  -5    3.96    0.24 
   7  -1   5    3.22    0.48 
   7   1   6    3.10    0.54 
  -7  -1  -6    2.65    0.21 
  -7  -1  -7    4.26    0.27 
  -7   1  -7    4.71    0.27 
   7   1   7    4.84    0.70 
   7   1   8    0.64    0.26 
  -7  -1  -8    0.66    0.11 
  -7   1  -8    0.72    0.12 
  -7  -1  -9    1.57    0.17 
  -7   1  -9    1.43    0.16 
  -7  -1 -10    0.23    0.08 
  -7   1 -10    0.20    0.08 
  -7  -1 -11    8.28    0.39 
  -7   1 -11    8.25    0.39 
  -7  -1 -12    0.37    0.10 
  -7   1 -12    0.38    0.10 
  -7  -1 -13    3.97    0.27 
  -7   1 -13    4.13    0.26 
  -7  -1 -14    0.08    0.06 
  -7  -1 -15    0.47    0.09 
   7   1  16    1.93    0.16 
   7  -1  16    1.79    0.16 
  -7  -1 -16    1.98    0.16 
   7   1  17    0.17    0.05 
   7  -1  17    0.22    0.06 
  -7   2  22    1.06    0.11 
   7  -2 -22    0.96    0.11 
  -7   2  21    0.12    0.05 
  -7   2  21    0.02    0.03 
  -7  -2  21    0.06    0.04 
  -7  -2  20    0.01    0.04 
  -7   2  20    0.12    0.06 
  -7  -2  19    0.76    0.12 
  -7   2  19    0.72    0.11 
  -7   2  18    1.24    0.15 
  -7  -2  18    1.16    0.14 
  -7  -2  17    0.39    0.09 
  -7   2  17    0.35    0.09 
  -7  -2  16    7.48    0.35 
  -7   2  16    7.97    0.36 
  -7  -2  15   -0.01    0.05 
  -7   2  15    0.09    0.06 
  -7  -2  14    0.16    0.07 
  -7   2  14    0.18    0.07 
  -7  -2  13    0.87    0.12 
  -7   2  13    0.88    0.12 
   7   2 -13    1.03    0.32 
  -7   2  12    0.27    0.07 
  -7  -2  12    0.18    0.06 
  -7  -2  11    0.66    0.10 
  -7   2  11    0.47    0.09 
  -7  -2  10    5.61    0.27 
  -7   2  10    5.57    0.27 
   7   2 -10    5.13    0.66 
  -7  -2   9    1.12    0.12 
  -7  -2   9    1.17    0.11 
  -7  -2   9    1.04    0.11 
   7   2  -9    0.82    0.27 
  -7  -2   8    1.63    0.14 
  -7  -2   8    1.86    0.15 
  -7   2   8    1.62    0.14 
   7   2  -8    1.79    0.38 
  -7  -2   8    1.66    0.13 
  -7  -2   7    1.52    0.13 
  -7  -2   7    1.75    0.14 
  -7   2   7    1.78    0.14 
  -7  -2   7    1.82    0.13 
  -7  -2   6   47.43    0.69 
   7   2  -6   45.29    1.81 
  -7  -2   6   46.46    0.73 
  -7   2   6   46.93    0.67 
  -7  -2   6   45.85    0.64 
  -7  -2   5    0.60    0.08 
  -7  -2   5    0.62    0.09 
  -7   2   5    0.72    0.09 
   7   2  -5    0.46    0.19 
  -7  -2   4    0.45    0.07 
  -7  -2   4    0.42    0.08 
   7   2  -4    0.26    0.15 
   7   2  -3    1.66    0.35 
  -7  -2   3    1.52    0.14 
  -7  -2   2    0.58    0.08 
  -7  -2   2    0.51    0.09 
   7   2  -2    0.38    0.16 
  -7  -2   1    0.04    0.03 
  -7  -2   1    0.11    0.05 
  -7  -2   0   16.44    0.43 
   7   2   0   17.87    1.15 
  -7  -2  -1    1.56    0.13 
   7   2   1    1.84    0.38 
  -7  -2  -2    0.31    0.07 
  -7  -2  -2    0.46    0.08 
  -7  -2  -3    0.02    0.04 
  -7  -2  -3   -0.11    0.05 
  -7  -2  -4    7.97    0.29 
  -7  -2  -4    8.25    0.33 
  -7  -2  -4    8.69    0.28 
   7   2   4    8.76    0.88 
   7   2   5    0.28    0.19 
  -7  -2  -5    0.25    0.07 
   7   2   6    0.62    0.24 
  -7  -2  -6    0.56    0.10 
   7   2   7   -0.19    0.15 
  -7  -2  -7    0.34    0.09 
  -7  -2  -8    2.11    0.20 
  -7  -2  -9   11.00    0.44 
  -7   2  -9   11.85    0.45 
  -7  -2 -10    6.81    0.36 
  -7   2 -10    7.05    0.35 
   7   2  10    7.22    0.31 
  -7  -2 -11    2.19    0.21 
  -7   2 -11    2.03    0.19 
   7   2  11    2.02    0.18 
  -7  -2 -12    3.34    0.25 
   7   2  12    3.41    0.22 
  -7  -2 -13    2.17    0.20 
   7   2  13    1.99    0.17 
  -7  -2 -14    1.73    0.17 
   7   2  14    1.58    0.15 
   7  -2  15    1.72    0.16 
  -7  -2 -15    1.70    0.16 
   7   2  15    1.69    0.15 
   7   2  16    0.51    0.08 
  -7  -2 -16    0.53    0.09 
   7  -2  16    0.49    0.08 
   7  -2  17    0.07    0.04 
   7  -3 -21    0.41    0.08 
   7  -3 -20    0.51    0.10 
  -7   3  20    0.54    0.09 
  -7   3  20    0.55    0.08 
   7  -3 -19    0.25    0.08 
  -7   3  19    0.16    0.06 
   7  -3 -18    1.02    0.14 
  -7  -3  18    1.15    0.13 
  -7   3  18    1.10    0.14 
  -7  -3  17    6.05    0.30 
  -7   3  17    6.44    0.33 
  -7   3  16    0.12    0.07 
  -7  -3  16   -0.08    0.05 
  -7  -3  15    1.12    0.14 
  -7   3  15    1.38    0.16 
  -7  -3  14    0.25    0.07 
  -7   3  14    0.18    0.07 
  -7   3  13    0.25    0.08 
  -7  -3  13    0.27    0.07 
  -7  -3  12    9.48    0.37 
  -7   3  12    9.57    0.39 
  -7  -3  11   15.77    0.47 
  -7   3  11   15.90    0.49 
  -7   3  10    3.02    0.21 
  -7  -3  10    2.83    0.20 
   7  -3 -10    2.78    0.22 
   7   3 -10    2.62    0.50 
  -7  -3   9    1.30    0.13 
  -7   3   9    1.47    0.15 
   7  -3  -9    1.46    0.16 
  -7  -3   8    5.33    0.26 
   7  -3  -8    5.61    0.29 
  -7   3   8    5.46    0.26 
  -7  -3   7   59.96    0.84 
   7   3  -7   60.32    2.35 
   7  -3  -7   59.64    0.93 
  -7   3   7   59.34    0.84 
  -7  -3   7   60.62    0.90 
   7  -3  -6    1.04    0.13 
  -7  -3   6    1.05    0.10 
  -7   3   6    1.17    0.12 
  -7  -3   6    0.90    0.11 
  -7  -3   6    1.09    0.13 
   7   3  -5   11.04    0.99 
   7  -3  -5   11.66    0.39 
  -7  -3   5   11.37    0.39 
  -7   3   5   10.52    0.33 
   7  -3  -4    3.32    0.20 
  -7   3   4    2.88    0.17 
  -7  -3   4    3.32    0.22 
   7   3  -4    3.48    0.55 
   7  -3  -3    6.36    0.27 
  -7  -3   3    6.16    0.29 
   7  -3  -2    0.43    0.08 
  -7  -3   2    0.38    0.08 
   7   3  -2    0.56    0.20 
  -7  -3   1    0.22    0.07 
   7  -3  -1    0.12    0.04 
   7  -3   0    3.46    0.19 
   7   3   0    3.23    0.55 
  -7  -3   0    3.56    0.22 
   7  -3   0    3.18    0.16 
  -7  -3  -1   19.62    0.51 
  -7  -3  -1   19.23    0.47 
  -7  -3  -1   18.91    0.47 
   7  -3   1   19.70    0.45 
   7  -3   1   20.53    0.42 
   7  -3   2    0.94    0.11 
  -7  -3  -2    1.03    0.12 
   7   3   2    1.04    0.34 
  -7  -3  -2    1.16    0.12 
  -7  -3  -2    0.97    0.11 
   7  -3   2    1.16    0.11 
  -7  -3  -3   14.04    0.44 
  -7  -3  -3   14.42    0.41 
  -7  -3  -3   14.04    0.42 
   7   3   3   14.85    1.18 
  -7  -3  -4    0.06    0.06 
  -7  -3  -4   -0.01    0.04 
   7   3   5    2.34    0.50 
  -7  -3  -5    1.86    0.18 
  -7  -3  -5    2.12    0.16 
  -7  -3  -6    0.94    0.13 
  -7  -3  -6    1.00    0.11 
  -7  -3  -7    1.80    0.18 
  -7  -3  -8    4.28    0.28 
  -7  -3  -9    4.12    0.28 
  -7  -3 -10    5.11    0.31 
  -7   3 -10    4.70    0.29 
   7   3  10    4.76    0.27 
  -7  -3 -11    8.77    0.40 
   7   3  11    8.26    0.36 
  -7  -3 -12    2.33    0.21 
   7   3  12    2.34    0.19 
  -7  -3 -13    3.33    0.24 
   7  -3  13    3.41    0.22 
   7   3  13    3.80    0.24 
   7  -3  14    1.55    0.15 
  -7  -3 -14    1.37    0.15 
   7   3  14    1.46    0.15 
   7   3  15    1.12    0.12 
  -7  -3 -15    1.18    0.13 
   7  -3  15    1.17    0.12 
   7   3  16    0.38    0.07 
  -7  -3 -16    0.37    0.07 
   7  -3  16    0.49    0.08 
   7  -4 -19    0.21    0.07 
  -7   4  19    0.23    0.07 
   7  -4 -18    0.26    0.08 
  -7   4  18    0.38    0.09 
   7  -4 -17    0.14    0.08 
  -7   4  17    0.05    0.05 
   7  -4 -16    1.18    0.16 
  -7   4  16    1.17    0.15 
   7  -4 -15    1.39    0.17 
  -7   4  15    1.24    0.15 
   7  -4 -14    0.84    0.15 
  -7   4  14    0.55    0.11 
   7  -4 -13    4.30    0.30 
  -7   4  13    4.30    0.28 
   7  -4 -12    1.25    0.17 
  -7   4  12    1.40    0.16 
   7  -4 -11   12.75    0.51 
  -7   4  11   11.71    0.44 
   7  -4 -10    8.47    0.41 
  -7   4  10    8.36    0.36 
   7  -4  -9    1.18    0.16 
  -7   4   9    1.10    0.14 
  -7   4   8    0.05    0.04 
   7  -4  -8    0.11    0.06 
   7  -4  -7    0.32    0.09 
   7   4  -7    0.55    0.26 
   7  -4  -6    3.20    0.24 
  -7   4   6    3.21    0.20 
   7   4  -6    2.92    0.56 
   7  -4  -6    3.21    0.18 
   7  -4  -5    1.18    0.15 
   7   4  -5    0.95    0.33 
   7  -4  -5    0.97    0.10 
  -7  -4   4    1.21    0.13 
   7   4  -4    1.43    0.39 
   7  -4  -4    1.55    0.13 
   7  -4  -3    0.40    0.07 
  -7  -4   3    0.43    0.09 
  -7  -4   2    6.62    0.30 
   7   4  -2    7.44    0.87 
   7  -4  -2    7.28    0.27 
   7  -4  -1    0.09    0.06 
   7   4  -1    0.36    0.21 
   7  -4  -1    0.36    0.07 
  -7  -4   1    0.19    0.07 
   7  -4   0    0.55    0.10 
   7  -4   0    0.53    0.09 
  -7  -4   0    0.63    0.10 
   7  -4   1   -0.03    0.05 
   7   4   1    0.14    0.19 
   7  -4   1    0.01    0.05 
  -7  -4  -1    0.03    0.05 
   7  -4   2    0.41    0.09 
   7   4   2    0.63    0.26 
  -7  -4  -2    0.48    0.09 
   7  -4   2    0.46    0.09 
  -7  -4  -2    0.38    0.09 
   7  -4   3    0.73    0.11 
  -7  -4  -3    0.79    0.11 
  -7  -4  -3    0.64    0.10 
  -7  -4  -4    3.04    0.22 
  -7  -4  -4    2.94    0.21 
  -7  -4  -5    3.39    0.24 
  -7  -4  -5    3.08    0.21 
  -7  -4  -6    0.61    0.11 
  -7  -4  -6    0.66    0.10 
  -7  -4  -7    2.35    0.21 
  -7  -4  -7    2.21    0.17 
  -7  -4  -8    2.42    0.21 
  -7  -4  -8    2.20    0.17 
  -7  -4  -9   -0.01    0.05 
  -7  -4 -10   -0.02    0.05 
  -7  -4 -11    1.11    0.15 
   7   4  11    1.34    0.15 
   7   4  12    1.03    0.14 
  -7  -4 -12    1.27    0.15 
  -7  -4 -13    1.87    0.17 
   7   4  13    2.15    0.17 
  -7  -4 -14   -0.01    0.04 
   7   4  14    0.02    0.04 
  -7  -4 -15    0.78    0.10 
  -7   5  18    0.14    0.06 
   7  -5 -17    0.06    0.05 
  -7   5  17    0.14    0.06 
   7  -5 -16    0.06    0.06 
  -7   5  16    0.16    0.07 
   7  -5 -15    0.58    0.11 
  -7   5  15    0.79    0.12 
   7  -5 -14    3.25    0.25 
  -7   5  14    3.09    0.22 
   7  -5 -13    0.40    0.11 
  -7   5  13    0.39    0.09 
   7  -5 -12    0.66    0.13 
  -7   5  12    0.63    0.11 
   7  -5 -11    0.39    0.11 
  -7   5  11    0.33    0.08 
   7  -5 -10    3.13    0.26 
  -7   5  10    2.91    0.22 
   7  -5  -9    0.00    0.08 
  -7   5   9    0.11    0.06 
   7  -5  -9   -0.07    0.05 
  -7   5   8    0.58    0.10 
   7  -5  -8    0.78    0.10 
  -7  -5   8    0.78    0.11 
   7  -5  -7    0.07    0.05 
  -7  -5   7    0.08    0.06 
   7  -5  -6    0.08    0.05 
  -7  -5   6    0.03    0.05 
  -7  -5   5    2.68    0.21 
   7  -5  -5    2.69    0.19 
   7  -5  -4    0.00    0.07 
   7  -5  -4    0.01    0.05 
  -7  -5   4    0.05    0.06 
   7  -5  -3    0.20    0.08 
   7  -5  -3    0.27    0.07 
  -7  -5   3    0.31    0.08 
   7  -5  -2    0.03    0.07 
   7  -5  -2    0.04    0.05 
  -7  -5   2    0.00    0.05 
   7  -5  -1   -0.05    0.07 
   7  -5  -1    0.04    0.06 
  -7  -5   1    0.02    0.05 
   7  -5   0    0.09    0.07 
   7  -5   0    0.36    0.08 
  -7  -5   0    0.24    0.08 
   7  -5   1    2.90    0.23 
  -7  -5  -1    2.79    0.21 
   7  -5   1    2.92    0.20 
   7  -5   2    0.00    0.06 
   7  -5   2    0.10    0.07 
  -7  -5  -2    0.04    0.05 
   7  -5   3    3.64    0.25 
  -7  -5  -3    3.52    0.23 
  -7  -5  -3    4.02    0.26 
  -7  -5  -4    0.18    0.06 
  -7  -5  -4    0.28    0.08 
  -7  -5  -5    0.57    0.11 
  -7  -5  -5    0.50    0.10 
  -7  -5  -6    0.22    0.08 
  -7  -5  -6    0.18    0.06 
  -7  -5  -7    0.00    0.05 
  -7  -5  -7   -0.02    0.04 
  -7  -5  -8    1.48    0.14 
  -7  -5  -8    1.25    0.15 
  -7  -5  -9    0.42    0.09 
  -7  -5  -9    0.34    0.07 
  -7  -5 -10    1.55    0.16 
   7   5  11    0.19    0.07 
  -7  -5 -11    0.21    0.07 
  -7  -5 -12    1.69    0.15 
   7   5  12    1.43    0.14 
   7   5  13    0.10    0.05 
  -7  -5 -13    0.13    0.05 
   7  -6 -14    0.79    0.11 
  -7   6  14    0.62    0.09 
  -7   6  13    1.46    0.14 
  -7   6  12    0.71    0.10 
   7  -6 -11    4.13    0.21 
   7  -6 -10    0.65    0.13 
   7  -6 -10    0.61    0.09 
   7  -6  -9    2.71    0.24 
   7  -6  -9    2.95    0.19 
   7  -6  -8    3.56    0.27 
   7  -6  -8    3.40    0.21 
   7  -6  -7    0.37    0.11 
   7  -6  -7    0.27    0.07 
  -7  -6   7    0.29    0.07 
   7  -6  -6    0.16    0.08 
   7  -6  -6    0.23    0.06 
  -7  -6   6    0.26    0.07 
   7  -6  -5    0.37    0.11 
   7  -6  -5    0.46    0.09 
  -7  -6   5    0.31    0.08 
   7  -6  -4    1.59    0.19 
   7  -6  -4    1.30    0.14 
  -7  -6   4    1.27    0.15 
   7  -6  -3    2.78    0.24 
  -7  -6   3    2.48    0.20 
   7  -6  -3    2.95    0.21 
   7  -6  -2    0.16    0.08 
   7  -6  -2    0.22    0.08 
  -7  -6   2    0.33    0.09 
   7  -6  -1    1.12    0.16 
   7  -6  -1    0.80    0.12 
  -7  -6   1    1.16    0.15 
   7  -6   0    0.07    0.07 
   7  -6   0    0.01    0.05 
  -7  -6   0    0.04    0.05 
   7  -6   1    0.06    0.06 
  -7  -6  -1    0.08    0.06 
   7  -6   1    0.01    0.07 
  -7  -6  -2    0.42    0.10 
  -7  -6  -3   -0.01    0.05 
  -7  -6  -4    0.13    0.06 
  -7  -6  -5    0.38    0.09 
  -7  -6  -6    0.06    0.04 
  -7  -6  -7    3.39    0.21 
  -7  -6  -8    0.71    0.09 
  -7  -6  -9    0.00    0.03 
   7   6  10    0.11    0.05 
   7  -7 -10    0.51    0.09 
   7  -7 -10    0.53    0.08 
   7  -7  -9    0.85    0.12 
   7  -7  -9    0.78    0.09 
   7  -7  -8    0.03    0.05 
   7  -7  -8    0.04    0.04 
   7  -7  -7    0.09    0.06 
   7  -7  -7    0.13    0.05 
   7  -7  -6    0.29    0.09 
   7  -7  -6    0.25    0.07 
   7  -7  -5    0.85    0.13 
   7  -7  -5    0.95    0.11 
   7  -7  -4    1.44    0.17 
   7  -7  -4    1.44    0.14 
  -7  -7   4    1.16    0.12 
   7  -7  -3    0.80    0.13 
   7  -7  -3    0.71    0.10 
  -7  -7   3    0.78    0.11 
   7  -7  -2    0.64    0.12 
   7  -7  -2    0.63    0.10 
  -7  -7   2    0.52    0.09 
   7  -7  -1    0.30    0.07 
  -7  -7   1    0.22    0.07 
   7  -7   0    0.70    0.10 
  -7  -7   0    0.71    0.10 
  -7  -7  -1    0.10    0.05 
  -7  -7  -2    0.71    0.11 
  -7  -7  -3    0.02    0.04 
  -7  -7  -4    0.04    0.04 
  -7  -7  -5    0.08    0.04 
  -7  -7  -6    0.02    0.03 
  -8   0  22    1.38    0.14 
  -8   0  21    0.05    0.04 
  -8   0  20    1.64    0.17 
  -8   0  19    0.02    0.06 
  -8   0  18    0.11    0.07 
  -8   0  17   -0.03    0.05 
  -8   0  17    0.01    0.04 
  -8   0  16    0.20    0.08 
  -8   0  16    0.29    0.07 
  -8   0  15   -0.01    0.05 
  -8   0  15   -0.13    0.06 
  -8   0  14    0.87    0.13 
  -8   0  14    0.92    0.12 
  -8   0  13   -0.01    0.04 
  -8   0  13    0.03    0.05 
  -8   0  12    2.04    0.18 
  -8   0  12    2.10    0.17 
  -8   0  11    0.01    0.05 
  -8   0  11    0.09    0.05 
  -8   0  10    0.47    0.08 
  -8   0  10    0.34    0.07 
  -8   0   9    0.00    0.04 
  -8   0   9   -0.01    0.04 
  -8   0   8    6.25    0.26 
  -8   0   8    5.87    0.25 
  -8   0   7   -0.02    0.04 
  -8   0   7    0.02    0.04 
  -8   0   6    0.88    0.10 
  -8   0   6    1.21    0.11 
  -8   0   5    0.04    0.04 
  -8   0   5    0.01    0.03 
  -8   0   4    1.24    0.11 
  -8   0   3    0.07    0.04 
   8   0  -3   -0.06    0.08 
   8   0  -2    1.59    0.29 
  -8   0   2    2.12    0.14 
  -8   0   1    0.05    0.04 
   8   0  -1    0.13    0.10 
  -8   0   0    1.24    0.11 
   8   0   0    1.05    0.26 
  -8   0  -1    0.08    0.03 
   8   0   1    0.07    0.08 
  -8   0  -2    3.69    0.18 
   8   0   2    4.74    0.56 
   8   0   3   -0.26    0.15 
   8   0   4    0.24    0.15 
  -8   0  -4    0.33    0.08 
   8   0   5    0.02    0.06 
  -8   0  -5    0.04    0.06 
   8   0   6    1.83    0.41 
  -8   0  -6    1.97    0.19 
   8   0   7    0.05    0.11 
  -8   0  -7    0.05    0.07 
  -8   0  -8   33.32    0.79 
  -8   0  -9    0.09    0.09 
  -8   0 -10   16.14    0.56 
  -8   0 -11    0.04    0.06 
  -8   0 -12    9.28    0.42 
  -8   0 -13    0.00    0.05 
  -8   0 -14    0.05    0.05 
  -8   0 -15    0.02    0.05 
   8   0  16    1.84    0.15 
  -8  -1  22    0.52    0.08 
  -8   1  22    0.55    0.09 
  -8  -1  21    0.02    0.05 
  -8   1  21    0.05    0.05 
  -8  -1  20    0.93    0.12 
  -8   1  20    0.72    0.11 
  -8  -1  19    0.01    0.05 
  -8   1  19   -0.06    0.06 
  -8   1  19    0.00    0.04 
  -8  -1  18    2.04    0.19 
  -8   1  18    1.90    0.19 
  -8   1  18    1.75    0.17 
  -8  -1  17    1.48    0.17 
  -8   1  17    1.49    0.17 
  -8   1  17    1.61    0.17 
  -8  -1  16    0.87    0.13 
  -8   1  16    0.63    0.11 
  -8   1  15   -0.06    0.06 
  -8  -1  15    0.03    0.05 
  -8  -1  14   17.57    0.47 
  -8   1  14   17.58    0.52 
  -8  -1  14   17.93    0.55 
  -8  -1  13    2.22    0.20 
  -8  -1  13    1.67    0.15 
  -8   1  13    1.75    0.16 
  -8   1  13    1.89    0.17 
  -8  -1  12   36.34    0.73 
  -8   1  12   35.99    0.71 
  -8   1  12   36.70    0.72 
  -8  -1  12   36.52    0.67 
  -8  -1  11    0.20    0.06 
  -8  -1  11    0.11    0.06 
  -8   1  11    0.05    0.04 
  -8   1  11    0.08    0.06 
  -8  -1  10   14.31    0.44 
  -8   1  10   14.51    0.42 
  -8   1  10   14.13    0.43 
  -8  -1  10   14.60    0.41 
  -8  -1   9    1.32    0.13 
  -8   1   9    1.19    0.12 
  -8   1   9    1.19    0.12 
  -8  -1   9    1.23    0.13 
  -8  -1   9    1.27    0.12 
   8   1  -9    1.22    0.29 
   8   1  -8   25.26    1.28 
  -8  -1   8   25.45    0.55 
  -8   1   8   24.64    0.50 
  -8   1   8   25.40    0.54 
  -8  -1   8   24.19    0.55 
  -8  -1   8   26.26    0.53 
  -8  -1   7    5.67    0.24 
   8   1  -7    6.00    0.63 
  -8  -1   7    5.48    0.25 
  -8   1   7    5.08    0.22 
  -8  -1   7    5.47    0.26 
  -8   1   7    5.44    0.24 
   8   1  -6    7.72    0.71 
  -8  -1   6    7.24    0.28 
  -8   1   6    6.36    0.24 
  -8  -1   6    6.65    0.29 
  -8   1   6    7.11    0.27 
  -8  -1   6    7.03    0.27 
  -8  -1   5    1.99    0.15 
  -8   1   5    2.11    0.15 
   8   1  -5    1.78    0.34 
  -8  -1   5    2.06    0.15 
  -8  -1   4    2.84    0.17 
  -8   1   4    2.74    0.16 
  -8  -1   4    2.92    0.17 
  -8  -1   3   35.77    0.58 
  -8   1   3   36.06    0.57 
   8   1  -3   34.88    1.49 
  -8  -1   2    0.30    0.06 
  -8   1   2    0.20    0.05 
  -8  -1   1    2.03    0.14 
   8   1  -1    1.99    0.36 
  -8   1   1    1.90    0.13 
  -8  -1   0   26.16    0.50 
  -8   1   0   25.77    0.46 
  -8  -1   0   24.78    0.53 
   8   1   0   26.20    1.36 
  -8   1  -1    8.54    0.27 
  -8  -1  -1    9.09    0.34 
   8   1   1    8.90    0.82 
  -8  -1  -1    8.66    0.33 
   8   1   2    1.46    0.34 
  -8  -1  -2    1.22    0.14 
  -8  -1  -2    1.36    0.13 
  -8  -1  -3    0.70    0.10 
   8   1   3    0.88    0.28 
  -8  -1  -3    0.73    0.11 
   8   1   4    0.05    0.11 
  -8  -1  -4    0.22    0.06 
  -8  -1  -4    0.26    0.07 
   8  -1   4    0.29    0.14 
   8   1   5    0.82    0.29 
  -8  -1  -5    0.79    0.12 
   8   1   6    7.36    0.83 
  -8  -1  -6    6.72    0.34 
  -8   1  -6    7.22    0.35 
  -8  -1  -7    3.67    0.26 
  -8   1  -7    3.80    0.27 
  -8  -1  -8   29.47    0.74 
  -8   1  -8   29.11    0.73 
  -8  -1  -9    0.97    0.15 
  -8   1  -9    0.88    0.15 
  -8  -1 -10   23.12    0.67 
  -8   1 -10   20.99    0.63 
  -8  -1 -11    0.28    0.09 
  -8   1 -11    0.50    0.11 
  -8  -1 -12    3.37    0.25 
  -8   1 -12    3.33    0.25 
  -8  -1 -13    0.04    0.06 
  -8   1 -13   -0.03    0.05 
  -8  -1 -14    0.12    0.06 
  -8  -1 -15    0.01    0.04 
   8   1  15    0.01    0.04 
   8  -1  15   -0.04    0.04 
   8   1  16    1.60    0.13 
   8  -1  16    1.61    0.14 
  -8  -1 -16    1.43    0.13 
  -8  -2  21    2.01    0.16 
  -8   2  21    2.26    0.17 
  -8   2  21    1.76    0.14 
  -8  -2  20    0.71    0.10 
  -8   2  20    0.81    0.11 
  -8   2  20    0.58    0.09 
  -8  -2  19    1.83    0.17 
  -8   2  19    2.04    0.18 
  -8   2  19    1.87    0.17 
  -8  -2  18    9.89    0.40 
  -8   2  18    9.43    0.39 
  -8   2  18    9.67    0.39 
  -8   2  17    1.00    0.14 
  -8   2  17    0.87    0.13 
  -8  -2  17    0.74    0.12 
  -8  -2  16    1.05    0.15 
  -8   2  16    0.95    0.14 
  -8  -2  15    4.17    0.27 
  -8   2  15    4.21    0.27 
  -8   2  14   10.73    0.43 
  -8  -2  14   10.65    0.42 
  -8  -2  13    8.12    0.36 
  -8   2  13    7.80    0.34 
  -8   2  13    8.14    0.36 
  -8  -2  12    1.72    0.17 
  -8   2  12    1.77    0.16 
  -8   2  12    1.74    0.17 
  -8  -2  11   15.95    0.48 
   8   2 -11   15.65    1.21 
  -8   2  11   15.79    0.44 
  -8   2  11   15.78    0.49 
  -8  -2  10    0.03    0.05 
  -8   2  10    0.08    0.04 
  -8  -2  10    0.03    0.04 
  -8   2  10    0.01    0.05 
  -8  -2   9   19.91    0.52 
  -8  -2   9   18.86    0.46 
  -8  -2   9   19.64    0.50 
  -8   2   9   19.98    0.52 
  -8  -2   8   12.32    0.40 
   8   2  -8   11.90    0.99 
  -8  -2   8   12.07    0.40 
  -8  -2   8   11.38    0.35 
  -8   2   8   11.89    0.39 
  -8  -2   7   13.46    0.41 
   8   2  -7   13.78    1.06 
  -8  -2   7   13.01    0.37 
  -8   2   7   12.92    0.39 
  -8  -2   7   13.69    0.43 
  -8  -2   6    2.34    0.17 
   8  -2  -6    2.03    0.15 
  -8  -2   6    2.02    0.17 
  -8   2   6    2.18    0.16 
   8   2  -6    1.98    0.40 
  -8  -2   6    2.33    0.16 
  -8  -2   5    1.57    0.14 
  -8  -2   5    1.49    0.15 
   8  -2  -5    1.59    0.13 
  -8  -2   5    1.58    0.13 
  -8   2   5    1.57    0.13 
   8   2  -5    1.58    0.36 
   8  -2  -4    2.04    0.15 
  -8  -2   4    2.02    0.15 
  -8   2   4    2.24    0.15 
   8   2  -4    2.01    0.40 
  -8  -2   4    2.01    0.17 
  -8  -2   3    3.68    0.23 
  -8   2   3    3.45    0.18 
  -8  -2   3    3.46    0.19 
   8   2  -3    3.38    0.52 
  -8  -2   2   19.87    0.46 
  -8  -2   2   19.26    0.51 
  -8   2   2   19.51    0.41 
   8   2  -2   19.75    1.26 
  -8  -2   1   26.80    0.60 
   8   2  -1   27.43    1.49 
  -8  -2   0    0.95    0.12 
  -8  -2   0    0.97    0.11 
  -8  -2  -1    6.08    0.29 
  -8  -2  -1    5.72    0.27 
   8   2   1    6.00    0.72 
  -8  -2  -2   11.34    0.40 
  -8  -2  -2   10.66    0.37 
   8   2   2   11.92    1.01 
  -8  -2  -3    0.68    0.10 
   8   2   3    0.85    0.29 
  -8  -2  -3    0.68    0.10 
  -8  -2  -3    0.83    0.10 
  -8  -2  -4    2.03    0.16 
  -8  -2  -4    2.24    0.19 
  -8  -2  -4    2.24    0.15 
   8   2   5    0.67    0.28 
  -8  -2  -5    1.23    0.15 
   8   2   6    1.22    0.36 
  -8  -2  -6    0.90    0.13 
  -8  -2  -7    0.71    0.12 
  -8  -2  -8    2.79    0.23 
  -8   2  -8    2.60    0.23 
   8   2   9    0.16    0.06 
  -8  -2  -9    0.11    0.07 
  -8   2  -9    0.20    0.09 
  -8  -2 -10    9.28    0.42 
  -8   2 -10    9.13    0.41 
   8   2  10    9.11    0.35 
   8   2  11    0.05    0.05 
  -8  -2 -11    0.05    0.07 
  -8   2 -11    0.01    0.06 
  -8  -2 -12    3.19    0.24 
  -8   2 -12    3.31    0.24 
  -8  -2 -13    0.02    0.05 
  -8  -2 -14    0.03    0.05 
   8  -2  14    0.03    0.04 
  -8  -2 -15    0.01    0.04 
   8  -2  15    0.06    0.05 
  -8  -2 -16    0.05    0.03 
   8  -2  16    0.00    0.03 
   8  -3 -20    0.02    0.05 
  -8   3  20    0.05    0.04 
  -8  -3  19    0.20    0.06 
  -8   3  19    0.15    0.06 
   8  -3 -19    0.25    0.08 
   8  -3 -18    0.08    0.06 
  -8  -3  18    0.05    0.03 
   8  -3 -17    0.79    0.13 
  -8  -3  17    0.64    0.10 
  -8   3  17    0.79    0.12 
   8  -3 -16    0.08    0.07 
  -8  -3  16    0.16    0.06 
  -8   3  16    0.24    0.08 
   8  -3 -15    0.83    0.14 
  -8  -3  15    0.61    0.10 
  -8   3  15    0.81    0.13 
   8  -3 -14    0.62    0.13 
  -8  -3  14    0.65    0.11 
  -8   3  14    0.83    0.13 
   8  -3 -13    0.47    0.11 
  -8  -3  13    0.44    0.10 
  -8   3  13    0.45    0.10 
   8  -3 -12    0.77    0.13 
  -8  -3  12    0.67    0.11 
  -8   3  12    0.64    0.12 
   8  -3 -11    0.87    0.14 
  -8  -3  11    1.02    0.13 
  -8   3  11    0.91    0.13 
  -8  -3  10    9.02    0.36 
   8  -3 -10    8.58    0.39 
  -8   3  10    8.77    0.37 
  -8  -3   9    1.33    0.14 
   8  -3  -9    1.29    0.15 
  -8   3   9    1.34    0.15 
   8   3  -9    1.43    0.39 
   8  -3  -8    0.08    0.06 
  -8  -3   8    0.03    0.05 
  -8  -3   8   -0.01    0.05 
  -8   3   8    0.01    0.04 
   8  -3  -7    2.69    0.21 
  -8  -3   7    2.57    0.17 
  -8  -3   7    2.64    0.21 
  -8   3   7    2.60    0.19 
   8   3  -7    2.73    0.53 
  -8  -3   7    2.44    0.18 
   8  -3  -6    5.01    0.27 
  -8   3   6    4.26    0.23 
  -8  -3   6    4.76    0.27 
   8   3  -6    4.68    0.67 
   8  -3  -5    8.30    0.34 
  -8   3   5    7.62    0.29 
  -8  -3   5    8.06    0.35 
   8  -3  -4    6.17    0.29 
  -8  -3   4    5.82    0.30 
  -8   3   4    5.44    0.24 
   8   3  -4    6.04    0.78 
   8  -3  -3    1.71    0.15 
  -8  -3   3    1.78    0.17 
   8   3  -3    1.80    0.43 
  -8  -3   2    1.43    0.15 
   8   3  -2    1.61    0.42 
   8  -3  -1   11.76    0.36 
  -8  -3   1   11.77    0.43 
   8   3  -1   12.37    1.10 
  -8  -3   0    0.07    0.06 
   8   3   0    0.30    0.19 
  -8  -3  -1    2.12    0.18 
  -8  -3  -1    2.04    0.16 
  -8  -3  -1    2.11    0.17 
   8   3   2    0.00    0.12 
  -8  -3  -2    0.02    0.05 
  -8  -3  -2    0.01    0.04 
  -8  -3  -2    0.03    0.05 
  -8  -3  -3    1.02    0.13 
   8   3   3    1.18    0.35 
  -8  -3  -3    1.01    0.13 
  -8  -3  -3    1.13    0.12 
  -8  -3  -4    5.88    0.31 
  -8  -3  -4    6.23    0.28 
  -8  -3  -5    1.72    0.18 
  -8  -3  -5    1.84    0.15 
  -8  -3  -6    1.72    0.18 
  -8  -3  -7    0.34    0.10 
  -8  -3  -8    0.18    0.08 
  -8  -3  -9    6.84    0.36 
  -8   3  -9    6.62    0.35 
   8   3  10    0.10    0.05 
  -8  -3 -10    0.14    0.08 
  -8   3 -10    0.05    0.05 
   8   3  11    0.05    0.05 
  -8  -3 -11    0.02    0.05 
   8   3  12    0.15    0.06 
  -8  -3 -12    0.08    0.06 
   8   3  13    0.57    0.09 
  -8  -3 -13    0.57    0.11 
   8  -3  13    0.59    0.10 
  -8  -3 -14    0.60    0.10 
   8  -3  14    0.61    0.09 
   8   3  14    0.45    0.07 
  -8  -3 -15    0.27    0.06 
   8  -3  15    0.42    0.07 
   8  -4 -19    1.68    0.15 
  -8   4  19    1.31    0.13 
   8  -4 -18    0.08    0.05 
  -8   4  18    0.02    0.04 
   8  -4 -17    0.18    0.07 
  -8   4  17    0.24    0.07 
   8  -4 -16    1.12    0.15 
  -8   4  16    0.99    0.14 
   8  -4 -15    0.49    0.11 
  -8   4  15    0.42    0.10 
   8  -4 -14    0.86    0.14 
  -8   4  14    0.89    0.13 
   8  -4 -13    4.44    0.30 
  -8   4  13    4.26    0.28 
   8  -4 -12    5.12    0.33 
  -8   4  12    4.93    0.30 
   8  -4 -11   16.70    0.58 
  -8   4  11   15.63    0.51 
   8  -4 -10    0.01    0.07 
  -8   4  10    0.06    0.05 
   8  -4  -9    0.35    0.10 
  -8   4   9    0.62    0.11 
   8  -4  -8    2.81    0.24 
  -8   4   8    2.58    0.20 
   8  -4  -7    1.87    0.19 
  -8   4   7    1.62    0.16 
   8  -4  -6    7.34    0.36 
  -8   4   6    6.71    0.30 
   8  -4  -5    2.83    0.22 
  -8  -4   4    0.25    0.08 
  -8  -4   3    4.20    0.26 
   8  -4  -2    0.98    0.13 
  -8  -4   2    1.01    0.13 
   8  -4  -1    2.57    0.20 
  -8  -4   1    2.68    0.21 
   8  -4  -1    2.67    0.17 
   8  -4   0    0.83    0.12 
   8  -4   0    0.86    0.11 
  -8  -4   0    0.91    0.13 
   8  -4   1    0.02    0.05 
   8  -4   1    0.03    0.05 
  -8  -4  -1    0.11    0.06 
   8  -4   2    1.48    0.15 
  -8  -4  -2    1.45    0.15 
  -8  -4  -2    1.39    0.15 
  -8  -4  -3    0.07    0.05 
  -8  -4  -3    0.12    0.06 
  -8  -4  -4    3.21    0.23 
  -8  -4  -4    3.74    0.24 
  -8  -4  -5    5.63    0.31 
  -8  -4  -5    5.57    0.29 
  -8  -4  -6    5.12    0.30 
  -8  -4  -6    5.23    0.27 
  -8  -4  -7   -0.01    0.05 
  -8  -4  -7    0.01    0.04 
  -8  -4  -8    0.25    0.09 
  -8  -4  -9    2.44    0.21 
  -8   4  -9    2.20    0.20 
   8   4  10    0.24    0.08 
  -8  -4 -10    0.48    0.10 
   8   4  11   -0.05    0.05 
  -8  -4 -11    0.12    0.06 
  -8  -4 -12    0.17    0.07 
   8   4  12    0.21    0.06 
   8   4  13    0.02    0.04 
  -8  -4 -13    0.04    0.04 
  -8  -4 -14   -0.04    0.04 
   8  -5 -17    0.03    0.04 
  -8   5  17    0.03    0.04 
   8  -5 -16    0.23    0.07 
  -8   5  16    0.22    0.07 
   8  -5 -15    0.63    0.11 
  -8   5  15    0.70    0.11 
   8  -5 -14    0.03    0.06 
  -8   5  14   -0.10    0.06 
   8  -5 -13    0.15    0.07 
  -8   5  13    0.10    0.05 
   8  -5 -12    1.46    0.18 
  -8   5  12    1.71    0.17 
   8  -5 -11    0.60    0.13 
  -8   5  11    0.70    0.11 
   8  -5 -10    2.86    0.25 
  -8   5  10    2.82    0.21 
  -8   5   9    0.53    0.10 
  -8  -5   9    0.50    0.09 
  -8  -5   8    5.07    0.28 
  -8  -5   7    0.52    0.10 
  -8  -5   6    0.26    0.08 
   8  -5  -5    6.81    0.37 
  -8  -5   5    6.39    0.33 
   8  -5  -5    6.82    0.28 
   8  -5  -4    0.86    0.14 
   8  -5  -4    0.86    0.11 
  -8  -5   4    0.85    0.13 
   8  -5  -3    0.28    0.10 
   8  -5  -3    0.24    0.07 
  -8  -5   3    0.30    0.09 
   8  -5  -2    9.49    0.42 
  -8  -5   2    9.28    0.40 
   8  -5  -2    9.31    0.35 
   8  -5  -1    1.62    0.18 
  -8  -5   1    1.44    0.16 
   8  -5  -1    1.73    0.16 
   8  -5   0    2.03    0.19 
  -8  -5   0    1.91    0.18 
   8  -5   0    2.09    0.17 
   8  -5   1    3.27    0.24 
  -8  -5  -1    3.07    0.23 
   8  -5   1    3.18    0.21 
   8  -5   2    1.37    0.16 
  -8  -5  -2    1.48    0.16 
  -8  -5  -3    0.53    0.10 
  -8  -5  -4    0.05    0.05 
  -8  -5  -4    0.03    0.04 
  -8  -5  -5    1.99    0.18 
  -8  -5  -5    2.15    0.18 
  -8  -5  -6    0.05    0.05 
  -8  -5  -6    0.11    0.05 
  -8  -5  -7    0.59    0.11 
  -8  -5  -7    0.58    0.09 
  -8  -5  -8    0.89    0.12 
  -8  -5  -8    0.88    0.11 
  -8  -5  -9    0.00    0.05 
   8   5  10    0.12    0.05 
  -8  -5 -10    0.08    0.05 
   8   5  11    0.56    0.09 
  -8  -5 -11    0.57    0.09 
  -8  -5 -12    0.04    0.04 
   8  -6 -14    0.11    0.06 
  -8   6  13    0.10    0.04 
   8  -6 -13    0.05    0.06 
   8  -6 -12    0.22    0.08 
   8  -6 -11    0.13    0.07 
   8  -6 -10    0.36    0.10 
   8  -6  -9    0.09    0.07 
   8  -6  -8   -0.04    0.06 
   8  -6  -7    0.43    0.10 
   8  -6  -7    0.41    0.07 
  -8  -6   7    0.43    0.09 
   8  -6  -6    0.32    0.09 
   8  -6  -6    0.32    0.07 
  -8  -6   6    0.19    0.06 
   8  -6  -5    1.73    0.19 
  -8  -6   5    1.62    0.16 
   8  -6  -5    1.61    0.15 
   8  -6  -4    0.35    0.10 
   8  -6  -4    0.28    0.07 
  -8  -6   4    0.35    0.09 
   8  -6  -3    1.84    0.20 
  -8  -6   3    1.81    0.17 
   8  -6  -3    1.99    0.16 
   8  -6  -2    1.18    0.16 
   8  -6  -2    1.15    0.13 
  -8  -6   2    1.10    0.14 
   8  -6  -1    1.69    0.19 
  -8  -6   1    1.50    0.16 
   8  -6  -1    1.41    0.15 
   8  -6   0    1.02    0.15 
   8  -6   0    1.05    0.13 
  -8  -6   0    1.00    0.13 
  -8  -6  -1    0.38    0.09 
  -8  -6  -2    0.06    0.06 
  -8  -6  -3    0.26    0.08 
  -8  -6  -4    0.00    0.05 
  -8  -6  -5    1.17    0.13 
  -8  -6  -6    0.48    0.08 
  -8  -6  -7    0.99    0.11 
  -8  -6  -8    0.02    0.03 
   8   6   9    0.10    0.05 
   8  -7  -9    0.48    0.09 
   8  -7  -8    0.22    0.07 
   8  -7  -7    1.33    0.15 
   8  -7  -7    1.16    0.11 
   8  -7  -6   -0.02    0.06 
   8  -7  -6   -0.04    0.04 
   8  -7  -5    0.05    0.06 
   8  -7  -5   -0.01    0.03 
  -8  -7   5    0.10    0.06 
   8  -7  -4    0.63    0.12 
   8  -7  -4    0.56    0.08 
  -8  -7   4    0.36    0.07 
   8  -7  -3    1.77    0.17 
  -8  -7   3    1.70    0.15 
   8  -7  -3    1.79    0.14 
   8  -7  -2    0.36    0.07 
  -8  -7   2    0.29    0.07 
  -8  -7   1    0.23    0.07 
  -8  -7   0    0.59    0.09 
  -8  -7  -1    0.10    0.05 
  -8  -7  -2    0.16    0.06 
  -8  -7  -3    0.87    0.10 
  -8  -7  -4    0.11    0.04 
  -9   0  21   -0.04    0.04 
  -9   0  20    0.22    0.07 
  -9   0  19   -0.08    0.06 
  -9   0  18    0.81    0.13 
  -9   0  17   -0.01    0.06 
  -9   0  17   -0.10    0.05 
  -9   0  16   18.49    0.58 
  -9   0  16   18.05    0.51 
  -9   0  15    0.10    0.06 
  -9   0  15    0.04    0.06 
  -9   0  14   29.61    0.71 
  -9   0  14   28.22    0.65 
  -9   0  13    0.14    0.07 
  -9   0  13    0.02    0.05 
  -9   0  12   34.20    0.73 
  -9   0  12   33.49    0.70 
  -9   0  11    0.00    0.05 
  -9   0  11    0.03    0.05 
  -9   0  10    0.63    0.10 
  -9   0  10    0.67    0.10 
  -9   0   9   -0.01    0.05 
  -9   0   9    0.02    0.05 
  -9   0   8    0.98    0.11 
  -9   0   8    1.04    0.12 
  -9   0   7   -0.06    0.05 
  -9   0   7    0.00    0.04 
  -9   0   6   14.67    0.41 
  -9   0   6   14.65    0.41 
  -9   0   5    0.00    0.03 
  -9   0   5   -0.09    0.05 
  -9   0   4    6.03    0.26 
  -9   0   4    5.75    0.25 
  -9   0   3    0.01    0.04 
  -9   0   2   19.94    0.46 
  -9   0   1    0.04    0.04 
   9   0   0    4.43    0.56 
  -9   0   0    5.36    0.24 
   9   0   1   -0.01    0.11 
  -9   0  -1    0.01    0.04 
   9   0   2    3.62    0.52 
  -9   0  -2    4.78    0.27 
   9   0   3   -0.05    0.09 
  -9   0  -3    0.05    0.06 
  -9   0  -4   22.75    0.62 
   9   0   4   22.26    1.37 
   9   0   5   -0.55    0.25 
  -9   0  -5    0.10    0.08 
  -9   0  -6    3.77    0.27 
  -9   0  -7    0.12    0.09 
  -9   0  -8    3.59    0.27 
  -9   0  -9    0.08    0.07 
  -9   0 -10    8.91    0.42 
  -9   0 -11   -0.13    0.07 
  -9   0 -12    0.12    0.07 
  -9   0 -13    0.00    0.04 
  -9   0 -14    0.16    0.07 
  -9   0 -15   -0.15    0.05 
   9   0  15    0.15    0.06 
  -9   1  21    0.03    0.04 
  -9  -1  21   -0.02    0.04 
  -9   1  20   -0.04    0.05 
  -9  -1  20   -0.01    0.04 
  -9  -1  19    0.45    0.10 
  -9   1  19    0.30    0.08 
  -9   1  19    0.29    0.07 
  -9  -1  18    0.20    0.07 
  -9   1  18    0.31    0.09 
  -9   1  18    0.23    0.07 
  -9  -1  17    0.53    0.10 
  -9   1  17    0.60    0.12 
  -9   1  17    0.51    0.10 
  -9  -1  16    7.59    0.37 
  -9   1  16    8.00    0.37 
  -9   1  16    7.45    0.35 
  -9  -1  15    2.68    0.23 
  -9   1  15    2.54    0.21 
  -9   1  15    2.40    0.20 
  -9  -1  14    4.20    0.28 
  -9   1  14    3.90    0.26 
  -9   1  14    3.94    0.25 
  -9  -1  14    3.86    0.23 
  -9  -1  13   14.53    0.50 
  -9   1  13   15.11    0.49 
  -9   1  13   15.13    0.49 
  -9  -1  13   15.45    0.46 
  -9  -1  12    0.09    0.07 
  -9   1  12    0.10    0.06 
  -9  -1  12    0.06    0.05 
  -9   1  12    0.00    0.05 
  -9  -1  11    1.33    0.15 
  -9   1  11    0.94    0.12 
  -9  -1  11    1.10    0.13 
  -9   1  11    1.06    0.13 
  -9   1  10    0.52    0.09 
  -9  -1  10    0.48    0.09 
  -9  -1  10    0.49    0.08 
  -9   1  10    0.51    0.09 
  -9  -1  10    0.58    0.10 
  -9  -1   9    2.78    0.20 
  -9   1   9    2.84    0.19 
  -9  -1   9    2.71    0.19 
  -9   1   9    3.15    0.21 
  -9  -1   9    2.87    0.20 
  -9  -1   8    2.73    0.20 
  -9   1   8    2.50    0.17 
  -9  -1   8    2.68    0.18 
  -9   1   8    2.62    0.19 
  -9  -1   8    2.57    0.20 
  -9  -1   7    7.11    0.30 
  -9   1   7    6.62    0.27 
  -9  -1   7    7.30    0.33 
  -9   1   7    7.35    0.30 
  -9  -1   7    7.89    0.31 
  -9  -1   6    0.58    0.09 
  -9   1   6    0.33    0.06 
  -9  -1   6    0.51    0.08 
  -9  -1   6    0.61    0.11 
  -9   1   6    0.43    0.08 
   9   1  -6    0.54    0.20 
  -9  -1   5    1.06    0.12 
  -9   1   5    0.96    0.10 
  -9  -1   5    1.02    0.11 
  -9  -1   5    1.03    0.13 
  -9   1   5    0.95    0.11 
  -9  -1   4    8.91    0.32 
  -9  -1   4    8.62    0.36 
  -9   1   4    9.50    0.32 
   9   1  -4    8.66    0.80 
  -9  -1   3    2.34    0.17 
  -9  -1   3    2.56    0.20 
  -9   1   3    2.56    0.17 
   9   1  -3    2.60    0.45 
  -9  -1   2   12.82    0.38 
  -9  -1   2   11.54    0.41 
   9   1  -2   12.58    0.96 
  -9   1   2   12.16    0.35 
  -9  -1   1    3.88    0.21 
  -9   1   1    3.61    0.19 
  -9  -1   1    3.82    0.24 
   9   1  -1    4.16    0.56 
  -9  -1   1    3.46    0.21 
  -9   1   0    1.78    0.13 
  -9  -1   0    1.80    0.17 
  -9  -1   0    1.78    0.15 
   9   1   0    1.28    0.33 
  -9  -1   0    1.66    0.15 
  -9   1  -1   -0.01    0.03 
  -9  -1  -1    0.01    0.05 
   9   1   1    0.06    0.11 
  -9  -1  -1   -0.04    0.06 
  -9  -1  -2    7.81    0.33 
  -9  -1  -2    7.50    0.34 
   9   1   2    7.67    0.82 
   9   1   3    0.05    0.08 
  -9  -1  -3    0.07    0.06 
  -9  -1  -3    0.01    0.06 
  -9  -1  -4   16.41    0.46 
  -9  -1  -4   15.98    0.53 
   9   1   4   16.09    1.24 
   9   1   5    4.94    0.72 
  -9  -1  -5    5.92    0.33 
  -9   1  -5    6.08    0.34 
  -9  -1  -6    6.80    0.36 
  -9   1  -6    6.47    0.36 
  -9  -1  -7    9.45    0.43 
  -9   1  -7    9.06    0.43 
  -9  -1  -8    4.08    0.29 
  -9   1  -8    3.65    0.27 
  -9  -1  -9    3.18    0.25 
  -9   1  -9    3.06    0.25 
  -9  -1 -10    0.11    0.08 
  -9   1 -10    0.13    0.07 
  -9  -1 -11    0.38    0.10 
  -9   1 -11    0.28    0.09 
  -9  -1 -12    0.34    0.09 
  -9   1 -12    0.43    0.10 
  -9  -1 -13    0.28    0.08 
  -9   1 -13    0.32    0.08 
  -9  -1 -14    2.17    0.17 
  -9   1 -14    1.89    0.16 
  -9  -1 -15    0.34    0.07 
   9   1  15    0.41    0.07 
   9  -1  15    0.44    0.08 
   9  -2 -21    0.12    0.05 
  -9  -2  20    0.49    0.08 
  -9   2  20    0.70    0.09 
  -9   2  20    0.68    0.09 
  -9  -2  19    0.00    0.04 
  -9   2  19    0.08    0.05 
  -9  -2  18    2.38    0.20 
  -9   2  18    2.23    0.19 
  -9   2  18    2.26    0.19 
  -9   2  17    0.61    0.10 
  -9   2  17    0.77    0.12 
  -9  -2  17    0.85    0.12 
  -9  -2  16    0.01    0.06 
  -9   2  16    0.00    0.05 
  -9   2  16    0.07    0.07 
  -9  -2  15    1.76    0.19 
  -9   2  15    1.90    0.18 
  -9   2  15    1.99    0.19 
  -9  -2  14   23.88    0.65 
  -9   2  14   23.96    0.65 
  -9   2  14   23.45    0.60 
  -9  -2  13    2.47    0.21 
  -9   2  13    2.12    0.18 
  -9   2  13    2.26    0.20 
  -9  -2  12    1.81    0.18 
  -9   2  12    1.80    0.16 
  -9   2  12    1.82    0.19 
  -9  -2  11   -0.02    0.05 
  -9  -2  11    0.04    0.04 
  -9   2  11    0.01    0.05 
  -9  -2  10    0.33    0.08 
  -9  -2  10    0.30    0.08 
  -9  -2  10    0.59    0.09 
  -9   2  10    0.35    0.09 
  -9  -2   9    1.91    0.17 
  -9  -2   9    1.81    0.17 
  -9  -2   9    1.90    0.16 
  -9   2   9    1.98    0.18 
   9   2  -9    1.78    0.40 
  -9  -2   8    8.85    0.36 
   9  -2  -8    8.86    0.35 
  -9  -2   8    8.96    0.37 
  -9  -2   8    9.06    0.34 
  -9   2   8    8.80    0.35 
   9   2  -8    9.46    0.91 
  -9  -2   7    2.28    0.18 
   9  -2  -7    2.02    0.17 
  -9  -2   7    1.87    0.16 
  -9   2   7    1.80    0.16 
   9   2  -7    1.86    0.40 
  -9  -2   7    2.09    0.19 
   9  -2  -6    1.75    0.15 
  -9  -2   6    1.92    0.16 
  -9  -2   6    1.67    0.17 
  -9   2   6    1.59    0.15 
   9   2  -6    1.99    0.45 
  -9  -2   6    1.87    0.17 
   9  -2  -5    5.53    0.25 
  -9  -2   5    5.91    0.27 
  -9   2   5    5.69    0.26 
  -9  -2   5    5.61    0.30 
   9   2  -5    5.33    0.70 
  -9  -2   4   15.98    0.44 
  -9  -2   4   15.91    0.50 
  -9   2   4   16.14    0.43 
   9   2  -4   17.23    1.24 
  -9  -2   3    0.79    0.10 
  -9  -2   3    0.68    0.11 
  -9   2   3    0.90    0.10 
  -9  -2   2    9.46    0.39 
  -9   2   2    9.55    0.31 
   9   2  -2    9.91    0.92 
  -9  -2   1    1.57    0.16 
   9   2  -1    1.28    0.35 
  -9  -2   0    1.73    0.17 
   9   2   0    1.57    0.39 
  -9  -2   0    1.77    0.16 
  -9  -2  -1    0.21    0.07 
   9   2   1    0.48    0.24 
  -9  -2  -1    0.27    0.07 
  -9  -2  -2   21.41    0.56 
  -9  -2  -2   22.56    0.59 
   9   2   2   21.40    1.45 
  -9  -2  -3    8.56    0.35 
  -9  -2  -3    8.55    0.38 
  -9  -2  -3    8.75    0.32 
   9   2   3    8.25    0.92 
  -9  -2  -4    0.32    0.08 
  -9  -2  -4    0.39    0.10 
  -9  -2  -5   12.33    0.47 
  -9  -2  -6    0.03    0.07 
  -9  -2  -7    7.04    0.37 
  -9   2  -7    7.21    0.38 
  -9  -2  -8    5.93    0.34 
  -9   2  -8    5.59    0.34 
  -9  -2  -9    1.95    0.20 
  -9   2  -9    1.58    0.18 
  -9  -2 -10    1.71    0.19 
  -9   2 -10    1.47    0.17 
  -9  -2 -11    0.02    0.07 
  -9   2 -11    0.01    0.06 
  -9  -2 -12    0.59    0.11 
  -9   2 -12    0.57    0.10 
  -9  -2 -13    1.90    0.17 
  -9  -2 -14    0.16    0.06 
   9  -2  14    0.19    0.06 
   9  -3 -20    0.96    0.12 
  -9   3  20    0.90    0.11 
   9  -3 -19    0.32    0.09 
  -9  -3  19    0.26    0.06 
  -9   3  19    0.23    0.07 
  -9  -3  18    1.82    0.16 
   9  -3 -18    2.11    0.19 
  -9   3  18    1.92    0.17 
   9  -3 -17    0.32    0.09 
  -9  -3  17    0.24    0.07 
  -9   3  17    0.25    0.07 
   9  -3 -16    1.21    0.16 
  -9  -3  16    1.01    0.13 
  -9   3  16    1.16    0.15 
  -9  -3  15   13.38    0.47 
   9  -3 -15   14.05    0.52 
  -9   3  15   13.75    0.49 
   9  -3 -14    0.12    0.07 
  -9  -3  14    0.07    0.05 
  -9   3  14    0.15    0.07 
  -9  -3  13    4.89    0.29 
   9  -3 -13    5.43    0.33 
  -9   3  13    5.17    0.31 
   9  -3 -12    0.07    0.06 
  -9  -3  12    0.05    0.05 
  -9   3  12    0.02    0.05 
  -9  -3  11   12.48    0.45 
   9  -3 -11   13.51    0.50 
  -9   3  11   13.22    0.47 
   9  -3 -10    0.64    0.12 
  -9  -3  10    0.42    0.09 
  -9   3  10    0.53    0.10 
  -9  -3   9   -0.03    0.05 
  -9  -3   9    0.10    0.06 
   9  -3  -9    0.07    0.06 
  -9   3   9   -0.02    0.05 
   9  -3  -8    6.29    0.33 
  -9  -3   8    5.60    0.27 
  -9  -3   8    5.93    0.32 
  -9   3   8    6.05    0.30 
   9  -3  -7   -0.03    0.05 
  -9  -3   7   -0.01    0.05 
  -9   3   7   -0.03    0.05 
   9   3  -6   12.44    1.16 
   9  -3  -6   13.81    0.46 
  -9  -3   6   13.82    0.49 
  -9   3   6   12.56    0.41 
   9  -3  -5    3.44    0.22 
  -9  -3   5    3.17    0.24 
  -9   3   5    3.44    0.21 
   9   3  -5    3.53    0.66 
   9  -3  -4    9.65    0.36 
  -9  -3   4    9.86    0.42 
  -9   3   4    9.40    0.33 
  -9  -3   3    8.82    0.39 
   9   3  -3    9.94    1.00 
  -9  -3   2    0.26    0.08 
   9   3  -2    0.08    0.10 
  -9  -3   1    1.02    0.14 
   9   3  -1    0.75    0.30 
  -9  -3   0    0.58    0.12 
  -9  -3  -1    0.54    0.10 
  -9  -3  -1    0.64    0.10 
  -9  -3  -1    0.67    0.10 
  -9  -3  -2    3.28    0.23 
  -9  -3  -2    3.23    0.23 
  -9  -3  -2    3.51    0.22 
  -9  -3  -3    2.83    0.22 
  -9  -3  -3    3.04    0.22 
  -9  -3  -3    3.16    0.21 
  -9  -3  -4    0.18    0.08 
  -9  -3  -4    0.21    0.07 
  -9  -3  -5   12.33    0.47 
  -9  -3  -5   12.64    0.40 
  -9  -3  -6    0.08    0.08 
  -9  -3  -7    7.37    0.37 
  -9  -3  -8    1.63    0.18 
  -9   3  -8    1.52    0.18 
   9   3   9    1.07    0.13 
  -9  -3  -9    1.31    0.16 
  -9   3  -9    1.27    0.16 
   9   3  10    1.09    0.12 
  -9  -3 -10    1.18    0.15 
  -9   3 -10    1.01    0.14 
   9   3  11    0.06    0.04 
  -9  -3 -11    0.11    0.07 
  -9   3 -11   -0.05    0.05 
  -9  -3 -12   -0.05    0.04 
  -9  -3 -13    0.10    0.06 
   9  -3  13    0.19    0.06 
  -9  -3 -14    0.01    0.04 
   9  -4 -18    0.87    0.12 
  -9   4  18    0.94    0.12 
   9  -4 -17   -0.03    0.05 
  -9   4  17    0.03    0.05 
   9  -4 -16    0.06    0.05 
  -9   4  16    0.14    0.06 
   9  -4 -15   -0.04    0.06 
  -9   4  15    0.09    0.06 
   9  -4 -14    1.06    0.15 
  -9   4  14    0.96    0.14 
   9  -4 -13   -0.03    0.07 
  -9   4  13    0.15    0.07 
   9  -4 -12    0.05    0.06 
  -9   4  12   -0.04    0.06 
   9  -4 -11    4.74    0.31 
  -9   4  11    4.08    0.26 
   9  -4 -10    6.81    0.37 
  -9   4  10    6.13    0.32 
   9  -4  -9    0.00    0.06 
  -9   4   9    0.11    0.06 
   9  -4  -8    1.67    0.18 
  -9   4   8    1.61    0.16 
   9  -4  -7    0.02    0.05 
  -9   4   7    0.00    0.04 
  -9  -4   5    9.74    0.40 
  -9  -4   4    0.06    0.07 
   9  -4  -3   10.98    0.41 
  -9  -4   3   12.15    0.45 
   9  -4  -2    0.05    0.06 
  -9  -4   2    0.05    0.06 
   9  -4  -1    2.60    0.20 
  -9  -4   1    2.58    0.21 
   9  -4   0    1.67    0.16 
  -9  -4   0    1.90    0.18 
  -9  -4  -1    0.51    0.10 
  -9  -4  -2    0.05    0.05 
  -9  -4  -3    1.13    0.14 
  -9  -4  -3    1.10    0.14 
  -9  -4  -4    3.21    0.23 
  -9  -4  -4    3.10    0.21 
  -9  -4  -5    4.13    0.26 
  -9  -4  -5    4.17    0.24 
  -9  -4  -6    1.62    0.17 
  -9  -4  -6    1.34    0.13 
  -9  -4  -7    0.11    0.07 
  -9  -4  -8    2.45    0.20 
  -9   4  -8    2.31    0.21 
   9   4   9    0.63    0.10 
  -9  -4  -9    0.61    0.11 
  -9   4  -9    0.42    0.09 
  -9  -4 -10    1.33    0.15 
   9   4  10    1.61    0.15 
   9   4  11    0.08    0.04 
  -9  -4 -11    0.16    0.06 
  -9  -4 -12   -0.01    0.03 
  -9   5  16    0.14    0.05 
  -9   5  15    0.62    0.10 
   9  -5 -14    0.76    0.12 
  -9   5  14    0.81    0.11 
   9  -5 -13    1.55    0.17 
  -9   5  13    1.17    0.13 
  -9   5  12    0.24    0.07 
  -9   5  11    0.12    0.05 
  -9   5  10    0.02    0.04 
  -9  -5  10    0.06    0.05 
  -9  -5   9    0.09    0.05 
  -9  -5   8    1.85    0.18 
  -9  -5   7   -0.02    0.05 
   9  -5  -6    6.15    0.34 
  -9  -5   6    6.03    0.32 
   9  -5  -5    0.01    0.06 
  -9  -5   5    0.00    0.05 
   9  -5  -4    1.80    0.19 
  -9  -5   4    1.71    0.18 
   9  -5  -3    0.21    0.08 
  -9  -5   3    0.19    0.07 
   9  -5  -2   -0.02    0.06 
  -9  -5   2    0.06    0.07 
   9  -5  -1    1.22    0.15 
  -9  -5   1    1.22    0.15 
   9  -5   0    1.19    0.15 
  -9  -5   0    1.13    0.14 
   9  -5   1    3.38    0.24 
  -9  -5  -1    3.27    0.23 
  -9  -5  -2    0.59    0.11 
  -9  -5  -3    1.85    0.17 
  -9  -5  -4    1.29    0.14 
  -9  -5  -5    1.98    0.17 
  -9  -5  -5    2.20    0.18 
  -9  -5  -6    1.60    0.15 
  -9  -5  -6    1.67    0.15 
  -9  -5  -7   -0.03    0.04 
  -9  -5  -7    0.03    0.03 
  -9  -5  -8    0.03    0.04 
   9   5   9    0.37    0.07 
  -9  -5  -9    0.51    0.09 
   9   5  10    0.28    0.06 
  -9  -5 -10    0.25    0.06 
   9  -6 -13    0.28    0.07 
   9  -6 -12    0.70    0.11 
   9  -6 -11    0.90    0.13 
   9  -6 -10   -0.01    0.05 
   9  -6  -9    0.58    0.11 
   9  -6  -8    1.02    0.14 
  -9  -6   8    0.79    0.10 
   9  -6  -7    0.02    0.06 
  -9  -6   7    0.02    0.04 
   9  -6  -6    0.04    0.06 
  -9  -6   6   -0.07    0.05 
   9  -6  -5    1.66    0.17 
  -9  -6   5    1.48    0.16 
   9  -6  -4    0.59    0.12 
  -9  -6   4    0.49    0.09 
   9  -6  -3    2.76    0.22 
  -9  -6   3    2.98    0.22 
   9  -6  -2    0.14    0.07 
  -9  -6   2    0.13    0.06 
   9  -6  -1    3.36    0.24 
  -9  -6   1    3.17    0.22 
  -9  -6   0    1.02    0.13 
  -9  -6  -1    1.09    0.13 
  -9  -6  -2    0.39    0.08 
  -9  -6  -3   -0.03    0.05 
  -9  -6  -4    0.09    0.05 
  -9  -6  -5   -0.02    0.04 
  -9  -6  -6    0.08    0.05 
   9  -7  -7    0.03    0.04 
   9  -7  -6    0.22    0.07 
   9  -7  -5    0.10    0.05 
   9  -7  -4    0.02    0.05 
  -9  -7   4    0.12    0.05 
  -9  -7   3    0.66    0.09 
  -9  -7   2    0.06    0.04 
  -9  -7   1    0.79    0.10 
  -9  -7   0    0.08    0.04 
 -10   0  21   -0.04    0.04 
 -10   0  20   -0.02    0.05 
 -10   0  19    0.01    0.04 
 -10   0  18    2.00    0.19 
 -10   0  18    2.03    0.16 
 -10   0  17    0.05    0.05 
 -10   0  17    0.02    0.05 
 -10   0  16   11.09    0.45 
 -10   0  16   10.51    0.39 
 -10   0  15    0.02    0.06 
 -10   0  15    0.09    0.06 
 -10   0  14    2.92    0.23 
 -10   0  14    2.87    0.21 
 -10   0  13    0.00    0.06 
 -10   0  13    0.00    0.05 
 -10   0  12    1.16    0.15 
 -10   0  12    1.12    0.14 
 -10   0  11   -0.01    0.05 
 -10   0  11   -0.03    0.05 
 -10   0  10   22.41    0.59 
 -10   0  10   23.74    0.59 
 -10   0  10   23.03    0.59 
 -10   0   9   -0.01    0.05 
 -10   0   9   -0.03    0.05 
 -10   0   8   12.74    0.43 
 -10   0   8   13.49    0.44 
 -10   0   7    0.01    0.05 
 -10   0   7    0.03    0.05 
 -10   0   6   18.83    0.50 
 -10   0   6   19.57    0.51 
 -10   0   5    0.02    0.04 
 -10   0   4    2.67    0.19 
 -10   0   3   -0.01    0.04 
 -10   0   2   10.86    0.37 
 -10   0   1   -0.02    0.04 
 -10   0   0   10.93    0.36 
 -10   0   0   10.90    0.41 
 -10   0  -1    0.02    0.06 
 -10   0  -2   28.71    0.71 
 -10   0  -3    0.05    0.06 
 -10   0  -4    8.06    0.34 
 -10   0  -4    8.14    0.40 
 -10   0  -5    0.05    0.08 
 -10   0  -6    0.78    0.14 
 -10   0  -7    0.11    0.09 
 -10   0  -8    0.42    0.11 
 -10   0  -9   -0.02    0.06 
 -10   0 -10    3.69    0.27 
 -10   0 -11   -0.07    0.05 
 -10   0 -12    4.25    0.26 
 -10   0 -13    0.01    0.04 
 -10   0 -14    0.78    0.10 
 -10  -1  21    0.86    0.10 
 -10  -1  20    0.54    0.09 
 -10   1  20    0.46    0.09 
 -10   1  20    0.50    0.07 
 -10  -1  19    0.76    0.11 
 -10   1  19    0.68    0.11 
 -10   1  19    0.73    0.10 
 -10  -1  18    1.63    0.17 
 -10   1  18    1.52    0.16 
 -10   1  18    1.67    0.16 
 -10  -1  17    1.14    0.15 
 -10   1  17    1.11    0.14 
 -10   1  17    1.16    0.14 
 -10  -1  16    1.67    0.18 
 -10   1  16    1.62    0.17 
 -10   1  16    1.52    0.16 
 -10  -1  15    0.02    0.06 
 -10   1  15   -0.02    0.04 
 -10  -1  15    0.08    0.04 
 -10   1  15    0.03    0.05 
 -10  -1  14    9.82    0.43 
 -10   1  14    9.95    0.41 
 -10  -1  14    9.50    0.37 
 -10   1  14   10.01    0.41 
 -10  -1  13    0.23    0.08 
 -10   1  13    0.02    0.05 
 -10  -1  13    0.07    0.05 
 -10   1  13    0.15    0.07 
 -10   1  12    0.33    0.08 
 -10  -1  12    0.41    0.09 
 -10   1  12    0.23    0.08 
 -10  -1  12    0.32    0.08 
 -10  -1  11    3.06    0.23 
 -10   1  11    2.61    0.20 
 -10  -1  11    2.94    0.21 
 -10   1  11    2.86    0.22 
 -10  -1  10    3.99    0.26 
 -10   1  10    3.74    0.24 
 -10  -1  10    4.30    0.26 
 -10   1  10    4.04    0.25 
 -10  -1  10    4.11    0.24 
 -10  -1   9    0.06    0.05 
 -10   1   9    0.10    0.05 
 -10  -1   9    0.23    0.08 
 -10  -1   9    0.05    0.06 
 -10   1   9    0.05    0.06 
 -10  -1   8    8.14    0.35 
 -10   1   8    7.48    0.31 
 -10  -1   8    7.91    0.33 
 -10  -1   8    7.67    0.36 
 -10   1   8    8.52    0.36 
 -10  -1   7   13.86    0.45 
 -10   1   7   13.20    0.40 
 -10  -1   7   13.61    0.43 
 -10  -1   7   13.27    0.47 
 -10   1   7   13.73    0.44 
 -10   1   6    5.79    0.26 
 -10  -1   6    5.68    0.28 
 -10  -1   6    5.85    0.32 
 -10   1   6    5.18    0.27 
 -10  -1   5    3.30    0.21 
 -10  -1   5    3.39    0.24 
 -10   1   5    2.99    0.20 
 -10  -1   4    2.77    0.19 
 -10   1   4    2.78    0.19 
 -10  -1   4    2.58    0.22 
 -10  -1   3    0.07    0.05 
 -10   1   3    0.11    0.05 
 -10  -1   3    0.09    0.07 
 -10  -1   2    8.40    0.33 
 -10   1   2    8.61    0.32 
 -10  -1   2    8.33    0.38 
  10   1  -2    8.23    0.81 
 -10  -1   1    5.49    0.27 
 -10   1   1    5.27    0.25 
 -10  -1   1    5.60    0.31 
  10   1  -1    6.28    0.73 
 -10  -1   1    5.11    0.27 
 -10   1   0    0.10    0.05 
 -10  -1   0    0.04    0.07 
  10   1   0    0.12    0.15 
 -10  -1   0    0.07    0.05 
 -10   1  -1    9.99    0.33 
 -10  -1  -1    9.82    0.40 
  10   1   1    8.71    0.90 
 -10  -1  -1    9.31    0.39 
 -10  -1  -2    6.17    0.31 
  10   1   2    5.16    0.69 
 -10  -1  -2    5.96    0.32 
 -10  -1  -3    6.15    0.31 
 -10  -1  -3    5.94    0.33 
 -10  -1  -4    8.90    0.36 
 -10  -1  -4    8.99    0.41 
 -10   1  -4    9.02    0.42 
 -10  -1  -5    0.11    0.07 
 -10   1  -5    0.07    0.07 
 -10  -1  -6    4.02    0.29 
 -10   1  -6    3.98    0.29 
 -10  -1  -7    0.30    0.11 
 -10   1  -7    0.28    0.10 
 -10  -1  -8    0.08    0.07 
 -10   1  -8    0.05    0.07 
 -10  -1  -9    1.77    0.19 
 -10   1  -9    1.63    0.19 
 -10  -1 -10   -0.02    0.06 
 -10   1 -10    0.03    0.07 
 -10  -1 -11    0.17    0.07 
 -10   1 -11    0.23    0.08 
 -10  -1 -12    0.08    0.06 
 -10   1 -12    0.08    0.05 
 -10  -1 -13    0.30    0.07 
 -10   1 -13    0.37    0.07 
 -10  -1 -14    0.20    0.06 
  10  -1  14    0.16    0.05 
 -10  -2  20    0.10    0.05 
 -10   2  20    0.06    0.04 
 -10  -2  19    4.39    0.25 
 -10   2  19    3.83    0.22 
  10  -2 -19    4.48    0.26 
 -10   2  19    4.06    0.23 
  10  -2 -18    0.21    0.08 
 -10  -2  18    0.09    0.06 
 -10   2  18    0.11    0.06 
 -10   2  18    0.01    0.05 
 -10  -2  17    2.79    0.22 
 -10   2  17    3.09    0.21 
 -10   2  17    3.10    0.23 
 -10  -2  16    4.54    0.28 
 -10   2  16    4.20    0.25 
 -10   2  16    4.22    0.27 
 -10  -2  15    8.44    0.39 
 -10   2  15    8.07    0.35 
 -10   2  15    8.59    0.39 
 -10  -2  14    2.91    0.23 
 -10   2  14    2.71    0.21 
 -10   2  14    3.00    0.24 
 -10  -2  13   -0.02    0.05 
 -10   2  13   -0.06    0.07 
 -10  -2  12    0.28    0.07 
 -10  -2  12    0.31    0.08 
 -10   2  12    0.33    0.10 
  10  -2 -11    0.01    0.06 
 -10  -2  11   -0.03    0.06 
 -10  -2  11   -0.02    0.04 
 -10   2  11    0.03    0.05 
 -10  -2  10    3.41    0.24 
  10  -2 -10    3.25    0.23 
 -10  -2  10    2.69    0.21 
 -10  -2  10    2.78    0.20 
 -10   2  10    3.00    0.23 
  10  -2  -9    0.07    0.06 
 -10  -2   9    0.05    0.06 
 -10  -2   9    0.00    0.05 
 -10  -2   9    0.09    0.06 
 -10   2   9    0.08    0.06 
 -10  -2   8   10.96    0.42 
  10  -2  -8   10.21    0.38 
 -10  -2   8    9.87    0.41 
 -10  -2   8    9.87    0.37 
 -10   2   8    9.94    0.39 
  10  -2  -7    0.42    0.08 
 -10  -2   7    0.40    0.10 
 -10  -2   7    0.62    0.10 
 -10   2   7    0.59    0.11 
  10   2  -7    0.39    0.23 
 -10  -2   6   20.65    0.61 
 -10   2   6   19.04    0.52 
 -10  -2   6   20.07    0.53 
 -10  -2   5   -0.02    0.07 
 -10  -2   5    0.00    0.06 
 -10   2   5    0.10    0.05 
  10   2  -5    0.10    0.14 
 -10  -2   4    3.28    0.22 
 -10  -2   4    3.42    0.25 
 -10   2   4    3.49    0.21 
  10   2  -4    2.96    0.56 
 -10  -2   3    0.89    0.14 
 -10   2   3    0.96    0.11 
 -10  -2   2    0.07    0.06 
 -10   2   2    0.11    0.05 
 -10  -2   1    1.84    0.19 
  10   2  -1    1.69    0.41 
 -10  -2   0    2.44    0.21 
 -10  -2   0    2.53    0.20 
 -10  -2  -1    1.19    0.15 
 -10  -2  -1    1.27    0.15 
 -10  -2  -2   10.48    0.41 
 -10  -2  -2    9.78    0.41 
 -10  -2  -2   10.45    0.36 
 -10  -2  -3    0.06    0.06 
 -10  -2  -3    0.17    0.08 
 -10  -2  -4    0.11    0.07 
 -10  -2  -4    0.02    0.06 
 -10  -2  -5    0.05    0.06 
 -10  -2  -6    3.51    0.26 
 -10   2  -6    3.95    0.29 
 -10  -2  -7   -0.02    0.06 
 -10   2  -7   -0.05    0.08 
 -10  -2  -8    2.89    0.24 
 -10   2  -8    2.19    0.22 
 -10  -2  -9    0.17    0.08 
 -10   2  -9    0.03    0.06 
 -10  -2 -10    0.25    0.08 
 -10   2 -10    0.20    0.08 
 -10  -2 -11    0.53    0.10 
 -10   2 -11    0.59    0.10 
 -10  -2 -12    0.29    0.08 
 -10   2 -12    0.31    0.07 
 -10  -2 -13    0.07    0.05 
  10  -3 -19    1.40    0.14 
 -10   3  19    1.46    0.14 
  10  -3 -18    0.10    0.06 
 -10  -3  18    0.10    0.05 
 -10   3  18    0.05    0.05 
 -10  -3  17    4.61    0.25 
  10  -3 -17    4.26    0.27 
 -10   3  17    4.54    0.26 
  10  -3 -16    0.86    0.13 
 -10  -3  16    0.72    0.11 
 -10   3  16    1.10    0.14 
 -10  -3  15    3.82    0.25 
  10  -3 -15    3.89    0.27 
 -10   3  15    4.24    0.27 
  10  -3 -14    0.27    0.09 
 -10  -3  14    0.23    0.07 
 -10   3  14    0.14    0.07 
  10  -3 -13    0.29    0.09 
 -10  -3  13    0.45    0.10 
 -10   3  13    0.41    0.10 
  10  -3 -12    0.26    0.08 
 -10  -3  12    0.27    0.09 
 -10   3  12    0.14    0.06 
  10  -3 -11    1.36    0.16 
 -10   3  11    1.32    0.16 
  10  -3 -10    1.27    0.16 
 -10   3  10    1.04    0.14 
  10  -3  -9    8.00    0.37 
 -10  -3   9    8.14    0.38 
 -10   3   9    8.07    0.37 
  10  -3  -8    0.25    0.08 
 -10  -3   8    0.26    0.09 
 -10   3   8    0.20    0.06 
  10  -3  -7    0.69    0.12 
 -10  -3   7    0.81    0.14 
 -10   3   7    0.76    0.12 
  10  -3  -6    0.53    0.09 
 -10  -3   6    0.52    0.11 
 -10   3   6    0.51    0.09 
  10  -3  -5    4.72    0.26 
 -10  -3   5    5.01    0.31 
 -10   3   5    4.59    0.25 
 -10  -3   4    6.42    0.35 
 -10  -3   3    2.87    0.24 
 -10  -3   2    8.79    0.41 
 -10  -3   1    4.20    0.28 
 -10  -3   0    0.30    0.09 
 -10  -3   0    0.38    0.09 
 -10  -3  -1   11.92    0.46 
 -10  -3  -1   11.74    0.41 
 -10  -3  -2   -0.04    0.06 
 -10  -3  -2    0.01    0.05 
 -10  -3  -2    0.01    0.04 
 -10  -3  -3    7.77    0.36 
 -10  -3  -3    8.20    0.34 
 -10  -3  -4    0.10    0.08 
 -10  -3  -4   -0.06    0.05 
 -10  -3  -5    7.12    0.35 
 -10  -3  -6    1.97    0.19 
 -10  -3  -7    1.34    0.16 
 -10   3  -7    1.28    0.17 
 -10  -3  -8    1.05    0.14 
 -10   3  -8    1.16    0.16 
 -10  -3  -9    0.03    0.05 
 -10   3  -9    0.01    0.05 
 -10  -3 -10    0.34    0.08 
 -10   3 -10    0.34    0.08 
 -10  -3 -11    2.03    0.17 
 -10   3 -11    2.05    0.17 
 -10  -3 -12    0.03    0.04 
  10  -3  12   -0.06    0.04 
  10  -4 -17    0.47    0.10 
 -10   4  17    0.48    0.09 
  10  -4 -16    0.65    0.11 
 -10   4  16    0.57    0.10 
  10  -4 -15    0.59    0.11 
 -10   4  15    0.72    0.11 
  10  -4 -14    1.15    0.15 
 -10   4  14    1.00    0.13 
  10  -4 -13    0.02    0.07 
 -10   4  13    0.08    0.06 
  10  -4 -12    1.07    0.15 
 -10   4  12    1.15    0.14 
 -10  -4  12    1.18    0.13 
  10  -4 -11    1.05    0.15 
 -10   4  11    0.99    0.14 
 -10  -4  11    1.29    0.14 
  10  -4 -10    0.27    0.09 
 -10   4  10    0.11    0.06 
  10  -4  -9    0.04    0.06 
 -10   4   9   -0.01    0.05 
  10  -4  -8    1.99    0.20 
 -10   4   8    1.95    0.17 
 -10  -4   6    2.13    0.20 
 -10  -4   5    1.64    0.17 
  10  -4  -4    5.89    0.30 
 -10  -4   4    5.64    0.32 
  10  -4  -3    5.17    0.28 
 -10  -4   3    5.51    0.31 
  10  -4  -2    3.61    0.23 
 -10  -4   2    3.20    0.24 
 -10  -4   1    2.36    0.20 
 -10  -4   0   -0.01    0.05 
 -10  -4  -1    0.15    0.06 
 -10  -4  -2    0.38    0.08 
 -10  -4  -3    0.45    0.09 
 -10  -4  -3    0.48    0.09 
 -10  -4  -4    1.86    0.17 
 -10  -4  -4    1.97    0.17 
 -10  -4  -5    0.07    0.06 
 -10  -4  -5    0.00    0.04 
 -10  -4  -6    6.03    0.30 
 -10  -4  -7    0.30    0.08 
 -10   4  -7    0.23    0.08 
  10   4   8    0.29    0.06 
 -10   4  -8    0.32    0.09 
  10   4   9    0.03    0.03 
 -10  -4  -9    0.01    0.04 
 -10   4  -9   -0.02    0.04 
 -10  -4 -10    0.08    0.04 
 -10   5  15    1.02    0.11 
 -10   5  14    0.06    0.04 
 -10   5  13    1.61    0.14 
 -10   5  12    0.01    0.04 
 -10   5  11    0.54    0.09 
 -10  -5  10    0.04    0.04 
 -10  -5   9    0.38    0.08 
  10  -5  -8    0.50    0.11 
 -10  -5   8    0.57    0.10 
  10  -5  -7    0.01    0.06 
 -10  -5   7    0.05    0.06 
  10  -5  -6    0.94    0.13 
 -10  -5   6    1.12    0.14 
  10  -5  -5    0.27    0.08 
 -10  -5   5    0.64    0.11 
  10  -5  -4    2.67    0.22 
 -10  -5   4    2.51    0.21 
  10  -5  -3    0.01    0.05 
 -10  -5   3    0.07    0.06 
  10  -5  -2    0.30    0.08 
 -10  -5   2    0.41    0.09 
  10  -5  -1    0.13    0.06 
 -10  -5   1    0.06    0.06 
 -10  -5   0    0.45    0.09 
 -10  -5  -1    0.27    0.07 
 -10  -5  -2    0.25    0.07 
 -10  -5  -3    2.85    0.20 
 -10  -5  -4    0.41    0.08 
 -10  -5  -5    2.35    0.16 
 -10  -5  -6    0.10    0.05 
 -10  -5  -6    0.07    0.05 
 -10  -5  -7    0.47    0.08 
 -10   5  -7    0.40    0.08 
  10  -6 -11    0.09    0.05 
  10  -6 -10    0.23    0.07 
  10  -6  -9    0.11    0.06 
  10  -6  -8   -0.04    0.05 
 -10  -6   8   -0.19    0.05 
  10  -6  -7    0.19    0.07 
 -10  -6   7    0.13    0.05 
  10  -6  -6    0.15    0.06 
 -10  -6   6    0.00    0.04 
  10  -6  -5    0.56    0.10 
 -10  -6   5    0.45    0.09 
  10  -6  -4    0.05    0.05 
 -10  -6   4    0.00    0.04 
  10  -6  -3    1.51    0.15 
 -10  -6   3    1.45    0.15 
  10  -6  -2    0.15    0.06 
 -10  -6   2    0.12    0.06 
 -10  -6   1    0.47    0.09 
 -10  -6   0    0.04    0.05 
 -10  -6  -1    0.20    0.07 
 -10  -6  -2    0.18    0.05 
 -10  -6  -3    0.04    0.04 
 -10  -6  -4    0.82    0.09 
 -11   0  20    3.33    0.20 
 -11   0  19   -0.01    0.04 
 -11   0  18    0.15    0.06 
 -11   0  18    0.14    0.04 
 -11   0  17    0.05    0.05 
 -11   0  17   -0.13    0.06 
 -11   0  16    0.26    0.10 
 -11   0  16    0.21    0.06 
 -11   0  15    0.00    0.05 
 -11   0  15    0.06    0.05 
 -11   0  14    1.75    0.18 
 -11   0  14    2.20    0.19 
 -11   0  13   -0.04    0.07 
 -11   0  13    0.01    0.05 
 -11   0  12    0.65    0.11 
 -11   0  12    0.79    0.12 
 -11   0  11   -0.01    0.05 
 -11   0  11    0.03    0.05 
 -11   0  11    0.01    0.05 
 -11   0  10   11.67    0.44 
 -11   0  10   11.73    0.43 
 -11   0  10   10.68    0.43 
 -11   0   9    0.01    0.05 
 -11   0   9    0.03    0.06 
 -11   0   9    0.08    0.06 
 -11   0   8   15.63    0.49 
 -11   0   8   15.83    0.50 
 -11   0   7    0.03    0.05 
 -11   0   6    2.43    0.19 
 -11   0   5    0.00    0.05 
 -11   0   4    9.32    0.37 
 -11   0   3   -0.02    0.05 
 -11   0   2    0.32    0.08 
 -11   0   2    0.31    0.08 
 -11   0   1    0.00    0.05 
 -11   0   1    0.04    0.06 
 -11   0   0    2.76    0.22 
 -11   0  -1    0.00    0.06 
 -11   0  -2   -0.03    0.06 
 -11   0  -2    0.09    0.08 
 -11   0  -3   -0.02    0.05 
 -11   0  -3    0.03    0.06 
 -11   0  -4    4.34    0.30 
 -11   0  -5    0.00    0.07 
 -11   0  -6    1.12    0.16 
 -11   0  -7    0.09    0.07 
 -11   0  -8    0.05    0.07 
 -11   0  -9   -0.02    0.06 
 -11   0 -10    0.41    0.10 
 -11   0 -11    0.02    0.05 
 -11   0 -12    0.05    0.05 
 -11  -1  20    1.24    0.13 
  11  -1 -20    1.06    0.12 
 -11  -1  19    0.14    0.06 
 -11   1  19   -0.02    0.05 
 -11   1  19    0.10    0.04 
 -11  -1  18    2.00    0.18 
 -11   1  18    1.88    0.17 
 -11   1  18    2.27    0.17 
 -11  -1  17    0.54    0.10 
 -11   1  17    0.65    0.11 
 -11   1  17    0.59    0.10 
 -11  -1  16    0.44    0.10 
 -11   1  16    0.48    0.09 
 -11   1  16    0.49    0.09 
 -11  -1  15    0.01    0.05 
 -11   1  15    0.05    0.04 
 -11  -1  15    0.16    0.07 
 -11   1  15    0.02    0.06 
 -11  -1  14    0.02    0.05 
 -11   1  14   -0.02    0.04 
 -11  -1  14    0.03    0.04 
 -11   1  14   -0.03    0.06 
 -11  -1  13    0.14    0.07 
 -11   1  13    0.10    0.05 
 -11  -1  13    0.11    0.06 
 -11   1  13    0.07    0.06 
 -11  -1  12    0.67    0.12 
 -11   1  12    0.56    0.10 
 -11  -1  12    0.68    0.11 
 -11   1  12    0.55    0.11 
 -11   1  11    1.51    0.16 
 -11  -1  11    1.49    0.17 
 -11  -1  11    1.51    0.16 
 -11  -1  11    1.40    0.15 
 -11   1  11    0.95    0.13 
 -11  -1  10    5.96    0.32 
 -11   1  10    6.13    0.31 
 -11  -1  10    6.03    0.32 
 -11  -1  10    5.82    0.30 
 -11   1  10    6.32    0.33 
 -11  -1   9    2.39    0.21 
 -11   1   9    2.24    0.18 
 -11  -1   9    2.24    0.19 
 -11  -1   9    2.15    0.21 
 -11   1   9    2.02    0.18 
 -11   1   8    1.54    0.15 
 -11  -1   8    1.51    0.16 
 -11  -1   8    1.79    0.19 
 -11   1   8    1.50    0.16 
 -11  -1   8    1.43    0.16 
 -11  -1   7    6.11    0.31 
 -11  -1   7    5.48    0.32 
 -11   1   7    5.76    0.30 
 -11  -1   6    2.18    0.19 
 -11  -1   6    2.21    0.21 
 -11   1   6    2.21    0.18 
 -11  -1   5    1.70    0.16 
 -11   1   5    1.45    0.15 
 -11  -1   5    1.39    0.17 
 -11  -1   4   16.95    0.50 
 -11   1   4   16.45    0.48 
 -11  -1   4   16.94    0.56 
 -11  -1   3    0.47    0.09 
 -11   1   3    0.39    0.09 
 -11  -1   3    0.53    0.12 
 -11  -1   2    6.45    0.31 
 -11   1   2    6.68    0.30 
 -11  -1   2    6.47    0.35 
 -11   1   1    1.38    0.14 
 -11  -1   1    1.45    0.17 
 -11  -1   1    1.18    0.14 
 -11   1   0    7.25    0.30 
 -11  -1   0    7.32    0.37 
 -11  -1   0    7.06    0.34 
 -11  -1  -1    0.52    0.11 
 -11  -1  -1    0.64    0.12 
 -11  -1  -2   14.31    0.49 
 -11  -1  -2   13.95    0.51 
 -11   1  -2   14.66    0.54 
 -11  -1  -3    0.52    0.10 
 -11  -1  -3    0.65    0.12 
 -11   1  -3    0.74    0.13 
 -11  -1  -4    0.15    0.07 
 -11  -1  -4    0.19    0.07 
 -11   1  -4    0.19    0.09 
 -11  -1  -5    0.57    0.12 
 -11   1  -5    0.50    0.12 
 -11  -1  -6    4.41    0.30 
 -11   1  -6    4.27    0.31 
 -11  -1  -7    0.10    0.08 
 -11   1  -7    0.10    0.08 
 -11  -1  -8    1.74    0.19 
 -11   1  -8    1.82    0.20 
 -11  -1  -9    0.03    0.05 
 -11   1  -9    0.02    0.06 
 -11  -1 -10    1.54    0.16 
 -11   1 -10    1.42    0.16 
 -11  -1 -11    0.02    0.05 
 -11   1 -11   -0.07    0.05 
 -11  -1 -12   -0.04    0.04 
 -11   1 -12   -0.08    0.04 
  11  -2 -19    0.64    0.10 
 -11  -2  19    0.72    0.10 
 -11   2  19    0.70    0.09 
  11  -2 -18    0.01    0.05 
 -11  -2  18    0.01    0.04 
 -11   2  18   -0.02    0.04 
  11  -2 -17    0.01    0.05 
 -11  -2  17    0.01    0.05 
 -11   2  17    0.02    0.05 
 -11  -2  16    4.25    0.26 
  11  -2 -16    4.53    0.27 
 -11   2  16    4.04    0.26 
  11  -2 -15    0.44    0.10 
 -11  -2  15    0.47    0.10 
 -11   2  15    0.61    0.11 
  11  -2 -14   -0.06    0.06 
 -11  -2  14   -0.01    0.05 
 -11   2  14   -0.03    0.06 
 -11  -2  13    3.90    0.27 
  11  -2 -13    3.84    0.26 
 -11  -2  13    3.66    0.22 
 -11   2  13    3.54    0.26 
  11  -2 -12    0.46    0.10 
 -11  -2  12    0.42    0.09 
 -11  -2  12    0.50    0.09 
 -11   2  12    0.43    0.09 
  11  -2 -11    0.59    0.10 
 -11  -2  11    0.55    0.11 
 -11  -2  11    0.71    0.12 
 -11  -2  11    0.62    0.10 
 -11   2  11    0.68    0.12 
  11  -2 -10    7.98    0.35 
 -11  -2  10    7.88    0.37 
 -11  -2  10    7.86    0.34 
 -11   2  10    7.55    0.36 
 -11  -2  10    8.22    0.38 
  11  -2  -9    0.15    0.06 
 -11  -2   9    0.24    0.08 
 -11  -2   9    0.15    0.06 
 -11   2   9    0.13    0.07 
 -11  -2   8    4.65    0.30 
 -11  -2   8    4.45    0.26 
 -11   2   8    4.49    0.27 
 -11  -2   7    2.02    0.20 
 -11  -2   7    2.10    0.18 
 -11   2   7    2.02    0.18 
 -11  -2   6    5.25    0.32 
 -11  -2   6    5.00    0.28 
 -11   2   6    5.15    0.28 
 -11  -2   5   15.23    0.48 
 -11  -2   5   15.90    0.55 
 -11   2   5   14.26    0.45 
 -11  -2   4    0.46    0.11 
 -11   2   4    0.50    0.09 
 -11  -2   3    9.76    0.43 
 -11   2   3    9.59    0.35 
 -11  -2   2    2.91    0.24 
 -11   2   2    2.46    0.18 
 -11  -2   1    1.22    0.16 
 -11  -2   0    9.45    0.42 
 -11  -2  -1    5.50    0.32 
 -11  -2  -1    5.28    0.29 
 -11  -2  -2    0.40    0.10 
 -11  -2  -2    0.34    0.09 
 -11  -2  -2    0.28    0.07 
 -11  -2  -3    1.22    0.14 
 -11  -2  -3    1.03    0.14 
 -11  -2  -4    0.74    0.11 
 -11  -2  -4    0.57    0.11 
 -11  -2  -5    0.08    0.06 
 -11   2  -5    0.01    0.06 
 -11  -2  -6    0.30    0.09 
 -11   2  -6    0.44    0.11 
 -11  -2  -7    1.86    0.19 
 -11   2  -7    1.50    0.18 
 -11  -2  -8    0.02    0.05 
 -11   2  -8    0.02    0.06 
 -11  -2  -9    1.47    0.16 
 -11   2  -9    1.24    0.15 
 -11  -2 -10    1.05    0.13 
 -11   2 -10    0.90    0.13 
 -11  -2 -11    0.35    0.08 
 -11   2 -11    0.32    0.07 
 -11  -2 -12    0.48    0.08 
  11  -3 -18    0.91    0.11 
 -11   3  18    0.76    0.10 
  11  -3 -17    0.31    0.08 
 -11   3  17    0.39    0.08 
  11  -3 -16    1.93    0.18 
 -11   3  16    2.10    0.18 
  11  -3 -15    0.35    0.09 
 -11   3  15    0.28    0.08 
  11  -3 -14    0.81    0.13 
 -11   3  14    0.95    0.14 
  11  -3 -13    1.74    0.18 
 -11   3  13    1.67    0.17 
  11  -3 -12    0.62    0.11 
 -11   3  12    0.56    0.11 
  11  -3 -11    0.35    0.09 
 -11   3  11    0.57    0.11 
  11  -3 -10    0.57    0.10 
 -11   3  10    0.47    0.10 
  11  -3  -9    0.23    0.07 
 -11   3   9    0.13    0.07 
  11  -3  -8    1.26    0.14 
 -11  -3   8    1.32    0.16 
 -11   3   8    1.19    0.14 
  11  -3  -7    3.85    0.24 
 -11  -3   7    4.18    0.29 
 -11   3   7    3.68    0.24 
 -11  -3   6    0.97    0.15 
 -11   3   6    0.87    0.12 
 -11  -3   5    0.12    0.08 
 -11   3   5    0.22    0.07 
 -11  -3   4    0.06    0.06 
 -11  -3   3    2.60    0.24 
 -11  -3   2    1.84    0.20 
 -11  -3   1    0.05    0.07 
 -11  -3   1    0.16    0.07 
 -11  -3   0    0.03    0.06 
 -11  -3   0    0.08    0.05 
 -11  -3  -1    0.38    0.10 
 -11  -3  -1    0.40    0.09 
 -11  -3  -2    5.94    0.30 
 -11  -3  -2    6.19    0.29 
 -11  -3  -3    0.14    0.07 
 -11  -3  -3    0.05    0.04 
 -11  -3  -4    4.99    0.29 
 -11  -3  -5    0.36    0.08 
 -11  -3  -6    0.10    0.06 
 -11   3  -6    0.13    0.06 
 -11  -3  -7    0.16    0.06 
 -11   3  -7    0.32    0.09 
 -11  -3  -8   -0.02    0.05 
 -11   3  -8   -0.01    0.05 
 -11  -3  -9    0.08    0.06 
 -11   3  -9    0.01    0.04 
 -11  -3 -10    0.22    0.07 
 -11   3 -10    0.15    0.05 
  11  -4 -16    1.41    0.14 
 -11   4  16    1.27    0.13 
  11  -4 -15   -0.09    0.06 
 -11   4  15    0.01    0.04 
  11  -4 -14   -0.01    0.05 
 -11   4  14    0.09    0.05 
  11  -4 -13    0.34    0.09 
 -11   4  13    0.16    0.06 
  11  -4 -12    0.79    0.13 
 -11   4  12    0.97    0.12 
 -11  -4  12    0.87    0.11 
  11  -4 -11   -0.04    0.06 
 -11   4  11    0.10    0.05 
 -11  -4  11    0.07    0.05 
  11  -4 -10    1.10    0.14 
 -11   4  10    1.01    0.13 
 -11  -4  10    1.08    0.14 
 -11   4   9    2.18    0.18 
 -11  -4   9    2.51    0.21 
 -11   4   8    1.82    0.16 
 -11  -4   8    1.59    0.17 
 -11  -4   7    0.23    0.08 
  11  -4  -6    0.03    0.05 
 -11  -4   6    0.01    0.05 
  11  -4  -5    1.38    0.15 
 -11  -4   5    1.43    0.16 
 -11  -4   4    0.38    0.09 
 -11  -4   3    1.48    0.16 
 -11  -4   2    0.67    0.11 
 -11  -4   1    2.30    0.20 
 -11  -4   0    0.06    0.05 
 -11  -4  -1    1.16    0.14 
 -11  -4  -2    0.12    0.06 
 -11  -4  -3    0.09    0.05 
 -11  -4  -4    0.47    0.08 
 -11  -4  -4    0.29    0.06 
 -11  -4  -5    0.45    0.09 
 -11  -4  -6   -0.05    0.05 
 -11   4  -6    0.04    0.06 
 -11  -4  -7    1.15    0.12 
 -11   4  -7    1.01    0.13 
 -11  -4  -8    0.04    0.04 
 -11   4  -8   -0.05    0.05 
 -11   5  12    0.22    0.05 
 -11  -5  11    0.01    0.03 
  11  -5 -10    0.46    0.09 
 -11  -5  10    0.32    0.07 
  11  -5  -9    1.22    0.14 
 -11  -5   9    1.08    0.12 
  11  -5  -8    0.04    0.05 
 -11  -5   8    0.06    0.05 
  11  -5  -7    1.32    0.15 
 -11  -5   7    1.14    0.14 
  11  -5  -6    0.02    0.05 
 -11  -5   6    0.03    0.05 
  11  -5  -5    1.48    0.15 
 -11  -5   5    1.37    0.15 
  11  -5  -4    2.07    0.18 
 -11  -5   4    1.93    0.18 
 -11  -5   3    0.87    0.13 
 -11  -5   2    1.37    0.15 
 -11  -5   1    1.02    0.13 
 -11  -5   0    0.58    0.10 
 -11  -5  -1    1.48    0.14 
 -11  -5  -2    0.45    0.08 
 -11  -5  -3    0.87    0.10 
 -11  -5  -4    0.09    0.05 
  11  -6  -8    0.01    0.04 
  11  -6  -7   -0.09    0.05 
 -11  -6   7    0.05    0.04 
  11  -6  -6   -0.01    0.04 
 -11  -6   6   -0.03    0.04 
  11  -6  -5    0.01    0.04 
 -11  -6   5   -0.09    0.05 
  11  -6  -4    0.20    0.06 
 -11  -6   4    0.07    0.04 
  11  -6  -3    0.19    0.06 
 -11  -6   3    0.08    0.05 
 -11  -6   2    0.01    0.04 
 -11  -6   1    0.08    0.05 
 -11  -6   0    0.08    0.04 
 -11  -6  -1    0.04    0.03 
 -12   0  19    0.00    0.03 
 -12   0  18    1.47    0.14 
 -12   0  18    1.13    0.11 
 -12   0  17   -0.05    0.05 
 -12   0  17   -0.02    0.04 
 -12   0  16    3.67    0.24 
 -12   0  16    3.72    0.23 
 -12   0  15   -0.06    0.05 
 -12   0  15   -0.04    0.05 
 -12   0  14    0.05    0.05 
 -12   0  14    0.10    0.05 
 -12   0  13    0.04    0.05 
 -12   0  13   -0.06    0.05 
 -12   0  12    2.36    0.21 
 -12   0  12    2.42    0.20 
 -12   0  11    0.03    0.05 
 -12   0  11   -0.03    0.05 
 -12   0  11    0.00    0.06 
 -12   0  10    5.16    0.30 
 -12   0  10    5.33    0.30 
 -12   0  10    4.94    0.30 
 -12   0   9    0.05    0.06 
 -12   0   9    0.03    0.07 
 -12   0   8   12.95    0.46 
 -12   0   8   12.21    0.48 
 -12   0   7    0.03    0.06 
 -12   0   7    0.05    0.08 
 -12   0   6   28.29    0.67 
 -12   0   6   28.11    0.74 
 -12   0   5    0.05    0.06 
 -12   0   4    4.47    0.26 
 -12   0   3   -0.08    0.06 
 -12   0   2   -0.03    0.04 
 -12   0   2    0.06    0.07 
 -12   0   2    0.09    0.05 
 -12   0   1    0.05    0.06 
 -12   0   1   -0.04    0.06 
 -12   0   0    1.29    0.17 
 -12   0   0    1.24    0.16 
 -12   0  -1    0.06    0.09 
 -12   0  -1    0.04    0.05 
 -12   0  -2    1.17    0.15 
 -12   0  -2    1.20    0.16 
 -12   0  -3   -0.01    0.04 
 -12   0  -3    0.07    0.07 
 -12   0  -4    0.31    0.10 
 -12   0  -5    0.02    0.06 
 -12   0  -6    1.73    0.19 
 -12   0  -7   -0.07    0.06 
 -12   0  -8    0.02    0.06 
 -12   0  -9    0.05    0.05 
 -12   0 -10    0.72    0.11 
 -12   0 -11   -0.05    0.05 
 -12  -1  19    0.37    0.08 
  12  -1 -18    0.36    0.08 
 -12  -1  18    0.32    0.08 
 -12   1  18    0.33    0.07 
 -12   1  18    0.41    0.08 
  12  -1 -17   -0.06    0.04 
 -12  -1  17    0.04    0.05 
 -12   1  17   -0.02    0.03 
 -12   1  17    0.03    0.05 
 -12  -1  16    1.73    0.17 
 -12   1  16    1.39    0.15 
  12  -1 -16    1.67    0.15 
 -12   1  16    1.65    0.16 
 -12  -1  16    1.31    0.13 
  12  -1 -15    0.96    0.13 
 -12  -1  15    1.20    0.15 
 -12   1  15    0.85    0.12 
 -12  -1  15    1.18    0.13 
 -12   1  15    1.13    0.14 
  12  -1 -14    0.98    0.12 
 -12  -1  14    1.24    0.15 
 -12   1  14    1.05    0.13 
 -12  -1  14    0.94    0.12 
 -12   1  14    1.03    0.14 
 -12  -1  13    0.03    0.05 
 -12   1  13    0.00    0.04 
 -12  -1  13    0.18    0.07 
 -12   1  13    0.05    0.06 
 -12  -1  12    0.51    0.10 
 -12   1  12    0.59    0.10 
 -12  -1  12    0.54    0.10 
 -12   1  12    0.51    0.10 
 -12   1  11    0.90    0.12 
 -12  -1  11    0.78    0.12 
 -12  -1  11    0.92    0.13 
 -12   1  11    0.88    0.13 
 -12  -1  11    0.91    0.14 
 -12  -1  10    1.42    0.16 
 -12  -1  10    1.38    0.16 
 -12   1  10    1.43    0.16 
 -12   1  10    1.30    0.14 
 -12  -1   9    0.96    0.14 
 -12  -1   9    0.71    0.11 
 -12   1   9    0.74    0.12 
 -12  -1   8    7.45    0.35 
 -12  -1   8    7.85    0.39 
 -12   1   8    7.44    0.35 
 -12  -1   7    0.99    0.14 
 -12  -1   7    0.88    0.14 
 -12   1   7    1.11    0.14 
 -12  -1   6    0.10    0.06 
 -12  -1   6    0.09    0.07 
 -12   1   6    0.18    0.07 
 -12  -1   5    9.37    0.39 
 -12   1   5    9.80    0.39 
 -12  -1   5    8.53    0.41 
 -12  -1   4    3.69    0.24 
 -12   1   4    3.28    0.22 
 -12  -1   4    3.61    0.27 
 -12   1   3    0.01    0.05 
 -12  -1   3    0.08    0.07 
 -12   1   2    0.22    0.06 
 -12  -1   2    0.12    0.07 
 -12   1   1    0.27    0.07 
 -12  -1   1    0.25    0.09 
 -12  -1   0    6.27    0.34 
 -12  -1   0    5.68    0.31 
 -12   1   0    5.50    0.33 
 -12  -1  -1    1.25    0.16 
 -12  -1  -1    1.48    0.17 
 -12   1  -1    1.28    0.17 
 -12  -1  -2    1.47    0.17 
 -12  -1  -2    1.43    0.17 
 -12   1  -2    1.32    0.17 
 -12  -1  -3    1.20    0.15 
 -12   1  -3    0.93    0.13 
 -12  -1  -3    1.13    0.15 
 -12   1  -3    0.89    0.15 
 -12  -1  -4    0.31    0.09 
 -12   1  -4    0.17    0.08 
 -12  -1  -5    2.83    0.23 
 -12   1  -5    2.66    0.24 
 -12  -1  -6    0.61    0.11 
 -12   1  -6    0.69    0.13 
 -12  -1  -7    0.03    0.05 
 -12   1  -7    0.01    0.06 
 -12  -1  -8    0.56    0.10 
 -12   1  -8    0.58    0.11 
 -12  -1  -9   -0.02    0.05 
 -12   1  -9   -0.03    0.05 
 -12  -1 -10    0.07    0.05 
 -12   1 -10    0.09    0.05 
  12  -2 -18    0.12    0.05 
 -12   2  18   -0.04    0.04 
  12  -2 -17    0.01    0.04 
 -12   2  17    0.23    0.07 
  12  -2 -16    0.87    0.11 
 -12   2  16    0.82    0.12 
  12  -2 -15    0.17    0.06 
 -12   2  15    0.19    0.08 
  12  -2 -14    0.34    0.08 
 -12   2  14    0.43    0.09 
  12  -2 -13    0.05    0.05 
 -12  -2  13    0.22    0.06 
 -12   2  13    0.15    0.05 
  12  -2 -12    2.44    0.20 
 -12  -2  12    2.46    0.19 
 -12   2  12    2.39    0.21 
 -12  -2  11    2.31    0.19 
 -12  -2  11    2.37    0.19 
 -12   2  11    2.48    0.21 
 -12  -2  10    0.08    0.06 
 -12  -2  10    0.06    0.06 
 -12   2  10   -0.05    0.07 
 -12  -2   9    2.37    0.21 
 -12  -2   9    2.26    0.19 
 -12   2   9    2.34    0.20 
 -12  -2   8    2.16    0.21 
 -12  -2   8    2.30    0.19 
 -12   2   8    1.96    0.18 
 -12  -2   7    0.28    0.08 
 -12  -2   7    0.33    0.10 
 -12   2   7    0.16    0.07 
 -12  -2   6    3.86    0.28 
 -12   2   6    3.68    0.24 
 -12   2   5    1.34    0.14 
 -12  -2   5    1.24    0.17 
 -12  -2   4    0.42    0.11 
 -12   2   4    0.26    0.07 
 -12  -2   3    0.19    0.08 
 -12   2   3    0.10    0.04 
 -12  -2   2    0.52    0.11 
 -12  -2   1    0.88    0.14 
 -12  -2   0    0.28    0.09 
 -12  -2  -1    0.37    0.10 
 -12  -2  -1    0.24    0.08 
 -12  -2  -1    0.31    0.07 
 -12  -2  -2    0.72    0.12 
 -12  -2  -2    0.53    0.10 
 -12  -2  -3    1.32    0.15 
 -12  -2  -3    1.45    0.16 
 -12   2  -3    1.54    0.19 
 -12  -2  -4    0.46    0.10 
 -12   2  -4    0.39    0.11 
 -12  -2  -5   -0.10    0.06 
 -12   2  -5    0.04    0.06 
 -12  -2  -6    0.06    0.06 
 -12   2  -6    0.06    0.06 
 -12  -2  -7    0.08    0.06 
 -12   2  -7   -0.03    0.06 
 -12  -2  -8    0.37    0.09 
 -12   2  -8    0.21    0.08 
 -12  -2  -9    0.18    0.06 
 -12   2  -9    0.25    0.07 
 -12  -2 -10    0.58    0.09 
 -12   3  17    1.14    0.12 
  12  -3 -16    0.80    0.11 
 -12   3  16    0.75    0.10 
  12  -3 -15    0.02    0.05 
 -12   3  15    0.05    0.04 
  12  -3 -14    0.14    0.06 
 -12   3  14    0.16    0.06 
  12  -3 -13    2.34    0.19 
 -12   3  13    2.67    0.21 
  12  -3 -12    0.30    0.08 
 -12   3  12    0.41    0.09 
  12  -3 -11    0.14    0.06 
 -12   3  11    0.15    0.06 
  12  -3 -10    2.67    0.20 
 -12   3  10    2.74    0.21 
 -12   3   9   -0.04    0.04 
 -12  -3   8    0.73    0.13 
 -12   3   8    0.61    0.10 
 -12  -3   7   10.38    0.45 
 -12   3   7    9.33    0.37 
 -12  -3   6    0.35    0.11 
 -12   3   6    0.24    0.07 
 -12  -3   5    5.61    0.34 
 -12  -3   4    0.26    0.09 
 -12  -3   3    1.37    0.17 
 -12  -3   2    2.36    0.22 
 -12  -3   2    2.30    0.19 
 -12  -3   1    0.05    0.07 
 -12  -3   1   -0.02    0.06 
 -12  -3   0    8.66    0.40 
 -12  -3   0    8.49    0.35 
 -12  -3  -1    0.44    0.09 
 -12  -3  -2    1.29    0.13 
 -12  -3  -3    2.41    0.18 
 -12  -3  -4    0.04    0.04 
 -12   3  -4    0.07    0.07 
 -12  -3  -5    0.37    0.08 
 -12   3  -5    0.21    0.08 
 -12  -3  -6    0.42    0.08 
 -12   3  -6    0.32    0.09 
 -12  -3  -7    0.19    0.06 
 -12   3  -7    0.13    0.06 
 -12  -3  -8    0.38    0.07 
 -12   3  -8    0.46    0.09 
 -12   4  14    0.12    0.05 
 -12   4  13    0.98    0.11 
 -12  -4  13    0.95    0.10 
 -12   4  12    0.15    0.06 
 -12  -4  12    0.30    0.07 
 -12   4  11    0.58    0.09 
 -12  -4  11    0.61    0.09 
 -12   4  10   -0.01    0.04 
 -12  -4  10    0.03    0.04 
 -12   4   9    1.06    0.12 
 -12  -4   9    1.24    0.14 
  12  -4  -8    0.54    0.09 
 -12  -4   8    0.69    0.11 
 -12  -4   7    0.07    0.05 
 -12  -4   6    0.30    0.08 
 -12  -4   5    0.07    0.06 
 -12  -4   4    0.03    0.05 
 -12  -4   3    0.15    0.07 
 -12  -4   2    0.47    0.10 
 -12  -4   1    2.95    0.21 
 -12  -4   0    0.00    0.04 
 -12  -4  -1    0.14    0.06 
 -12  -4  -2   -0.01    0.04 
 -12  -4  -3    0.01    0.04 
 -12   4  -4    0.22    0.08 
 -12   4  -5    0.10    0.06 
 -12   4  -6   -0.07    0.05 
  12  -5 -10   -0.09    0.05 
 -12  -5  10   -0.02    0.03 
  12  -5  -9   -0.09    0.05 
 -12  -5   9    0.08    0.05 
  12  -5  -8    0.06    0.05 
 -12  -5   8    0.11    0.05 
  12  -5  -7    0.21    0.06 
 -12  -5   7    0.32    0.08 
 -12  -5   6   -0.06    0.05 
 -12  -5   5    0.83    0.11 
 -12  -5   4    0.24    0.07 
 -12  -5   3   -0.04    0.04 
 -12  -5   2    0.15    0.06 
 -12  -5   1    0.49    0.09 
 -12  -5   0    1.73    0.14 
 -12  -5  -1    0.55    0.08 
 -12  -5  -2    1.03    0.10 
 -13   0  17   -0.01    0.04 
 -13   0  17   -0.06    0.04 
 -13   0  16    0.27    0.07 
 -13   0  16    0.18    0.06 
 -13   0  15    0.06    0.05 
 -13   0  15    0.08    0.06 
 -13   0  14   -0.06    0.06 
 -13   0  13   -0.01    0.05 
 -13   0  12    3.49    0.24 
 -13   0  11    0.12    0.07 
 -13   0  11    0.09    0.06 
 -13   0  10    1.10    0.15 
 -13   0  10    1.12    0.14 
 -13   0   9   -0.01    0.05 
 -13   0   9    0.05    0.06 
 -13   0   8    0.34    0.09 
 -13   0   8    0.29    0.09 
 -13   0   7   -0.03    0.06 
 -13   0   7   -0.06    0.09 
 -13   0   6    0.15    0.06 
 -13   0   6    0.13    0.07 
 -13   0   5   -0.07    0.06 
 -13   0   5   -0.02    0.06 
 -13   0   4    0.74    0.11 
 -13   0   4    0.86    0.14 
 -13   0   3   -0.09    0.06 
 -13   0   3    0.04    0.06 
 -13   0   2   -0.01    0.06 
 -13   0   1    0.03    0.06 
 -13   0   1   -0.03    0.06 
 -13   0   0    0.89    0.14 
 -13   0   0    1.30    0.16 
 -13   0  -1   -0.01    0.05 
 -13   0  -1   -0.06    0.06 
 -13   0  -2    0.71    0.11 
 -13   0  -2    0.66    0.12 
 -13   0  -3    0.06    0.05 
 -13   0  -3   -0.09    0.07 
 -13   0  -4    0.03    0.06 
 -13   0  -5    0.00    0.05 
 -13   0  -6    0.62    0.11 
 -13   0  -7   -0.06    0.06 
 -13   0  -8    1.35    0.14 
 -13   0  -9    0.03    0.04 
 -13   1  17    0.09    0.04 
 -13   1  16    1.46    0.14 
 -13  -1  16    1.13    0.11 
 -13   1  16    1.18    0.12 
 -13  -1  15    0.17    0.05 
 -13   1  15    0.15    0.05 
 -13  -1  14    0.01    0.04 
 -13   1  14    0.02    0.05 
 -13  -1  13    1.03    0.12 
 -13   1  13    0.94    0.13 
 -13  -1  12    0.38    0.09 
 -13   1  12    0.38    0.08 
 -13  -1  11    0.80    0.12 
 -13  -1  11    0.78    0.12 
 -13   1  11    0.98    0.13 
 -13   1  11    0.90    0.13 
 -13  -1  10    1.18    0.15 
 -13  -1  10    1.29    0.15 
 -13   1  10    1.25    0.15 
 -13   1  10    1.12    0.15 
 -13  -1   9    1.76    0.18 
 -13  -1   9    1.65    0.17 
 -13   1   9    1.96    0.19 
 -13  -1   8    7.96    0.36 
 -13  -1   8    7.81    0.38 
 -13   1   8    8.03    0.36 
 -13  -1   7    0.66    0.11 
 -13  -1   7    0.69    0.13 
 -13   1   7    0.61    0.11 
 -13  -1   6    3.76    0.25 
 -13   1   6    3.58    0.24 
 -13  -1   6    3.61    0.27 
 -13  -1   5    1.08    0.14 
 -13  -1   5    1.17    0.16 
 -13   1   5    0.89    0.12 
 -13   1   4    1.97    0.17 
 -13  -1   4    2.16    0.21 
 -13   1   3    0.00    0.04 
 -13  -1   3    0.05    0.07 
 -13   1   3    0.07    0.06 
 -13  -1   2    4.50    0.30 
 -13   1   2    4.51    0.29 
 -13  -1   1    0.06    0.06 
 -13   1   1    0.03    0.06 
 -13  -1   0    7.07    0.36 
 -13  -1   0    6.82    0.33 
 -13   1   0    6.98    0.37 
 -13  -1  -1    0.03    0.06 
 -13   1  -1    0.04    0.05 
 -13  -1  -1   -0.03    0.06 
 -13   1  -1    0.04    0.06 
 -13  -1  -2    0.74    0.12 
 -13   1  -2    0.75    0.12 
 -13  -1  -2    0.90    0.13 
 -13   1  -2    0.74    0.13 
 -13  -1  -3   -0.01    0.05 
 -13   1  -3    0.11    0.06 
 -13  -1  -3    0.08    0.07 
 -13   1  -3   -0.02    0.05 
 -13  -1  -4   -0.13    0.06 
 -13   1  -4   -0.01    0.06 
 -13  -1  -5   -0.02    0.05 
 -13   1  -5    0.06    0.06 
 -13  -1  -6    1.33    0.15 
 -13   1  -6    1.14    0.15 
 -13  -1  -7    0.11    0.06 
 -13   1  -7    0.25    0.08 
 -13  -1  -8    1.34    0.14 
 -13   1  -8    1.35    0.14 
 -13   2  16    0.02    0.04 
 -13   2  15    1.15    0.13 
 -13   2  14    0.11    0.06 
 -13   2  13    0.96    0.13 
 -13  -2  12   -0.04    0.04 
 -13   2  12   -0.04    0.05 
 -13  -2  11    3.49    0.23 
 -13  -2  11    3.45    0.22 
 -13   2  11    3.47    0.24 
 -13  -2  10    0.24    0.08 
 -13   2  10    0.27    0.08 
 -13  -2   9    3.61    0.26 
 -13   2   9    3.76    0.25 
 -13  -2   8    2.88    0.23 
 -13   2   8    3.13    0.23 
 -13  -2   7    2.72    0.23 
 -13   2   7    2.76    0.21 
 -13  -2   6    0.07    0.07 
 -13   2   6    0.07    0.05 
 -13  -2   5   -0.01    0.06 
 -13   2   5    0.00    0.04 
 -13  -2   4    0.53    0.12 
 -13   2   4    0.72    0.10 
 -13  -2   3    0.03    0.06 
 -13  -2   2    0.38    0.10 
 -13  -2   1    0.19    0.08 
 -13  -2   1    0.12    0.05 
 -13  -2   0    0.18    0.08 
 -13   2   0    0.25    0.09 
 -13  -2   0    0.23    0.06 
 -13  -2  -1    0.03    0.04 
 -13   2  -1    0.01    0.06 
 -13  -2  -2    0.13    0.06 
 -13  -2  -2    0.00    0.04 
 -13   2  -2    0.04    0.06 
 -13  -2  -3    0.40    0.08 
 -13  -2  -3    0.43    0.09 
 -13   2  -3    0.49    0.12 
 -13  -2  -4    0.12    0.06 
 -13   2  -4    0.10    0.06 
 -13  -2  -5    0.20    0.07 
 -13   2  -5    0.15    0.07 
 -13  -2  -6    0.41    0.08 
 -13   2  -6    0.25    0.08 
 -13  -2  -7    0.58    0.09 
 -13   2  -7    0.47    0.09 
 -13   3  15   -0.07    0.04 
  13  -3 -14    0.34    0.07 
 -13   3  14    0.34    0.08 
 -13   3  13    0.01    0.04 
 -13   3  12    0.56    0.10 
 -13   3  11    0.69    0.10 
 -13   3  10    0.82    0.11 
 -13   3   9    0.32    0.08 
 -13   3   8   -0.07    0.05 
 -13   3   7    0.25    0.07 
 -13  -3   5    0.01    0.06 
 -13  -3   4    0.03    0.06 
 -13  -3   4    0.00    0.05 
 -13  -3   3    0.13    0.08 
 -13  -3   3    0.05    0.04 
 -13  -3   2    0.29    0.08 
 -13  -3   1    0.17    0.06 
 -13  -3   0    0.24    0.07 
 -13  -3  -1    0.15    0.06 
 -13   3  -2    0.28    0.08 
 -13   3  -3    0.44    0.10 
 -13   3  -4    0.26    0.08 
 -13  -3  -5    0.08    0.04 
 -13   3  -5    0.01    0.06 
 -13   3  -6    0.07    0.06 
 -13   4  11    0.51    0.08 
 -13  -4  11    0.62    0.09 
 -13  -4  10    0.23    0.06 
 -13  -4   9    1.18    0.13 
 -13  -4   8    0.51    0.09 
 -13  -4   7    0.35    0.08 
 -13  -4   6    1.40    0.15 
 -13  -4   5   -0.03    0.04 
 -13  -4   4   -0.05    0.04 
 -13  -4   3    0.58    0.10 
 -13  -4   2    0.29    0.07 
 -13  -4   1    0.42    0.08 
 -13  -4   0    0.35    0.07 
 -13  -4  -1   -0.05    0.04 
 -13   4  -2    0.01    0.05 
 -13   4  -3   -0.06    0.06 
 -13  -5   6    0.04    0.04 
 -13  -5   5    0.90    0.10 
 -13  -5   4    0.01    0.03 
 -13  -5   3    1.25    0.12 
 -14   0  15    0.02    0.03 
 -14   0  14    4.32    0.23 
 -14   0  13    0.04    0.05 
 -14   0  12    2.27    0.18 
 -14   0  11    0.04    0.05 
 -14   0  11    0.04    0.05 
 -14   0  10    0.31    0.08 
 -14   0  10    0.50    0.10 
 -14   0   9   -0.15    0.06 
 -14   0   9   -0.03    0.06 
 -14   0   8    0.21    0.08 
 -14   0   8    0.18    0.07 
 -14   0   7   -0.01    0.05 
 -14   0   7    0.00    0.06 
 -14   0   6    1.04    0.13 
 -14   0   6    0.97    0.14 
 -14   0   5   -0.01    0.04 
 -14   0   5    0.00    0.06 
 -14   0   4    1.61    0.18 
 -14   0   3   -0.06    0.07 
 -14   0   2    0.36    0.09 
 -14   0   1    0.08    0.05 
 -14   0   0    0.05    0.06 
 -14   0   0    0.01    0.05 
 -14   0  -1    0.02    0.05 
 -14   0  -1   -0.05    0.05 
 -14   0  -2    0.60    0.10 
 -14   0  -2    0.71    0.11 
 -14   0  -3    0.02    0.05 
 -14   0  -4    2.05    0.18 
 -14   0  -5    0.08    0.05 
 -14   0  -6    0.80    0.10 
 -14   1  15    0.58    0.09 
 -14  -1  14   -0.01    0.03 
 -14   1  14    0.08    0.05 
 -14  -1  13    1.23    0.13 
 -14   1  13    1.29    0.14 
 -14  -1  12    0.40    0.08 
 -14   1  12    0.37    0.08 
 -14  -1  11    0.64    0.10 
 -14  -1  11    0.57    0.09 
 -14   1  11    0.56    0.10 
 -14   1  11    0.52    0.09 
 -14  -1  10    0.43    0.09 
 -14  -1  10    0.42    0.09 
 -14   1  10    0.55    0.10 
 -14   1  10    0.47    0.10 
 -14  -1   9    0.14    0.08 
 -14  -1   9    0.12    0.06 
 -14   1   9    0.19    0.07 
 -14   1   9    0.05    0.06 
 -14  -1   8    0.35    0.08 
 -14  -1   8    0.50    0.11 
 -14   1   8    0.41    0.09 
 -14   1   8    0.39    0.10 
 -14  -1   7    0.88    0.14 
 -14   1   7    0.76    0.11 
 -14   1   7    0.67    0.12 
 -14  -1   6    0.35    0.09 
 -14   1   6    0.38    0.08 
 -14   1   6    0.25    0.09 
 -14  -1   5    0.75    0.13 
 -14   1   5    0.69    0.11 
 -14   1   5    0.79    0.14 
 -14   1   4    0.47    0.09 
 -14  -1   4    0.65    0.12 
 -14   1   4    0.48    0.11 
 -14  -1   3    1.60    0.18 
 -14   1   3    1.43    0.18 
 -14  -1   2    0.08    0.06 
 -14   1   2    0.16    0.07 
 -14   1   2    0.11    0.06 
 -14  -1   1    0.10    0.05 
 -14   1   1    0.16    0.09 
 -14   1   1    0.03    0.05 
 -14  -1   0    0.02    0.05 
 -14   1   0    0.09    0.06 
 -14   1   0    0.02    0.06 
 -14  -1  -1    0.08    0.05 
 -14   1  -1    0.07    0.06 
 -14   1  -1    0.10    0.06 
 -14  -1  -2    0.09    0.05 
 -14   1  -2    0.27    0.07 
 -14  -1  -2    0.09    0.07 
 -14   1  -2    0.08    0.06 
 -14  -1  -3    0.13    0.05 
 -14   1  -3    0.16    0.07 
 -14  -1  -4    0.50    0.09 
 -14   1  -4    0.46    0.09 
 -14  -1  -5    0.16    0.05 
 -14   1  -5    0.15    0.06 
 -14   1  -6    0.59    0.10 
 -14   2  14    1.28    0.13 
 -14   2  13    0.50    0.09 
 -14   2  12    0.79    0.11 
 -14   2  11    0.05    0.05 
 -14   2  11    0.02    0.05 
 -14  -2  10    0.15    0.06 
 -14   2  10    0.06    0.04 
 -14   2  10    0.18    0.07 
 -14  -2   9    0.02    0.05 
 -14   2   9    0.03    0.04 
 -14  -2   8    0.27    0.08 
 -14   2   8    0.33    0.08 
 -14  -2   7    0.04    0.06 
 -14   2   7    0.04    0.05 
 -14  -2   6    0.18    0.07 
 -14   2   6    0.18    0.06 
 -14  -2   5    0.12    0.07 
 -14   2   5    0.09    0.05 
 -14  -2   4    0.93    0.13 
 -14   2   4    0.58    0.10 
 -14  -2   3    0.52    0.10 
 -14   2   3    0.46    0.10 
 -14  -2   2    0.07    0.05 
 -14   2   2    0.07    0.05 
 -14  -2   1    0.16    0.07 
 -14   2   1    0.17    0.07 
 -14  -2   1    0.14    0.05 
 -14  -2   0    0.10    0.06 
 -14   2   0   -0.09    0.05 
 -14  -2  -1    0.44    0.09 
 -14   2  -1    0.40    0.09 
 -14   2  -1    0.41    0.10 
 -14   2  -2    0.32    0.07 
 -14   2  -2    0.31    0.09 
 -14   2  -3    0.61    0.11 
 -14   2  -4    0.20    0.07 
 -14   2  -5    1.53    0.15 
 -14   3  12    0.06    0.04 
 -14   3  11    0.65    0.09 
 -14   3  10    0.20    0.05 
 -14   3   9    0.06    0.04 
 -14   3   8    2.68    0.17 
 -14  -3   7    0.53    0.10 
 -14  -3   6    0.42    0.09 
 -14  -3   5    2.71    0.19 
 -14  -3   4    0.27    0.07 
 -14  -3   3    0.91    0.11 
 -14  -3   2    0.38    0.07 
 -14   3   1    1.09    0.14 
 -14  -3   1    0.91    0.10 
 -14   3   0    0.72    0.12 
 -14   3  -1    0.61    0.11 
 -14   3  -2    0.14    0.07 
 -14   3  -3    0.18    0.07 
 -14  -4   8    0.08    0.04 
 -14  -4   7    0.01    0.03 
 -14  -4   6    0.05    0.04 
 -14  -4   5   -0.05    0.04 
 -14  -4   4    0.06    0.04 
 -14  -4   3    0.03    0.03 
 -15   0  13   -0.01    0.03 
 -15   0  12    0.41    0.07 
 -15   0  11   -0.02    0.04 
 -15   0  11    0.03    0.04 
 -15   0  10    0.22    0.06 
 -15   0  10    0.22    0.06 
 -15   0   9   -0.12    0.06 
 -15   0   9   -0.03    0.04 
 -15   0   8    0.75    0.11 
 -15   0   8    0.61    0.10 
 -15   0   7    0.01    0.06 
 -15   0   6    0.19    0.07 
 -15   0   5   -0.04    0.06 
 -15   0   4    0.17    0.07 
 -15   0   3   -0.08    0.05 
 -15   0   2    1.35    0.15 
 -15   0   1   -0.07    0.06 
 -15   0   0    0.70    0.11 
 -15   0  -1   -0.06    0.04 
 -15   0  -1   -0.13    0.05 
 -15   1  12    0.14    0.05 
 -15  -1  11    0.02    0.04 
 -15   1  11    0.07    0.05 
 -15  -1  10    1.37    0.14 
 -15   1  10    1.12    0.12 
 -15   1  10    1.23    0.13 
 -15  -1   9    0.32    0.08 
 -15   1   9    0.42    0.08 
 -15   1   9    0.27    0.07 
 -15  -1   8    2.02    0.17 
 -15   1   8    2.26    0.17 
 -15   1   8    2.10    0.18 
 -15  -1   7    0.14    0.05 
 -15   1   7    0.13    0.05 
 -15   1   7    0.04    0.06 
 -15  -1   6    0.43    0.10 
 -15   1   6    0.38    0.09 
 -15  -1   5   -0.05    0.05 
 -15   1   5    0.04    0.05 
 -15  -1   4    0.48    0.10 
 -15   1   4    0.41    0.09 
 -15  -1   3    0.18    0.07 
 -15   1   3    0.15    0.07 
 -15  -1   2    0.35    0.08 
 -15   1   2    0.29    0.08 
 -15  -1   1    0.64    0.10 
 -15   1   1    0.60    0.10 
 -15   1   1    0.47    0.09 
 -15  -1   0    0.42    0.08 
 -15   1   0    0.34    0.08 
 -15   1   0    0.44    0.08 
 -15  -1  -1    0.18    0.06 
 -15   1  -1    0.15    0.05 
 -15   1  -1    0.15    0.07 
 -15   2  10    0.29    0.06 
 -15   2  10    0.30    0.06 
 -15   2   9    0.14    0.06 
 -15   2   9    0.19    0.07 
 -15  -2   8    0.06    0.05 
 -15   2   8    0.09    0.05 
 -15   2   8    0.08    0.06 
 -15  -2   7    0.39    0.08 
 -15   2   7    0.32    0.07 
 -15   2   7    0.46    0.09 
 -15  -2   6    0.16    0.06 
 -15   2   6    0.10    0.06 
 -15  -2   5    0.39    0.08 
 -15   2   5    0.57    0.11 
 -15  -2   5    0.32    0.07 
 -15  -2   4    0.05    0.06 
 -15   2   4    0.07    0.05 
 -15  -2   4   -0.06    0.04 
 -15  -2   3    0.11    0.05 
 -15   2   3    0.18    0.07 
 -15  -2   3    0.23    0.05 
 -15  -2   2    0.06    0.05 
 -15   2   2    0.10    0.05 
 -15   2   2   -0.03    0.03 
 -15   2   1    0.34    0.08 
 -15   2   1    0.35    0.08 
 -15   2   0   -0.03    0.04 
 -15  -3   6    0.04    0.03 
 -16   0   7   -0.02    0.04 
 -16   0   6    0.06    0.05 
 -16   0   5   -0.01    0.05 
 -16   0   4    0.02    0.04 
   0   0   0    0.00    0.00 
;
_shelx_hkl_checksum              51995
loop_
_space_group_symop_operation_xyz
'x, y, z'
'-x, y+1/2, -z+1/2'
'-x, -y, -z'
'x, -y-1/2, z-1/2'
loop_
_atom_site_label
_atom_site_type_symbol
_atom_site_fract_x
_atom_site_fract_y
_atom_site_fract_z
_atom_site_U_iso_or_equiv
_atom_site_adp_type
_atom_site_occupancy
_atom_site_site_symmetry_order
_atom_site_calc_flag
_atom_site_refinement_flags_posn
_atom_site_refinement_flags_adp
_atom_site_refinement_flags_occupancy
_atom_site_disorder_assembly
_atom_site_disorder_group
Cl1 Cl 0.77992(9) -0.00785(12) -0.24097(5) 0.1087(4) Uani 1 1 d . . . . .
S1 S 0.98547(5) 0.19641(10) 0.05596(3) 0.0660(2) Uani 1 1 d . . . . .
S2 S 0.60067(6) 0.13257(13) -0.04565(4) 0.0819(3) Uani 1 1 d . . . . .
O1 O 1.15299(17) 0.4151(3) -0.09265(11) 0.0917(7) Uani 1 1 d . . . . .
H1A H 1.0924 0.3963 -0.1056 0.110 Uiso 1 1 d R U . . .
N1 N 0.79201(17) 0.1624(3) 0.00631(11) 0.0655(6) Uani 1 1 d . . . . .
N2 N 0.99397(17) 0.2849(3) -0.06410(10) 0.0612(5) Uani 1 1 d . . . . .
N3 N 1.5357(3) 0.4017(5) 0.0888(2) 0.1143(11) Uani 1 1 d . . . . .
C1 C 1.4533(3) 0.3833(5) 0.0712(2) 0.0926(10) Uani 1 1 d . . . . .
C2 C 1.3502(2) 0.3526(4) 0.05114(18) 0.0766(8) Uani 1 1 d . . . . .
C3 C 1.2982(2) 0.4036(4) -0.01161(18) 0.0808(8) Uani 1 1 d . . . . .
H3A H 1.3295 0.4610 -0.0404 0.097 Uiso 1 1 calc R U . . .
C4 C 1.1993(2) 0.3687(4) -0.03127(15) 0.0704(7) Uani 1 1 d . . . . .
C5 C 1.1519(2) 0.2889(3) 0.01393(14) 0.0626(7) Uani 1 1 d . . . . .
C6 C 1.2072(2) 0.2393(4) 0.07642(15) 0.0716(7) Uani 1 1 d . . . . .
H6A H 1.1766 0.1842 0.1062 0.086 Uiso 1 1 calc R U . . .
C7 C 1.3048(2) 0.2692(4) 0.09510(17) 0.0781(8) Uani 1 1 d . . . . .
H7A H 1.3403 0.2340 0.1368 0.094 Uiso 1 1 calc R U . . .
C8 C 1.0478(2) 0.2611(3) -0.00417(13) 0.0604(6) Uani 1 1 d . . . . .
C9 C 0.8780(2) 0.2017(4) -0.00518(13) 0.0614(6) Uani 1 1 d . . . . .
C10 C 0.8972(2) 0.2512(3) -0.06703(12) 0.0598(6) Uani 1 1 d . . . . .
C11 C 0.8209(2) 0.2579(4) -0.12358(12) 0.0609(6) Uani 1 1 d . . . . .
C12 C 0.7285(2) 0.2173(4) -0.11335(13) 0.0651(7) Uani 1 1 d . . . . .
C13 C 0.7202(2) 0.1736(4) -0.04808(14) 0.0661(7) Uani 1 1 d . . . . .
C14 C 0.6359(2) 0.2139(5) -0.15896(15) 0.0768(8) Uani 1 1 d . . . . .
H14A H 0.6274 0.2386 -0.2040 0.092 Uiso 1 1 calc R U . . .
C15 C 0.5617(2) 0.1718(5) -0.13111(16) 0.0851(9) Uani 1 1 d . . . . .
C16 C 0.4545(4) 0.1770(10) -0.1633(3) 0.0855(15) Uani 0.717(6) 1 d . . P A 1
H16A H 0.4430 0.3037 -0.1685 0.103 Uiso 0.717(6) 1 calc R U P A 1
C17 C 0.3902(4) 0.1296(12) -0.1214(4) 0.127(2) Uani 0.717(6) 1 d . U P A 1
H17A H 0.4111 0.1863 -0.0790 0.191 Uiso 0.717(6) 1 calc R U P A 1
H17B H 0.3914 0.0045 -0.1153 0.191 Uiso 0.717(6) 1 calc R U P A 1
H17C H 0.3254 0.1664 -0.1421 0.191 Uiso 0.717(6) 1 calc R U P A 1
C18 C 0.4316(9) 0.1177(17) -0.2331(6) 0.152(4) Uani 0.717(6) 1 d . U P A 1
H18A H 0.4783 0.1652 -0.2553 0.227 Uiso 0.717(6) 1 calc R U P A 1
H18B H 0.3678 0.1577 -0.2550 0.227 Uiso 0.717(6) 1 calc R U P A 1
H18C H 0.4335 -0.0083 -0.2344 0.227 Uiso 0.717(6) 1 calc R U P A 1
C16' C 0.4583(12) 0.077(3) -0.1625(9) 0.0855(15) Uani 0.283(6) 1 d . . P A 2
H16B H 0.4866 -0.0135 -0.1860 0.103 Uiso 0.283(6) 1 calc R U P A 2
C17' C 0.4126(12) -0.009(3) -0.1465(9) 0.127(2) Uani 0.283(6) 1 d . U P A 2
H17D H 0.3467 0.0288 -0.1626 0.191 Uiso 0.283(6) 1 calc R U P A 2
H17E H 0.4281 -0.0114 -0.0987 0.191 Uiso 0.283(6) 1 calc R U P A 2
H17F H 0.4204 -0.1244 -0.1632 0.191 Uiso 0.283(6) 1 calc R U P A 2
C18' C 0.431(3) 0.210(5) -0.2276(18) 0.152(4) Uani 0.283(6) 1 d . U P A 2
H18D H 0.4701 0.1826 -0.2581 0.227 Uiso 0.283(6) 1 calc R U P A 2
H18E H 0.4421 0.3299 -0.2130 0.227 Uiso 0.283(6) 1 calc R U P A 2
H18F H 0.3633 0.1962 -0.2495 0.227 Uiso 0.283(6) 1 calc R U P A 2
C19 C 0.8378(2) 0.3132(4) -0.18925(13) 0.0637(7) Uani 1 1 d . . . . .
C20 C 0.8754(2) 0.4809(4) -0.19561(15) 0.0780(8) Uani 1 1 d . . . . .
H20A H 0.8915 0.5538 -0.1585 0.094 Uiso 1 1 calc R U . . .
C21 C 0.8890(3) 0.5399(5) -0.25607(18) 0.0888(10) Uani 1 1 d . . . . .
H21A H 0.9144 0.6514 -0.2593 0.107 Uiso 1 1 calc R U . . .
C22 C 0.8653(3) 0.4346(5) -0.31116(17) 0.0903(10) Uani 1 1 d . . . . .
H22A H 0.8723 0.4766 -0.3520 0.108 Uiso 1 1 calc R U . . .
C23 C 0.8312(3) 0.2678(5) -0.30647(16) 0.0902(10) Uani 1 1 d . . . . .
H23A H 0.8165 0.1954 -0.3438 0.108 Uiso 1 1 calc R U . . .
C24 C 0.8187(2) 0.2076(4) -0.24553(14) 0.0732(8) Uani 1 1 d . . . . .
loop_
_atom_site_aniso_label
_atom_site_aniso_U_11
_atom_site_aniso_U_22
_atom_site_aniso_U_33
_atom_site_aniso_U_23
_atom_site_aniso_U_13
_atom_site_aniso_U_12
Cl1 0.1715(10) 0.0787(5) 0.0829(6) -0.0180(4) 0.0439(6) -0.0158(6)
S1 0.0735(5) 0.0766(5) 0.0484(4) 0.0004(3) 0.0148(3) -0.0056(3)
S2 0.0715(5) 0.1095(6) 0.0679(5) -0.0037(4) 0.0225(4) -0.0020(4)
O1 0.0871(15) 0.1140(18) 0.0762(14) 0.0286(13) 0.0233(11) -0.0031(13)
N1 0.0707(15) 0.0742(14) 0.0539(12) -0.0038(11) 0.0191(11) -0.0034(11)
N2 0.0723(14) 0.0613(13) 0.0512(12) 0.0015(10) 0.0168(10) -0.0008(11)
N3 0.077(2) 0.135(3) 0.132(3) -0.001(2) 0.0264(19) -0.010(2)
C1 0.079(2) 0.097(2) 0.105(3) -0.002(2) 0.027(2) -0.0006(19)
C2 0.0682(18) 0.0719(18) 0.092(2) -0.0077(16) 0.0227(16) -0.0006(15)
C3 0.079(2) 0.079(2) 0.090(2) 0.0072(17) 0.0329(17) -0.0027(16)
C4 0.0776(19) 0.0658(16) 0.0703(17) 0.0044(14) 0.0223(14) 0.0017(14)
C5 0.0709(17) 0.0561(15) 0.0634(15) -0.0028(12) 0.0209(13) -0.0016(12)
C6 0.0746(18) 0.0766(18) 0.0643(16) 0.0013(14) 0.0175(14) -0.0008(15)
C7 0.0737(19) 0.086(2) 0.0732(18) -0.0017(16) 0.0151(15) 0.0038(16)
C8 0.0723(17) 0.0551(14) 0.0546(14) -0.0025(11) 0.0167(12) 0.0000(12)
C9 0.0749(17) 0.0619(15) 0.0487(13) -0.0023(11) 0.0172(12) 0.0002(13)
C10 0.0722(17) 0.0575(14) 0.0510(14) -0.0024(11) 0.0170(12) -0.0013(12)
C11 0.0740(17) 0.0601(14) 0.0492(13) -0.0033(11) 0.0157(12) 0.0030(13)
C12 0.0738(17) 0.0690(16) 0.0533(14) -0.0045(12) 0.0163(13) 0.0051(14)
C13 0.0733(17) 0.0704(17) 0.0567(15) -0.0058(13) 0.0193(13) 0.0015(14)
C14 0.0786(19) 0.093(2) 0.0574(16) -0.0039(15) 0.0126(14) 0.0071(16)
C15 0.0716(19) 0.113(3) 0.0694(18) -0.0074(18) 0.0140(15) 0.0041(18)
C16 0.071(2) 0.092(4) 0.090(3) 0.001(4) 0.010(2) 0.001(3)
C17 0.077(3) 0.191(7) 0.114(4) -0.017(4) 0.022(3) -0.013(4)
C18 0.099(3) 0.242(12) 0.103(4) -0.055(7) 0.001(3) -0.016(8)
C16' 0.071(2) 0.092(4) 0.090(3) 0.001(4) 0.010(2) 0.001(3)
C17' 0.077(3) 0.191(7) 0.114(4) -0.017(4) 0.022(3) -0.013(4)
C18' 0.099(3) 0.242(12) 0.103(4) -0.055(7) 0.001(3) -0.016(8)
C19 0.0722(17) 0.0678(16) 0.0514(14) 0.0002(12) 0.0150(12) 0.0082(13)
C20 0.099(2) 0.0765(19) 0.0618(16) 0.0011(15) 0.0253(15) 0.0006(17)
C21 0.117(3) 0.075(2) 0.085(2) 0.0080(17) 0.045(2) 0.0028(19)
C22 0.124(3) 0.091(2) 0.0678(19) 0.0082(18) 0.0448(19) 0.019(2)
C23 0.127(3) 0.093(2) 0.0559(17) -0.0068(16) 0.0326(18) 0.018(2)
C24 0.097(2) 0.0692(18) 0.0561(16) -0.0036(13) 0.0230(15) 0.0086(15)
loop_
_atom_type_symbol
_atom_type_description
_atom_type_scat_dispersion_real
_atom_type_scat_dispersion_imag
_atom_type_scat_source
C C 0.0181 0.0091 'International Tables Vol C Tables 4.2.6.8 and 6.1.1.4'
H H 0.0000 0.0000 'International Tables Vol C Tables 4.2.6.8 and 6.1.1.4'
N N 0.0311 0.0180 'International Tables Vol C Tables 4.2.6.8 and 6.1.1.4'
O O 0.0492 0.0322 'International Tables Vol C Tables 4.2.6.8 and 6.1.1.4'
S S 0.3331 0.5567 'International Tables Vol C Tables 4.2.6.8 and 6.1.1.4'
Cl Cl 0.3639 0.7018 'International Tables Vol C Tables 4.2.6.8 and 6.1.1.4'
loop_
_geom_angle_atom_site_label_1
_geom_angle_atom_site_label_2
_geom_angle_atom_site_label_3
_geom_angle
C9 S1 C8 88.80(13)
C13 S2 C15 91.16(15)
C4 O1 H1A 119.5
C9 N1 C13 112.7(2)
C8 N2 C10 111.7(2)
N3 C1 C2 177.2(5)
C7 C2 C3 121.0(3)
C7 C2 C1 118.7(3)
C3 C2 C1 120.3(3)
C2 C3 C4 119.9(3)
C2 C3 H3A 120.1
C4 C3 H3A 120.1
O1 C4 C3 117.8(3)
O1 C4 C5 122.7(3)
C3 C4 C5 119.5(3)
C6 C5 C4 118.6(3)
C6 C5 C8 121.1(3)
C4 C5 C8 120.4(3)
C7 C6 C5 121.9(3)
C7 C6 H6A 119.0
C5 C6 H6A 119.0
C6 C7 C2 119.1(3)
C6 C7 H7A 120.5
C2 C7 H7A 120.5
N2 C8 C5 123.9(2)
N2 C8 S1 115.5(2)
C5 C8 S1 120.5(2)
N1 C9 C10 126.7(3)
N1 C9 S1 123.3(2)
C10 C9 S1 110.0(2)
N2 C10 C11 126.6(2)
N2 C10 C9 114.0(2)
C11 C10 C9 119.4(3)
C10 C11 C12 115.6(2)
C10 C11 C19 121.0(2)
C12 C11 C19 123.3(2)
C11 C12 C13 118.6(3)
C11 C12 C14 130.4(3)
C13 C12 C14 110.9(3)
N1 C13 C12 126.9(3)
N1 C13 S2 121.5(2)
C12 C13 S2 111.5(2)
C15 C14 C12 114.2(3)
C15 C14 H14A 122.9
C12 C14 H14A 122.9
C14 C15 C16 127.5(4)
C14 C15 C16' 130.9(7)
C14 C15 S2 112.2(3)
C16 C15 S2 119.8(3)
C16' C15 S2 111.7(7)
C17 C16 C18 119.0(7)
C17 C16 C15 116.2(5)
C18 C16 C15 113.1(6)
C17 C16 H16A 101.5
C18 C16 H16A 101.5
C15 C16 H16A 101.5
C16 C17 H17A 109.5
C16 C17 H17B 109.5
H17A C17 H17B 109.5
C16 C17 H17C 109.5
H17A C17 H17C 109.5
H17B C17 H17C 109.5
C16 C18 H18A 109.5
C16 C18 H18B 109.5
H18A C18 H18B 109.5
C16 C18 H18C 109.5
H18A C18 H18C 109.5
H18B C18 H18C 109.5
C17' C16' C15 137.0(18)
C17' C16' C18' 127(2)
C15 C16' C18' 94.1(16)
C17' C16' H16B 94.3
C15 C16' H16B 94.3
C18' C16' H16B 94.3
C16' C17' H17D 109.5
C16' C17' H17E 109.5
H17D C17' H17E 109.5
C16' C17' H17F 109.5
H17D C17' H17F 109.5
H17E C17' H17F 109.5
C16' C18' H18D 109.5
C16' C18' H18E 109.5
H18D C18' H18E 109.5
C16' C18' H18F 109.5
H18D C18' H18F 109.5
H18E C18' H18F 109.5
C24 C19 C20 116.9(3)
C24 C19 C11 123.9(3)
C20 C19 C11 119.2(2)
C21 C20 C19 121.1(3)
C21 C20 H20A 119.4
C19 C20 H20A 119.4
C22 C21 C20 120.1(3)
C22 C21 H21A 119.9
C20 C21 H21A 119.9
C21 C22 C23 120.4(3)
C21 C22 H22A 119.8
C23 C22 H22A 119.8
C22 C23 C24 119.4(3)
C22 C23 H23A 120.3
C24 C23 H23A 120.3
C19 C24 C23 121.9(3)
C19 C24 Cl1 120.2(2)
C23 C24 Cl1 117.9(2)
loop_
_geom_bond_atom_site_label_1
_geom_bond_atom_site_label_2
_geom_bond_distance
Cl1 C24 1.739(3)
S1 C9 1.737(3)
S1 C8 1.754(3)
S2 C13 1.734(3)
S2 C15 1.748(3)
O1 C4 1.333(4)
O1 H1A 0.8499
N1 C9 1.328(4)
N1 C13 1.331(4)
N2 C8 1.307(3)
N2 C10 1.382(4)
N3 C1 1.147(5)
C1 C2 1.442(5)
C2 C7 1.383(5)
C2 C3 1.389(5)
C3 C4 1.390(5)
C3 H3A 0.9300
C4 C5 1.409(4)
C5 C6 1.397(4)
C5 C8 1.450(4)
C6 C7 1.365(4)
C6 H6A 0.9300
C7 H7A 0.9300
C9 C10 1.418(4)
C10 C11 1.395(4)
C11 C12 1.409(4)
C11 C19 1.492(4)
C12 C13 1.420(4)
C12 C14 1.425(4)
C14 C15 1.349(5)
C14 H14A 0.9300
C15 C16 1.509(6)
C15 C16' 1.627(18)
C16 C17 1.440(9)
C16 C18 1.473(12)
C16 H16A 0.9800
C17 H17A 0.9600
C17 H17B 0.9600
C17 H17C 0.9600
C18 H18A 0.9600
C18 H18B 0.9600
C18 H18C 0.9600
C16' C17' 1.03(2)
C16' C18' 1.66(5)
C16' H16B 0.9800
C17' H17D 0.9600
C17' H17E 0.9600
C17' H17F 0.9600
C18' H18D 0.9600
C18' H18E 0.9600
C18' H18F 0.9600
C19 C24 1.387(4)
C19 C20 1.401(4)
C20 C21 1.383(4)
C20 H20A 0.9300
C21 C22 1.368(5)
C21 H21A 0.9300
C22 C23 1.370(5)
C22 H22A 0.9300
C23 C24 1.389(4)
C23 H23A 0.9300
loop_
_geom_hbond_atom_site_label_D
_geom_hbond_atom_site_label_H
_geom_hbond_atom_site_label_A
_geom_hbond_distance_DH
_geom_hbond_distance_HA
_geom_hbond_distance_DA
_geom_hbond_angle_DHA
_geom_hbond_site_symmetry_A
O1 H1A N2 0.85 1.99 2.650(3) 134.0 .
C3 H3A N3 0.93 2.57 3.468(5) 161.2 3_865
C23 H23A O1 0.93 2.59 3.438(4) 151.0 2_744
loop_
_geom_torsion_atom_site_label_1
_geom_torsion_atom_site_label_2
_geom_torsion_atom_site_label_3
_geom_torsion_atom_site_label_4
_geom_torsion
C7 C2 C3 C4 -0.9(5)
C1 C2 C3 C4 178.1(3)
C2 C3 C4 O1 -178.0(3)
C2 C3 C4 C5 2.9(5)
O1 C4 C5 C6 177.8(3)
C3 C4 C5 C6 -3.1(4)
O1 C4 C5 C8 -2.8(4)
C3 C4 C5 C8 176.3(3)
C4 C5 C6 C7 1.4(4)
C8 C5 C6 C7 -178.0(3)
C5 C6 C7 C2 0.6(5)
C3 C2 C7 C6 -0.9(5)
C1 C2 C7 C6 -179.9(3)
C10 N2 C8 C5 -179.1(2)
C10 N2 C8 S1 -0.6(3)
C6 C5 C8 N2 -171.4(3)
C4 C5 C8 N2 9.2(4)
C6 C5 C8 S1 10.1(4)
C4 C5 C8 S1 -169.3(2)
C9 S1 C8 N2 0.1(2)
C9 S1 C8 C5 178.7(2)
C13 N1 C9 C10 0.0(4)
C13 N1 C9 S1 -179.3(2)
C8 S1 C9 N1 179.7(2)
C8 S1 C9 C10 0.4(2)
C8 N2 C10 C11 -177.6(3)
C8 N2 C10 C9 0.9(3)
N1 C9 C10 N2 179.9(2)
S1 C9 C10 N2 -0.8(3)
N1 C9 C10 C11 -1.5(4)
S1 C9 C10 C11 177.9(2)
N2 C10 C11 C12 179.8(2)
C9 C10 C11 C12 1.4(4)
N2 C10 C11 C19 -3.0(4)
C9 C10 C11 C19 178.6(2)
C10 C11 C12 C13 -0.1(4)
C19 C11 C12 C13 -177.2(3)
C10 C11 C12 C14 178.9(3)
C19 C11 C12 C14 1.8(5)
C9 N1 C13 C12 1.6(4)
C9 N1 C13 S2 -178.8(2)
C11 C12 C13 N1 -1.6(5)
C14 C12 C13 N1 179.2(3)
C11 C12 C13 S2 178.8(2)
C14 C12 C13 S2 -0.4(3)
C15 S2 C13 N1 -179.3(3)
C15 S2 C13 C12 0.4(2)
C11 C12 C14 C15 -178.8(3)
C13 C12 C14 C15 0.3(4)
C12 C14 C15 C16 172.3(5)
C12 C14 C15 C16' -151.7(9)
C12 C14 C15 S2 0.0(4)
C13 S2 C15 C14 -0.2(3)
C13 S2 C15 C16 -173.2(4)
C13 S2 C15 C16' 157.1(7)
C14 C15 C16 C17 -178.3(5)
S2 C15 C16 C17 -6.5(8)
C14 C15 C16 C18 38.8(10)
S2 C15 C16 C18 -149.4(8)
C14 C15 C16' C17' 145(3)
S2 C15 C16' C17' -7(3)
C14 C15 C16' C18' -50.7(18)
S2 C15 C16' C18' 157.5(14)
C10 C11 C19 C24 119.9(3)
C12 C11 C19 C24 -63.1(4)
C10 C11 C19 C20 -59.8(4)
C12 C11 C19 C20 117.2(3)
C24 C19 C20 C21 2.5(5)
C11 C19 C20 C21 -177.8(3)
C19 C20 C21 C22 0.4(5)
C20 C21 C22 C23 -2.4(6)
C21 C22 C23 C24 1.5(6)
C20 C19 C24 C23 -3.4(5)
C11 C19 C24 C23 176.9(3)
C20 C19 C24 Cl1 175.5(2)
C11 C19 C24 Cl1 -4.2(4)
C22 C23 C24 C19 1.5(5)
C22 C23 C24 Cl1 -177.5(3)
