#------------------------------------------------------------------------------
#$Date: 2016-03-04 13:43:52 +0200 (Fri, 04 Mar 2016) $
#$Revision: 177484 $
#$URL: svn://www.crystallography.net/cod/cif/1/54/25/1542506.cif $
#------------------------------------------------------------------------------
#
# This file is available in the Crystallography Open Database (COD),
# http://www.crystallography.net/
#
# All data on this site have been placed in the public domain by the
# contributors.
#
data_1542506
loop_
_publ_author_name
'Ravi, A. J.'
'Kumar, K. Mahesh'
'Devarajegowda, H. C.'
_publ_section_title
;
 (7,8-Dimethyl-2-oxo-2<i>H</i>-chromen-4-yl)methyl
 piperidine-1-carbodithioate
;
_journal_coeditor_code           HB4015
_journal_issue                   2
_journal_name_full               IUCrData
_journal_page_first              x160171
_journal_paper_doi               10.1107/S2414314616001711
_journal_volume                  1
_journal_year                    2016
_chemical_formula_iupac          'C18 H21 N O2 S2'
_chemical_formula_moiety         'C18 H21 N O2 S2'
_chemical_formula_sum            'C18 H21 N O2 S2'
_chemical_formula_weight         347.48
_chemical_melting_point          439
_chemical_name_systematic
;
(7,8-Dimethyl-2-oxo-2<i>H</i>-chromen-4-yl)methyl
piperidine-1-carbodithioate
;
_space_group_crystal_system      monoclinic
_space_group_IT_number           14
_space_group_name_Hall           '-P 2ybc'
_space_group_name_H-M_alt        'P 1 21/c 1'
_symmetry_space_group_name_Hall  '-P 2ybc'
_symmetry_space_group_name_H-M   'P 1 21/c 1'
_atom_sites_solution_hydrogens   geom
_audit_creation_method           SHELXL-2014/7
_cell_angle_alpha                90
_cell_angle_beta                 99.486(2)
_cell_angle_gamma                90
_cell_formula_units_Z            4
_cell_length_a                   11.6767(3)
_cell_length_b                   16.2058(3)
_cell_length_c                   9.1417(2)
_cell_measurement_reflns_used    5070
_cell_measurement_temperature    296(2)
_cell_measurement_theta_max      30.335
_cell_measurement_theta_min      1.768
_cell_volume                     1706.23(7)
_computing_cell_refinement
;
SAINT (Bruker, 2009)
;
_computing_data_collection
;
SMART (Bruker, 2009)
;
_computing_data_reduction
;
SAINT (Bruker, 2009)
;
_computing_molecular_graphics
;
ORTEP-3 for Windows (Farrugia, 2012)
;
_computing_publication_material
;
SHELXL2014 (Sheldrick, 2015)
;
_computing_structure_refinement
;
SHELXL2014 (Sheldrick, 2015)
;
_computing_structure_solution
;
SHELXS97 (Sheldrick, 2008)
;
_diffrn_ambient_temperature      296(2)
_diffrn_measured_fraction_theta_full 1.000
_diffrn_measured_fraction_theta_max 0.988
_diffrn_measurement_device_type  'Bruker SMART CCD area-detector'
_diffrn_measurement_method       '\w and \f scans'
_diffrn_radiation_monochromator  graphite
_diffrn_radiation_source         'fine-focus sealed tube'
_diffrn_radiation_type           MoK\a
_diffrn_radiation_wavelength     0.71073
_diffrn_reflns_av_R_equivalents  0.0364
_diffrn_reflns_limit_h_max       16
_diffrn_reflns_limit_h_min       -14
_diffrn_reflns_limit_k_max       22
_diffrn_reflns_limit_k_min       -22
_diffrn_reflns_limit_l_max       12
_diffrn_reflns_limit_l_min       -11
_diffrn_reflns_number            19606
_diffrn_reflns_theta_full        25.242
_diffrn_reflns_theta_max         30.335
_diffrn_reflns_theta_min         1.768
_exptl_absorpt_coefficient_mu    0.321
_exptl_absorpt_correction_T_max  1.0000
_exptl_absorpt_correction_T_min  0.7700
_exptl_absorpt_correction_type   multi-scan
_exptl_absorpt_process_details
;
(SADABS; Bruker, 2009)
;
_exptl_crystal_colour            colourless
_exptl_crystal_density_diffrn    1.353
_exptl_crystal_description       Plate
_exptl_crystal_F_000             736
_exptl_crystal_size_max          0.24
_exptl_crystal_size_mid          0.20
_exptl_crystal_size_min          0.12
_refine_diff_density_max         0.291
_refine_diff_density_min         -0.175
_refine_ls_extinction_method     none
_refine_ls_goodness_of_fit_ref   1.057
_refine_ls_hydrogen_treatment    constr
_refine_ls_matrix_type           full
_refine_ls_number_parameters     208
_refine_ls_number_reflns         5070
_refine_ls_number_restraints     0
_refine_ls_restrained_S_all      1.057
_refine_ls_R_factor_all          0.0862
_refine_ls_R_factor_gt           0.0487
_refine_ls_shift/su_max          0.001
_refine_ls_shift/su_mean         0.000
_refine_ls_structure_factor_coef Fsqd
_refine_ls_weighting_details
'w=1/[\s^2^(Fo^2^)+(0.0649P)^2^+0.1225P] where P=(Fo^2^+2Fc^2^)/3'
_refine_ls_weighting_scheme      calc
_refine_ls_wR_factor_gt          0.1233
_refine_ls_wR_factor_ref         0.1404
_reflns_number_gt                3111
_reflns_number_total             5070
_reflns_threshold_expression     'I > 2\s(I)'
_cod_data_source_file            hb4015sup1.cif
_cod_data_source_block           I
_cod_depositor_comments          'Adding full bibliography for 1542506.cif.'
_cod_database_code               1542506
_cod_database_fobs_code          1542506
_shelx_space_group_comment
;
The symmetry employed for this shelxl refinement is uniquely defined
by the following loop, which should always be used as a source of
symmetry information in preference to the above space-group names.
They are only intended as comments.
;
_shelx_hkl_file
;
   0   0  -1    0.02    0.01
   0   0   1    0.01    0.01
   0   0   2    0.10    0.02
   0   0  -2    0.08    0.02
   0   0   3    0.01    0.02
   0   0  -3    0.00    0.01
   0   0   4   11.14    0.34
   0   0   4   11.60    0.34
   0   0  -4   11.39    0.33
   0   0  -4   11.03    0.30
   0   0   4   11.52    0.31
   0   0  -5   -0.01    0.02
   0   0   5    0.00    0.03
   0   0   5   -0.01    0.02
   0   0   5    0.01    0.03
   0   0  -5   -0.01    0.02
   0   0  -5   -0.01    0.02
   0   0   6    2.32    0.15
   0   0  -6    2.58    0.13
   0   0  -6    2.53    0.14
   0   0   6    2.46    0.15
   0   0  -6    2.70    0.13
   0   0   6    2.46    0.12
   0   0   7    0.17    0.06
   0   0  -7    0.05    0.04
   0   0   7    0.01    0.04
   0   0   8    1.13    0.13
   0   0   8    1.30    0.15
   0   0   9    0.01    0.06
   0   0  10    0.02    0.08
   0   1   0   -0.04    0.00
   0  -1   0   -0.05    0.00
   0   1   1   49.46    1.22
   0   1   1   52.91    1.18
   0  -1   1   52.25    1.17
   0  -1  -1   51.68    1.18
   0   1   2   13.09    0.36
   0   1  -2   13.36    0.33
   0  -1   2   12.97    0.33
   0  -1   2   13.45    0.35
   0  -1  -2   13.80    0.35
   0   1   3    2.67    0.12
   0   1  -3    2.99    0.11
   0   1  -3    2.80    0.11
   0   1   3    2.69    0.12
   0  -1  -3    2.68    0.12
   0  -1   3    2.81    0.11
   0  -1   3    2.79    0.11
   0   1  -4    1.87    0.09
   0   1  -4    1.71    0.09
   0   1   4    2.05    0.11
   0   1   4    1.92    0.11
   0  -1  -4    1.94    0.11
   0  -1   4    1.99    0.10
   0  -1   4    1.83    0.10
   0  -1   4    1.96    0.11
   0   1   5    4.26    0.19
   0   1   5    4.24    0.15
   0   1   5    4.02    0.19
   0   1  -5    4.12    0.16
   0   1  -5    4.47    0.17
   0   1  -5    4.41    0.18
   0  -1   5    4.55    0.19
   0  -1  -5    4.53    0.15
   0  -1   5    4.89    0.19
   0  -1   5    4.47    0.17
   0  -1  -5    4.05    0.18
   0   1  -6    4.96    0.20
   0   1  -6    4.66    0.20
   0   1   6    4.82    0.22
   0   1  -6    4.82    0.19
   0   1   6    4.55    0.21
   0  -1   6    4.80    0.19
   0  -1  -6    4.79    0.18
   0  -1   6    4.66    0.21
   0  -1   6    4.70    0.21
   0  -1  -6    4.55    0.17
   0  -1  -6    4.60    0.21
   0   1   7    3.11    0.18
   0   1  -7    3.04    0.16
   0   1  -7    2.71    0.15
   0   1   7    2.61    0.17
   0  -1   7    2.79    0.17
   0  -1   7    2.96    0.17
   0  -1  -7    2.93    0.17
   0   1   8    0.88    0.12
   0   1   8    1.12    0.14
   0  -1   8    0.90    0.12
   0  -1   8    1.06    0.13
   0   1   9    0.06    0.07
   0   1   9    0.04    0.06
   0  -1   9    0.13    0.08
   0   1  10    0.02    0.09
   0   1  11   -0.14    0.07
   0   2   0   31.30    0.72
   0  -2   0   31.36    0.73
   0   2   1   11.70    0.31
   0   2  -1   11.26    0.28
   0  -2   1   11.40    0.27
   0  -2  -1   11.63    0.29
   0   2   2    1.36    0.08
   0   2  -2    1.61    0.07
   0  -2   2    1.50    0.06
   0  -2  -2    1.75    0.08
   0  -2   2    1.46    0.06
   0  -2   2    1.60    0.07
   0   2   3    0.37    0.05
   0   2  -3    0.33    0.04
   0   2  -3    0.32    0.04
   0   2   3    0.35    0.05
   0  -2   3    0.38    0.05
   0  -2   3    0.33    0.04
   0  -2  -3    0.25    0.04
   0   2   4    0.44    0.06
   0   2  -4    0.42    0.06
   0   2   4    0.44    0.06
   0   2  -4    0.52    0.06
   0   2  -4    0.40    0.05
   0  -2   4    0.48    0.06
   0  -2   4    0.50    0.06
   0  -2   4    0.41    0.05
   0  -2  -4    0.32    0.05
   0   2   5    9.17    0.31
   0   2  -5    8.46    0.28
   0   2   5    8.72    0.31
   0   2  -5    8.48    0.28
   0   2  -5    8.90    0.28
   0   2   5    8.73    0.24
   0  -2   5    8.42    0.28
   0  -2  -5    8.58    0.24
   0  -2   5    8.59    0.28
   0  -2  -5    8.94    0.30
   0  -2   5    8.58    0.28
   0   2  -6    3.00    0.15
   0   2  -6    2.77    0.15
   0   2   6    3.10    0.18
   0   2   6    3.42    0.18
   0  -2  -6    3.05    0.17
   0  -2   6    3.18    0.16
   0  -2   6    2.92    0.15
   0  -2   6    3.27    0.15
   0   2  -7    7.36    0.28
   0   2  -7    7.65    0.27
   0   2   7    7.14    0.31
   0   2   7    7.21    0.31
   0  -2   7    7.51    0.27
   0  -2   7    7.59    0.29
   0  -2   7    7.84    0.29
   0  -2  -7    7.33    0.30
   0   2   8    0.10    0.07
   0   2   8    0.14    0.07
   0  -2  -8    0.11    0.06
   0  -2   8    0.11    0.06
   0   2   9   -0.03    0.06
   0   2   9    0.02    0.05
   0   2  10    0.05    0.09
   0   2  11   -0.04    0.08
   0   2  12    0.02    0.11
   0  -3   0   -0.05    0.01
   0   3   1    6.21    0.19
   0  -3  -1    6.35    0.19
   0  -3   1    6.27    0.17
   0   3   2   17.78    0.48
   0   3  -2   17.38    0.45
   0  -3   2   17.81    0.45
   0  -3  -2   18.49    0.47
   0  -3   2   17.41    0.43
   0   3   3    0.09    0.03
   0   3   3    0.12    0.04
   0   3  -3    0.14    0.04
   0   3  -3    0.11    0.03
   0  -3   3    0.10    0.03
   0  -3  -3    0.13    0.03
   0  -3   3    0.07    0.02
   0  -3   3    0.07    0.02
   0   3   4    0.96    0.10
   0   3  -4    0.88    0.09
   0   3  -4    0.90    0.08
   0   3   4    1.02    0.10
   0  -3   4    0.87    0.06
   0  -3  -4    0.94    0.09
   0  -3   4    0.97    0.09
   0  -3   4    0.85    0.06
   0   3   5    8.24    0.31
   0   3   5    8.32    0.31
   0   3  -5    8.66    0.28
   0   3  -5    7.95    0.28
   0  -3   5    8.19    0.28
   0  -3   5    8.42    0.27
   0  -3  -5    8.56    0.30
   0  -3   5    8.48    0.27
   0   3  -6    1.42    0.12
   0   3  -6    1.54    0.12
   0   3   6    1.44    0.12
   0   3   6    1.55    0.15
   0  -3   6    1.59    0.11
   0  -3  -6    1.33    0.13
   0  -3   6    1.40    0.10
   0  -3   6    1.54    0.11
   0   3   7    1.07    0.13
   0   3   7    1.03    0.13
   0   3  -7    1.01    0.12
   0   3  -7    1.20    0.12
   0  -3  -7    0.97    0.12
   0  -3   7    1.20    0.12
   0  -3   7    1.02    0.11
   0   3  -8    0.10    0.05
   0   3   8    0.10    0.06
   0   3   8    0.14    0.07
   0  -3  -8    0.09    0.05
   0   3   9    0.21    0.09
   0   3   9    0.16    0.08
   0   3  10    0.30    0.11
   0   3  10    0.12    0.09
   0   3  11    0.15    0.11
   0   3  12   -0.09    0.08
   0  -4   0   78.17    1.80
   0   4  -1   17.23    0.43
   0   4   1   16.82    0.45
   0  -4  -1   17.20    0.44
   0  -4   1   17.06    0.43
   0  -4   1   17.51    0.42
   0   4  -2   12.34    0.33
   0   4   2   11.77    0.35
   0   4  -2   11.75    0.34
   0   4   2   11.94    0.34
   0  -4  -2   12.25    0.34
   0  -4   2   11.84    0.33
   0  -4   2   12.05    0.30
   0   4  -3    5.90    0.21
   0   4  -3    5.58    0.20
   0   4   3    5.71    0.21
   0   4   3    5.73    0.21
   0  -4   3    5.61    0.20
   0  -4  -3    5.47    0.21
   0  -4   3    5.71    0.17
   0   4  -4   10.83    0.33
   0   4  -4   10.76    0.34
   0   4   4   10.17    0.34
   0   4   4   10.90    0.36
   0  -4  -4   10.82    0.34
   0  -4   4   10.53    0.30
   0  -4   4   10.57    0.29
   0  -4   4   10.30    0.32
   0   4  -5    6.75    0.25
   0   4   5    6.35    0.26
   0   4   5    6.34    0.26
   0   4  -5    6.38    0.24
   0  -4  -5    5.86    0.25
   0  -4   5    6.33    0.21
   0  -4   5    6.40    0.24
   0  -4   5    6.42    0.22
   0  -4   5    6.26    0.21
   0   4   6   -0.04    0.03
   0   4   6   -0.02    0.04
   0   4  -6    0.00    0.04
   0   4  -6    0.04    0.04
   0  -4  -6   -0.01    0.03
   0  -4   6    0.00    0.04
   0  -4   6    0.01    0.03
   0  -4   6    0.00    0.03
   0  -4   6    0.01    0.04
   0   4   7    1.49    0.16
   0   4   7    1.38    0.15
   0   4  -7    1.35    0.13
   0   4  -7    1.20    0.13
   0  -4  -7    1.05    0.13
   0  -4   7    1.39    0.14
   0   4  -8    0.32    0.08
   0   4   8    0.38    0.09
   0   4   8    0.38    0.10
   0   4  -8    0.55    0.10
   0  -4   8    0.50    0.09
   0  -4  -8    0.47    0.09
   0   4   9    0.05    0.08
   0   4   9    0.34    0.10
   0   4  10    0.11    0.08
   0   4  10    0.03    0.08
   0   4  11    0.03    0.09
   0   4  12   -0.08    0.09
   0  -5   0    0.21    0.04
   0   5  -1    5.51    0.19
   0   5  -1    5.06    0.18
   0   5   1    5.40    0.18
   0  -5   1    5.57    0.17
   0  -5   1    5.25    0.18
   0  -5  -1    5.46    0.19
   0   5   2    3.33    0.14
   0   5  -2    3.13    0.14
   0   5  -2    3.21    0.14
   0   5   2    3.32    0.14
   0  -5   2    3.35    0.14
   0  -5   2    3.39    0.11
   0  -5  -2    3.35    0.14
   0   5  -3   10.45    0.32
   0   5  -3   11.10    0.34
   0   5   3   10.09    0.33
   0   5   3   10.25    0.34
   0  -5   3   10.98    0.33
   0  -5  -3   10.85    0.34
   0  -5   3   10.61    0.28
   0   5  -4    2.49    0.14
   0   5   4    2.47    0.14
   0   5   4    2.49    0.14
   0   5  -4    2.59    0.14
   0  -5   4    2.46    0.14
   0  -5   4    2.62    0.11
   0  -5   4    2.64    0.11
   0  -5  -4    2.57    0.14
   0   5  -5    4.62    0.20
   0   5   5    4.86    0.23
   0   5  -5    4.54    0.21
   0   5   5    4.14    0.21
   0  -5   5    4.73    0.20
   0  -5   5    4.62    0.16
   0  -5  -5    4.84    0.22
   0  -5   5    4.49    0.16
   0  -5   5    4.72    0.17
   0   5  -6    2.76    0.17
   0   5  -6    2.84    0.16
   0   5   6    2.52    0.17
   0   5   6    2.88    0.18
   0  -5  -6    2.74    0.17
   0  -5   6    2.58    0.16
   0   5   7    4.83    0.25
   0   5   7    4.23    0.24
   0   5  -7    4.57    0.22
   0   5  -7    4.71    0.24
   0  -5   7    4.70    0.23
   0  -5  -7    4.81    0.25
   0   5   8    0.07    0.06
   0   5  -8    0.20    0.08
   0   5  -8    0.06    0.05
   0   5   8    0.11    0.07
   0  -5   8    0.12    0.07
   0  -5  -8    0.09    0.06
   0   5   9    0.01    0.06
   0   5  -9    0.02    0.07
   0   5   9   -0.04    0.06
   0   5  10    0.34    0.11
   0   5  10    0.27    0.10
   0   5  11   -0.13    0.07
   0   5  11    0.00    0.08
   0   5  12    0.10    0.10
   0   6   0   49.33    1.15
   0  -6   0   50.04    1.16
   0  -6   0   49.65    1.18
   0   6  -1   16.43    0.44
   0   6  -1   16.59    0.44
   0   6   1   16.37    0.45
   0  -6  -1   16.40    0.41
   0  -6  -1   16.44    0.45
   0  -6   1   16.24    0.43
   0  -6   1   15.93    0.44
   0   6   2    4.90    0.18
   0   6  -2    4.10    0.17
   0   6   2    4.75    0.18
   0   6  -2    4.32    0.18
   0  -6  -2    4.48    0.14
   0  -6   2    4.76    0.15
   0  -6  -2    4.44    0.18
   0  -6   2    4.52    0.18
   0   6   3    5.29    0.21
   0   6  -3    5.60    0.21
   0   6   3    5.28    0.22
   0   6  -3    5.46    0.22
   0  -6   3    5.55    0.17
   0  -6  -3    5.26    0.22
   0  -6   3    5.57    0.21
   0   6  -4    0.39    0.07
   0   6   4    0.59    0.09
   0   6  -4    0.31    0.06
   0   6   4    0.54    0.08
   0  -6   4    0.46    0.05
   0  -6   4    0.39    0.07
   0  -6  -4    0.43    0.07
   0   6  -5    4.25    0.21
   0   6   5    4.57    0.22
   0   6   5    4.36    0.22
   0   6  -5    4.92    0.21
   0  -6   5    4.41    0.21
   0  -6  -5    4.20    0.21
   0  -6   5    4.58    0.16
   0   6  -6    0.02    0.04
   0   6  -6    0.01    0.04
   0   6   6   -0.02    0.05
   0   6   6   -0.01    0.04
   0  -6  -6   -0.02    0.03
   0  -6   6    0.00    0.04
   0   6   7    0.61    0.11
   0   6  -7    0.72    0.11
   0   6   7    0.86    0.13
   0   6  -7    0.89    0.13
   0  -6  -7    0.82    0.12
   0  -6   7    0.84    0.11
   0   6  -8    0.25    0.08
   0   6   8    0.08    0.06
   0   6   8    0.14    0.08
   0   6  -8    0.12    0.07
   0  -6  -8    0.00    0.04
   0  -6   8    0.10    0.07
   0   6  -9    0.12    0.08
   0   6   9    0.21    0.09
   0   6   9    0.13    0.08
   0  -6  -9    0.22    0.08
   0   6  10    0.35    0.12
   0   6  10    0.21    0.09
   0   6  11    0.02    0.08
   0   6  11    0.17    0.11
   0   6  12    0.15    0.11
   0   7   0   -0.01    0.02
   0  -7   0   -0.01    0.02
   0  -7   0    0.04    0.03
   0   7  -1   45.67    1.11
   0   7   1   46.24    1.15
   0  -7  -1   45.93    1.07
   0  -7   1   45.28    1.10
   0  -7  -1   45.88    1.13
   0  -7   1   47.17    1.10
   0   7  -2    8.76    0.29
   0   7   2    9.24    0.28
   0   7   2    8.79    0.29
   0   7  -2    8.47    0.29
   0  -7   2    8.21    0.28
   0  -7   2    8.57    0.26
   0  -7  -2    8.69    0.25
   0  -7  -2    8.70    0.30
   0   7  -3    8.54    0.30
   0   7   3    8.72    0.31
   0   7  -3    8.13    0.29
   0   7   3    8.38    0.29
   0  -7  -3    8.60    0.31
   0  -7  -3    8.42    0.23
   0  -7   3    8.18    0.24
   0  -7   3    8.21    0.29
   0   7  -4    4.40    0.21
   0   7  -4    4.60    0.21
   0   7   4    4.32    0.20
   0   7   4    4.48    0.21
   0  -7  -4    4.05    0.20
   0  -7   4    4.42    0.15
   0  -7   4    4.20    0.20
   0   7  -5    3.22    0.18
   0   7  -5    2.74    0.17
   0   7   5    3.35    0.19
   0   7   5    3.03    0.18
   0  -7   5    2.83    0.12
   0  -7   5    3.01    0.17
   0  -7  -5    3.08    0.18
   0   7  -6    0.08    0.06
   0   7  -6   -0.02    0.04
   0   7   6    0.13    0.06
   0   7   6    0.13    0.07
   0  -7   6    0.04    0.05
   0  -7  -6    0.10    0.05
   0   7  -7    2.85    0.20
   0   7  -7    3.20    0.20
   0   7   7    3.26    0.21
   0   7   7    3.30    0.21
   0  -7   7    3.19    0.20
   0  -7  -7    2.80    0.20
   0   7  -8    0.34    0.10
   0   7   8    0.45    0.10
   0   7   8    0.26    0.10
   0   7  -8    0.30    0.09
   0  -7   8    0.23    0.08
   0  -7  -8    0.32    0.09
   0   7  -9    0.03    0.08
   0   7   9   -0.06    0.06
   0   7   9    0.00    0.06
   0  -7   9    0.11    0.08
   0  -7  -9    0.09    0.07
   0   7  10    0.08    0.09
   0   7  10    0.00    0.07
   0   7  11    0.03    0.08
   0   7  11   -0.10    0.07
   0   7  12    0.12    0.11
   0   8   0  100.71    2.33
   0  -8   0  104.03    2.34
   0  -8   0  103.32    2.39
   0   8   1    0.19    0.04
   0   8  -1    0.05    0.04
   0   8   1    0.05    0.03
   0  -8   1    0.05    0.04
   0  -8  -1    0.11    0.03
   0  -8  -1    0.08    0.04
   0  -8   1    0.14    0.04
   0   8   2    0.16    0.05
   0   8   2    0.20    0.05
   0   8  -2    0.18    0.05
   0   8  -2    0.13    0.05
   0  -8  -2    0.18    0.05
   0  -8   2    0.20    0.05
   0  -8   2    0.27    0.05
   0  -8  -2    0.32    0.05
   0   8  -3    7.17    0.29
   0   8  -3    7.67    0.28
   0   8   3    7.56    0.28
   0   8   3    8.22    0.30
   0  -8  -3    7.54    0.29
   0  -8  -3    7.97    0.23
   0  -8   3    7.65    0.28
   0  -8   3    7.43    0.24
   0   8  -4    3.62    0.19
   0   8  -4    3.61    0.19
   0   8   4    3.57    0.19
   0   8   4    3.68    0.19
   0  -8   4    3.62    0.19
   0  -8  -4    3.37    0.19
   0  -8   4    3.62    0.14
   0   8   5    3.37    0.20
   0   8  -5    3.45    0.21
   0   8  -5    3.70    0.20
   0   8   5    3.74    0.21
   0  -8   5    3.55    0.20
   0  -8  -5    3.51    0.20
   0   8  -6    0.50    0.10
   0   8  -6    0.57    0.10
   0   8   6    0.45    0.09
   0   8   6    0.48    0.10
   0  -8   6    0.54    0.10
   0  -8  -6    0.38    0.09
   0   8  -7    2.66    0.19
   0   8   7    2.57    0.19
   0   8   7    2.51    0.19
   0   8  -7    2.40    0.19
   0  -8  -7    2.71    0.20
   0  -8   7    2.80    0.19
   0   8  -8    1.28    0.17
   0   8   8    1.40    0.18
   0   8   8    1.29    0.16
   0  -8  -8    0.99    0.15
   0  -8   8    1.03    0.14
   0   8   9    0.00    0.07
   0   8   9    0.03    0.08
   0   8  -9    0.01    0.08
   0  -8  -9    0.07    0.07
   0  -8   9    0.03    0.07
   0   8 -10    0.57    0.14
   0   8  10    0.78    0.15
   0   8  10    0.51    0.14
   0   8  11   -0.03    0.09
   0   8  11   -0.09    0.08
   0   9   0    0.07    0.03
   0  -9   0    0.14    0.04
   0  -9   0    0.10    0.04
   0   9   1    3.44    0.14
   0   9  -1    3.78    0.17
   0   9   1    3.70    0.15
   0  -9   1    3.44    0.17
   0  -9  -1    3.60    0.15
   0  -9   1    3.47    0.16
   0  -9  -1    3.78    0.18
   0   9   2    0.39    0.05
   0   9  -2    0.24    0.06
   0   9   2    0.37    0.07
   0   9   2    0.35    0.06
   0  -9   2    0.33    0.05
   0  -9  -2    0.48    0.06
   0  -9  -2    0.41    0.07
   0  -9   2    0.28    0.06
   0   9  -3    2.53    0.15
   0   9   3    2.90    0.17
   0   9  -3    2.95    0.17
   0   9   3    2.68    0.15
   0  -9  -3    2.79    0.12
   0  -9   3    2.72    0.12
   0  -9   3    2.29    0.15
   0  -9  -3    3.22    0.18
   0   9  -4    0.66    0.10
   0   9  -4    0.31    0.07
   0   9   4    0.46    0.08
   0   9   4    0.55    0.09
   0  -9   4    0.47    0.06
   0  -9   4    0.35    0.07
   0  -9  -4    0.33    0.07
   0   9   5    0.56    0.10
   0   9   5    0.43    0.09
   0   9  -5    0.52    0.10
   0   9  -5    0.59    0.10
   0  -9   5    0.33    0.08
   0  -9  -5    0.72    0.11
   0   9   6   10.13    0.40
   0   9   6   10.69    0.42
   0   9  -6   10.38    0.39
   0   9  -6    9.96    0.41
   0  -9  -6    9.58    0.41
   0  -9   6   10.59    0.40
   0   9   7    0.10    0.07
   0   9   7    0.08    0.08
   0   9  -7    0.17    0.08
   0  -9  -7    0.07    0.07
   0  -9   7    0.10    0.07
   0   9  -8    0.07    0.08
   0   9   8    0.03    0.07
   0   9   8    0.02    0.07
   0  -9  -8    0.05    0.07
   0  -9   8    0.15    0.08
   0   9   9    0.45    0.12
   0   9   9    0.57    0.13
   0   9  -9    0.60    0.14
   0  -9   9    0.46    0.11
   0  -9  -9    0.58    0.13
   0   9  10    0.15    0.11
   0   9 -10    0.40    0.13
   0   9  10    0.00    0.07
   0   9  11    0.19    0.11
   0   9  11    0.31    0.12
   0  10   0   13.29    0.41
   0  10   0   14.04    0.37
   0 -10   0   13.33    0.42
   0 -10   0   13.68    0.41
   0  10   1    0.03    0.03
   0  10  -1    0.00    0.03
   0  10   1    0.03    0.03
   0 -10  -1    0.00    0.02
   0 -10   1    0.05    0.03
   0 -10   1    0.05    0.04
   0 -10  -1   -0.02    0.03
   0  10   2    6.56    0.21
   0  10   2    4.87    0.21
   0  10  -2    6.42    0.26
   0 -10   2    5.83    0.24
   0 -10   2    6.28    0.22
   0 -10  -2    5.75    0.21
   0 -10  -2    5.81    0.25
   0  10   3    0.11    0.05
   0  10   3    0.10    0.05
   0  10  -3    0.08    0.05
   0 -10   3    0.14    0.04
   0 -10  -3    0.22    0.06
   0 -10  -3    0.20    0.05
   0 -10   3    0.21    0.06
   0  10  -4    2.13    0.16
   0  10   4    2.39    0.16
   0  10   4    2.27    0.15
   0 -10  -4    2.14    0.16
   0 -10   4    2.39    0.12
   0 -10   4    2.53    0.16
   0  10   5    1.95    0.15
   0  10   5    1.65    0.17
   0  10  -5    1.65    0.18
   0 -10  -5    1.63    0.17
   0 -10   5    1.82    0.17
   0  10   6    0.17    0.08
   0  10   6    0.16    0.07
   0  10  -6    0.07    0.07
   0 -10   6    0.27    0.08
   0 -10  -6    0.19    0.08
   0  10  -7    0.18    0.09
   0  10   7    0.15    0.08
   0  10   7    0.09    0.07
   0 -10  -7    0.19    0.08
   0 -10   7    0.13    0.08
   0  10   8    0.05    0.08
   0  10  -8    0.06    0.08
   0  10   8    0.11    0.08
   0 -10   8    0.18    0.09
   0 -10  -8    0.03    0.07
   0  10  -9    0.06    0.09
   0  10   9    0.15    0.09
   0  10   9    0.04    0.07
   0 -10   9    0.16    0.10
   0  10  10   -0.01    0.09
   0  10 -10    0.04    0.09
   0  10  10    0.03    0.08
   0  10  11   -0.06    0.08
   0  11   0    0.03    0.04
   0 -11   0   -0.02    0.03
   0 -11   0   -0.03    0.03
   0  11   1    3.53    0.15
   0  11   1    3.02    0.15
   0  11  -1    3.56    0.18
   0 -11   1    3.23    0.16
   0 -11   1    3.64    0.18
   0 -11  -1    3.06    0.16
   0 -11  -1    3.22    0.18
   0  11   2    0.12    0.04
   0  11  -2    0.23    0.06
   0  11   2    0.02    0.02
   0 -11   2    0.10    0.05
   0 -11   2    0.14    0.05
   0 -11  -2    0.07    0.04
   0 -11  -2    0.06    0.04
   0  11  -3    0.50    0.09
   0  11   3    0.56    0.09
   0  11   3    0.36    0.08
   0 -11   3    0.57    0.08
   0 -11  -3    0.46    0.09
   0 -11   3    0.41    0.08
   0  11  -4    5.51    0.27
   0  11   4    5.38    0.25
   0  11   4    5.65    0.27
   0 -11   4    5.40    0.26
   0 -11  -4    5.19    0.27
   0  11  -5    3.89    0.24
   0  11   5    4.32    0.24
   0  11   5    4.01    0.23
   0 -11  -5    3.83    0.24
   0 -11   5    4.03    0.23
   0  11   6    1.52    0.17
   0  11   6    1.49    0.17
   0  11  -6    1.40    0.18
   0 -11  -6    1.34    0.17
   0 -11   6    1.44    0.17
   0  11   7    0.00    0.06
   0  11   7   -0.02    0.06
   0  11  -7    0.11    0.08
   0 -11  -7    0.05    0.07
   0 -11   7    0.02    0.07
   0  11  -8    0.16    0.10
   0  11   8    0.21    0.09
   0  11   8    0.23    0.10
   0 -11   8    0.19    0.09
   0 -11  -8    0.26    0.10
   0  11  -9    1.10    0.18
   0  11   9    1.00    0.17
   0  11   9    0.74    0.15
   0  11 -10    0.00    0.09
   0  11  10   -0.05    0.08
   0  11  10    0.21    0.10
   0 -11  10   -0.02    0.08
   0  11  11    0.05    0.10
   0  11 -11    0.00    0.10
   0  12   0   11.28    0.38
   0 -12   0   11.39    0.39
   0 -12   0   11.84    0.38
   0  12  -1    3.11    0.18
   0  12   1    3.03    0.14
   0  12   1    2.66    0.15
   0 -12   1    3.02    0.17
   0 -12  -1    2.89    0.17
   0 -12   1    2.99    0.17
   0 -12  -1    3.49    0.17
   0  12   2    1.68    0.12
   0  12  -2    1.91    0.17
   0 -12   2    1.81    0.12
   0 -12  -2    1.94    0.13
   0 -12   2    2.00    0.14
   0 -12  -2    1.50    0.15
   0  12  -3    1.44    0.16
   0  12   3    1.18    0.13
   0 -12   3    0.86    0.12
   0 -12  -3    0.91    0.13
   0 -12   3    1.21    0.11
   0  12  -4    5.94    0.30
   0  12   4    5.82    0.28
   0  12   4    5.71    0.26
   0 -12   4    5.44    0.27
   0 -12  -4    5.32    0.28
   0  12   5   14.48    0.52
   0  12   5   13.32    0.48
   0  12  -5   13.64    0.52
   0 -12   5   13.29    0.49
   0 -12  -5   13.17    0.52
   0  12  -6    0.82    0.14
   0  12   6    0.52    0.11
   0  12   6    0.84    0.13
   0 -12  -6    0.75    0.13
   0 -12   6    0.85    0.13
   0  12   7    0.21    0.09
   0  12  -7    0.13    0.08
   0  12   7    0.08    0.09
   0 -12   7    0.15    0.09
   0 -12  -7    0.24    0.09
   0  12   8    0.31    0.11
   0  12   8    0.62    0.13
   0  12  -8    0.30    0.11
   0 -12   8    0.37    0.11
   0  12   9    0.08    0.09
   0  12   9    0.04    0.08
   0  12  -9    0.00    0.09
   0 -12   9    0.07    0.09
   0  12  10    0.34    0.12
   0  12 -10    0.09    0.10
   0 -12  10    0.06    0.10
   0  13   0   -0.02    0.04
   0 -13   0    0.04    0.04
   0 -13   0    0.01    0.04
   0  13  -1    3.46    0.20
   0  13   1    3.51    0.18
   0 -13   1    3.58    0.19
   0 -13  -1    3.30    0.19
   0 -13  -1    3.73    0.19
   0 -13   1    3.53    0.20
   0  13  -2    0.32    0.08
   0  13   2    0.57    0.08
   0 -13   2    0.42    0.08
   0 -13   2    0.50    0.10
   0 -13  -2    0.56    0.09
   0 -13  -2    0.44    0.09
   0  13   3    2.01    0.14
   0  13  -3    2.36    0.21
   0 -13   3    2.31    0.14
   0 -13   3    1.94    0.15
   0 -13  -3    2.19    0.17
   0  13  -4    0.78    0.14
   0  13   4    0.88    0.12
   0 -13  -4    1.05    0.15
   0 -13   4    0.69    0.12
   0  13   5    0.74    0.12
   0  13  -5    0.86    0.14
   0 -13  -5    0.83    0.14
   0 -13   5    0.87    0.13
   0  13   6    0.01    0.06
   0  13   6    0.03    0.06
   0  13  -6    0.07    0.07
   0 -13  -6    0.04    0.06
   0 -13   6    0.00    0.07
   0  13  -7    0.65    0.14
   0  13   7    0.67    0.13
   0  13   7    0.60    0.13
   0 -13   7    0.59    0.13
   0  13   8    0.79    0.14
   0  13  -8    0.45    0.14
   0 -13   8    0.80    0.15
   0  13   9   -0.01    0.08
   0  13  -9   -0.01    0.09
   0 -13   9    0.06    0.10
   0  13 -10    0.08    0.10
   0  13  10   -0.06    0.09
   0 -13  10   -0.09    0.09
   0  14   0    2.15    0.15
   0 -14   0    2.27    0.16
   0 -14   0    2.14    0.16
   0  14  -1    1.90    0.18
   0  14   1    1.88    0.14
   0 -14   1    1.81    0.14
   0 -14  -1    1.78    0.14
   0 -14  -1    1.92    0.15
   0 -14   1    2.20    0.16
   0  14  -2    1.32    0.15
   0 -14   2    1.47    0.15
   0 -14   2    1.54    0.14
   0 -14  -2    1.63    0.15
   0 -14  -2    1.19    0.14
   0  14  -3    0.37    0.10
   0  14   3    0.26    0.07
   0 -14  -3    0.43    0.09
   0 -14   3    0.36    0.09
   0  14   4    1.01    0.13
   0  14  -4    1.43    0.18
   0 -14   4    1.01    0.14
   0 -14  -4    1.27    0.16
   0  14   5    1.10    0.14
   0  14  -5    1.24    0.18
   0 -14   5    1.08    0.15
   0 -14  -5    1.08    0.16
   0  14   6    0.06    0.07
   0  14  -6    0.08    0.07
   0 -14   6    0.06    0.08
   0 -14  -6    0.10    0.07
   0  14  -7    0.12    0.09
   0  14   7    0.15    0.09
   0 -14   7    0.02    0.08
   0  14   8    0.40    0.12
   0  14  -8    0.23    0.12
   0 -14   8    0.25    0.11
   0  14  -9    0.06    0.09
   0  14   9    0.00    0.08
   0 -14   9    0.14    0.11
   0  14 -10    0.08    0.11
   0  14  10    0.11    0.10
   0 -14  10    0.10    0.10
   0  15   0    0.04    0.05
   0 -15   0    0.02    0.05
   0 -15   0   -0.02    0.05
   0  15  -1    0.06    0.06
   0 -15   1    0.09    0.05
   0 -15  -1    0.15    0.06
   0 -15  -1    0.02    0.06
   0 -15   1    0.14    0.07
   0  15  -2    0.03    0.06
   0 -15  -2   -0.05    0.04
   0 -15   2    0.11    0.06
   0 -15   2    0.01    0.06
   0  15  -3    1.77    0.19
   0 -15  -3    1.50    0.17
   0 -15   3    1.60    0.17
   0  15  -4    0.17    0.09
   0  15   4    0.32    0.08
   0 -15  -4    0.13    0.07
   0 -15   4    0.08    0.07
   0  15   5    2.12    0.17
   0  15  -5    2.26    0.23
   0 -15   5    2.18    0.22
   0 -15  -5    2.14    0.23
   0  15  -6    1.84    0.23
   0  15   6    1.41    0.17
   0 -15   6    1.42    0.19
   0  15   7    0.13    0.08
   0  15  -7    0.14    0.10
   0 -15   7    0.09    0.09
   0  15   8    0.06    0.08
   0  15  -8    0.00    0.08
   0 -15   8    0.02    0.08
   0  15   9    0.07    0.08
   0  15  -9   -0.01    0.09
   0 -15   9    0.15    0.10
   0  16   0    0.07    0.07
   0 -16   0    0.01    0.06
   0  16  -1    5.02    0.27
   0 -16   1    5.05    0.26
   0 -16  -1    4.90    0.27
   0 -16   1    5.02    0.26
   0 -16  -1    5.56    0.26
   0  16  -2    4.33    0.26
   0 -16   2    4.28    0.25
   0 -16  -2    3.95    0.25
   0  16  -3    0.05    0.07
   0 -16  -3   -0.03    0.05
   0 -16   3    0.08    0.07
   0  16  -4    0.18    0.09
   0 -16  -4    0.21    0.09
   0 -16   4    0.32    0.10
   0  16   5   -0.02    0.06
   0  16  -5    0.04    0.07
   0 -16   5    0.00    0.06
   0  16  -6    0.20    0.10
   0  16   6    0.10    0.08
   0 -16   6    0.07    0.09
   0  16   7    0.38    0.11
   0  16  -7    0.39    0.14
   0 -16   7    0.54    0.14
   0  16   8    0.15    0.10
   0  16  -8    0.07    0.10
   0 -16   8   -0.04    0.09
   0  16  -9   -0.02    0.10
   0  16   9   -0.05    0.08
   0 -16   9    0.07    0.10
   0 -17   0   -0.01    0.06
   0 -17   0    0.01    0.05
   0  17  -1    3.45    0.23
   0 -17  -1    3.50    0.23
   0 -17  -1    3.53    0.22
   0 -17   1    3.06    0.21
   0 -17   1    3.52    0.22
   0  17  -2    0.36    0.11
   0 -17  -2    0.29    0.09
   0 -17   2    0.20    0.09
   0  17  -3    0.85    0.15
   0 -17   3    0.73    0.13
   0 -17  -3    0.67    0.13
   0  17  -4    1.53    0.20
   0 -17   4    1.38    0.18
   0  17  -5    0.12    0.09
   0 -17   5    0.04    0.08
   0  17  -6    0.04    0.09
   0  17   6    0.00    0.07
   0 -17   6    0.01    0.08
   0  17  -7   -0.04    0.08
   0  17   7    0.03    0.07
   0 -17   7   -0.04    0.08
   0  17  -8    0.08    0.11
   0  17   8    0.09    0.09
   0 -17   8    0.06    0.10
   0 -18   0    0.16    0.08
   0 -18   0    0.25    0.09
   0  18  -1    0.27    0.10
   0 -18   1    0.46    0.10
   0 -18   1    0.34    0.09
   0 -18  -1    0.24    0.08
   0  18  -2    0.12    0.09
   0 -18   2    0.10    0.08
   0  18  -3    0.79    0.14
   0 -18   3    0.68    0.14
   0  18  -4    0.13    0.09
   0 -18   4    0.18    0.10
   0  18  -5    0.33    0.12
   0 -18   5    0.12    0.09
   0  18  -6   -0.17    0.07
   0 -18   6    0.07    0.09
   0  18   7    0.03    0.08
   0  18  -7    0.02    0.09
   0 -18   7    0.02    0.09
   0 -19   0   -0.12    0.06
   0  19  -1    0.05    0.09
   0 -19   1    0.34    0.10
   0  19  -2   -0.04    0.07
   0 -19   2    0.01    0.08
   0  19  -3    0.56    0.14
   0 -19   3    0.88    0.15
   0  19  -4    0.97    0.18
   0 -19   4    1.08    0.17
   0  19  -5    0.24    0.12
   0 -19   5    0.24    0.12
   0  19  -6    0.34    0.13
   0 -19   6    0.08    0.10
   0  19  -7   -0.03    0.09
   0 -19   7   -0.09    0.09
   0 -20   1    0.17    0.09
   0  20  -2    0.91    0.17
   0 -20   2    1.22    0.17
   0  20  -3    0.28    0.13
   0 -20   3    0.42    0.12
   0  20  -4   -0.02    0.09
   0 -20   4    0.05    0.09
   0  20  -5    0.14    0.11
   0 -20   5    0.07    0.09
   0  20  -6    0.07    0.11
   0 -20   6    0.02    0.09
   0 -21   1    0.96    0.16
   0  21  -2    0.19    0.11
   0 -21   2   -0.03    0.08
   0  21  -3    0.19    0.12
   0 -21   3    0.05    0.10
   0  21  -4    0.29    0.13
   0 -21   4    0.60    0.15
   0  21  -5   -0.01    0.10
   0 -21   5    0.02    0.09
   0 -22   2   -0.09    0.08
   0  22  -3    0.04    0.10
   0 -22   3   -0.02    0.09
  -1   0  11    0.05    0.09
  -1   0  10    0.16    0.09
  -1   0   9    0.01    0.06
  -1   0   9    0.07    0.06
   1   0  -8    1.71    0.16
  -1   0   8    1.66    0.17
  -1   0   8    1.61    0.16
   1   0  -7   -0.01    0.03
   1   0  -7    0.03    0.04
   1   0  -7   -0.01    0.04
  -1   0   7    0.02    0.05
  -1   0   7   -0.01    0.04
  -1   0   6    4.86    0.22
   1   0  -6    4.94    0.20
   1   0  -6    5.14    0.22
  -1   0   6    5.14    0.19
   1   0  -6    4.79    0.19
  -1   0   6    4.64    0.22
  -1   0   5    0.00    0.03
  -1   0   5    0.04    0.03
   1   0  -5    0.02    0.03
   1   0  -5   -0.04    0.02
   1   0  -5   -0.02    0.02
  -1   0   5    0.03    0.03
  -1   0   4    7.89    0.27
   1   0  -4    8.28    0.27
   1   0  -4    7.86    0.24
   1   0  -4    8.15    0.25
  -1   0   4    8.33    0.27
  -1   0   3    0.01    0.02
   1   0  -3    0.02    0.02
   1   0  -3    0.00    0.01
   1   0  -2  507.12   11.41
  -1   0   2  494.24   11.78
  -1   0   1   -0.37    0.03
   1   0   0    9.59    0.24
  -1   0   0   10.15    0.24
   1   0   1   -0.64    0.03
  -1   0  -2  431.59    9.53
   1   0   2  437.48    9.52
   1   0   2  395.50    9.96
   1   0   3    0.00    0.02
  -1   0  -3    0.04    0.02
   1   0   3    0.02    0.02
  -1   0  -4   25.79    0.62
   1   0   4   25.95    0.62
   1   0   4   25.13    0.68
  -1   0  -4   26.52    0.65
   1   0   4   25.88    0.67
  -1   0  -5    0.02    0.03
   1   0   5    0.00    0.03
   1   0   5    0.02    0.03
  -1   0  -5   -0.02    0.02
   1   0   5    0.04    0.03
  -1   0  -5    0.05    0.03
  -1   0  -6    9.94    0.31
   1   0   6    9.93    0.34
   1   0   6    9.92    0.34
  -1   0  -6   10.19    0.33
  -1   0  -6    9.76    0.29
   1   0   7    0.03    0.04
   1   0   7    0.01    0.05
   1   0   8    1.73    0.17
   1   0   8    1.68    0.14
   1   0   9    0.02    0.07
   1   0  10    0.09    0.09
  -1   1  11    0.01    0.09
  -1   1  10    0.30    0.10
  -1  -1  10    0.18    0.09
  -1   1   9    0.29    0.09
  -1   1   9    0.18    0.09
  -1  -1   9    0.22    0.08
  -1   1   8    2.00    0.16
  -1   1   8    2.04    0.19
  -1  -1   8    1.91    0.15
   1  -1  -8    1.62    0.16
  -1  -1   8    1.96    0.15
   1   1  -7    1.01    0.11
   1   1  -7    1.06    0.12
  -1   1   7    1.05    0.13
  -1   1   7    1.00    0.13
   1   1  -7    1.20    0.11
   1  -1  -7    1.14    0.13
  -1  -1   7    1.23    0.12
  -1  -1   7    1.15    0.13
  -1  -1   7    1.03    0.12
  -1   1   6    2.72    0.16
   1   1  -6    2.75    0.15
  -1   1   6    2.96    0.17
  -1   1   6    2.52    0.13
   1   1  -6    2.52    0.14
   1   1  -6    2.76    0.14
  -1  -1   6    2.92    0.16
  -1  -1   6    2.68    0.15
   1  -1  -6    2.72    0.13
  -1  -1   6    2.72    0.14
   1  -1  -6    2.79    0.13
   1  -1  -6    2.98    0.16
  -1   1   5    1.14    0.11
   1   1  -5    0.94    0.09
  -1   1   5    0.92    0.10
  -1   1   5    1.05    0.07
   1   1  -5    1.09    0.08
  -1  -1   5    1.11    0.10
  -1  -1   5    1.03    0.09
  -1  -1   5    1.05    0.10
   1  -1  -5    1.13    0.07
   1  -1  -5    1.21    0.08
   1  -1  -5    1.05    0.10
   1   1  -4   36.68    0.90
   1   1  -4   36.49    0.87
  -1   1   4   36.50    0.95
  -1   1   4   36.24    0.92
   1   1  -4   36.02    0.88
  -1  -1   4   36.67    0.94
   1  -1  -4   36.02    0.86
  -1  -1   4   37.31    0.88
   1  -1  -4   36.78    0.92
  -1  -1   4   35.99    0.90
  -1   1   3    4.34    0.17
   1   1  -3    4.38    0.15
  -1   1   3    4.42    0.17
   1   1  -3    4.35    0.16
  -1  -1   3    4.51    0.16
   1  -1  -3    4.55    0.17
  -1  -1   3    4.31    0.15
   1   1  -2   59.63    1.35
  -1   1   2   56.72    1.41
   1  -1  -2   58.71    1.36
  -1   1   1   40.25    0.97
  -1   1   1   41.33    0.94
  -1  -1   1   40.09    0.93
   1  -1  -1   39.30    0.93
   1   1   0    8.98    0.22
   1  -1   0    9.13    0.22
  -1  -1   0    8.87    0.22
   1   1   1    3.89    0.11
  -1  -1  -1    3.73    0.11
  -1   1  -2  268.67    5.86
   1   1   2  249.93    6.21
   1  -1   2  263.59    5.88
   1  -1   2  250.38    6.14
  -1  -1  -2  269.77    5.88
   1   1   3   20.29    0.56
  -1   1  -3   20.82    0.52
   1   1   3   21.56    0.55
  -1   1  -3   21.87    0.52
  -1  -1  -3   22.08    0.54
   1  -1   3   21.77    0.52
   1  -1   3   21.26    0.55
  -1   1  -4   13.75    0.38
   1   1   4   14.00    0.41
  -1   1  -4   14.33    0.38
  -1   1  -4   14.16    0.37
   1   1   4   14.25    0.41
   1  -1   4   14.22    0.39
   1  -1   4   13.88    0.40
   1  -1   4   14.03    0.37
  -1  -1  -4   14.48    0.40
   1   1   5    7.77    0.22
  -1   1  -5    7.99    0.25
   1   1   5    7.42    0.27
   1   1   5    7.81    0.28
  -1   1  -5    7.42    0.25
  -1   1  -5    7.51    0.24
   1  -1   5    7.65    0.26
  -1  -1  -5    7.37    0.22
   1  -1   5    8.08    0.27
  -1  -1  -5    7.65    0.26
   1  -1   5    7.92    0.24
  -1   1  -6    0.73    0.08
   1   1   6    0.91    0.11
   1   1   6    0.79    0.10
  -1   1  -6    0.98    0.09
  -1   1  -6    0.92    0.09
   1  -1   6    0.87    0.09
  -1  -1  -6    0.86    0.09
   1  -1   6    0.86    0.09
   1  -1   6    0.92    0.10
   1   1   7    0.02    0.04
   1   1   7    0.01    0.05
  -1  -1  -7   -0.01    0.03
   1  -1   7   -0.02    0.04
   1  -1   7   -0.04    0.04
   1   1   8    0.29    0.09
   1   1   8    0.24    0.08
   1  -1   8    0.33    0.09
   1   1   9   -0.07    0.06
   1  -1   9   -0.14    0.05
   1   1  10    0.39    0.11
   1   1  11    0.05    0.09
  -1   2  12    0.15    0.11
  -1   2  11   -0.14    0.07
  -1   2  10    0.05    0.07
  -1   2  10    0.02    0.07
  -1   2   9    3.86    0.24
  -1   2   9    3.96    0.25
  -1  -2   9    4.14    0.23
  -1   2   8    1.19    0.15
   1   2  -8    1.14    0.13
  -1   2   8    1.03    0.14
  -1  -2   8    1.20    0.13
  -1  -2   8    1.37    0.15
   1  -2  -8    1.07    0.13
  -1   2   7    0.80    0.11
  -1   2   7    1.13    0.14
   1   2  -7    0.92    0.11
   1   2  -7    0.91    0.11
   1  -2  -7    1.25    0.14
  -1  -2   7    1.32    0.14
  -1  -2   7    1.26    0.13
  -1  -2   7    1.05    0.11
   1   2  -6    0.17    0.05
  -1   2   6    0.11    0.05
   1   2  -6    0.15    0.05
   1   2  -6    0.15    0.05
   1  -2  -6    0.14    0.04
  -1  -2   6    0.07    0.04
  -1  -2   6    0.09    0.05
  -1  -2   6    0.03    0.05
   1  -2  -6    0.16    0.05
   1  -2  -6    0.18    0.04
   1   2  -5    0.78    0.09
  -1   2   5    0.63    0.08
   1   2  -5    0.91    0.09
  -1   2   5    0.98    0.11
   1   2  -5    0.87    0.09
  -1  -2   5    0.92    0.09
   1  -2  -5    0.81    0.07
  -1  -2   5    0.97    0.10
  -1  -2   5    1.14    0.10
   1  -2  -5    0.63    0.08
  -1   2   4   14.16    0.42
   1   2  -4   14.07    0.40
   1   2  -4   14.06    0.39
  -1   2   4   14.54    0.43
   1   2  -4   14.22    0.40
   1  -2  -4   13.82    0.42
  -1  -2   4   14.00    0.39
  -1  -2   4   14.16    0.39
  -1  -2   4   13.64    0.41
   1  -2  -4   14.46    0.37
   1   2  -3    4.50    0.16
  -1   2   3    4.46    0.17
   1   2  -3    4.61    0.17
  -1   2   3    4.41    0.18
  -1  -2   3    4.67    0.16
   1  -2  -3    4.68    0.18
   1   2  -2   71.51    1.64
  -1   2   2   71.78    1.75
  -1  -2   2   74.18    1.67
  -1  -2   2   72.72    1.64
   1  -2  -2   72.53    1.68
  -1   2   1   31.42    0.77
  -1  -2   1   31.64    0.74
   1  -2  -1   31.18    0.75
   1  -2   0   30.15    0.69
  -1  -2   0   29.22    0.69
  -1   2  -1   35.10    0.79
  -1  -2  -1   35.10    0.83
   1  -2   1   35.55    0.80
   1   2   2   16.38    0.45
   1  -2   2   17.14    0.40
   1  -2   2   16.99    0.39
   1  -2   2   16.92    0.42
  -1  -2  -2   17.53    0.43
  -1   2  -3   32.76    0.79
  -1   2  -3   34.16    0.80
  -1   2  -3   33.97    0.78
   1   2   3   31.46    0.84
   1   2   3   32.85    0.82
   1  -2   3   32.96    0.77
   1  -2   3   33.93    0.81
  -1  -2  -3   33.59    0.81
   1  -2   3   32.81    0.79
  -1   2  -4    2.62    0.10
   1   2   4    2.94    0.14
   1   2   4    2.67    0.14
  -1   2  -4    2.82    0.12
  -1   2  -4    2.70    0.13
  -1  -2  -4    2.59    0.13
   1  -2   4    2.59    0.12
   1  -2   4    2.64    0.12
   1  -2   4    2.61    0.11
  -1   2  -5    0.60    0.07
  -1   2  -5    0.47    0.05
   1   2   5    0.47    0.08
   1   2   5    0.60    0.08
  -1  -2  -5    0.56    0.07
   1  -2   5    0.53    0.07
   1  -2   5    0.62    0.07
   1  -2   5    0.63    0.07
   1   2   6    0.05    0.05
  -1   2  -6    0.00    0.03
   1   2   6    0.05    0.04
  -1   2  -6    0.02    0.03
  -1   2  -6    0.00    0.03
   1  -2   6    0.04    0.03
  -1  -2  -6    0.00    0.03
   1  -2   6    0.08    0.04
   1  -2   6    0.01    0.03
   1   2   7    1.68    0.16
  -1   2  -7    1.43    0.13
   1   2   7    1.39    0.14
  -1  -2  -7    1.51    0.12
   1  -2   7    1.67    0.13
   1   2   8    0.52    0.10
   1   2   8    0.36    0.10
   1  -2   8    0.38    0.08
   1   2   9    0.01    0.07
   1   2   9    0.03    0.06
   1   2  10    0.01    0.08
   1   2  11    0.72    0.15
   1   2  12    0.15    0.11
  -1   3  12    0.36    0.13
  -1   3  11    0.05    0.09
  -1   3  10    0.10    0.09
  -1   3  10   -0.03    0.07
  -1   3   9   -0.01    0.06
  -1   3   9    0.06    0.07
   1  -3  -9   -0.04    0.05
   1   3  -8    0.88    0.12
  -1   3   8    0.92    0.13
  -1   3   8    0.98    0.14
   1   3  -8    0.88    0.12
  -1  -3   8    0.96    0.12
  -1  -3   8    1.12    0.13
   1  -3  -8    1.00    0.13
  -1   3   7    1.67    0.16
   1   3  -7    1.72    0.13
  -1   3   7    1.68    0.17
   1   3  -7    1.74    0.14
  -1  -3   7    1.45    0.12
   1  -3  -7    1.49    0.15
  -1  -3   7    1.65    0.13
  -1  -3   7    1.64    0.14
  -1   3   6    2.12    0.15
  -1   3   6    2.10    0.15
   1   3  -6    2.28    0.14
   1   3  -6    2.27    0.14
  -1  -3   6    2.28    0.14
   1  -3  -6    2.04    0.14
  -1  -3   6    2.39    0.14
  -1  -3   6    2.49    0.14
  -1   3   5    0.34    0.07
   1   3  -5    0.49    0.07
   1   3  -5    0.53    0.08
  -1   3   5    0.46    0.08
   1  -3  -5    0.58    0.06
   1  -3  -5    0.44    0.07
  -1  -3   5    0.64    0.08
  -1  -3   5    0.51    0.07
  -1  -3   5    0.46    0.07
  -1   3   4    0.94    0.10
   1   3  -4    1.04    0.09
   1   3  -4    1.01    0.09
  -1   3   4    0.97    0.10
   1  -3  -4    0.93    0.06
   1  -3  -4    0.89    0.09
  -1  -3   4    1.00    0.08
  -1  -3   4    1.02    0.07
  -1  -3   4    0.85    0.08
  -1  -3   4    0.97    0.09
   1   3  -3    6.84    0.22
  -1   3   3    7.07    0.24
   1   3  -3    6.82    0.23
  -1   3   3    7.11    0.24
  -1  -3   3    7.17    0.21
   1  -3  -3    6.97    0.24
  -1  -3   3    6.74    0.22
   1   3  -2   52.85    1.20
  -1   3   2   51.26    1.28
   1  -3  -2   52.19    1.24
  -1  -3   2   52.94    1.21
  -1  -3   2   51.35    1.20
  -1   3   1    3.64    0.13
   1   3  -1    3.67    0.13
  -1  -3   1    3.76    0.13
  -1  -3   1    3.77    0.12
   1  -3  -1    3.86    0.13
  -1   3   0   26.01    0.64
   1  -3   0   26.81    0.63
  -1  -3   0   26.92    0.63
  -1   3  -1    2.17    0.07
   1  -3   1    2.26    0.09
  -1  -3  -1    2.26    0.09
   1  -3   1    2.36    0.07
   1   3   2    6.00    0.20
   1   3   2    6.32    0.21
  -1   3  -2    5.93    0.20
   1  -3   2    6.27    0.19
   1  -3   2    6.04    0.15
  -1  -3  -2    6.50    0.20
  -1   3  -3    1.70    0.10
   1   3   3    1.80    0.10
  -1   3  -3    1.92    0.10
   1   3   3    1.88    0.10
   1  -3   3    1.82    0.07
  -1  -3  -3    2.04    0.10
   1  -3   3    1.71    0.09
   1  -3   3    1.80    0.07
   1  -3   3    1.87    0.07
   1   3   4    9.16    0.30
  -1   3  -4    9.23    0.28
  -1   3  -4    9.37    0.29
   1   3   4    8.75    0.30
   1  -3   4    9.18    0.26
  -1  -3  -4    9.09    0.29
   1  -3   4    9.08    0.26
   1  -3   4    8.74    0.25
   1  -3   4    9.10    0.28
   1   3   5    7.16    0.27
  -1   3  -5    6.97    0.26
  -1   3  -5    7.44    0.25
   1   3   5    7.46    0.28
   1  -3   5    6.80    0.23
  -1  -3  -5    6.93    0.26
   1  -3   5    7.04    0.23
   1  -3   5    7.42    0.25
   1   3   6    2.25    0.15
  -1   3  -6    2.10    0.13
   1   3   6    1.97    0.14
  -1   3  -6    2.16    0.14
   1  -3   6    2.12    0.12
   1  -3   6    2.12    0.13
   1  -3   6    1.91    0.12
  -1  -3  -6    2.06    0.14
   1   3   7    0.11    0.06
  -1   3  -7    0.00    0.03
   1   3   7    0.10    0.06
  -1  -3  -7    0.13    0.05
   1  -3   7    0.17    0.06
   1  -3   7    0.10    0.06
   1   3   8    1.38    0.15
   1   3   8    1.28    0.15
   1   3   9    0.16    0.07
   1   3   9    0.17    0.08
   1   3  10    0.13    0.09
   1   3  11    0.05    0.09
   1   3  12    0.11    0.11
  -1   4  11   -0.07    0.07
  -1   4  11    0.04    0.09
  -1   4  10   -0.02    0.07
  -1   4  10   -0.04    0.08
   1   4  -9    0.21    0.08
  -1   4   9    0.32    0.10
  -1   4   9    0.20    0.09
   1  -4  -9    0.20    0.08
  -1   4   8    0.95    0.14
   1   4  -8    0.60    0.11
   1   4  -8    0.91    0.12
  -1   4   8    0.69    0.12
   1  -4  -8    0.81    0.13
  -1  -4   8    0.87    0.11
  -1   4   7    2.36    0.18
   1   4  -7    2.40    0.16
   1   4  -7    2.45    0.16
  -1   4   7    2.68    0.19
   1  -4  -7    2.35    0.17
  -1  -4   7    2.50    0.16
  -1  -4   7    2.25    0.15
  -1   4   6    3.52    0.20
   1   4  -6    3.23    0.18
  -1   4   6    3.19    0.19
   1   4  -6    3.36    0.18
  -1  -4   6    3.43    0.18
  -1  -4   6    3.43    0.16
  -1  -4   6    3.47    0.16
   1  -4  -6    3.88    0.20
  -1  -4   6    3.86    0.18
  -1   4   5   10.41    0.36
   1   4  -5   10.61    0.35
  -1   4   5   10.67    0.36
   1   4  -5    9.96    0.33
  -1  -4   5   10.21    0.33
  -1  -4   5   10.52    0.32
  -1  -4   5    9.92    0.31
   1  -4  -5   10.05    0.36
  -1  -4   5   10.24    0.34
   1  -4  -5   10.18    0.28
  -1   4   4   10.80    0.36
   1   4  -4   10.95    0.34
  -1   4   4   11.07    0.37
   1   4  -4   11.16    0.35
   1  -4  -4   11.06    0.36
  -1  -4   4   11.13    0.34
   1  -4  -4   10.77    0.29
  -1  -4   4   11.34    0.32
   1   4  -3   20.76    0.54
  -1   4   3   20.37    0.56
   1   4  -3   20.11    0.54
  -1   4   3   20.14    0.57
  -1  -4   3   20.72    0.52
  -1  -4   3   21.15    0.54
   1  -4  -3   20.03    0.56
   1   4  -2   40.99    0.98
  -1   4   2   42.10    1.00
   1   4  -2   41.24    0.98
  -1   4   2   40.89    1.03
  -1  -4   2   40.94    0.97
   1  -4  -2   41.14    1.00
  -1  -4   2   41.17    0.98
   1   4  -1    1.04    0.06
  -1   4   1    1.01    0.06
  -1  -4   1    1.01    0.06
  -1  -4   1    0.96    0.05
   1  -4  -1    0.94    0.06
  -1   4   0   82.44    1.92
   1  -4   0   81.70    1.86
  -1  -4   0   81.56    1.87
   1  -4   0   79.81    1.82
   1  -4   1   27.60    0.68
   1  -4   1   28.25    0.66
  -1  -4  -1   28.16    0.69
   1   4   2   24.34    0.62
   1   4   2   24.12    0.64
  -1   4  -2   24.63    0.57
   1  -4   2   23.53    0.60
   1  -4   2   24.74    0.57
  -1  -4  -2   24.33    0.62
   1   4   3    3.65    0.16
  -1   4  -3    3.57    0.16
   1   4   3    3.63    0.16
   1  -4   3    3.69    0.12
   1  -4   3    3.42    0.14
   1  -4   3    3.50    0.11
  -1  -4  -3    3.72    0.15
  -1   4  -4   15.47    0.43
   1   4   4   15.95    0.47
   1   4   4   15.08    0.45
  -1   4  -4   15.25    0.44
   1  -4   4   15.17    0.38
   1  -4   4   14.91    0.43
   1  -4   4   14.63    0.40
  -1  -4  -4   15.63    0.45
  -1   4  -5    1.71    0.12
  -1   4  -5    1.74    0.12
   1   4   5    1.64    0.12
   1   4   5    1.52    0.12
   1  -4   5    1.78    0.08
   1  -4   5    1.61    0.11
  -1  -4  -5    2.04    0.13
   1  -4   5    1.86    0.10
   1  -4   5    1.71    0.09
   1   4   6    3.94    0.21
  -1   4  -6    3.68    0.19
   1   4   6    3.73    0.20
   1  -4   6    4.05    0.18
   1  -4   6    3.76    0.16
  -1  -4  -6    3.52    0.19
  -1   4  -7    1.76    0.16
   1   4   7    1.70    0.16
   1   4   7    1.95    0.18
   1  -4   7    1.54    0.14
  -1  -4  -7    1.54    0.15
   1   4   8    0.42    0.10
  -1   4  -8    0.35    0.09
   1   4   8    0.35    0.09
  -1  -4  -8    0.48    0.10
   1   4   9    0.50    0.11
   1   4   9    0.74    0.13
   1   4  10    0.50    0.12
   1   4  10    0.40    0.12
   1   4  11   -0.07    0.08
   1   4  12    0.12    0.11
  -1   5  12    0.11    0.11
  -1   5  11    0.07    0.08
  -1   5  11   -0.01    0.09
  -1   5  10    0.15    0.09
  -1   5  10    0.03    0.08
   1   5  -9    0.43    0.10
  -1   5   9    0.37    0.11
  -1   5   9    0.34    0.11
   1  -5  -9    0.48    0.11
  -1   5   8    0.59    0.11
   1   5  -8    0.41    0.09
  -1   5   8    0.34    0.09
  -1  -5   8    0.53    0.10
   1  -5  -8    0.41    0.09
   1   5  -7    0.04    0.05
  -1   5   7    0.00    0.05
  -1   5   7   -0.05    0.06
   1   5  -7    0.01    0.05
   1  -5  -7    0.10    0.05
  -1  -5   7    0.09    0.05
   1   5  -6    0.03    0.04
  -1   5   6    0.04    0.04
  -1   5   6    0.00    0.04
   1   5  -6    0.01    0.04
  -1  -5   6    0.05    0.04
   1  -5  -6    0.07    0.04
  -1  -5   6    0.04    0.03
  -1  -5   6   -0.03    0.04
  -1   5   5    0.92    0.11
   1   5  -5    1.02    0.11
   1   5  -5    1.19    0.12
  -1   5   5    0.95    0.12
  -1  -5   5    0.80    0.08
  -1  -5   5    1.21    0.09
   1  -5  -5    0.98    0.11
  -1  -5   5    1.00    0.11
  -1  -5   5    0.93    0.08
  -1   5   4   15.21    0.46
   1   5  -4   14.70    0.44
  -1   5   4   14.95    0.47
   1   5  -4   14.47    0.45
  -1  -5   4   15.30    0.44
   1  -5  -4   15.43    0.38
   1  -5  -4   15.21    0.46
  -1  -5   4   14.70    0.41
  -1   5   3    7.13    0.25
  -1   5   3    7.03    0.26
   1   5  -3    7.37    0.25
   1   5  -3    7.10    0.24
  -1  -5   3    7.30    0.25
   1  -5  -3    6.91    0.20
  -1  -5   3    7.26    0.22
   1  -5  -3    6.86    0.25
  -1   5   2   14.54    0.43
   1   5  -2   14.17    0.41
  -1   5   2   15.17    0.42
   1   5  -2   15.02    0.42
  -1  -5   2   15.20    0.39
  -1  -5   2   15.27    0.41
   1  -5  -2   15.30    0.43
   1  -5  -2   15.04    0.38
  -1   5   1   11.40    0.32
   1   5  -1   11.17    0.31
   1   5  -1   10.99    0.31
  -1  -5   1   10.79    0.30
  -1  -5   1   10.81    0.31
   1  -5  -1   11.18    0.30
   1  -5  -1   10.97    0.32
   1   5   0    4.78    0.16
  -1   5   0    4.81    0.15
   1  -5   0    4.56    0.16
  -1  -5   0    4.86    0.16
   1  -5   0    5.11    0.16
  -1  -5   0    5.09    0.17
  -1   5  -1    0.06    0.02
  -1  -5  -1    0.01    0.02
   1  -5   1    0.05    0.02
   1  -5   1    0.02    0.02
   1   5   2    0.63    0.07
  -1   5  -2    0.78    0.08
   1   5   2    0.76    0.08
   1  -5   2    0.71    0.04
  -1  -5  -2    0.68    0.07
   1  -5   2    0.66    0.07
   1   5   3    0.15    0.04
   1   5   3    0.08    0.03
  -1   5  -3    0.22    0.05
  -1  -5  -3    0.12    0.04
   1  -5   3    0.15    0.04
   1  -5   3    0.19    0.02
  -1   5  -4   12.56    0.40
   1   5   4   12.82    0.40
   1   5   4   13.19    0.42
   1  -5   4   13.05    0.34
   1  -5   4   13.17    0.39
   1  -5   4   12.76    0.33
  -1  -5  -4   13.16    0.41
   1   5   5    0.63    0.09
  -1   5  -5    0.64    0.09
   1   5   5    0.75    0.10
   1  -5   5    0.77    0.09
   1  -5   5    0.75    0.07
   1  -5   5    0.65    0.05
  -1  -5  -5    0.65    0.09
   1   5   6    4.97    0.24
   1   5   6    4.81    0.24
  -1   5  -6    4.58    0.23
  -1  -5  -6    4.69    0.23
   1  -5   6    5.11    0.22
   1   5   7    0.07    0.06
  -1   5  -7    0.10    0.06
   1   5   7    0.06    0.05
   1  -5   7    0.01    0.05
  -1  -5  -7    0.06    0.05
   1   5   8    0.07    0.06
  -1   5  -8    0.00    0.05
   1   5   8    0.06    0.07
  -1  -5  -8   -0.07    0.04
   1   5   9    0.03    0.08
   1   5   9   -0.02    0.06
   1   5  10    0.46    0.12
   1   5  10    0.40    0.11
   1   5  11    0.12    0.08
   1   5  12    0.04    0.09
  -1   6  12    0.10    0.11
  -1   6  12    0.03    0.09
  -1   6  11    0.01    0.08
  -1   6  11    0.10    0.09
  -1   6  10    0.10    0.09
  -1   6  10    0.15    0.10
  -1   6   9    0.67    0.13
  -1   6   9    0.52    0.12
   1   6  -9    0.74    0.12
   1   6  -9    0.47    0.11
  -1  -6   9    0.77    0.13
   1  -6  -9    0.82    0.14
   1   6  -8    0.10    0.07
  -1   6   8    0.18    0.08
  -1   6   8    0.11    0.08
   1   6  -8    0.11    0.06
  -1  -6   8    0.08    0.06
   1  -6  -8    0.11    0.06
  -1   6   7    0.05    0.06
   1   6  -7    0.11    0.06
   1   6  -7   -0.01    0.05
  -1   6   7    0.10    0.07
  -1  -6   7    0.06    0.06
   1  -6  -7    0.08    0.06
  -1   6   6    1.36    0.15
  -1   6   6    1.02    0.13
   1   6  -6    1.46    0.15
   1   6  -6    1.28    0.13
   1  -6  -6    1.02    0.12
  -1  -6   6    1.29    0.09
  -1  -6   6    1.55    0.15
   1   6  -5    0.03    0.04
  -1   6   5    0.02    0.04
   1   6  -5    0.06    0.04
  -1   6   5    0.01    0.03
  -1  -6   5   -0.02    0.02
   1  -6  -5   -0.01    0.03
  -1  -6   5   -0.04    0.03
  -1   6   4    0.19    0.05
  -1   6   4    0.25    0.06
   1   6  -4    0.19    0.06
   1   6  -4    0.18    0.05
   1  -6  -4    0.25    0.04
  -1  -6   4    0.17    0.04
  -1  -6   4    0.11    0.05
   1  -6  -4    0.16    0.05
  -1   6   3   16.03    0.49
  -1   6   3   16.45    0.48
   1   6  -3   16.79    0.47
   1   6  -3   16.48    0.48
  -1  -6   3   16.87    0.44
  -1  -6   3   16.43    0.47
   1  -6  -3   16.58    0.42
   1  -6  -3   16.96    0.49
  -1   6   2    6.44    0.23
  -1   6   2    6.65    0.24
   1   6  -2    6.44    0.23
   1   6  -2    7.05    0.24
  -1  -6   2    6.82    0.21
  -1  -6   2    6.63    0.23
   1  -6  -2    6.69    0.24
   1  -6  -2    6.68    0.20
  -1   6   1   41.72    1.03
   1   6  -1   39.97    0.98
   1   6  -1   41.07    0.99
   1  -6  -1   42.07    1.01
  -1  -6   1   40.86    0.98
  -1  -6   1   41.01    0.98
   1  -6  -1   40.81    0.96
  -1   6   0    4.90    0.17
   1   6   0    5.01    0.17
   1   6   0    5.00    0.17
  -1   6   0    5.08    0.17
   1  -6   0    5.10    0.18
   1  -6   0    5.05    0.18
  -1  -6   0    5.39    0.18
  -1  -6   0    5.02    0.17
  -1   6  -1   21.87    0.56
   1   6   1   21.70    0.55
  -1  -6  -1   21.35    0.52
   1  -6   1   22.20    0.54
  -1  -6  -1   21.49    0.57
   1  -6   1   20.69    0.55
  -1   6  -2    6.97    0.24
   1   6   2    6.55    0.23
   1  -6   2    7.10    0.20
  -1  -6  -2    7.05    0.24
   1  -6   2    6.52    0.23
   1   6   3    4.22    0.19
  -1   6  -3    3.90    0.18
   1   6   3    4.06    0.18
  -1  -6  -3    4.23    0.19
   1  -6   3    4.09    0.18
   1  -6   3    4.42    0.13
  -1   6  -4    3.02    0.16
   1   6   4    2.91    0.16
   1   6   4    3.28    0.17
   1  -6   4    3.08    0.11
   1  -6   4    3.28    0.16
  -1  -6  -4    2.62    0.16
   1   6   5    0.11    0.05
   1   6   5    0.20    0.06
  -1   6  -5    0.16    0.06
  -1  -6  -5    0.16    0.05
   1  -6   5    0.24    0.06
   1   6   6    0.22    0.06
   1   6   6    0.18    0.07
  -1   6  -6    0.07    0.05
   1  -6   6    0.27    0.07
  -1  -6  -6    0.04    0.04
   1   6   7    1.63    0.17
  -1   6  -7    1.79    0.17
   1   6   7    1.68    0.17
  -1  -6  -7    1.55    0.16
   1  -6   7    1.66    0.16
  -1   6  -8    1.19    0.16
   1   6   8    1.25    0.16
   1   6   8    0.91    0.13
   1  -6   8    1.23    0.14
  -1  -6  -8    0.86    0.13
   1   6   9    1.33    0.18
  -1   6  -9    1.36    0.17
   1   6   9    1.07    0.16
   1   6  10    0.13    0.09
   1   6  10    0.04    0.08
   1   6  11   -0.03    0.09
   1   6  11   -0.02    0.08
   1   6  12    0.07    0.10
  -1   7  12    0.05    0.11
  -1   7  11    0.06    0.09
  -1   7  11    0.02    0.08
  -1   7  10    0.03    0.07
  -1   7  10    0.13    0.10
   1   7 -10    0.19    0.10
   1  -7 -10    0.21    0.09
   1   7  -9    0.24    0.10
  -1   7   9    0.26    0.10
   1   7  -9    0.40    0.11
  -1   7   9    0.31    0.10
   1  -7  -9    0.35    0.10
  -1  -7   9    0.47    0.11
   1   7  -8    0.05    0.06
  -1   7   8    0.09    0.08
  -1   7   8   -0.01    0.06
   1   7  -8    0.13    0.07
   1  -7  -8    0.10    0.07
  -1  -7   8    0.08    0.07
  -1   7   7    4.37    0.25
  -1   7   7    4.33    0.25
   1   7  -7    4.58    0.24
   1   7  -7    4.52    0.25
   1  -7  -7    4.41    0.26
  -1  -7   7    4.63    0.24
  -1   7   6    2.97    0.19
   1   7  -6    2.82    0.18
   1   7  -6    3.08    0.19
  -1   7   6    2.65    0.18
  -1  -7   6    2.80    0.18
   1  -7  -6    2.59    0.18
  -1   7   5    0.40    0.08
  -1   7   5    0.49    0.09
   1   7  -5    0.41    0.08
   1   7  -5    0.49    0.09
   1  -7  -5    0.28    0.07
  -1  -7   5    0.35    0.05
  -1  -7   5    0.49    0.09
   1   7  -4    3.52    0.18
   1   7  -4    3.77    0.19
  -1   7   4    3.56    0.19
  -1   7   4    3.69    0.19
  -1  -7   4    3.95    0.19
   1  -7  -4    3.21    0.18
  -1  -7   4    4.06    0.15
   1  -7  -4    3.52    0.14
   1   7  -3   14.48    0.43
   1   7  -3   13.81    0.43
  -1   7   3   13.73    0.42
  -1   7   3   13.96    0.44
  -1  -7   3   14.33    0.42
   1  -7  -3   13.97    0.44
   1  -7  -3   14.03    0.37
  -1  -7   3   13.94    0.38
   1   7  -2    0.22    0.05
   1   7  -2    0.31    0.06
  -1   7   2    0.27    0.05
  -1   7   2    0.30    0.05
  -1  -7   2    0.30    0.04
   1  -7  -2    0.25    0.05
  -1  -7   2    0.22    0.05
   1  -7  -2    0.28    0.04
  -1   7   1   21.35    0.56
   1   7  -1   21.73    0.58
  -1   7   1   21.49    0.55
  -1   7   1   22.94    0.59
   1   7  -1   21.27    0.57
  -1  -7   1   21.99    0.57
   1  -7  -1   22.04    0.55
   1  -7  -1   22.45    0.59
  -1  -7   1   21.36    0.57
  -1   7   0   61.62    1.44
   1   7   0   61.16    1.44
   1   7   0   63.48    1.44
  -1   7   0   62.04    1.50
  -1  -7   0   62.33    1.44
   1  -7   0   62.04    1.44
   1  -7   0   62.24    1.47
  -1  -7   0   62.61    1.48
  -1   7  -1    5.53    0.21
  -1  -7  -1    5.42    0.21
  -1  -7  -1    5.84    0.18
   1  -7   1    5.33    0.20
   1  -7   1    5.42    0.19
  -1   7  -2   32.59    0.83
   1   7   2   32.27    0.82
   1  -7   2   32.62    0.78
  -1  -7  -2   31.99    0.76
  -1  -7  -2   32.30    0.84
  -1   7  -3    9.03    0.32
   1   7   3    9.20    0.32
   1   7   3    9.34    0.31
   1  -7   3    8.97    0.25
   1  -7   3    8.98    0.31
  -1  -7  -3    8.94    0.32
   1   7   4    4.44    0.21
   1   7   4    4.57    0.21
  -1   7  -4    4.58    0.22
   1  -7   4    4.48    0.15
   1  -7   4    4.47    0.20
  -1  -7  -4    4.40    0.21
   1   7   5    6.12    0.28
   1   7   5    6.48    0.27
  -1   7  -5    6.54    0.28
  -1  -7  -5    6.03    0.27
   1  -7   5    6.32    0.26
   1   7   6    1.19    0.14
   1   7   6    1.29    0.14
  -1   7  -6    1.23    0.14
   1  -7   6    1.24    0.13
  -1  -7  -6    1.18    0.14
  -1   7  -7    0.01    0.06
   1   7   7   -0.02    0.06
   1   7   7    0.01    0.05
   1  -7   7    0.02    0.05
  -1  -7  -7   -0.01    0.04
   1   7   8    0.09    0.07
   1   7   8    0.00    0.07
  -1   7  -8   -0.06    0.05
  -1  -7  -8    0.01    0.05
   1  -7   8    0.09    0.06
   1   7   9    0.19    0.09
   1   7   9    0.37    0.11
  -1   7  -9    0.43    0.11
   1   7  10    0.38    0.12
   1   7  10    0.27    0.11
   1   7  11   -0.03    0.08
   1   7  12    0.09    0.10
  -1   8  12    0.27    0.13
  -1   8  11    0.07    0.09
  -1   8  11   -0.02    0.08
  -1   8  10    0.09    0.09
   1   8 -10    0.08    0.09
  -1   8  10    0.18    0.09
  -1   8   9    0.64    0.13
   1   8  -9    0.59    0.12
   1   8  -9    0.63    0.14
  -1   8   9    0.79    0.14
  -1  -8   9    0.65    0.13
   1  -8  -9    0.72    0.14
   1   8  -8    0.25    0.09
   1   8  -8    0.15    0.08
  -1   8   8    0.10    0.08
  -1   8   8    0.16    0.09
  -1  -8   8    0.23    0.09
   1  -8  -8    0.09    0.07
   1   8  -7    0.42    0.10
   1   8  -7    0.54    0.11
  -1   8   7    0.37    0.09
  -1   8   7    0.46    0.11
   1  -8  -7    0.45    0.10
  -1  -8   7    0.71    0.12
  -1   8   6    0.99    0.13
   1   8  -6    0.95    0.12
   1   8  -6    0.92    0.13
  -1   8   6    0.72    0.12
  -1  -8   6    0.68    0.11
   1  -8  -6    0.71    0.11
   1   8  -5    0.95    0.12
   1   8  -5    0.99    0.12
  -1   8   5    0.91    0.12
  -1   8   5    0.90    0.12
  -1  -8   5    0.88    0.08
  -1  -8   5    0.83    0.11
   1  -8  -5    0.72    0.11
  -1   8   4   -0.02    0.03
   1   8  -4    0.03    0.04
  -1   8   4   -0.04    0.03
   1   8  -4   -0.01    0.03
  -1  -8   4   -0.02    0.02
   1  -8  -4    0.01    0.03
  -1  -8   4    0.03    0.04
   1  -8  -4    0.05    0.04
   1   8  -3    0.63    0.09
  -1   8   3    0.61    0.09
  -1   8   3    0.46    0.07
   1   8  -3    0.73    0.09
   1  -8  -3    0.58    0.08
  -1  -8   3    0.68    0.09
  -1  -8   3    0.60    0.06
   1  -8  -3    0.71    0.07
  -1   8   2    6.87    0.25
  -1   8   2    7.26    0.26
   1   8  -2    6.79    0.26
  -1   8   2    7.37    0.22
   1   8  -2    6.93    0.26
  -1  -8   2    7.08    0.26
  -1  -8   2    7.17    0.23
   1  -8  -2    7.03    0.27
   1  -8  -2    6.88    0.23
  -1   8   1   81.95    2.04
  -1   8   1   85.23    1.92
  -1   8   1   85.02    1.95
   1   8  -1   84.69    1.95
   1   8  -1   81.36    1.94
   1  -8  -1   86.03    2.00
   1  -8  -1   83.60    1.92
  -1  -8   1   83.76    1.94
  -1  -8   1   86.05    1.97
   1   8   0    1.79    0.10
   1   8   0    1.85    0.11
  -1   8   0    1.73    0.11
   1  -8   0    1.61    0.10
   1  -8   0    1.57    0.10
  -1  -8   0    1.53    0.10
  -1  -8   0    1.70    0.10
  -1   8  -1    0.35    0.06
   1   8   1    0.25    0.05
  -1  -8  -1    0.28    0.05
  -1  -8  -1    0.32    0.06
   1  -8   1    0.29    0.05
   1  -8   1    0.29    0.05
  -1   8  -2    0.68    0.09
   1   8   2    0.78    0.08
  -1  -8  -2    0.92    0.10
   1  -8   2    0.80    0.09
  -1  -8  -2    0.85    0.06
   1  -8   2    0.95    0.07
  -1   8  -3   22.52    0.64
   1   8   3   23.11    0.63
   1   8   3   22.29    0.65
   1  -8   3   22.70    0.57
  -1  -8  -3   21.95    0.54
  -1  -8  -3   22.02    0.64
   1  -8   3   22.73    0.63
   1   8   4    3.82    0.19
  -1   8  -4    3.86    0.20
   1   8   4    3.53    0.19
  -1  -8  -4    3.31    0.19
   1  -8   4    3.74    0.19
   1  -8   4    3.66    0.13
   1   8   5    1.07    0.13
  -1   8  -5    1.04    0.13
   1   8   5    1.02    0.13
   1  -8   5    1.19    0.13
  -1  -8  -5    1.39    0.15
   1   8   6    4.98    0.25
   1   8   6    4.80    0.25
  -1   8  -6    5.04    0.26
   1  -8   6    4.45    0.23
  -1  -8  -6    4.75    0.25
   1   8   7    0.49    0.10
  -1   8  -7    0.51    0.11
   1   8   7    0.29    0.09
  -1  -8  -7    0.40    0.09
   1  -8   7    0.33    0.08
   1   8   8    0.52    0.12
   1   8   8    0.50    0.11
  -1   8  -8    0.63    0.13
  -1  -8  -8    0.42    0.10
   1  -8   8    0.49    0.11
   1   8   9    0.26    0.10
   1   8   9    0.23    0.10
  -1   8  -9    0.44    0.12
  -1  -8  -9    0.33    0.10
   1   8  10    0.03    0.09
   1   8  10    0.11    0.10
   1   8  11   -0.11    0.08
  -1   9  11    0.04    0.09
  -1   9  11   -0.12    0.08
  -1   9  10    0.08    0.08
   1   9 -10    0.05    0.10
  -1   9  10    0.14    0.11
  -1  -9  10    0.17    0.10
  -1   9   9    0.90    0.16
  -1   9   9    1.11    0.17
   1   9  -9    1.09    0.17
   1   9  -9    0.86    0.15
   1  -9  -9    0.90    0.15
  -1  -9   9    0.96    0.15
   1   9  -8    5.78    0.30
   1   9  -8    5.59    0.32
  -1   9   8    5.30    0.31
  -1   9   8    5.70    0.31
   1  -9  -8    4.90    0.31
  -1  -9   8    5.43    0.29
   1   9  -7    1.63    0.19
  -1   9   7    1.73    0.19
   1   9  -7    2.03    0.19
  -1   9   7    1.66    0.19
   1  -9  -7    1.71    0.19
  -1  -9   7    1.79    0.18
   1   9  -6    0.20    0.08
  -1   9   6    0.25    0.09
  -1   9   6    0.18    0.07
   1   9  -6    0.23    0.07
  -1  -9   6    0.33    0.09
   1  -9  -6    0.21    0.07
   1   9  -5    4.91    0.24
  -1   9   5    4.94    0.25
  -1   9   5    4.96    0.25
   1   9  -5    4.97    0.26
  -1  -9   5    4.78    0.24
  -1  -9   5    5.02    0.19
   1  -9  -5    5.06    0.26
   1   9  -4    0.00    0.04
   1   9  -4    0.01    0.04
  -1   9   4    0.00    0.04
  -1   9   4   -0.01    0.03
  -1  -9   4   -0.02    0.04
  -1  -9   4    0.03    0.03
   1  -9  -4    0.04    0.04
   1   9  -3    3.51    0.19
   1   9  -3    3.68    0.19
  -1   9   3    3.99    0.19
  -1   9   3    3.82    0.19
  -1  -9   3    3.49    0.18
   1  -9  -3    3.59    0.15
   1  -9  -3    3.89    0.20
  -1  -9   3    3.97    0.16
  -1   9   2    3.47    0.17
  -1   9   2    3.46    0.14
   1   9  -2    3.51    0.17
  -1   9   2    3.20    0.16
   1   9  -2    3.65    0.18
   1  -9  -2    3.50    0.15
  -1  -9   2    3.50    0.15
  -1  -9   2    3.20    0.16
   1  -9  -2    3.31    0.17
  -1   9   1    0.13    0.04
   1   9  -1    0.29    0.06
  -1   9   1    0.17    0.04
  -1   9   1    0.15    0.04
   1   9  -1    0.09    0.04
   1  -9  -1    0.22    0.05
  -1  -9   1    0.17    0.04
  -1  -9   1    0.18    0.05
   1  -9  -1    0.18    0.05
   1   9   0    0.44    0.05
   1   9   0    0.33    0.06
  -1   9   0    0.37    0.06
  -1  -9   0    0.41    0.06
  -1  -9   0    0.31    0.05
   1  -9   0    0.38    0.06
   1  -9   0    0.39    0.06
   1   9   1    0.08    0.03
  -1   9  -1    0.02    0.03
   1   9   1    0.08    0.03
  -1  -9  -1    0.04    0.03
  -1  -9  -1    0.08    0.03
   1  -9   1    0.05    0.03
   1  -9   1    0.02    0.02
  -1   9  -2    1.63    0.12
   1   9   2    1.78    0.11
   1   9   2    1.74    0.09
  -1  -9  -2    1.73    0.09
   1  -9   2    1.55    0.11
   1  -9   2    1.70    0.10
  -1  -9  -2    1.74    0.12
  -1   9  -3    0.17    0.06
   1   9   3    0.22    0.06
   1  -9   3    0.15    0.05
   1  -9   3    0.20    0.04
  -1  -9  -3    0.24    0.06
   1   9   4    8.77    0.34
   1   9   4    8.21    0.32
  -1   9  -4    8.63    0.34
   1  -9   4    8.63    0.32
  -1  -9  -4    7.81    0.33
   1   9   5    1.53    0.16
  -1   9  -5    1.59    0.17
   1   9   5    1.53    0.16
   1  -9   5    1.28    0.14
  -1  -9  -5    1.49    0.16
   1   9   6    1.56    0.17
   1   9   6    1.62    0.17
  -1   9  -6    1.49    0.17
  -1  -9  -6    1.60    0.17
   1  -9   6    1.40    0.16
  -1   9  -7    5.16    0.29
   1   9   7    4.66    0.27
   1   9   7    4.45    0.26
  -1  -9  -7    4.25    0.26
   1  -9   7    4.57    0.25
  -1   9  -8   -0.03    0.07
   1   9   8    0.04    0.07
   1   9   8    0.06    0.07
  -1  -9  -8    0.04    0.06
   1  -9   8    0.07    0.07
   1   9   9    0.27    0.10
  -1   9  -9   -0.02    0.07
   1   9   9    0.22    0.11
   1  -9   9    0.16    0.09
  -1  -9  -9    0.12    0.08
   1   9  10    0.41    0.13
  -1   9 -10    0.50    0.14
   1   9  11    0.17    0.11
  -1  10  11    0.01    0.10
   1  10 -11   -0.05    0.09
  -1  10  10    0.09    0.10
  -1  10  10    0.01    0.08
   1  10 -10    0.08    0.10
  -1 -10  10    0.09    0.10
  -1  10   9    1.16    0.17
   1  10  -9    1.11    0.18
  -1  10   9    0.80    0.15
  -1 -10   9    0.92    0.15
   1  10  -8    2.01    0.21
   1  10  -8    1.70    0.22
  -1  10   8    1.69    0.20
  -1  10   8    1.57    0.19
   1 -10  -8    1.54    0.20
  -1 -10   8    1.80    0.20
  -1  10   7    0.89    0.14
  -1  10   7    0.93    0.14
   1  10  -7    1.28    0.17
   1  10  -7    1.05    0.15
  -1 -10   7    0.81    0.14
   1 -10  -7    1.17    0.16
   1  10  -6    1.88    0.20
  -1  10   6    1.66    0.18
   1  10  -6    1.39    0.17
  -1  10   6    1.77    0.19
   1 -10  -6    1.27    0.16
  -1 -10   6    1.33    0.16
  -1  10   5    0.53    0.10
  -1  10   5    0.78    0.12
   1  10  -5    0.66    0.11
   1  10  -5    0.77    0.13
  -1 -10   5    0.60    0.10
   1 -10  -5    0.56    0.10
   1  10  -4    1.82    0.17
   1  10  -4    2.15    0.16
  -1  10   4    2.13    0.15
  -1  10   4    2.17    0.16
  -1 -10   4    1.93    0.15
  -1 -10   4    2.20    0.12
   1 -10  -4    1.99    0.16
   1  10  -3    5.81    0.25
  -1  10   3    5.14    0.24
  -1  10   3    5.88    0.24
   1  10  -3    5.46    0.25
  -1 -10   3    5.03    0.23
  -1 -10   3    5.09    0.20
   1 -10  -3    5.48    0.20
   1 -10  -3    5.32    0.25
   1  10  -2    3.51    0.18
   1  10  -2    3.37    0.18
  -1  10   2    3.30    0.17
  -1  10   2    3.49    0.15
  -1 -10   2    3.25    0.17
   1 -10  -2    3.23    0.18
   1 -10  -2    3.53    0.16
  -1 -10   2    3.40    0.16
  -1  10   1   12.29    0.38
  -1  10   1   12.84    0.37
   1  10  -1   12.37    0.40
   1  10  -1   12.92    0.40
  -1  10   1   12.70    0.40
   1 -10  -1   12.90    0.41
   1 -10  -1   12.54    0.38
  -1 -10   1   13.23    0.40
  -1 -10   1   12.75    0.39
  -1  10   0    0.21    0.05
   1  10   0    0.28    0.04
   1  10   0    0.26    0.06
  -1 -10   0    0.21    0.05
   1 -10   0    0.16    0.05
   1 -10   0    0.15    0.04
  -1 -10   0    0.22    0.05
  -1  10  -1   13.01    0.42
   1  10   1   13.70    0.39
   1  10   1   13.47    0.39
   1 -10   1   14.29    0.41
  -1 -10  -1   13.56    0.39
  -1 -10  -1   13.28    0.43
   1 -10   1   12.86    0.41
  -1  10  -2    0.19    0.06
   1  10   2    0.24    0.05
  -1 -10  -2    0.28    0.06
   1 -10   2    0.21    0.05
   1 -10   2    0.26    0.06
  -1 -10  -2    0.38    0.05
   1  10   3    6.71    0.27
  -1  10  -3    7.30    0.30
   1 -10   3    7.16    0.24
  -1 -10  -3    6.96    0.29
   1 -10   3    6.67    0.28
  -1  10  -4    4.87    0.25
   1  10   4    4.98    0.23
  -1 -10  -4    4.23    0.23
   1 -10   4    4.76    0.24
   1  10   5    4.84    0.24
  -1  10  -5    4.50    0.25
   1  10   5    4.76    0.25
   1 -10   5    4.26    0.23
  -1 -10  -5    4.24    0.24
  -1  10  -6    1.50    0.18
   1  10   6    1.23    0.15
   1  10   6    1.11    0.15
  -1 -10  -6    1.49    0.17
   1 -10   6    1.14    0.15
  -1  10  -7    0.11    0.08
   1  10   7    0.01    0.06
   1  10   7    0.06    0.07
  -1 -10  -7    0.04    0.06
   1 -10   7    0.03    0.07
  -1  10  -8   -0.05    0.07
   1  10   8    0.00    0.07
   1  10   8    0.03    0.06
  -1 -10  -8    0.04    0.07
   1 -10   8    0.10    0.08
  -1  10  -9    0.05    0.09
   1  10   9    0.05    0.09
   1 -10   9   -0.03    0.07
   1  10  10    0.63    0.14
  -1  10 -10    0.84    0.17
   1  10  11    0.39    0.13
   1  11 -11    0.02    0.09
  -1  11  11    0.01    0.10
   1  11 -10   -0.04    0.08
  -1  11  10    0.08    0.10
  -1  11  10    0.02    0.08
  -1 -11  10    0.00    0.09
   1  11  -9    0.31    0.11
  -1  11   9    0.09    0.08
  -1  11   9    0.27    0.11
  -1 -11   9    0.11    0.09
  -1  11   8    0.50    0.12
  -1  11   8    0.29    0.10
   1  11  -8    0.45    0.11
   1  11  -8    0.41    0.13
  -1 -11   8    0.48    0.12
   1 -11  -8    0.49    0.13
  -1  11   7    0.46    0.11
  -1  11   7    0.35    0.10
   1  11  -7    0.31    0.11
   1 -11  -7    0.43    0.11
  -1 -11   7    0.20    0.09
  -1  11   6    4.59    0.26
   1  11  -6    4.69    0.26
  -1  11   6    4.52    0.26
   1  11  -6    4.41    0.28
   1 -11  -6    4.41    0.27
  -1 -11   6    4.79    0.26
  -1  11   5   -0.07    0.05
   1  11  -5    0.05    0.06
   1  11  -5    0.07    0.06
  -1  11   5    0.01    0.05
   1 -11  -5   -0.03    0.04
  -1 -11   5   -0.03    0.05
  -1  11   4    0.77    0.11
   1  11  -4    0.85    0.12
  -1  11   4    0.86    0.11
   1  11  -4    0.93    0.13
   1 -11  -4    0.61    0.11
  -1 -11   4    1.04    0.10
  -1 -11   4    1.00    0.13
   1  11  -3    0.20    0.07
   1  11  -3    0.13    0.06
  -1  11   3    0.17    0.06
  -1  11   3    0.12    0.06
  -1 -11   3    0.16    0.05
   1 -11  -3    0.14    0.06
  -1 -11   3    0.16    0.06
   1 -11  -3    0.14    0.05
  -1  11   2    1.35    0.11
  -1  11   2    1.73    0.13
  -1  11   2    1.48    0.10
   1  11  -2    1.56    0.15
   1  11  -2    1.64    0.13
  -1 -11   2    1.64    0.11
   1 -11  -2    1.75    0.12
   1 -11  -2    1.76    0.13
  -1 -11   2    1.77    0.13
   1  11  -1   -0.05    0.03
  -1  11   1    0.01    0.04
  -1  11   1    0.09    0.04
   1 -11  -1    0.01    0.03
   1 -11  -1    0.00    0.03
  -1 -11   1   -0.01    0.03
  -1 -11   1    0.08    0.04
  -1  11   0    2.67    0.15
   1  11   0    2.46    0.11
   1  11   0    2.53    0.15
   1 -11   0    2.61    0.15
   1 -11   0    2.61    0.15
  -1 -11   0    2.70    0.15
  -1 -11   0    2.55    0.15
   1  11   1    0.03    0.03
  -1  11  -1    0.01    0.04
   1  11   1    0.06    0.04
   1 -11   1   -0.03    0.04
   1 -11   1    0.07    0.04
  -1 -11  -1    0.00    0.03
  -1 -11  -1    0.00    0.03
  -1  11  -2    6.87    0.29
   1  11   2    5.43    0.23
   1 -11   2    6.92    0.25
  -1 -11  -2    6.65    0.28
  -1 -11  -2    6.39    0.23
   1 -11   2    6.90    0.27
   1  11   3    0.11    0.05
  -1  11  -3    0.08    0.06
  -1 -11  -3    0.00    0.04
   1 -11   3    0.09    0.06
   1 -11   3    0.08    0.04
   1  11   4    0.19    0.07
  -1  11  -4    0.14    0.06
  -1 -11  -4    0.19    0.07
   1 -11   4    0.17    0.07
  -1  11  -5    1.81    0.19
   1  11   5    1.76    0.17
   1 -11   5    1.27    0.15
  -1 -11  -5    1.51    0.17
  -1  11  -6   -0.08    0.06
   1  11   6    0.02    0.06
  -1 -11  -6   -0.06    0.03
   1 -11   6    0.01    0.06
  -1  11  -7    0.41    0.12
   1  11   7    0.45    0.11
  -1 -11  -7    0.46    0.11
   1 -11   7    0.65    0.12
  -1  11  -8    0.29    0.11
   1  11   8    0.30    0.10
   1 -11   8    0.65    0.13
  -1 -11  -8    0.56    0.12
   1  11   9    0.35    0.12
  -1  11  -9    0.38    0.13
   1 -11   9    0.22    0.10
   1  11  10   -0.03    0.08
  -1  11 -10   -0.03    0.09
   1  11  11   -0.02    0.09
  -1  12  11    0.02    0.10
   1  12 -11    0.30    0.13
   1  12 -10    0.09    0.10
  -1  12  10   -0.02    0.08
  -1 -12  10   -0.03    0.09
  -1  12   9    0.03    0.08
   1  12  -9   -0.15    0.08
  -1  12   9   -0.09    0.06
  -1 -12   9    0.06    0.09
   1  12  -8    0.05    0.08
  -1  12   8    0.07    0.07
  -1  12   8   -0.04    0.07
  -1 -12   8   -0.05    0.07
  -1  12   7    2.75    0.22
   1  12  -7    3.21    0.25
  -1  12   7    2.53    0.24
   1 -12  -7    2.30    0.25
  -1 -12   7    3.24    0.23
  -1  12   6    0.30    0.09
  -1  12   6    0.13    0.08
   1  12  -6    0.28    0.09
   1  12  -6    0.39    0.11
  -1 -12   6    0.23    0.09
   1 -12  -6    0.44    0.11
  -1  12   5    1.09    0.14
  -1  12   5    0.89    0.13
   1  12  -5    1.18    0.16
   1  12  -5    1.12    0.15
  -1 -12   5    1.01    0.14
   1 -12  -5    0.93    0.14
  -1  12   4    0.38    0.09
  -1  12   4    0.64    0.11
   1  12  -4    0.42    0.10
   1  12  -4    0.57    0.11
  -1 -12   4    0.58    0.08
  -1 -12   4    0.43    0.09
   1 -12  -4    0.52    0.10
   1  12  -3    0.90    0.13
   1  12  -3    0.78    0.12
  -1  12   3    1.03    0.12
  -1  12   3    0.59    0.10
   1 -12  -3    0.84    0.12
  -1 -12   3    0.76    0.09
   1 -12  -3    0.70    0.09
  -1 -12   3    0.85    0.12
  -1  12   2    0.48    0.08
  -1  12   2    0.52    0.08
   1  12  -2    0.50    0.10
   1 -12  -2    0.50    0.08
  -1 -12   2    0.36    0.08
  -1 -12   2    0.43    0.08
   1 -12  -2    0.50    0.09
  -1  12   1    5.51    0.23
   1  12  -1    5.83    0.26
  -1 -12   1    5.57    0.24
   1 -12  -1    5.39    0.25
  -1 -12   1    5.90    0.25
   1 -12  -1    5.29    0.23
   1  12   0    1.40    0.13
  -1  12   0    1.57    0.14
   1 -12   0    1.46    0.14
  -1 -12   0    1.47    0.12
   1 -12   0    1.26    0.13
  -1 -12   0    1.56    0.12
  -1  12  -1    3.72    0.20
   1  12   1    3.75    0.16
   1  12   1    3.38    0.17
  -1 -12  -1    3.47    0.19
   1 -12   1    3.78    0.20
   1 -12   1    3.81    0.18
  -1 -12  -1    3.50    0.17
  -1  12  -2    0.21    0.07
   1 -12   2    0.40    0.08
  -1 -12  -2    0.16    0.06
   1 -12   2    0.34    0.06
  -1 -12  -2    0.30    0.06
  -1  12  -3    8.05    0.34
   1  12   3    8.17    0.31
   1 -12   3    8.51    0.34
  -1 -12  -3    8.58    0.35
   1  12   4    0.58    0.10
  -1  12  -4    0.79    0.13
  -1 -12  -4    0.49    0.10
   1 -12   4    0.96    0.13
  -1  12  -5    0.17    0.08
   1  12   5    0.18    0.07
   1 -12   5    0.10    0.07
  -1 -12  -5    0.24    0.08
  -1  12  -6    1.08    0.16
   1  12   6    1.08    0.15
  -1 -12  -6    1.29    0.17
   1 -12   6    1.33    0.16
  -1  12  -7    0.67    0.14
   1  12   7    0.59    0.12
  -1 -12  -7    0.74    0.14
   1 -12   7    0.80    0.14
   1  12   8    0.08    0.08
  -1  12  -8    0.02    0.09
   1 -12   8    0.08    0.08
  -1  12  -9    0.44    0.14
   1  12   9    0.42    0.12
   1 -12   9    0.46    0.13
  -1  12 -10    0.24    0.13
   1  12  10   -0.02    0.09
   1 -12  10    0.03    0.10
   1  13 -10    0.09    0.10
  -1  13  10    0.03    0.10
  -1 -13  10   -0.05    0.10
  -1  13   9    0.08    0.09
  -1  13   9    0.03    0.07
   1  13  -9    0.01    0.09
  -1 -13   9    0.01    0.08
  -1  13   8    0.50    0.12
   1  13  -8    0.41    0.13
  -1  13   8    0.53    0.13
  -1 -13   8    0.49    0.13
   1  13  -7    0.10    0.09
  -1  13   7    0.13    0.08
  -1  13   7   -0.03    0.07
  -1 -13   7    0.10    0.08
  -1  13   6    0.27    0.10
   1  13  -6    0.23    0.10
  -1  13   6    0.17    0.08
  -1 -13   6    0.11    0.08
   1 -13  -6    0.24    0.09
   1  13  -5    0.18    0.08
  -1  13   5    0.12    0.07
  -1  13   5    0.26    0.09
  -1 -13   5    0.26    0.09
   1 -13  -5    0.15    0.07
  -1  13   4    9.11    0.35
   1  13  -4    8.83    0.39
  -1  13   4   10.04    0.39
  -1 -13   4    8.44    0.36
   1 -13  -4    7.99    0.38
  -1  13   3    0.27    0.08
   1  13  -3    0.12    0.07
  -1  13   3    0.18    0.06
  -1 -13   3    0.20    0.07
   1 -13  -3    0.15    0.06
  -1 -13   3    0.24    0.07
  -1  13   2    2.22    0.14
   1  13  -2    2.09    0.16
  -1 -13   2    2.43    0.16
   1 -13  -2    2.07    0.16
  -1 -13   2    2.56    0.16
   1 -13  -2    2.11    0.15
  -1  13   1    1.45    0.14
   1  13  -1    0.94    0.12
  -1 -13   1    1.30    0.13
  -1 -13   1    1.13    0.13
   1 -13  -1    1.23    0.13
   1 -13  -1    1.33    0.14
  -1  13   0    0.03    0.04
   1  13   0    0.00    0.04
   1 -13   0    0.06    0.05
   1 -13   0    0.07    0.05
  -1 -13   0    0.14    0.06
  -1 -13   0    0.08    0.05
   1  13   1    0.22    0.06
  -1  13  -1    0.29    0.08
  -1 -13  -1    0.26    0.07
   1 -13   1    0.17    0.05
   1 -13   1    0.27    0.07
  -1 -13  -1    0.14    0.06
  -1  13  -2    1.29    0.15
   1  13   2    1.23    0.12
   1 -13   2    1.32    0.14
   1 -13   2    1.34    0.12
  -1 -13  -2    1.15    0.14
  -1  13  -3    4.33    0.24
   1  13   3    4.61    0.22
   1 -13   3    4.45    0.24
  -1 -13  -3    3.82    0.23
  -1  13  -4    1.87    0.20
   1  13   4    1.71    0.16
   1 -13   4    1.54    0.17
  -1 -13  -4    1.79    0.19
  -1  13  -5    0.78    0.14
   1  13   5    0.58    0.11
   1 -13   5    0.70    0.12
  -1 -13  -5    0.67    0.12
  -1  13  -6    5.58    0.33
   1  13   6    5.52    0.29
   1 -13   6    5.73    0.30
  -1 -13  -6    5.31    0.32
   1  13   7    0.00    0.06
  -1  13  -7    0.28    0.10
   1 -13   7    0.24    0.10
  -1  13  -8   -0.06    0.07
   1  13   8    0.00    0.08
   1 -13   8   -0.02    0.08
  -1  13  -9    0.38    0.13
   1  13   9    0.18    0.10
   1 -13   9    0.20    0.11
  -1  13 -10    0.11    0.10
   1  13  10   -0.04    0.09
   1 -13  10    0.07    0.11
  -1  14  10    0.18    0.11
   1  14 -10   -0.10    0.09
  -1 -14  10    0.16    0.11
  -1  14   9    0.09    0.09
   1  14  -9    0.06    0.10
  -1  14   9    0.01    0.08
  -1 -14   9    0.19    0.11
   1  14  -8    0.13    0.10
  -1  14   8    0.00    0.08
  -1  14   8    0.40    0.12
  -1 -14   8   -0.10    0.07
  -1  14   7    1.23    0.17
   1  14  -7    1.36    0.21
  -1  14   7    1.42    0.19
  -1 -14   7    1.21    0.17
  -1  14   6    1.45    0.18
   1  14  -6    1.66    0.21
  -1  14   6    1.84    0.19
  -1 -14   6    1.57    0.19
   1 -14  -6    1.63    0.21
  -1  14   5    0.05    0.07
  -1  14   5    0.01    0.06
   1  14  -5    0.17    0.09
  -1 -14   5    0.20    0.08
   1 -14  -5    0.10    0.07
  -1  14   4    0.13    0.07
  -1  14   4    0.12    0.07
   1  14  -4    0.26    0.09
   1 -14  -4    0.17    0.07
  -1 -14   4    0.24    0.08
   1  14  -3    6.28    0.31
  -1 -14   3    6.61    0.27
   1 -14  -3    6.57    0.32
  -1 -14   3    6.35    0.30
   1  14  -2    0.64    0.11
   1 -14  -2    0.61    0.10
  -1 -14   2    0.51    0.09
   1 -14  -2    0.57    0.10
  -1 -14   2    0.53    0.10
   1  14  -1    1.72    0.17
  -1  14   1    1.24    0.13
  -1 -14   1    1.51    0.15
   1 -14  -1    1.41    0.15
   1 -14  -1    1.51    0.15
  -1 -14   1    1.27    0.13
  -1  14   0   -0.01    0.04
   1  14   0    0.05    0.05
   1 -14   0   -0.02    0.05
  -1 -14   0   -0.01    0.05
   1 -14   0    0.08    0.05
  -1 -14   0    0.02    0.05
  -1  14  -1    1.35    0.15
  -1 -14  -1    1.53    0.14
  -1 -14  -1    1.09    0.13
   1 -14   1    1.18    0.14
   1 -14   1    1.29    0.13
  -1  14  -2    0.12    0.06
  -1 -14  -2    0.11    0.06
   1 -14   2    0.10    0.05
   1 -14   2    0.22    0.07
  -1  14  -3   -0.08    0.04
   1  14   3    0.08    0.06
   1 -14   3    0.05    0.06
  -1 -14  -3   -0.01    0.05
  -1  14  -4    1.33    0.17
   1  14   4    1.31    0.14
   1 -14   4    1.15    0.15
  -1 -14  -4    1.51    0.18
  -1  14  -5    0.04    0.07
   1  14   5    0.01    0.05
  -1 -14  -5    0.04    0.06
   1 -14   5    0.02    0.07
  -1  14  -6    0.31    0.10
   1  14   6    0.44    0.11
   1 -14   6    0.12    0.08
   1  14   7    0.35    0.10
  -1  14  -7    0.20    0.10
   1 -14   7    0.32    0.11
   1  14   8    0.01    0.07
  -1  14  -8   -0.05    0.08
   1 -14   8   -0.02    0.08
   1  14   9    0.26    0.11
  -1  14  -9    0.57    0.15
   1 -14   9    0.30    0.12
  -1  14 -10   -0.06    0.10
   1 -14  10   -0.07    0.10
   1  15  -9    0.23    0.12
  -1  15   9    0.08    0.09
  -1 -15   9    0.06    0.09
  -1  15   8    0.57    0.14
   1  15  -8    0.53    0.15
  -1 -15   8    0.67    0.15
  -1  15   7    0.40    0.12
  -1  15   7    0.32    0.11
   1  15  -7    0.32    0.13
  -1 -15   7    0.46    0.12
  -1  15   6    0.76    0.14
   1  15  -6    0.80    0.16
  -1 -15   6    0.31    0.10
  -1  15   5    1.34    0.16
   1  15  -5    1.07    0.17
   1 -15  -5    1.26    0.18
  -1 -15   5    1.06    0.16
   1  15  -4    1.18    0.17
  -1  15   4    1.23    0.14
  -1 -15   4    1.12    0.15
   1 -15  -4    0.99    0.15
   1  15  -3    0.09    0.07
   1 -15  -3    0.20    0.08
  -1 -15   3    0.08    0.06
   1  15  -2    0.58    0.11
   1 -15  -2    0.78    0.12
  -1 -15   2    0.49    0.09
  -1 -15   2    0.73    0.12
   1 -15  -2    0.85    0.12
   1  15  -1    0.02    0.05
  -1  15   1    0.03    0.05
  -1 -15   1    0.02    0.04
   1 -15  -1    0.03    0.06
  -1 -15   1    0.02    0.05
   1 -15  -1    0.04    0.05
   1  15   0   -0.01    0.05
  -1  15   0   -0.09    0.04
  -1 -15   0    0.08    0.05
  -1 -15   0   -0.04    0.05
   1 -15   0    0.10    0.06
   1 -15   0    0.00    0.06
  -1  15  -1    1.18    0.15
   1 -15   1    1.39    0.16
  -1 -15  -1    1.11    0.14
   1 -15   1    1.25    0.13
  -1 -15  -1    1.22    0.13
  -1  15  -2    1.15    0.15
   1 -15   2    1.43    0.16
  -1 -15  -2    1.00    0.14
  -1  15  -3    2.83    0.21
  -1 -15  -3    3.35    0.23
   1 -15   3    3.01    0.21
   1  15   4    0.00    0.05
  -1  15  -4   -0.04    0.06
  -1 -15  -4    0.08    0.06
   1 -15   4    0.10    0.07
  -1  15  -5    0.20    0.09
   1  15   5    0.17    0.08
   1 -15   5    0.27    0.10
  -1  15  -6    0.04    0.08
   1  15   6    0.03    0.07
   1 -15   6   -0.05    0.07
   1  15   7    0.03    0.08
  -1  15  -7    0.02    0.07
   1 -15   7   -0.08    0.07
   1  15   8    0.35    0.12
  -1  15  -8    0.27    0.12
   1 -15   8    0.36    0.12
  -1  15  -9    0.07    0.10
   1 -15   9   -0.07    0.10
   1  16  -9   -0.11    0.08
  -1  16   9    0.21    0.11
  -1 -16   9    0.11    0.10
   1  16  -8    0.02    0.09
  -1  16   8   -0.05    0.07
  -1 -16   8   -0.09    0.08
   1  16  -7    0.07    0.10
  -1  16   7    0.13    0.09
  -1 -16   7    0.06    0.09
  -1  16   6    0.43    0.11
   1  16  -6    0.38    0.13
  -1 -16   6    0.40    0.11
  -1  16   5    0.06    0.07
   1  16  -5    0.04    0.09
  -1 -16   5    0.22    0.09
   1  16  -4    1.20    0.18
  -1 -16   4    1.46    0.18
   1 -16  -4    1.12    0.17
   1  16  -3    0.65    0.13
  -1 -16   3    0.54    0.11
   1 -16  -3    0.54    0.12
   1  16  -2    0.31    0.10
  -1 -16   2    0.10    0.06
   1 -16  -2    0.11    0.06
  -1 -16   2    0.16    0.08
   1  16  -1    2.68    0.20
   1 -16  -1    2.40    0.19
   1 -16  -1    2.86    0.19
  -1 -16   1    2.52    0.18
  -1 -16   1    2.44    0.18
   1  16   0    2.82    0.19
  -1  16   0    2.55    0.19
  -1 -16   0    2.67    0.19
   1 -16   0    2.67    0.19
  -1 -16   0    2.77    0.19
   1 -16   0    2.59    0.19
  -1  16  -1    0.35    0.10
   1 -16   1    0.46    0.10
  -1 -16  -1    0.31    0.09
   1 -16   1    0.35    0.09
  -1  16  -2    0.49    0.12
   1 -16   2    0.73    0.13
  -1 -16  -2    0.66    0.12
  -1  16  -3    0.10    0.08
   1 -16   3    0.03    0.07
  -1 -16  -3    0.09    0.06
  -1  16  -4    0.88    0.15
   1 -16   4    0.63    0.13
  -1  16  -5    0.04    0.07
   1  16   5   -0.04    0.05
   1 -16   5   -0.03    0.07
   1  16   6    0.82    0.14
  -1  16  -6    0.82    0.16
   1 -16   6    0.57    0.13
  -1  16  -7    0.02    0.08
   1  16   7   -0.01    0.07
   1 -16   7    0.07    0.09
  -1  16  -8   -0.06    0.08
   1  16   8    0.03    0.08
   1 -16   8    0.08    0.10
  -1  16  -9    0.12    0.11
   1  16   9    0.04    0.09
   1 -16   9    0.12    0.12
  -1  17   8    0.04    0.09
   1  17  -8    0.03    0.09
  -1 -17   8    0.11    0.10
   1  17  -7    0.33    0.13
  -1  17   7    0.35    0.11
  -1 -17   7    0.33    0.11
  -1  17   6    0.17    0.09
   1  17  -6    0.05    0.09
  -1 -17   6    0.07    0.07
   1  17  -5    0.22    0.11
  -1 -17   5    0.24    0.10
   1  17  -4    0.24    0.10
  -1 -17   4    0.17    0.09
   1  17  -3    3.91    0.27
  -1 -17   3    3.40    0.24
   1 -17  -3    3.90    0.26
   1  17  -2    0.46    0.11
  -1 -17   2    0.31    0.09
  -1 -17   2    0.30    0.09
   1 -17  -2    0.17    0.08
   1  17  -1    0.14    0.08
  -1 -17   1    0.34    0.10
  -1 -17   1    0.19    0.07
   1 -17  -1    0.21    0.08
   1 -17  -1    0.13    0.08
  -1  17   0    0.14    0.08
   1 -17   0   -0.02    0.07
  -1 -17   0    0.02    0.05
  -1 -17   0    0.06    0.06
  -1  17  -1    1.07    0.16
  -1 -17  -1    1.25    0.16
   1 -17   1    1.30    0.16
  -1  17  -2    1.14    0.17
  -1 -17  -2    1.02    0.14
   1 -17   2    0.84    0.14
  -1  17  -3    0.24    0.10
   1 -17   3    0.26    0.10
  -1  17  -4   -0.02    0.08
   1 -17   4    0.10    0.09
  -1  17  -5    0.72    0.15
   1 -17   5    0.71    0.14
  -1  17  -6   -0.01    0.08
   1  17   6   -0.01    0.07
   1 -17   6    0.10    0.09
   1  17   7    0.26    0.10
  -1  17  -7    0.43    0.14
   1 -17   7    0.05    0.09
   1  17   8    0.01    0.09
  -1  17  -8    0.04    0.10
   1 -17   8   -0.01    0.09
  -1  18   8    0.09    0.09
   1  18  -8    0.00    0.10
  -1  18   7    0.07    0.09
   1  18  -7    0.05    0.11
  -1 -18   7    0.00    0.08
   1  18  -6    0.03    0.09
  -1 -18   6    0.03    0.08
   1  18  -5   -0.15    0.06
  -1 -18   5   -0.08    0.08
   1  18  -4    0.18    0.10
  -1 -18   4    0.14    0.09
   1  18  -3    0.40    0.11
  -1 -18   3    0.59    0.13
   1  18  -2    0.11    0.09
  -1 -18   2    0.09    0.08
   1  18  -1    0.59    0.13
  -1 -18   1    0.67    0.11
   1 -18  -1    0.75    0.13
   1 -18  -1    1.02    0.15
  -1 -18   1    0.61    0.12
  -1 -18   0    0.07    0.06
  -1 -18   0    0.07    0.07
   1 -18   0   -0.07    0.05
   1 -18   0    0.04    0.07
  -1  18  -1    3.00    0.22
   1 -18   1    2.88    0.22
  -1 -18  -1    2.90    0.22
  -1  18  -2    0.14    0.09
   1 -18   2    0.07    0.07
  -1  18  -3    0.06    0.08
   1 -18   3    0.02    0.07
  -1  18  -4   -0.02    0.08
   1 -18   4    0.09    0.08
  -1  18  -5    0.10    0.08
   1 -18   5   -0.12    0.07
  -1  18  -6    0.07    0.09
   1 -18   6   -0.07    0.08
   1  18   7    0.04    0.08
  -1  18  -7   -0.02    0.09
   1 -18   7   -0.03    0.08
   1  19  -7    0.04    0.10
  -1 -19   7    0.09    0.10
   1  19  -6    0.16    0.11
  -1 -19   6    0.00    0.09
   1  19  -5    0.23    0.12
  -1 -19   5    0.34    0.12
   1  19  -4    0.03    0.09
  -1 -19   4   -0.01    0.09
   1  19  -3    0.16    0.11
  -1 -19   3    0.09    0.09
   1  19  -2    1.36    0.19
  -1 -19   2    1.02    0.16
  -1 -19   1    0.54    0.11
  -1 -19   1    0.83    0.14
   1 -19   0    0.57    0.13
  -1  19  -1    0.04    0.08
   1 -19   1    0.04    0.08
  -1  19  -2    1.16    0.18
   1 -19   2    1.45    0.18
  -1  19  -3    0.51    0.14
   1 -19   3    0.54    0.13
  -1  19  -4    0.30    0.12
   1 -19   4    0.46    0.12
  -1  19  -5    0.10    0.09
   1 -19   5    0.09    0.09
  -1  19  -6   -0.09    0.08
   1 -19   6    0.03    0.09
  -1  19  -7    0.08    0.12
   1  20  -6    0.08    0.10
  -1 -20   6    0.11    0.10
   1  20  -5    0.23    0.12
  -1 -20   5    0.12    0.10
   1  20  -4    0.62    0.16
  -1 -20   4    0.64    0.14
   1  20  -3    0.13    0.10
  -1 -20   3    0.01    0.09
   1  20  -2    0.05    0.09
  -1 -20   2   -0.01    0.08
  -1 -20   1    2.14    0.21
   1 -20   0    0.48    0.12
   1 -20   1    0.09    0.09
  -1  20  -2    0.26    0.11
   1 -20   2    0.38    0.12
  -1  20  -3    0.28    0.11
   1 -20   3    0.24    0.11
  -1  20  -4    0.73    0.16
   1 -20   4    0.57    0.14
  -1  20  -5   -0.12    0.08
   1 -20   5   -0.03    0.08
  -1  20  -6    0.08    0.10
   1 -20   6    0.12    0.10
   1  21  -5    0.14    0.12
  -1 -21   5    0.17    0.11
   1  21  -4    1.44    0.23
  -1 -21   4    1.52    0.21
   1  21  -3    0.72    0.17
  -1 -21   3    0.37    0.13
  -1 -21   2    0.55    0.13
  -1 -21   1    0.39    0.11
   1 -21   1    0.02    0.09
  -1  21  -2    0.91    0.18
   1 -21   2    1.14    0.17
  -1  21  -3    0.31    0.12
   1 -21   3    0.35    0.13
  -1  21  -4    0.06    0.10
   1 -21   4   -0.05    0.09
  -1  21  -5    0.20    0.11
   1  22  -3    0.23    0.13
  -1 -22   3    0.41    0.13
  -1 -22   2    0.49    0.13
   1 -22   1    0.05    0.10
   1 -22   2    0.23    0.12
  -1  22  -3    0.07    0.10
   1 -22   3   -0.09    0.08
  -2   0  11   -0.06    0.08
  -2   0  10    1.69    0.20
  -2   0   9    0.01    0.06
  -2   0   9   -0.02    0.06
   2   0  -8    0.55    0.10
  -2   0   8    0.34    0.09
  -2   0   8    0.53    0.11
  -2   0   7   -0.05    0.04
  -2   0   7   -0.01    0.04
   2   0  -7    0.01    0.03
   2   0  -7    0.06    0.04
  -2   0   7    0.05    0.05
   2   0  -7    0.01    0.04
  -2   0   6   -0.01    0.03
  -2   0   6    0.00    0.04
   2   0  -6   -0.03    0.03
   2   0  -6    0.04    0.03
   2   0  -6   -0.01    0.03
  -2   0   6    0.01    0.04
  -2   0   5    0.05    0.04
   2   0  -5   -0.02    0.03
   2   0  -5    0.00    0.02
   2   0  -5    0.00    0.02
  -2   0   5   -0.01    0.03
   2   0  -4    4.92    0.18
   2   0  -4    5.08    0.19
   2   0  -4    3.95    0.16
  -2   0   4    5.02    0.20
   2   0  -3    0.00    0.02
   2   0  -3    0.02    0.02
   2   0  -2  589.66   13.28
   2   0  -2  606.78   13.50
   2   0  -1    0.01    0.01
  -2   0   0   20.88    0.50
  -2   0  -1    0.02    0.01
   2   0   1    0.02    0.01
   2   0   2  977.37   22.19
  -2   0  -2 1000.00   22.21
   2   0   3    0.10    0.03
  -2   0  -3    0.00    0.02
  -2   0  -4   11.01    0.31
   2   0   4   11.23    0.33
  -2   0  -4   11.30    0.31
   2   0   4   11.44    0.30
   2   0   4   10.97    0.33
   2   0   5    0.03    0.03
  -2   0  -5    0.00    0.03
   2   0   5    0.02    0.03
   2   0   5   -0.06    0.04
  -2   0  -5    0.02    0.03
  -2   0  -6   -0.03    0.03
   2   0   6    0.06    0.04
  -2   0  -6    0.02    0.03
   2   0   6   -0.01    0.04
   2   0   7   -0.01    0.04
   2   0   7    0.04    0.05
   2   0   8   -0.01    0.06
   2   0   9   -0.01    0.06
   2   0  10    0.24    0.09
  -2   1  12    0.07    0.10
  -2   1  11    0.14    0.10
  -2   1  10    0.30    0.11
  -2   1  10    0.11    0.08
  -2  -1  10    0.16    0.09
  -2   1   9    0.29    0.09
  -2   1   9    0.36    0.10
   2  -1  -9    0.17    0.07
  -2  -1   9    0.24    0.09
  -2  -1   9    0.33    0.09
  -2   1   8    1.58    0.17
  -2   1   8    1.17    0.15
   2   1  -8    1.36    0.14
   2  -1  -8    1.53    0.16
  -2  -1   8    1.11    0.14
  -2  -1   8    1.70    0.17
  -2   1   7    1.75    0.17
   2   1  -7    1.38    0.13
  -2   1   7    1.46    0.11
  -2   1   7    1.71    0.16
   2   1  -7    1.66    0.15
   2   1  -7    1.93    0.13
  -2  -1   7    1.62    0.12
   2  -1  -7    1.71    0.12
  -2  -1   7    2.01    0.15
   2  -1  -7    1.61    0.15
  -2  -1   7    1.61    0.14
  -2   1   6    0.52    0.09
   2   1  -6    0.01    0.03
   2   1  -6    0.39    0.07
  -2   1   6   -0.03    0.04
   2   1  -6    0.05    0.04
   2  -1  -6    0.00    0.03
  -2  -1   6   -0.02    0.04
  -2  -1   6    0.22    0.06
  -2  -1   6   -0.01    0.03
   2  -1  -6    0.03    0.04
   2  -1  -6    0.01    0.03
   2   1  -5    5.84    0.22
  -2   1   5    5.83    0.24
   2   1  -5    5.74    0.21
  -2   1   5    5.36    0.23
   2   1  -5    5.88    0.23
  -2  -1   5    5.49    0.23
   2  -1  -5    5.83    0.21
   2  -1  -5    5.55    0.20
   2  -1  -5    5.76    0.24
  -2  -1   5    5.36    0.22
   2   1  -4   14.30    0.40
   2   1  -4   13.93    0.41
  -2   1   4   13.80    0.43
   2   1  -4   13.71    0.39
   2  -1  -4   13.89    0.38
   2  -1  -4   13.90    0.38
  -2  -1   4   13.30    0.42
   2  -1  -4   14.79    0.42
   2   1  -3    0.00    0.02
   2   1  -3    0.02    0.02
  -2   1   3    0.02    0.02
   2   1  -3    0.02    0.02
   2  -1  -3    0.01    0.02
   2  -1  -3    0.02    0.02
   2   1  -2   62.82    1.44
   2  -1  -2   62.64    1.48
   2  -1  -2   64.35    1.44
   2  -1  -1    1.33    0.07
  -2  -1   1    1.36    0.07
   2  -1   0  204.29    4.60
  -2  -1   0  201.93    4.61
  -2   1  -1   60.94    1.37
  -2  -1  -1   61.15    1.39
  -2   1  -2    0.85    0.04
   2   1   2    0.78    0.06
   2  -1   2    0.81    0.03
  -2  -1  -2    0.81    0.05
  -2   1  -3   78.81    1.75
   2   1   3   74.80    1.79
   2  -1   3   78.98    1.75
  -2  -1  -3   78.31    1.78
   2  -1   3   75.28    1.73
   2  -1   3   75.95    1.77
   2   1   4    3.90    0.16
  -2   1  -4    3.43    0.14
   2   1   4    3.55    0.15
  -2   1  -4    3.87    0.13
   2  -1   4    3.56    0.14
   2  -1   4    3.96    0.14
   2  -1   4    3.71    0.15
  -2  -1  -4    3.77    0.15
  -2   1  -5    7.29    0.25
   2   1   5    7.57    0.27
   2   1   5    7.15    0.27
  -2   1  -5    7.70    0.24
   2  -1   5    7.18    0.23
  -2  -1  -5    7.42    0.23
  -2  -1  -5    7.75    0.25
   2  -1   5    7.50    0.25
   2  -1   5    7.44    0.26
   2   1   6    0.61    0.08
   2   1   6    0.35    0.08
  -2   1  -6    0.52    0.07
   2  -1   6    0.49    0.07
  -2  -1  -6    0.38    0.06
   2  -1   6    0.42    0.07
   2   1   7    0.16    0.07
   2   1   7    0.25    0.07
   2  -1   7    0.13    0.06
   2   1   8    1.20    0.14
   2   1   8    1.11    0.13
   2  -1   8    1.21    0.14
   2   1   9    0.52    0.11
   2  -1   9    0.50    0.10
   2   1  10    0.07    0.08
   2   1  11   -0.05    0.08
  -2   2  12    0.06    0.11
  -2   2  11    0.01    0.08
  -2   2  10    0.64    0.13
  -2   2  10    0.89    0.15
  -2   2   9    0.53    0.11
  -2   2   9    0.43    0.12
  -2  -2   9    0.46    0.11
   2  -2  -9    0.27    0.08
   2   2  -8    0.01    0.04
  -2   2   8   -0.05    0.06
   2   2  -8    0.01    0.05
  -2   2   8    0.04    0.06
  -2  -2   8   -0.07    0.06
   2  -2  -8    0.03    0.05
  -2  -2   8    0.08    0.06
  -2  -2   8    0.07    0.06
  -2   2   7    1.18    0.15
   2   2  -7    1.34    0.13
  -2   2   7    1.37    0.15
   2   2  -7    1.49    0.14
  -2  -2   7    1.49    0.14
  -2  -2   7    1.24    0.13
  -2  -2   7    1.41    0.14
   2  -2  -7    1.11    0.13
  -2   2   6    3.21    0.18
  -2   2   6    3.34    0.19
   2   2  -6    3.21    0.17
   2   2  -6    3.33    0.17
   2   2  -6    3.67    0.18
  -2  -2   6    3.48    0.18
  -2  -2   6    3.34    0.17
  -2  -2   6    3.28    0.17
   2  -2  -6    3.26    0.15
   2  -2  -6    2.94    0.18
   2  -2  -6    3.30    0.15
   2   2  -5    7.41    0.26
   2   2  -5    7.35    0.26
  -2   2   5    7.19    0.28
  -2   2   5    7.26    0.29
  -2  -2   5    7.38    0.26
   2  -2  -5    7.62    0.24
  -2  -2   5    7.34    0.27
   2  -2  -5    7.56    0.29
   2  -2  -5    7.30    0.24
  -2   2   4    9.90    0.33
   2   2  -4    9.79    0.30
   2   2  -4    9.46    0.30
   2  -2  -4    9.96    0.33
   2  -2  -4    9.60    0.28
   2   2  -3   64.04    1.49
   2   2  -3   63.81    1.48
  -2   2   3   64.93    1.59
   2  -2  -3   63.17    1.47
   2  -2  -3   65.61    1.54
  -2   2   2    2.07    0.10
   2   2  -2    2.14    0.10
   2  -2  -2    2.23    0.09
   2  -2  -2    1.95    0.10
  -2  -2   2    2.29    0.10
   2   2  -1    7.07    0.21
   2  -2  -1    7.56    0.22
  -2  -2   1    7.20    0.21
  -2  -2   0   19.19    0.47
   2  -2   0   19.37    0.47
  -2   2  -1    0.15    0.01
   2  -2   1    0.19    0.02
  -2  -2  -1    0.13    0.02
   2  -2   1    0.12    0.03
   2   2   2    0.01    0.02
  -2  -2  -2    0.02    0.02
   2  -2   2    0.05    0.02
  -2   2  -3    2.60    0.12
  -2   2  -3    2.48    0.08
   2   2   3    2.47    0.12
   2  -2   3    2.46    0.10
   2  -2   3    2.62    0.07
  -2  -2  -3    2.77    0.11
   2  -2   3    2.54    0.11
  -2   2  -4   20.97    0.55
  -2   2  -4   21.08    0.51
   2   2   4   21.04    0.58
   2   2   4   20.65    0.57
   2  -2   4   20.92    0.54
  -2  -2  -4   22.07    0.56
   2  -2   4   20.95    0.54
   2  -2   4   20.42    0.53
  -2   2  -5    4.40    0.15
   2   2   5    4.04    0.19
   2   2   5    4.21    0.19
   2  -2   5    4.38    0.17
   2  -2   5    4.13    0.16
  -2  -2  -5    4.07    0.18
   2  -2   5    4.40    0.17
   2   2   6    0.11    0.05
  -2   2  -6    0.11    0.05
   2   2   6    0.03    0.05
   2  -2   6    0.08    0.04
  -2  -2  -6    0.09    0.04
   2  -2   6    0.15    0.05
   2  -2   6    0.07    0.05
  -2   2  -7    0.53    0.09
   2   2   7    0.39    0.09
   2   2   7    0.37    0.08
   2  -2   7    0.48    0.09
   2   2   8    0.04    0.06
   2   2   8    0.00    0.06
   2  -2   8    0.03    0.06
   2   2   9    1.65    0.18
   2   2  10    0.19    0.09
   2   2  11    0.09    0.10
  -2   3  12    0.06    0.10
  -2   3  11    0.03    0.08
  -2   3  11    0.08    0.10
  -2   3  10    0.06    0.08
  -2   3  10    0.05    0.09
  -2   3   9    1.61    0.18
  -2   3   9    1.94    0.21
   2  -3  -9    2.03    0.21
   2   3  -8    0.31    0.08
   2   3  -8    0.38    0.08
  -2   3   8    0.60    0.11
  -2   3   8    0.39    0.10
   2  -3  -8    0.36    0.09
  -2  -3   8    0.53    0.10
  -2  -3   8    0.35    0.08
   2   3  -7    2.49    0.16
   2   3  -7    2.45    0.16
  -2   3   7    2.32    0.18
  -2   3   7    2.67    0.18
   2  -3  -7    2.54    0.18
  -2  -3   7    2.47    0.16
  -2  -3   7    2.44    0.16
  -2  -3   7    2.31    0.15
   2   3  -6    5.17    0.23
   2   3  -6    4.83    0.21
  -2   3   6    5.00    0.24
  -2   3   6    4.91    0.24
  -2  -3   6    4.93    0.21
   2  -3  -6    5.01    0.24
  -2  -3   6    5.23    0.22
  -2  -3   6    5.16    0.22
   2  -3  -6    4.90    0.19
  -2   3   5    5.09    0.23
  -2   3   5    5.13    0.23
   2   3  -5    5.23    0.21
   2   3  -5    4.66    0.21
  -2  -3   5    5.33    0.21
   2  -3  -5    4.82    0.22
  -2  -3   5    5.22    0.21
   2  -3  -5    5.10    0.19
   2  -3  -5    5.35    0.18
   2   3  -4    9.77    0.32
   2   3  -4    9.97    0.31
  -2   3   4   10.14    0.33
  -2   3   4    9.93    0.34
  -2  -3   4   10.00    0.31
   2  -3  -4   10.21    0.34
   2  -3  -4   10.10    0.29
  -2  -3   4    9.53    0.31
  -2   3   3   34.92    0.91
   2   3  -3   35.67    0.86
   2   3  -3   35.95    0.86
  -2  -3   3   33.81    0.85
   2  -3  -3   34.90    0.83
  -2  -3   3   35.78    0.86
   2  -3  -3   34.15    0.88
   2   3  -2   46.40    1.07
   2   3  -2   43.98    1.07
  -2   3   2   45.26    1.13
   2  -3  -2   44.84    1.05
  -2  -3   2   46.17    1.08
   2  -3  -2   45.92    1.10
  -2   3   1    0.09    0.02
   2   3  -1    0.06    0.02
   2  -3  -1    0.06    0.02
   2  -3  -1    0.05    0.02
  -2  -3   1    0.10    0.02
  -2   3   0   -0.02    0.01
   2  -3   0    0.00    0.01
  -2  -3   0   -0.01    0.01
   2  -3   0    0.00    0.02
  -2   3  -1    0.03    0.01
   2  -3   1    0.00    0.01
  -2  -3  -1    0.00    0.01
   2  -3   1    0.01    0.01
   2   3   2    1.08    0.07
   2  -3   2    0.92    0.06
  -2  -3  -2    0.90    0.06
   2   3   3   12.77    0.37
  -2   3  -3   12.38    0.36
   2  -3   3   12.27    0.35
  -2  -3  -3   12.94    0.36
   2   3   4   13.72    0.42
  -2   3  -4   14.28    0.40
   2   3   4   13.38    0.40
   2  -3   4   13.61    0.33
   2  -3   4   13.45    0.38
   2  -3   4   13.00    0.36
   2  -3   4   13.34    0.33
  -2  -3  -4   13.47    0.39
   2   3   5    0.04    0.04
  -2   3  -5    0.03    0.04
   2   3   5    0.06    0.03
  -2  -3  -5    0.02    0.03
   2  -3   5    0.03    0.03
   2  -3   5    0.00    0.02
   2  -3   5    0.03    0.03
   2   3   6    0.08    0.05
   2   3   6    0.07    0.04
  -2   3  -6    0.19    0.06
  -2  -3  -6    0.08    0.04
   2  -3   6    0.21    0.05
   2  -3   6    0.09    0.04
  -2   3  -7    0.15    0.05
   2   3   7    0.46    0.10
   2   3   7    0.41    0.09
   2  -3   7    0.50    0.08
  -2  -3  -7    0.26    0.07
   2   3   8    0.31    0.09
   2   3   8    0.31    0.09
   2   3   9    0.30    0.10
   2   3   9    0.18    0.08
   2   3  10    0.40    0.11
   2   3  11    0.08    0.09
   2   3  12    0.04    0.10
  -2   4  12    0.17    0.11
  -2   4  11    0.07    0.10
  -2   4  11    0.09    0.09
  -2   4  10    0.49    0.13
  -2   4  10    0.32    0.11
  -2   4   9   -0.03    0.06
  -2   4   9    0.11    0.08
   2   4  -9    0.06    0.07
   2   4  -9    0.03    0.06
   2  -4  -9    0.02    0.06
   2   4  -8    0.14    0.07
  -2   4   8    0.04    0.05
   2   4  -8    0.06    0.06
  -2   4   8    0.23    0.09
  -2  -4   8    0.09    0.07
   2  -4  -8    0.09    0.06
   2   4  -7    0.69    0.11
   2   4  -7    0.56    0.09
  -2   4   7    0.91    0.13
  -2   4   7    0.69    0.11
  -2  -4   7    0.81    0.11
  -2  -4   7    0.66    0.10
   2  -4  -7    0.81    0.12
  -2  -4   7    0.88    0.10
  -2  -4   7    0.66    0.10
  -2   4   6    0.41    0.09
   2   4  -6    0.55    0.09
   2   4  -6    0.40    0.07
  -2   4   6    0.50    0.09
  -2  -4   6    0.35    0.08
  -2  -4   6    0.39    0.07
  -2  -4   6    0.26    0.06
  -2  -4   6    0.47    0.08
   2  -4  -6    0.39    0.08
   2   4  -5   11.87    0.39
  -2   4   5   11.99    0.42
   2   4  -5   12.50    0.39
  -2   4   5   12.24    0.41
  -2  -4   5   12.13    0.38
   2  -4  -5   12.70    0.42
  -2  -4   5   12.50    0.39
   2  -4  -5   12.14    0.35
  -2   4   4    0.14    0.05
  -2   4   4    0.20    0.06
   2   4  -4    0.10    0.04
   2   4  -4    0.07    0.04
  -2  -4   4    0.13    0.04
  -2  -4   4    0.20    0.05
   2  -4  -4    0.10    0.04
   2  -4  -4    0.19    0.04
   2   4  -3   39.94    0.96
   2   4  -3   38.63    0.95
  -2   4   3   38.62    1.01
  -2  -4   3   39.34    0.95
   2  -4  -3   37.56    0.92
   2  -4  -3   39.20    0.99
  -2  -4   3   40.06    0.95
   2   4  -2   81.11    1.88
   2   4  -2   84.53    1.88
  -2   4   2   80.50    1.99
   2  -4  -2   82.64    1.93
   2  -4  -2   82.22    1.85
  -2  -4   2   83.62    1.90
  -2  -4   2   81.28    1.88
   2   4  -1   11.62    0.31
  -2   4   1   11.10    0.32
  -2  -4   1   10.83    0.30
   2  -4  -1   11.12    0.30
   2  -4  -1   11.27    0.32
  -2  -4   1   10.55    0.30
   2   4   0    0.27    0.04
  -2   4   0    0.19    0.03
   2  -4   0    0.22    0.03
  -2  -4   0    0.22    0.03
  -2  -4   0    0.20    0.03
   2  -4   0    0.16    0.03
   2   4   1    5.52    0.18
  -2   4  -1    5.65    0.15
  -2  -4  -1    5.57    0.18
   2  -4   1    5.27    0.18
   2  -4   1    5.44    0.16
   2   4   2   42.82    1.03
  -2   4  -2   42.24    0.96
   2  -4   2   41.12    1.01
  -2  -4  -2   43.03    1.03
   2  -4   2   43.85    0.97
   2   4   3    0.34    0.06
  -2   4  -3    0.39    0.06
  -2  -4  -3    0.42    0.06
   2  -4   3    0.49    0.06
   2   4   4    3.98    0.18
   2   4   4    3.71    0.18
  -2   4  -4    3.61    0.17
   2  -4   4    3.78    0.16
   2  -4   4    3.80    0.13
  -2  -4  -4    3.72    0.17
   2  -4   4    3.71    0.11
   2  -4   4    3.76    0.10
  -2   4  -5    1.43    0.11
   2   4   5    1.33    0.11
   2   4   5    1.58    0.12
   2  -4   5    1.42    0.10
   2  -4   5    1.52    0.09
  -2  -4  -5    1.29    0.12
  -2   4  -6    0.00    0.04
   2   4   6    0.00    0.04
   2   4   6    0.02    0.04
  -2  -4  -6    0.06    0.04
   2  -4   6   -0.03    0.04
   2  -4   6    0.01    0.04
   2   4   7    1.86    0.17
   2   4   7    1.82    0.15
  -2   4  -7    1.77    0.16
   2  -4   7    2.22    0.14
  -2  -4  -7    1.55    0.15
   2   4   8    0.32    0.10
   2   4   8    0.47    0.10
   2   4   9    0.20    0.08
   2   4   9    0.13    0.08
   2   4  10    0.92    0.15
   2   4  11    0.07    0.09
   2   4  12   -0.06    0.09
  -2   5  12    0.05    0.10
  -2   5  12   -0.09    0.08
  -2   5  11   -0.12    0.07
  -2   5  11   -0.09    0.08
  -2   5  10    0.06    0.08
  -2   5  10    0.01    0.08
   2  -5 -10    0.04    0.07
  -2   5   9    0.52    0.13
   2   5  -9    0.36    0.10
  -2   5   9    0.60    0.13
   2   5  -9    0.37    0.10
   2  -5  -9    0.40    0.10
  -2  -5   9    0.45    0.10
   2   5  -8    0.52    0.10
  -2   5   8    0.25    0.08
   2   5  -8    0.57    0.11
  -2   5   8    0.40    0.10
   2  -5  -8    0.39    0.09
  -2  -5   8    0.55    0.11
   2   5  -7    0.53    0.10
  -2   5   7    0.46    0.10
   2   5  -7    0.46    0.09
  -2   5   7    0.41    0.09
   2  -5  -7    0.39    0.09
  -2  -5   7    0.59    0.10
  -2  -5   7    0.43    0.07
  -2   5   6    1.09    0.13
   2   5  -6    1.18    0.13
  -2   5   6    1.11    0.14
   2   5  -6    1.11    0.12
   2  -5  -6    1.12    0.13
  -2  -5   6    1.34    0.12
  -2  -5   6    1.06    0.10
  -2  -5   6    1.40    0.11
  -2  -5   6    1.19    0.13
  -2   5   5   14.78    0.47
   2   5  -5   14.25    0.46
  -2   5   5   14.96    0.49
   2   5  -5   14.67    0.45
  -2  -5   5   14.99    0.43
   2  -5  -5   14.31    0.40
   2  -5  -5   14.01    0.48
  -2  -5   5   15.06    0.46
   2   5  -4    4.44    0.20
  -2   5   4    4.56    0.21
  -2   5   4    4.20    0.20
   2   5  -4    4.34    0.19
  -2  -5   4    4.65    0.20
  -2  -5   4    4.66    0.18
   2  -5  -4    4.27    0.16
   2  -5  -4    4.30    0.20
   2   5  -3    0.70    0.08
  -2   5   3    0.69    0.08
   2   5  -3    0.61    0.08
  -2   5   3    0.71    0.09
  -2  -5   3    0.50    0.06
   2  -5  -3    0.88    0.09
   2  -5  -3    0.61    0.06
  -2  -5   3    0.76    0.08
   2   5  -2   23.06    0.61
  -2   5   2   23.14    0.64
   2   5  -2   23.89    0.62
   2  -5  -2   23.37    0.58
  -2  -5   2   24.18    0.60
   2  -5  -2   24.29    0.63
  -2  -5   2   23.72    0.61
   2   5  -1    4.76    0.17
  -2   5   1    4.54    0.16
   2   5  -1    4.19    0.16
   2  -5  -1    4.46    0.17
  -2  -5   1    4.51    0.16
   2  -5  -1    4.35    0.16
  -2  -5   1    4.61    0.16
  -2   5   0    0.24    0.03
   2   5   0    0.15    0.03
  -2  -5   0    0.10    0.03
   2  -5   0    0.15    0.03
  -2  -5   0    0.20    0.04
   2  -5   0    0.13    0.03
   2   5   1    5.67    0.19
   2  -5   1    5.92    0.17
   2  -5   1    5.69    0.20
  -2  -5  -1    6.02    0.20
  -2   5  -2    4.08    0.12
  -2   5  -2    4.09    0.17
   2   5   2    3.71    0.15
   2  -5   2    4.07    0.16
  -2  -5  -2    4.41    0.17
   2  -5   2    4.08    0.12
   2   5   3    1.62    0.10
  -2   5  -3    1.61    0.11
   2  -5   3    1.63    0.10
   2  -5   3    1.76    0.06
  -2  -5  -3    1.62    0.10
  -2   5  -4   17.65    0.51
   2   5   4   17.83    0.51
   2  -5   4   17.16    0.40
   2  -5   4   16.58    0.48
  -2  -5  -4   16.95    0.50
   2   5   5    4.47    0.21
  -2   5  -5    4.44    0.21
   2   5   5    4.62    0.22
  -2  -5  -5    4.03    0.20
   2  -5   5    4.23    0.19
   2   5   6    0.03    0.05
  -2   5  -6   -0.01    0.04
   2   5   6   -0.04    0.04
   2  -5   6   -0.01    0.04
  -2  -5  -6    0.02    0.04
   2   5   7    0.80    0.12
   2   5   7    0.64    0.11
  -2   5  -7    1.00    0.13
  -2  -5  -7    0.94    0.12
   2  -5   7    0.95    0.11
   2   5   8    1.47    0.17
  -2   5  -8    1.73    0.18
   2   5   8    1.55    0.17
   2   5   9    0.12    0.08
   2   5  10    0.06    0.08
   2   5  11    0.29    0.12
   2   5  12   -0.02    0.09
  -2   6  12    0.03    0.09
  -2   6  12    0.08    0.10
  -2   6  11    0.22    0.11
  -2   6  11    0.13    0.09
  -2   6  10    0.05    0.09
  -2   6  10   -0.05    0.07
   2   6 -10   -0.08    0.06
   2  -6 -10   -0.10    0.05
  -2   6   9    0.05    0.07
  -2   6   9    0.02    0.08
   2   6  -9   -0.01    0.07
   2   6  -9    0.04    0.07
  -2  -6   9   -0.10    0.06
   2  -6  -9    0.03    0.06
  -2   6   8   -0.01    0.06
  -2   6   8    0.01    0.06
   2   6  -8   -0.04    0.05
   2   6  -8    0.08    0.06
  -2  -6   8   -0.03    0.05
   2  -6  -8   -0.07    0.04
   2   6  -7    1.71    0.17
  -2   6   7    1.71    0.18
   2   6  -7    1.39    0.15
  -2   6   7    1.42    0.16
   2  -6  -7    1.41    0.16
  -2  -6   7    1.63    0.16
   2   6  -6    0.22    0.07
  -2   6   6   -0.02    0.04
   2   6  -6    0.07    0.05
  -2   6   6    0.26    0.08
  -2  -6   6    0.09    0.05
  -2  -6   6    0.13    0.05
   2  -6  -6    0.10    0.05
   2   6  -5    8.69    0.32
  -2   6   5    8.49    0.33
  -2   6   5    8.96    0.34
   2   6  -5    8.83    0.33
  -2  -6   5    8.28    0.32
   2  -6  -5    8.58    0.34
   2  -6  -5    8.25    0.27
  -2  -6   5    8.57    0.29
   2   6  -4    0.19    0.06
  -2   6   4    0.28    0.06
  -2   6   4    0.20    0.06
   2   6  -4    0.14    0.05
  -2  -6   4    0.23    0.05
   2  -6  -4    0.15    0.05
  -2  -6   4    0.18    0.04
   2  -6  -4    0.17    0.04
   2   6  -3   27.94    0.73
  -2   6   3   27.44    0.73
  -2   6   3   27.17    0.75
   2   6  -3   27.04    0.71
   2  -6  -3   27.53    0.67
  -2  -6   3   26.42    0.71
   2  -6  -3   27.86    0.74
  -2  -6   3   27.31    0.69
   2   6  -2    0.78    0.08
  -2   6   2    0.77    0.08
   2   6  -2    0.76    0.08
  -2  -6   2    0.81    0.08
   2  -6  -2    0.85    0.09
  -2  -6   2    0.71    0.07
   2  -6  -2    0.82    0.07
   2   6  -1    1.11    0.08
  -2   6   1    1.28    0.08
   2   6  -1    1.27    0.08
   2  -6  -1    1.30    0.09
  -2  -6   1    1.35    0.08
   2  -6  -1    1.32    0.08
  -2  -6   1    1.30    0.08
  -2   6   0    0.09    0.03
   2   6   0    0.16    0.04
   2   6   0    0.24    0.04
  -2  -6   0    0.20    0.04
  -2  -6   0    0.21    0.04
   2  -6   0    0.11    0.04
   2  -6   0    0.11    0.03
   2   6   1    0.70    0.05
  -2   6  -1    0.77    0.04
   2   6   1    0.77    0.06
  -2  -6  -1    0.67    0.05
   2  -6   1    0.79    0.05
   2  -6   1    0.76    0.07
  -2  -6  -1    0.82    0.08
  -2   6  -2   30.04    0.76
   2   6   2   29.54    0.75
   2  -6   2   29.81    0.70
   2  -6   2   29.15    0.75
  -2  -6  -2   29.23    0.76
  -2   6  -3    1.58    0.11
   2   6   3    1.73    0.11
  -2  -6  -3    1.55    0.11
   2  -6   3    1.55    0.11
   2  -6   3    1.63    0.07
   2   6   4    4.91    0.21
  -2   6  -4    4.92    0.22
   2  -6   4    5.33    0.21
  -2  -6  -4    4.63    0.21
  -2   6  -5    0.90    0.11
   2   6   5    1.36    0.13
   2   6   5    0.98    0.12
  -2  -6  -5    1.01    0.12
   2  -6   5    0.65    0.09
  -2   6  -6    0.42    0.08
   2   6   6    0.24    0.07
   2   6   6    0.35    0.08
  -2  -6  -6    0.41    0.08
   2  -6   6    0.25    0.07
   2   6   7    0.09    0.06
  -2   6  -7    0.01    0.05
   2   6   7    0.06    0.06
   2  -6   7    0.08    0.06
  -2  -6  -7    0.01    0.04
   2   6   8   -0.05    0.05
  -2   6  -8    0.01    0.05
  -2  -6  -8   -0.01    0.05
   2   6   9   -0.08    0.06
   2   6  10    0.07    0.09
   2   6  11    0.00    0.08
  -2   7  12    0.33    0.12
  -2   7  11    0.08    0.09
  -2   7  11    0.10    0.09
  -2   7  10    0.09    0.08
  -2   7  10    0.24    0.10
   2   7 -10    0.08    0.09
  -2   7   9    1.27    0.18
   2   7  -9    1.34    0.18
  -2   7   9    0.77    0.14
   2   7  -9    0.95    0.14
  -2  -7   9    0.80    0.14
   2  -7  -9    0.78    0.14
   2   7  -8    0.38    0.10
  -2   7   8    0.25    0.09
   2   7  -8    0.46    0.11
  -2   7   8    0.44    0.11
   2  -7  -8    0.31    0.09
  -2  -7   8    0.41    0.10
   2   7  -7    0.03    0.06
  -2   7   7   -0.05    0.06
  -2   7   7   -0.03    0.04
   2   7  -7   -0.07    0.04
   2  -7  -7   -0.02    0.04
  -2  -7   7    0.01    0.06
  -2   7   6    0.46    0.09
  -2   7   6    0.51    0.10
   2   7  -6    0.51    0.09
   2   7  -6    0.45    0.09
   2  -7  -6    0.40    0.09
  -2  -7   6    0.41    0.07
  -2  -7   6    0.42    0.09
   2   7  -5    3.19    0.18
   2   7  -5    2.95    0.18
  -2   7   5    3.38    0.19
  -2   7   5    3.00    0.18
  -2  -7   5    2.88    0.14
   2  -7  -5    2.95    0.19
  -2  -7   5    3.26    0.18
   2   7  -4    1.23    0.13
  -2   7   4    1.19    0.13
   2   7  -4    1.10    0.12
  -2   7   4    0.98    0.11
  -2  -7   4    1.05    0.08
  -2  -7   4    0.88    0.11
   2  -7  -4    1.10    0.12
   2  -7  -4    1.13    0.08
   2   7  -3    3.93    0.18
   2   7  -3    4.15    0.19
  -2   7   3    3.62    0.18
  -2   7   3    3.79    0.18
   2  -7  -3    3.97    0.19
  -2  -7   3    3.50    0.15
  -2  -7   3    3.81    0.18
   2  -7  -3    3.73    0.15
  -2   7   2    8.25    0.29
   2   7  -2    7.92    0.29
  -2   7   2    8.53    0.28
   2   7  -2    8.40    0.28
  -2  -7   2    8.66    0.29
   2  -7  -2    8.44    0.29
   2  -7  -2    8.28    0.26
  -2  -7   2    8.57    0.26
   2   7  -1    5.26    0.21
   2   7  -1    5.40    0.20
  -2  -7   1    5.50    0.20
   2  -7  -1    5.62    0.21
   2  -7  -1    5.57    0.20
  -2  -7   1    5.36    0.20
   2   7   0    5.87    0.21
   2   7   0    5.76    0.19
   2   7   0    5.64    0.20
  -2   7   0    6.08    0.20
  -2  -7   0    5.78    0.20
  -2  -7   0    6.00    0.21
   2  -7   0    6.03    0.21
   2  -7   0    6.03    0.21
  -2   7  -1    3.83    0.13
   2   7   1    4.10    0.16
   2   7   1    4.15    0.15
  -2   7  -1    4.09    0.17
   2  -7   1    4.12    0.15
  -2  -7  -1    3.88    0.14
   2  -7   1    3.82    0.17
  -2  -7  -1    4.13    0.17
  -2   7  -2   11.38    0.37
   2   7   2   11.67    0.35
   2  -7   2   11.73    0.36
  -2  -7  -2   11.54    0.30
   2  -7   2   11.79    0.31
  -2  -7  -2   11.22    0.36
  -2   7  -3   28.64    0.76
   2   7   3   27.71    0.75
  -2  -7  -3   27.78    0.76
   2  -7   3   29.39    0.68
   2  -7   3   28.26    0.75
   2   7   4    0.03    0.04
  -2   7  -4    0.02    0.04
  -2  -7  -4    0.01    0.03
   2  -7   4   -0.06    0.03
   2   7   5    6.15    0.27
  -2   7  -5    6.12    0.28
   2  -7   5    6.52    0.26
  -2  -7  -5    5.91    0.27
  -2   7  -6    0.20    0.07
   2   7   6    0.28    0.08
  -2  -7  -6    0.18    0.06
   2  -7   6    0.05    0.05
   2   7   7    0.44    0.10
  -2   7  -7    0.42    0.10
   2  -7   7    0.35    0.08
  -2  -7  -7    0.35    0.09
  -2   7  -8    0.82    0.14
   2   7   8    0.87    0.14
   2  -7   8    0.76    0.12
  -2  -7  -8    0.60    0.11
  -2   7  -9    0.21    0.09
   2   7   9    0.20    0.10
   2   7  10    0.07    0.09
   2   7  11    0.07    0.10
  -2   8  12    0.26    0.13
  -2   8  11   -0.09    0.09
  -2   8  11    0.04    0.09
  -2   8  10    0.05    0.08
   2   8 -10    0.32    0.11
   2   8 -10    0.10    0.09
  -2   8  10    0.14    0.10
  -2  -8  10    0.13    0.09
  -2   8   9   -0.07    0.06
   2   8  -9   -0.02    0.07
   2   8  -9    0.05    0.07
  -2   8   9    0.05    0.08
  -2  -8   9   -0.01    0.07
   2  -8  -9   -0.03    0.05
   2   8  -8    0.20    0.08
  -2   8   8    0.05    0.07
   2   8  -8    0.09    0.07
  -2   8   8    0.03    0.06
  -2  -8   8    0.20    0.08
   2  -8  -8    0.17    0.08
   2   8  -7    0.90    0.13
  -2   8   7    1.29    0.16
  -2   8   7    1.30    0.16
   2   8  -7    1.17    0.15
  -2  -8   7    1.20    0.15
   2  -8  -7    1.38    0.17
   2   8  -6    0.07    0.05
   2   8  -6    0.01    0.04
  -2   8   6   -0.02    0.05
  -2   8   6   -0.01    0.04
  -2  -8   6    0.01    0.04
   2  -8  -6   -0.02    0.03
  -2  -8   6    0.00    0.03
   2   8  -5    3.31    0.20
  -2   8   5    3.23    0.20
  -2   8   5    3.05    0.19
   2   8  -5    3.04    0.18
  -2  -8   5    3.04    0.15
  -2  -8   5    3.12    0.18
   2  -8  -5    3.20    0.20
  -2   8   4    0.14    0.06
   2   8  -4    0.02    0.04
  -2   8   4    0.02    0.04
   2   8  -4    0.02    0.04
  -2  -8   4    0.04    0.03
  -2  -8   4    0.02    0.04
   2  -8  -4    0.06    0.03
   2  -8  -4    0.00    0.03
  -2   8   3   10.07    0.35
   2   8  -3    9.80    0.35
  -2   8   3    9.41    0.33
   2   8  -3    9.70    0.34
   2  -8  -3    9.58    0.30
   2  -8  -3    9.74    0.35
  -2  -8   3    9.82    0.30
  -2  -8   3    9.75    0.34
  -2   8   2    6.81    0.26
   2   8  -2    6.59    0.26
   2   8  -2    6.94    0.26
  -2   8   2    7.33    0.25
   2  -8  -2    6.98    0.27
   2  -8  -2    6.93    0.24
  -2  -8   2    6.94    0.26
  -2  -8   2    6.99    0.24
  -2   8   1    1.30    0.09
   2   8  -1    1.20    0.09
   2   8  -1    1.30    0.10
  -2  -8   1    1.12    0.08
  -2  -8   1    1.20    0.09
   2  -8  -1    1.40    0.10
   2  -8  -1    1.34    0.10
   2   8   0    0.81    0.07
   2   8   0    0.70    0.08
   2   8   0    0.66    0.07
  -2   8   0    0.75    0.07
   2  -8   0    0.62    0.08
  -2  -8   0    0.79    0.08
  -2  -8   0    0.66    0.07
   2  -8   0    0.65    0.07
   2   8   1    6.02    0.20
   2   8   1    5.89    0.20
   2   8   1    5.82    0.21
  -2   8  -1    5.48    0.22
   2  -8   1    6.14    0.21
  -2  -8  -1    6.10    0.20
   2  -8   1    5.97    0.23
  -2  -8  -1    5.92    0.23
   2   8   2   72.22    1.76
  -2  -8  -2   75.07    1.80
   2  -8   2   74.46    1.75
  -2  -8  -2   76.18    1.69
   2  -8   2   74.09    1.73
   2   8   3    0.02    0.04
  -2   8  -3    0.04    0.04
   2  -8   3    0.01    0.02
  -2  -8  -3    0.07    0.04
   2  -8   3    0.03    0.04
   2   8   4    6.52    0.27
  -2   8  -4    7.05    0.29
   2  -8   4    6.90    0.27
  -2  -8  -4    5.98    0.27
  -2   8  -5    6.63    0.30
   2   8   5    6.16    0.27
   2  -8   5    6.19    0.27
  -2  -8  -5    6.63    0.29
  -2   8  -6    2.31    0.21
   2   8   6    2.35    0.17
  -2  -8  -6    2.35    0.17
   2  -8   6    2.49    0.17
   2   8   7    1.17    0.15
  -2   8  -7    1.39    0.17
   2  -8   7    1.34    0.15
  -2  -8  -7    1.48    0.17
  -2   8  -8    0.33    0.10
   2   8   8    0.26    0.10
  -2  -8  -8    0.29    0.09
   2  -8   8    0.24    0.09
  -2   8  -9    0.17    0.10
   2   8   9    0.21    0.10
   2   8  10    0.09    0.09
   2   8  11    0.13    0.10
  -2   9  11    0.14    0.10
  -2   9  11    0.17    0.10
   2   9 -11    0.26    0.13
   2   9 -10    0.16    0.10
  -2   9  10    0.32    0.12
  -2   9  10    0.32    0.12
   2   9 -10    0.21    0.10
  -2  -9  10    0.23    0.11
   2   9  -9    0.89    0.14
  -2   9   9    0.59    0.14
  -2   9   9    0.56    0.13
   2   9  -9    0.52    0.14
  -2  -9   9    1.00    0.16
  -2   9   8   -0.05    0.06
   2   9  -8    0.25    0.10
   2   9  -8    0.14    0.08
  -2   9   8    0.02    0.07
   2  -9  -8    0.01    0.06
  -2  -9   8    0.04    0.07
   2   9  -7    0.59    0.12
   2   9  -7    0.32    0.09
  -2   9   7    0.36    0.10
  -2   9   7    0.67    0.13
   2  -9  -7    0.33    0.09
  -2  -9   7    0.55    0.11
  -2   9   6    0.28    0.09
  -2   9   6    0.39    0.09
   2   9  -6    0.37    0.10
   2   9  -6    0.39    0.09
  -2  -9   6    0.32    0.08
   2  -9  -6    0.38    0.09
   2   9  -5    0.17    0.07
  -2   9   5    0.17    0.07
   2   9  -5    0.18    0.07
  -2   9   5    0.18    0.07
  -2  -9   5    0.16    0.07
  -2  -9   5    0.18    0.05
   2  -9  -5    0.21    0.07
  -2   9   4   12.13    0.43
   2   9  -4   12.86    0.43
  -2   9   4   13.34    0.45
   2   9  -4   13.08    0.45
   2  -9  -4   13.05    0.38
  -2  -9   4   12.02    0.42
   2  -9  -4   13.09    0.46
  -2  -9   4   12.93    0.39
   2   9  -3    2.44    0.15
  -2   9   3    2.74    0.16
  -2   9   3    2.78    0.16
   2   9  -3    2.57    0.17
   2  -9  -3    2.37    0.16
  -2  -9   3    2.65    0.16
   2  -9  -3    2.69    0.14
  -2  -9   3    2.61    0.13
   2   9  -2    1.31    0.12
   2   9  -2    1.16    0.12
  -2   9   2    0.95    0.10
  -2   9   2    0.99    0.10
  -2  -9   2    1.00    0.11
  -2  -9   2    1.03    0.09
   2  -9  -2    1.17    0.10
   2  -9  -2    0.79    0.10
   2   9  -1    5.35    0.22
   2   9  -1    5.62    0.22
  -2   9   1    5.49    0.20
  -2  -9   1    5.80    0.22
  -2  -9   1    5.34    0.21
   2  -9  -1    5.28    0.22
   2  -9  -1    5.72    0.22
  -2   9   0    0.01    0.03
   2   9   0    0.02    0.03
   2   9   0    0.04    0.03
  -2   9   0    0.06    0.03
   2   9   0    0.05    0.03
   2  -9   0   -0.01    0.03
  -2  -9   0    0.05    0.03
   2  -9   0    0.01    0.03
  -2  -9   0    0.03    0.03
   2   9   1    2.85    0.13
  -2   9  -1    2.97    0.16
   2   9   1    2.72    0.13
  -2  -9  -1    2.74    0.15
   2  -9   1    3.01    0.15
  -2  -9  -1    2.66    0.13
   2  -9   1    2.77    0.13
  -2   9  -2    0.99    0.11
   2   9   2    0.75    0.09
  -2  -9  -2    0.75    0.10
   2  -9   2    0.93    0.07
   2  -9   2    0.88    0.10
  -2  -9  -2    0.89    0.08
  -2   9  -3    1.00    0.12
   2   9   3    1.47    0.11
  -2  -9  -3    0.98    0.11
   2  -9   3    1.07    0.07
   2  -9   3    1.10    0.12
  -2   9  -4    3.61    0.21
   2   9   4    4.46    0.21
   2  -9   4    3.45    0.20
  -2  -9  -4    3.86    0.21
  -2   9  -5    4.30    0.24
   2   9   5    4.68    0.23
  -2  -9  -5    4.26    0.23
   2  -9   5    4.58    0.23
   2   9   6    0.05    0.06
  -2   9  -6   -0.01    0.06
  -2  -9  -6    0.02    0.05
   2  -9   6    0.01    0.06
  -2   9  -7    1.20    0.17
   2   9   7    1.09    0.15
  -2  -9  -7    1.30    0.16
   2  -9   7    1.02    0.14
   2   9   8    0.62    0.12
  -2  -9  -8    0.68    0.12
   2  -9   8    0.67    0.13
   2   9   9    0.04    0.08
  -2   9  -9    0.13    0.09
   2   9  10    0.18    0.10
   2   9  11    0.02    0.10
   2  10 -11   -0.06    0.09
  -2  10  11    0.09    0.10
  -2  10  10    0.80    0.16
   2  10 -10    0.31    0.13
   2  10 -10    0.81    0.16
  -2 -10  10    0.90    0.16
  -2  10   9   -0.08    0.07
   2  10  -9    0.01    0.09
   2  10  -9    0.02    0.08
  -2  10   9   -0.03    0.07
  -2 -10   9    0.01    0.07
   2  10  -8    1.27    0.17
  -2  10   8    1.51    0.19
  -2  10   8    1.48    0.19
   2  10  -8    1.32    0.18
   2 -10  -8    0.91    0.15
  -2 -10   8    1.50    0.18
  -2  10   7    1.38    0.18
  -2  10   7    1.30    0.17
   2  10  -7    1.52    0.18
   2  10  -7    1.54    0.18
   2 -10  -7    1.39    0.18
  -2 -10   7    1.51    0.17
  -2  10   6    1.95    0.20
   2  10  -6    2.22    0.22
   2  10  -6    1.88    0.19
  -2  10   6    2.15    0.18
   2 -10  -6    1.59    0.19
  -2 -10   6    1.66    0.17
   2  10  -5    0.58    0.11
  -2  10   5    0.56    0.10
  -2  10   5    0.86    0.13
   2  10  -5    0.76    0.12
   2 -10  -5    0.71    0.12
  -2 -10   5    0.75    0.09
  -2 -10   5    0.63    0.11
  -2  10   4    0.43    0.09
   2  10  -4    0.63    0.10
  -2  10   4    0.39    0.08
   2  10  -4    0.50    0.10
  -2 -10   4    0.37    0.06
  -2 -10   4    0.52    0.09
   2 -10  -4    0.52    0.07
   2 -10  -4    0.50    0.09
   2  10  -3    3.04    0.18
   2  10  -3    3.16    0.19
  -2  10   3    3.17    0.17
  -2  10   3    3.17    0.18
   2 -10  -3    3.28    0.16
  -2 -10   3    3.36    0.18
   2 -10  -3    3.13    0.19
  -2 -10   3    2.81    0.15
   2  10  -2    5.88    0.26
  -2  10   2    6.42    0.25
   2  10  -2    5.99    0.25
  -2 -10   2    6.64    0.24
   2 -10  -2    6.52    0.24
  -2 -10   2    6.25    0.25
   2 -10  -2    6.27    0.27
   2  10  -1    0.37    0.07
   2  10  -1    0.38    0.07
  -2  10   1    0.38    0.07
  -2  10   1    0.45    0.06
   2  10  -1    0.36    0.05
  -2 -10   1    0.48    0.07
   2 -10  -1    0.39    0.07
  -2 -10   1    0.36    0.06
   2 -10  -1    0.43    0.07
   2  10   0    6.11    0.23
   2  10   0    5.91    0.20
   2  10   0    5.97    0.24
  -2  10   0    5.87    0.21
  -2  10   0    5.89    0.24
  -2  10   0    6.30    0.20
   2 -10   0    6.21    0.24
  -2 -10   0    5.82    0.24
   2 -10   0    6.16    0.24
  -2 -10   0    6.16    0.23
   2  10   1    0.62    0.08
   2  10   1    0.46    0.06
  -2  10  -1    0.61    0.09
  -2 -10  -1    0.47    0.06
   2 -10   1    0.52    0.07
   2 -10   1    0.45    0.08
  -2 -10  -1    0.71    0.09
   2  10   2    7.93    0.28
  -2  10  -2    7.93    0.31
  -2 -10  -2    7.49    0.31
   2 -10   2    8.39    0.27
  -2 -10  -2    7.98    0.25
   2 -10   2    8.18    0.31
   2  10   3    1.18    0.12
  -2  10  -3    1.19    0.14
   2 -10   3    1.07    0.12
  -2 -10  -3    1.34    0.14
   2  10   4    1.34    0.14
  -2  10  -4    1.91    0.18
   2 -10   4    1.57    0.15
  -2 -10  -4    1.82    0.17
  -2  10  -5    0.32    0.09
   2  10   5    0.32    0.08
  -2 -10  -5    0.34    0.08
   2 -10   5    0.34    0.09
   2  10   6    0.00    0.06
  -2  10  -6    0.03    0.06
   2 -10   6    0.05    0.06
  -2 -10  -6    0.03    0.05
  -2  10  -7    0.28    0.10
   2  10   7    0.23    0.09
   2 -10   7    0.17    0.09
  -2 -10  -7    0.22    0.08
   2  10   8    0.14    0.09
  -2  10  -8    0.16    0.10
  -2 -10  -8    0.16    0.08
   2 -10   8    0.00    0.07
   2  10   9    0.94    0.17
  -2  10  -9    1.03    0.18
   2 -10   9    1.24    0.18
   2  10  10    0.14    0.10
  -2  10 -10    0.06    0.10
   2  10  11    0.03    0.10
   2  11 -11   -0.09    0.09
  -2  11  11   -0.02    0.09
  -2  11  10   -0.03    0.08
  -2  11  10   -0.04    0.07
   2  11 -10    0.09    0.10
   2  11 -10    0.07    0.10
  -2 -11  10   -0.01    0.09
  -2  11   9    0.33    0.11
   2  11  -9    0.20    0.10
   2  11  -9    0.28    0.11
  -2  11   9    0.44    0.13
  -2 -11   9    0.22    0.10
  -2  11   8    0.27    0.11
   2  11  -8    0.00    0.07
  -2  11   8    0.22    0.10
   2  11  -8    0.26    0.11
  -2 -11   8    0.26    0.10
   2  11  -7    3.09    0.28
  -2  11   7    2.67    0.21
   2  11  -7    2.35    0.23
  -2  11   7    2.76    0.22
   2 -11  -7    2.47    0.24
  -2 -11   7    2.64    0.21
  -2  11   6   -0.08    0.05
   2  11  -6    0.04    0.07
  -2  11   6   -0.03    0.06
   2  11  -6   -0.06    0.06
   2 -11  -6   -0.07    0.04
  -2 -11   6   -0.05    0.06
  -2  11   5    0.62    0.11
   2  11  -5    0.24    0.08
  -2  11   5    0.46    0.10
   2  11  -5    0.29    0.09
  -2 -11   5    0.34    0.07
  -2 -11   5    0.30    0.09
   2 -11  -5    0.37    0.09
   2  11  -4    4.27    0.23
   2  11  -4    3.65    0.23
  -2  11   4    4.01    0.22
  -2  11   4    4.10    0.23
  -2 -11   4    3.98    0.22
  -2 -11   4    4.10    0.19
   2 -11  -4    3.69    0.23
  -2  11   3    8.21    0.31
   2  11  -3    7.82    0.32
  -2  11   3    8.46    0.33
   2  11  -3    7.98    0.33
   2 -11  -3    7.78    0.34
  -2 -11   3    8.11    0.29
   2 -11  -3    8.33    0.29
  -2 -11   3    8.15    0.32
  -2  11   2    9.34    0.31
  -2  11   2    8.78    0.31
   2  11  -2    9.11    0.34
   2  11  -2    9.42    0.35
  -2  11   2    8.98    0.33
  -2 -11   2    9.09    0.33
   2 -11  -2    9.11    0.31
   2 -11  -2    8.80    0.35
  -2 -11   2    9.33    0.32
   2  11  -1    0.92    0.11
   2  11  -1    1.01    0.12
  -2  11   1    0.67    0.09
  -2  11   1    0.77    0.08
   2 -11  -1    0.74    0.09
  -2 -11   1    0.80    0.10
  -2 -11   1    0.92    0.11
   2 -11  -1    0.75    0.10
  -2  11   0    0.05    0.04
   2  11   0    0.02    0.04
   2  11   0    0.00    0.04
   2  11   0   -0.01    0.03
  -2 -11   0    0.06    0.04
   2 -11   0    0.06    0.03
   2 -11   0    0.08    0.05
  -2 -11   0    0.01    0.04
  -2  11  -1    2.83    0.17
   2  11   1    2.83    0.15
   2  11   1    2.85    0.14
   2 -11   1    2.71    0.15
   2 -11   1    2.84    0.16
  -2 -11  -1    2.47    0.16
  -2 -11  -1    3.06    0.15
   2  11   2    1.22    0.12
  -2  11  -2    1.28    0.14
  -2 -11  -2    1.27    0.09
   2 -11   2    1.16    0.10
  -2 -11  -2    1.28    0.13
   2 -11   2    1.15    0.13
   2  11   3    7.86    0.30
  -2  11  -3    8.75    0.35
   2 -11   3    8.44    0.33
  -2 -11  -3    7.38    0.32
  -2  11  -4    0.12    0.06
   2  11   4    0.11    0.06
   2 -11   4    0.17    0.07
  -2 -11  -4    0.00    0.04
  -2  11  -5    3.17    0.22
   2  11   5    3.60    0.21
  -2 -11  -5    2.88    0.20
   2 -11   5    3.27    0.21
   2  11   6    0.18    0.08
  -2  11  -6    0.05    0.07
   2 -11   6    0.19    0.08
  -2 -11  -6    0.11    0.07
  -2  11  -7    2.23    0.23
   2  11   7    2.22    0.22
   2 -11   7    2.13    0.21
  -2 -11  -7    1.91    0.20
   2  11   8    0.31    0.10
  -2  11  -8    0.22    0.11
   2 -11   8    0.66    0.14
   2  11   9   -0.10    0.07
  -2  11  -9    0.06    0.09
   2 -11   9   -0.05    0.09
   2  11  10   -0.05    0.09
  -2  11 -10   -0.12    0.07
  -2  12  11    0.02    0.09
   2  12 -11    0.00    0.11
  -2 -12  11   -0.09    0.09
  -2  12  10    0.06    0.10
   2  12 -10    0.02    0.10
  -2 -12  10   -0.09    0.08
  -2  12   9   -0.02    0.07
   2  12  -9    0.10    0.08
  -2  12   9   -0.07    0.07
   2  12  -9    0.08    0.09
  -2 -12   9    0.14    0.10
   2  12  -8    0.43    0.12
  -2  12   8    0.37    0.11
   2  12  -8    0.18    0.10
  -2  12   8    0.26    0.10
  -2 -12   8    0.43    0.12
  -2  12   7    0.03    0.07
   2  12  -7    0.14    0.08
  -2  12   7   -0.03    0.06
   2  12  -7    0.14    0.08
  -2 -12   7    0.09    0.08
   2 -12  -7    0.14    0.08
   2  12  -6   -0.02    0.06
  -2  12   6    0.01    0.06
   2  12  -6   -0.01    0.05
  -2  12   6    0.04    0.07
   2 -12  -6    0.03    0.06
  -2 -12   6   -0.03    0.05
  -2  12   5    2.21    0.18
   2  12  -5    2.12    0.20
   2  12  -5    2.01    0.21
  -2  12   5    2.24    0.18
   2 -12  -5    1.96    0.21
  -2 -12   5    1.85    0.19
  -2  12   4   -0.05    0.04
   2  12  -4    0.03    0.06
   2  12  -4   -0.03    0.05
  -2  12   4    0.00    0.06
  -2 -12   4    0.00    0.05
   2 -12  -4    0.01    0.05
  -2 -12   4   -0.04    0.04
  -2  12   3   18.38    0.58
  -2  12   3   17.90    0.55
   2  12  -3   17.88    0.57
   2  12  -3   18.19    0.59
   2 -12  -3   18.42    0.53
  -2 -12   3   17.89    0.53
   2 -12  -3   17.29    0.59
  -2 -12   3   18.73    0.58
  -2  12   2   24.31    0.66
   2  12  -2   25.26    0.71
  -2  12   2   24.67    0.68
   2  12  -2   24.30    0.72
  -2  12   2   24.87    0.71
   2 -12  -2   24.46    0.67
  -2 -12   2   24.72    0.69
  -2 -12   2   24.61    0.70
   2 -12  -2   23.54    0.73
   2  12  -1    2.69    0.17
  -2  12   1    2.39    0.14
   2  12  -1    2.49    0.17
  -2  12   1    2.64    0.15
  -2 -12   1    2.47    0.16
   2 -12  -1    2.80    0.17
   2 -12  -1    2.64    0.16
  -2 -12   1    2.69    0.16
  -2  12   0    6.00    0.26
   2  12   0    5.98    0.26
   2 -12   0    6.26    0.26
  -2 -12   0    6.11    0.25
   2 -12   0    6.31    0.26
  -2 -12   0    6.00    0.26
   2  12   1    4.88    0.22
  -2  12  -1    5.37    0.25
   2  12   1    5.39    0.21
   2 -12   1    5.57    0.23
   2 -12   1    5.52    0.25
  -2 -12  -1    5.41    0.22
  -2 -12  -1    5.27    0.25
   2  12   2    3.82    0.19
  -2  12  -2    4.00    0.22
   2 -12   2    3.89    0.21
  -2 -12  -2    3.71    0.21
   2 -12   2    3.81    0.18
   2  12   3   12.13    0.40
  -2  12  -3   11.58    0.44
   2 -12   3   12.18    0.43
  -2 -12  -3   10.95    0.43
   2  12   4    0.33    0.08
  -2  12  -4    0.27    0.09
   2 -12   4    0.18    0.08
  -2 -12  -4    0.16    0.07
   2  12   5    1.27    0.15
  -2  12  -5    1.33    0.17
  -2 -12  -5    1.20    0.16
   2 -12   5    1.57    0.17
  -2  12  -6    0.25    0.10
   2  12   6    0.22    0.09
  -2 -12  -6    0.28    0.09
   2 -12   6    0.29    0.09
   2  12   7    1.89    0.20
  -2  12  -7    1.78    0.22
   2 -12   7    1.68    0.20
  -2 -12  -7    1.71    0.21
   2  12   8    0.45    0.12
  -2  12  -8    0.48    0.13
   2 -12   8    0.41    0.13
  -2  12  -9    0.45    0.13
   2  12   9    0.25    0.11
   2 -12   9    0.36    0.13
   2  12  10    0.07    0.10
  -2  12 -10    0.01    0.10
   2  13 -10    0.24    0.13
  -2  13  10    0.13    0.10
  -2 -13  10    0.06    0.10
  -2  13   9   -0.01    0.08
   2  13  -9   -0.02    0.08
  -2  13   9   -0.06    0.07
  -2 -13   9    0.09    0.10
   2  13  -8    0.24    0.10
   2  13  -8    0.42    0.13
  -2  13   8    0.39    0.11
  -2  13   8    0.12    0.08
  -2 -13   8    0.30    0.11
  -2  13   7    0.62    0.13
   2  13  -7    1.08    0.18
  -2  13   7    0.71    0.13
   2  13  -7    0.82    0.15
  -2 -13   7    0.75    0.15
   2  13  -6    0.15    0.08
  -2  13   6    0.20    0.09
  -2  13   6    0.14    0.08
   2  13  -6    0.32    0.11
   2 -13  -6    0.36    0.10
  -2 -13   6    0.21    0.09
  -2  13   5    3.64    0.23
  -2  13   5    3.99    0.24
   2  13  -5    3.41    0.25
   2  13  -5    4.22    0.25
   2 -13  -5    3.49    0.25
  -2 -13   5    4.09    0.25
  -2  13   4    0.02    0.06
  -2  13   4    0.00    0.05
   2  13  -4    0.05    0.07
   2  13  -4   -0.01    0.06
  -2 -13   4    0.01    0.04
  -2 -13   4    0.07    0.06
   2 -13  -4    0.07    0.06
   2  13  -3    0.02    0.05
  -2  13   3    0.05    0.05
   2  13  -3   -0.01    0.05
  -2  13   3    0.04    0.05
  -2 -13   3   -0.01    0.04
   2 -13  -3    0.04    0.05
   2 -13  -3    0.03    0.05
  -2 -13   3    0.10    0.06
   2  13  -2    2.07    0.19
  -2  13   2    1.75    0.13
   2  13  -2    1.71    0.17
  -2  13   2    1.96    0.15
  -2 -13   2    1.69    0.15
   2 -13  -2    1.80    0.17
  -2 -13   2    1.77    0.16
   2 -13  -2    2.13    0.15
  -2  13   1   -0.05    0.04
   2  13  -1   -0.03    0.05
   2 -13  -1    0.05    0.05
   2 -13  -1   -0.02    0.03
  -2 -13   1    0.08    0.06
  -2 -13   1    0.01    0.04
   2  13   0    0.23    0.07
  -2  13   0    0.34    0.08
  -2 -13   0    0.12    0.05
   2 -13   0    0.32    0.07
   2 -13   0    0.19    0.06
  -2 -13   0    0.15    0.06
  -2  13  -1   10.91    0.40
  -2 -13  -1   11.34    0.36
   2 -13   1   10.91    0.39
   2 -13   1   10.61    0.38
  -2 -13  -1   10.35    0.40
  -2  13  -2    1.09    0.14
   2 -13   2    0.96    0.12
  -2 -13  -2    0.90    0.12
  -2  13  -3    2.99    0.20
   2  13   3    2.83    0.17
   2 -13   3    2.93    0.20
  -2 -13  -3    2.33    0.18
  -2  13  -4    1.43    0.17
   2  13   4    1.14    0.13
   2 -13   4    0.90    0.13
  -2 -13  -4    1.16    0.15
  -2  13  -5   -0.04    0.06
   2  13   5   -0.05    0.05
  -2 -13  -5    0.04    0.05
   2 -13   5    0.05    0.07
  -2  13  -6    0.10    0.09
   2  13   6    0.08    0.07
   2 -13   6    0.26    0.10
  -2 -13  -6    0.22    0.08
   2  13   7    0.11    0.08
  -2  13  -7    0.00    0.07
   2 -13   7    0.11    0.09
  -2  13  -8    0.03    0.08
   2  13   8    0.06    0.08
   2 -13   8    0.16    0.10
  -2  13  -9    0.09    0.10
   2  13   9    0.12    0.10
   2 -13   9    0.18    0.10
  -2  13 -10    0.23    0.13
   2  13  10    0.05    0.09
   2  14 -10    0.16    0.12
  -2  14  10   -0.03    0.09
  -2 -14  10    0.04    0.10
  -2  14   9    0.19    0.10
  -2  14   9    0.31    0.12
   2  14  -9    0.20    0.12
  -2 -14   9    0.19    0.11
  -2  14   8    0.27    0.11
   2  14  -8    0.07    0.09
  -2  14   8    0.32    0.11
  -2 -14   8    0.23    0.11
  -2  14   7    0.15    0.10
   2  14  -7    0.08    0.09
  -2  14   7    0.11    0.08
   2  14  -7    0.10    0.08
  -2 -14   7    0.11    0.09
   2  14  -6    0.00    0.07
   2  14  -6    0.11    0.08
  -2  14   6    0.07    0.07
  -2  14   6    0.07    0.07
  -2 -14   6    0.05    0.07
  -2  14   5    4.11    0.24
   2  14  -5    3.62    0.26
   2  14  -5    3.68    0.25
  -2  14   5    4.39    0.26
   2 -14  -5    3.88    0.27
  -2 -14   5    4.23    0.26
   2  14  -4    0.76    0.14
   2  14  -4    0.81    0.13
  -2  14   4    0.53    0.11
  -2  14   4    0.92    0.13
  -2 -14   4    0.68    0.12
   2 -14  -4    0.64    0.12
  -2  14   3    0.00    0.04
  -2  14   3    0.04    0.05
   2  14  -3    0.07    0.07
   2  14  -3    0.00    0.05
   2 -14  -3    0.02    0.05
  -2 -14   3    0.14    0.06
  -2 -14   3    0.06    0.06
   2  14  -2    1.48    0.17
   2 -14  -2    1.57    0.16
  -2 -14   2    1.26    0.14
   2 -14  -2    1.33    0.16
  -2 -14   2    1.45    0.15
  -2  14   1    0.15    0.06
   2  14  -1    0.06    0.06
  -2 -14   1    0.06    0.05
  -2 -14   1    0.04    0.05
   2 -14  -1    0.10    0.06
   2 -14  -1    0.03    0.05
   2  14   0    0.49    0.09
  -2  14   0    0.71    0.11
   2 -14   0    0.86    0.12
   2 -14   0    0.65    0.10
  -2 -14   0    0.73    0.10
  -2 -14   0    0.60    0.10
  -2  14  -1    0.24    0.07
   2 -14   1    0.23    0.07
  -2 -14  -1    0.16    0.06
  -2 -14  -1    0.26    0.07
   2 -14   1    0.22    0.07
   2  14   2    2.56    0.15
  -2  14  -2    3.11    0.21
   2 -14   2    3.53    0.21
  -2 -14  -2    2.94    0.20
   2  14   3    0.10    0.06
  -2  14  -3    0.14    0.08
   2 -14   3    0.11    0.06
  -2 -14  -3    0.31    0.08
  -2  14  -4    0.70    0.13
   2  14   4    0.92    0.13
   2 -14   4    0.85    0.13
  -2 -14  -4    0.97    0.14
   2  14   5    0.28    0.09
  -2  14  -5    0.36    0.11
   2 -14   5    0.41    0.11
  -2 -14  -5    0.44    0.11
  -2  14  -6    0.01    0.08
   2  14   6    0.04    0.07
   2 -14   6    0.00    0.08
  -2  14  -7    0.57    0.14
   2  14   7    0.27    0.10
   2 -14   7    0.34    0.11
  -2  14  -8    0.12    0.09
   2  14   8    0.35    0.12
   2 -14   8    0.26    0.11
   2  14   9    0.13    0.09
  -2  14  -9    0.17    0.12
   2 -14   9    0.18    0.12
   2  15  -9    0.02    0.09
  -2  15   9    0.08    0.09
  -2 -15   9   -0.02    0.08
   2  15  -8    0.14    0.10
  -2  15   8    0.19    0.10
  -2  15   8    0.02    0.08
  -2 -15   8    0.01    0.09
   2  15  -7    0.82    0.17
  -2  15   7    0.62    0.13
  -2  15   7    0.98    0.17
  -2 -15   7    0.74    0.15
  -2  15   6    0.41    0.11
  -2  15   6    0.46    0.12
   2  15  -6    0.32    0.12
  -2 -15   6    0.55    0.13
   2  15  -5    0.69    0.15
  -2  15   5    0.91    0.14
  -2  15   5    0.79    0.14
   2 -15  -5    0.65    0.13
  -2 -15   5    0.90    0.14
  -2  15   4    1.42    0.16
   2  15  -4    1.29    0.18
  -2  15   4    1.31    0.17
   2 -15  -4    1.16    0.17
  -2 -15   4    1.34    0.17
   2  15  -3    0.00    0.06
   2 -15  -3    0.02    0.05
  -2 -15   3    0.04    0.06
  -2 -15   3    0.02    0.06
   2  15  -2   -0.02    0.05
   2 -15  -2   -0.08    0.05
   2 -15  -2    0.02    0.06
  -2 -15   2    0.01    0.05
  -2 -15   2   -0.07    0.05
   2  15  -1    0.29    0.09
  -2  15   1    0.33    0.08
   2 -15  -1    0.23    0.07
   2 -15  -1    0.21    0.08
  -2 -15   1    0.18    0.07
  -2 -15   1    0.33    0.08
   2  15   0    2.51    0.18
  -2  15   0    2.47    0.18
   2 -15   0    2.37    0.18
   2 -15   0    2.52    0.18
  -2 -15   0    2.77    0.18
  -2 -15   0    2.42    0.16
  -2  15  -1    1.62    0.17
   2 -15   1    1.83    0.18
  -2 -15  -1    1.65    0.17
  -2  15  -2    0.21    0.08
   2 -15   2    0.34    0.09
  -2 -15  -2    0.17    0.07
  -2  15  -3    0.12    0.08
   2  15   3    0.18    0.06
  -2 -15  -3   -0.01    0.04
   2 -15   3    0.02    0.06
  -2  15  -4    0.10    0.07
   2  15   4    0.15    0.07
  -2 -15  -4    0.03    0.06
   2 -15   4    0.24    0.09
   2  15   5    0.07    0.06
  -2  15  -5    0.06    0.08
   2 -15   5    0.02    0.07
  -2  15  -6   -0.06    0.07
   2  15   6   -0.02    0.06
   2 -15   6    0.01    0.07
  -2  15  -7    0.26    0.12
   2  15   7    0.16    0.09
   2 -15   7    0.36    0.12
   2  15   8    0.08    0.08
  -2  15  -8    0.24    0.11
   2 -15   8    0.12    0.11
   2  15   9    0.17    0.11
  -2  15  -9   -0.07    0.08
   2 -15   9   -0.04    0.09
  -2  16   9    0.11    0.10
   2  16  -9    0.06    0.12
  -2 -16   9    0.02    0.09
  -2  16   8    0.45    0.13
  -2  16   8    0.44    0.13
   2  16  -8    0.52    0.16
  -2 -16   8    0.50    0.14
  -2  16   7    0.31    0.10
   2  16  -7    0.13    0.10
  -2  16   7    0.08    0.09
  -2 -16   7    0.30    0.11
  -2  16   6    0.02    0.07
  -2  16   6   -0.02    0.07
   2  16  -6    0.05    0.09
  -2 -16   6   -0.02    0.08
  -2  16   5    0.00    0.06
  -2  16   5    0.11    0.08
   2  16  -5    0.10    0.09
  -2 -16   5   -0.01    0.07
   2  16  -4    0.22    0.10
   2 -16  -4    0.31    0.10
  -2 -16   4    0.29    0.09
   2  16  -3    2.76    0.25
  -2 -16   3    1.95    0.20
   2 -16  -3    2.14    0.22
  -2 -16   3    1.56    0.16
   2  16  -2    0.35    0.10
   2 -16  -2    0.56    0.11
  -2 -16   2    0.30    0.08
  -2 -16   2    0.32    0.09
   2 -16  -2    0.34    0.10
   2  16  -1    0.19    0.08
   2 -16  -1    0.35    0.09
   2 -16  -1    0.60    0.11
  -2 -16   1    0.26    0.08
  -2 -16   1    0.42    0.09
  -2  16   0    5.75    0.29
  -2 -16   0    6.51    0.29
   2 -16   0    5.83    0.29
  -2 -16   0    5.55    0.29
   2 -16   0    6.16    0.30
  -2  16  -1    0.74    0.12
   2 -16   1    0.85    0.14
  -2 -16  -1    0.97    0.14
  -2  16  -2    1.41    0.17
   2 -16   2    0.93    0.14
  -2 -16  -2    1.25    0.16
  -2  16  -3    0.93    0.15
  -2 -16  -3    1.05    0.15
   2 -16   3    0.65    0.12
   2  16   4    1.13    0.14
  -2  16  -4    1.23    0.18
   2 -16   4    0.93    0.15
   2  16   5    0.17    0.08
  -2  16  -5    0.12    0.09
   2 -16   5    0.40    0.11
  -2  16  -6    0.10    0.09
   2  16   6    0.12    0.08
   2 -16   6   -0.02    0.07
   2  16   7    0.11    0.09
  -2  16  -7    0.05    0.09
   2 -16   7    0.10    0.10
  -2  16  -8    0.00    0.10
   2  16   8    0.09    0.09
   2 -16   8    0.03    0.09
  -2  17   8    0.05    0.09
   2  17  -8    0.03    0.10
  -2 -17   8    0.03    0.10
   2  17  -7    0.17    0.11
  -2  17   7    0.18    0.10
  -2 -17   7    0.04    0.10
   2  17  -6    0.45    0.14
  -2  17   6    0.50    0.12
  -2 -17   6    0.60    0.14
   2  17  -5   -0.02    0.08
  -2 -17   5    0.00    0.07
   2  17  -4    0.04    0.08
  -2 -17   4    0.16    0.08
   2  17  -3    0.00    0.07
  -2 -17   3   -0.05    0.07
   2 -17  -3    0.02    0.06
   2  17  -2    0.75    0.14
   2 -17  -2    0.72    0.14
  -2 -17   2    0.65    0.13
  -2 -17   2    1.02    0.14
   2  17  -1    5.91    0.31
  -2 -17   1    6.58    0.30
   2 -17  -1    6.04    0.30
   2 -17  -1    5.93    0.31
  -2 -17   1    6.11    0.31
  -2  17   0    0.01    0.06
  -2 -17   0    0.00    0.05
  -2 -17   0    0.08    0.07
   2 -17   0    0.03    0.06
   2 -17   0    0.05    0.07
  -2  17  -1    1.36    0.17
   2 -17   1    1.71    0.19
  -2 -17  -1    1.68    0.18
  -2  17  -2    0.44    0.11
   2 -17   2    0.23    0.09
  -2 -17  -2    0.46    0.11
  -2  17  -3    0.31    0.11
   2 -17   3    0.27    0.10
  -2  17  -4    0.08    0.07
   2 -17   4    0.13    0.09
   2  17   5    0.46    0.11
  -2  17  -5    0.34    0.12
   2 -17   5    0.36    0.11
   2  17   6    0.84    0.14
  -2  17  -6    0.96    0.18
   2 -17   6    0.75    0.15
  -2  17  -7   -0.01    0.09
   2  17   7    0.07    0.08
   2 -17   7    0.01    0.08
   2  17   8    0.01    0.08
  -2  17  -8   -0.03    0.09
   2 -17   8   -0.03    0.08
  -2  18   8    0.05    0.08
   2  18  -8    0.11    0.12
   2  18  -7   -0.07    0.09
  -2 -18   7    0.26    0.12
   2  18  -6    0.02    0.09
  -2 -18   6   -0.06    0.07
   2  18  -5    0.27    0.12
  -2 -18   5    0.17    0.09
   2  18  -4    0.01    0.08
  -2 -18   4    0.06    0.08
   2  18  -3    0.58    0.13
  -2 -18   3    0.40    0.11
   2  18  -2    0.17    0.09
   2 -18  -2    0.02    0.06
  -2 -18   2    0.27    0.09
  -2 -18   2    0.05    0.07
  -2 -18   1    0.48    0.11
   2 -18  -1    0.35    0.10
  -2 -18   1    0.28    0.10
   2 -18  -1    0.47    0.11
  -2  18   0    0.20    0.09
  -2 -18   0    0.10    0.07
   2 -18   0    0.25    0.10
  -2  18  -1    0.14    0.09
   2 -18   1    0.20    0.09
  -2  18  -2    0.41    0.12
   2 -18   2    0.53    0.12
  -2  18  -3    0.43    0.12
   2 -18   3    0.50    0.12
  -2  18  -4    0.01    0.07
   2 -18   4   -0.02    0.07
  -2  18  -5    0.29    0.12
   2 -18   5    0.17    0.10
  -2  18  -6    0.11    0.10
   2 -18   6   -0.11    0.08
  -2  18  -7    0.13    0.11
   2  18   7    0.05    0.08
   2 -18   7    0.29    0.13
   2  19  -7    0.24    0.14
  -2 -19   7    0.39    0.13
   2  19  -6   -0.03    0.10
  -2 -19   6   -0.02    0.09
   2  19  -5    0.08    0.09
  -2 -19   5   -0.04    0.08
   2  19  -4    0.58    0.15
  -2 -19   4    0.38    0.12
   2  19  -3    0.88    0.17
  -2 -19   3    0.73    0.15
   2  19  -2    1.50    0.20
  -2 -19   2    1.19    0.16
  -2 -19   1    0.42    0.11
   2 -19  -1    0.52    0.12
   2 -19   0    0.09    0.08
  -2  19  -1    1.81    0.21
   2 -19   1    1.79    0.20
  -2  19  -2    0.18    0.09
   2 -19   2    0.20    0.10
  -2  19  -3   -0.07    0.07
   2 -19   3   -0.09    0.08
  -2  19  -4    0.19    0.11
   2 -19   4    0.34    0.12
  -2  19  -5    0.42    0.13
   2 -19   5    0.22    0.11
  -2  19  -6    0.50    0.14
   2 -19   6    0.20    0.11
   2  20  -6   -0.05    0.09
  -2 -20   6    0.04    0.10
   2  20  -5    0.08    0.10
  -2 -20   5    0.04    0.10
   2  20  -4   -0.07    0.09
  -2 -20   4   -0.04    0.08
   2  20  -3    0.65    0.16
  -2 -20   3    0.60    0.14
  -2 -20   2    0.31    0.10
  -2 -20   1   -0.06    0.08
   2 -20   0    0.95    0.16
  -2  20  -1    0.05    0.08
   2 -20   1   -0.04    0.08
  -2  20  -2   -0.01    0.08
   2 -20   2    0.17    0.11
  -2  20  -3   -0.02    0.08
   2 -20   3   -0.07    0.07
  -2  20  -4    0.01    0.09
   2 -20   4    0.04    0.09
  -2  20  -5    0.14    0.10
   2 -20   5    0.04    0.10
   2  21  -5   -0.15    0.08
  -2 -21   5    0.12    0.11
   2  21  -4    0.73    0.18
  -2 -21   4    0.76    0.17
   2  21  -3    0.23    0.12
  -2 -21   3    0.51    0.14
  -2 -21   2   -0.09    0.08
   2 -21   0    0.02    0.09
   2 -21   1    0.45    0.13
  -2  21  -2   -0.01    0.09
   2 -21   2    0.12    0.10
  -2  21  -3    0.34    0.13
   2 -21   3    0.40    0.13
  -2  21  -4    0.04    0.10
   2 -21   4    0.08    0.11
  -2 -22   3    0.08    0.10
  -2 -22   2    0.67    0.15
   2 -22   1   -0.03    0.09
  -2  22  -2   -0.01    0.10
   2 -22   2   -0.02    0.09
  -2  22  -3   -0.02    0.08
   2 -22   3    0.06    0.10
  -3   0  11    0.09    0.10
  -3   0  10    0.02    0.07
  -3   0   9    0.03    0.07
  -3   0   9    0.01    0.06
   3   0  -9    0.01    0.05
  -3   0   8    2.17    0.20
   3   0  -8    2.15    0.15
  -3   0   8    1.95    0.19
   3   0  -8    2.30    0.18
  -3   0   7    0.02    0.05
  -3   0   7    0.02    0.05
   3   0  -7    0.07    0.05
   3   0  -7    0.03    0.04
   3   0  -7    0.01    0.04
   3   0  -6    0.84    0.11
  -3   0   6    1.02    0.12
   3   0  -6    1.11    0.11
  -3   0   5   -0.05    0.03
   3   0  -5    0.00    0.03
   3   0  -5    0.03    0.04
   3   0  -5   -0.01    0.03
   3   0  -4   78.72    1.84
   3   0  -4   80.99    1.91
   3   0  -4   79.68    1.84
   3   0  -3   -0.01    0.02
   3   0  -3   -0.02    0.02
   3   0  -3   -0.01    0.02
   3   0  -2    0.01    0.02
   3   0  -2   -0.02    0.01
   3   0  -2    0.04    0.02
   3   0  -1    0.02    0.02
  -3   0   0   15.99    0.40
   3   0   0   15.87    0.40
   3   0   1   -0.03    0.02
  -3   0  -1   -0.04    0.01
   3   0   2   36.76    0.88
   3   0   2   36.60    0.85
  -3   0  -2   36.45    0.85
  -3   0  -3    0.00    0.01
   3   0   3    0.00    0.02
   3   0   3    0.01    0.02
  -3   0  -4   84.72    1.87
   3   0   4   80.25    1.82
  -3   0  -4   80.37    1.85
   3   0   4   79.24    1.90
   3   0   5    0.03    0.05
  -3   0  -5   -0.01    0.03
  -3   0  -5   -0.01    0.03
   3   0   5   -0.02    0.03
   3   0   6   15.57    0.48
   3   0   7   -0.13    0.05
   3   0   8    2.14    0.16
   3   0   9   -0.01    0.07
   3   0  10   -0.11    0.07
  -3   1  12    0.26    0.12
  -3   1  11    0.08    0.10
  -3   1  10    0.52    0.12
  -3   1  10    0.45    0.13
  -3  -1  10    0.44    0.12
  -3   1   9    0.10    0.07
   3   1  -9    0.05    0.06
  -3   1   9   -0.04    0.07
  -3  -1   9    0.04    0.06
   3  -1  -9   -0.02    0.06
  -3  -1   9    0.07    0.07
   3   1  -8    0.51    0.09
   3   1  -8    0.73    0.12
  -3   1   8    0.77    0.12
   3   1  -8    0.93    0.12
  -3   1   8    0.84    0.13
  -3  -1   8    0.79    0.11
  -3  -1   8    1.24    0.15
  -3  -1   8    0.97    0.14
   3  -1  -8    0.99    0.13
  -3   1   7    2.03    0.16
   3   1  -7    1.98    0.15
  -3   1   7    1.85    0.15
   3   1  -7    1.81    0.14
   3   1  -7    2.00    0.14
  -3  -1   7    2.08    0.16
  -3  -1   7    2.00    0.14
  -3  -1   7    2.30    0.16
   3  -1  -7    2.06    0.16
   3  -1  -7    2.20    0.14
   3  -1  -7    2.14    0.14
  -3   1   6    6.92    0.30
  -3   1   6    7.56    0.30
   3   1  -6    7.30    0.30
   3   1  -6    7.61    0.28
   3   1  -6    7.34    0.27
   3  -1  -6    7.15    0.26
   3  -1  -6    7.61    0.27
   3  -1  -6    7.12    0.30
  -3  -1   6    7.48    0.30
   3   1  -5    2.50    0.14
  -3   1   5    2.35    0.15
   3   1  -5    2.20    0.14
   3   1  -5    2.43    0.14
   3  -1  -5    2.49    0.13
  -3  -1   5    2.49    0.15
   3  -1  -5    2.49    0.15
  -3   1   4    0.15    0.05
   3   1  -4    0.15    0.05
   3   1  -4    0.09    0.04
   3   1  -4    0.12    0.04
   3  -1  -4    0.12    0.04
   3  -1  -4    0.18    0.04
   3  -1  -4    0.17    0.05
   3   1  -3    0.39    0.05
   3   1  -3    0.42    0.06
   3  -1  -3    0.45    0.06
   3  -1  -3    0.46    0.06
   3  -1  -3    0.49    0.06
   3   1  -2    9.09    0.27
   3   1  -2    8.94    0.26
   3  -1  -2    8.57    0.26
   3  -1  -2    8.61    0.27
   3   1  -1    5.65    0.18
   3  -1  -1    5.30    0.18
  -3  -1   1    5.78    0.18
   3  -1  -1    5.57    0.18
   3   1   0    0.31    0.04
   3  -1   0    0.30    0.04
  -3  -1   0    0.29    0.03
  -3   1  -1   15.43    0.37
   3   1   1   14.86    0.39
   3  -1   1   15.05    0.39
  -3  -1  -1   15.43    0.38
   3   1   2    0.30    0.04
  -3   1  -2    0.31    0.03
  -3  -1  -2    0.34    0.04
   3  -1   2    0.30    0.04
   3  -1   2    0.24    0.04
   3  -1   2    0.30    0.03
  -3   1  -3    7.91    0.21
   3   1   3    8.41    0.26
   3  -1   3    7.94    0.20
   3  -1   3    7.86    0.24
   3  -1   3    7.78    0.23
  -3  -1  -3    8.07    0.23
  -3   1  -4   26.92    0.68
   3   1   4   26.25    0.70
  -3   1  -4   27.76    0.65
   3  -1   4   26.22    0.68
  -3  -1  -4   27.55    0.68
   3  -1   4   26.96    0.66
  -3   1  -5    9.78    0.28
  -3   1  -5   10.09    0.32
   3   1   5    9.71    0.33
  -3  -1  -5    9.96    0.31
   3  -1   5   10.00    0.29
  -3  -1  -5   10.07    0.29
   3  -1   5    9.83    0.32
  -3   1  -6    1.62    0.11
   3   1   6    1.56    0.12
   3  -1   6    1.52    0.12
   3   1   7    0.91    0.12
   3  -1   7    1.06    0.12
   3   1   8    0.63    0.11
   3  -1   8    0.57    0.11
   3   1   9   -0.02    0.07
   3  -1   9   -0.02    0.06
   3   1  10   -0.11    0.06
  -3   2  12    0.32    0.13
  -3   2  11    1.55    0.21
  -3   2  11    1.47    0.19
  -3   2  10    0.35    0.11
  -3   2  10    0.22    0.11
  -3   2   9   -0.10    0.05
  -3   2   9    0.02    0.07
  -3  -2   9    0.11    0.06
  -3  -2   9    0.00    0.07
   3  -2  -9    0.03    0.06
  -3   2   8    0.15    0.07
   3   2  -8    0.10    0.06
   3   2  -8    0.11    0.06
  -3   2   8    0.03    0.07
  -3  -2   8    0.23    0.08
  -3  -2   8    0.12    0.07
  -3  -2   8    0.26    0.08
   3  -2  -8    0.05    0.06
   3   2  -7    4.97    0.23
  -3   2   7    5.29    0.26
  -3   2   7    4.45    0.24
   3   2  -7    4.89    0.23
   3  -2  -7    5.27    0.22
  -3  -2   7    5.29    0.26
  -3  -2   7    5.10    0.24
   3  -2  -7    5.44    0.27
  -3  -2   7    4.82    0.23
  -3   2   6    0.30    0.08
  -3   2   6    0.39    0.08
   3   2  -6    0.31    0.07
   3   2  -6    0.35    0.07
   3  -2  -6    0.32    0.06
   3  -2  -6    0.40    0.08
  -3  -2   6    0.32    0.07
  -3  -2   6    0.46    0.08
   3  -2  -6    0.44    0.07
  -3   2   5   23.98    0.68
   3   2  -5   22.98    0.62
   3   2  -5   22.65    0.63
   3  -2  -5   23.18    0.60
   3  -2  -5   21.93    0.66
   3  -2  -5   22.93    0.61
   3   2  -4    1.55    0.11
  -3   2   4    1.60    0.12
   3   2  -4    1.51    0.11
   3  -2  -4    1.62    0.12
   3  -2  -4    1.50    0.10
   3   2  -3   28.28    0.71
   3   2  -3   27.87    0.70
   3  -2  -3   28.45    0.68
   3  -2  -3   27.60    0.69
   3  -2  -3   26.74    0.73
   3   2  -2    3.83    0.15
   3   2  -2    3.87    0.15
   3  -2  -2    3.55    0.15
  -3  -2   2    3.65    0.15
   3  -2  -2    3.75    0.14
   3   2  -1    0.96    0.07
  -3  -2   1    0.84    0.06
   3  -2  -1    0.78    0.06
   3  -2  -1    0.91    0.06
   3   2   0    0.05    0.02
  -3  -2   0    0.06    0.02
   3  -2   0    0.12    0.02
   3  -2   0    0.01    0.02
   3   2   1   36.02    0.86
  -3   2  -1   36.11    0.83
  -3   2  -1   36.09    0.83
  -3  -2  -1   36.34    0.85
   3  -2   1   35.46    0.85
   3   2   2    0.83    0.07
   3  -2   2    0.80    0.05
  -3  -2  -2    0.80    0.06
   3   2   3    2.16    0.11
  -3  -2  -3    2.08    0.10
   3  -2   3    2.23    0.10
   3  -2   3    2.06    0.10
  -3   2  -4    3.34    0.10
   3   2   4    3.41    0.16
  -3   2  -4    3.45    0.15
   3  -2   4    3.48    0.14
   3  -2   4    3.00    0.14
   3  -2   4    3.32    0.09
  -3  -2  -4    3.24    0.14
   3   2   5    0.77    0.10
   3  -2   5    0.77    0.08
   3  -2   5    0.81    0.09
  -3  -2  -5    0.69    0.08
  -3   2  -6    4.86    0.22
   3   2   6    5.35    0.24
  -3  -2  -6    4.73    0.21
   3  -2   6    5.24    0.21
   3   2   7    1.03    0.13
   3  -2   7    0.92    0.11
   3   2   8    0.09    0.07
   3  -2   8    0.12    0.07
   3   2   9    1.24    0.16
   3   2  10    0.06    0.08
   3   2  11   -0.02    0.09
  -3   3  12    0.01    0.10
  -3   3  11    0.57    0.14
  -3   3  11    0.66    0.15
  -3   3  10    0.50    0.12
  -3   3  10    0.66    0.14
   3  -3 -10    0.60    0.13
   3   3  -9    0.00    0.05
   3   3  -9   -0.08    0.06
  -3   3   9   -0.08    0.06
  -3   3   9    0.02    0.06
   3  -3  -9    0.04    0.06
  -3   3   8    0.09    0.07
   3   3  -8    0.06    0.06
  -3   3   8    0.06    0.06
   3   3  -8   -0.01    0.05
  -3  -3   8    0.06    0.06
  -3  -3   8    0.03    0.06
  -3  -3   8    0.01    0.06
   3  -3  -8   -0.02    0.04
  -3   3   7    0.48    0.10
   3   3  -7    0.39    0.09
  -3   3   7    0.38    0.09
   3   3  -7    0.42    0.08
  -3  -3   7    0.31    0.08
  -3  -3   7    0.43    0.09
   3  -3  -7    0.50    0.10
  -3  -3   7    0.63    0.10
   3   3  -6    1.81    0.13
  -3   3   6    2.04    0.15
  -3   3   6    2.18    0.15
   3   3  -6    1.71    0.13
   3  -3  -6    2.09    0.12
  -3  -3   6    1.76    0.13
   3  -3  -6    1.82    0.15
   3  -3  -6    1.93    0.12
  -3  -3   6    1.78    0.14
   3   3  -5    8.86    0.32
   3   3  -5    9.48    0.32
  -3   3   5    9.67    0.35
  -3  -3   5    9.20    0.32
   3  -3  -5    9.42    0.29
   3  -3  -5    9.16    0.30
   3  -3  -5    8.53    0.34
   3   3  -4   63.78    1.51
  -3   3   4   62.88    1.60
   3   3  -4   62.06    1.50
   3  -3  -4   66.12    1.46
  -3  -3   4   62.56    1.52
   3  -3  -4   62.20    1.47
   3  -3  -4   62.87    1.55
   3   3  -3    0.05    0.03
   3   3  -3    0.05    0.03
  -3   3   3   -0.01    0.02
   3  -3  -3    0.11    0.03
  -3  -3   3    0.01    0.02
   3  -3  -3    0.05    0.03
  -3   3   2    0.37    0.06
   3   3  -2    0.38    0.05
   3   3  -2    0.44    0.06
  -3  -3   2    0.38    0.05
   3  -3  -2    0.43    0.05
   3  -3  -2    0.83    0.08
   3   3  -1   19.33    0.49
   3   3  -1   19.21    0.49
   3  -3  -1   19.42    0.50
   3  -3  -1   18.88    0.49
  -3  -3   1   18.89    0.49
   3   3   0    0.15    0.03
   3   3   0    0.06    0.02
  -3  -3   0    0.06    0.02
   3  -3   0    0.07    0.03
   3  -3   0    0.07    0.02
   3   3   1    4.17    0.15
  -3   3  -1    4.47    0.13
  -3  -3  -1    4.28    0.15
   3  -3   1    4.07    0.15
   3  -3   1    4.19    0.13
   3   3   2   41.55    1.01
  -3  -3  -2   43.21    1.01
   3  -3   2   41.22    0.99
   3   3   3    1.09    0.08
   3  -3   3    0.93    0.08
  -3  -3  -3    0.95    0.07
   3  -3   3    0.82    0.06
  -3   3  -4    2.29    0.13
   3   3   4    2.14    0.13
   3  -3   4    2.08    0.10
   3  -3   4    2.36    0.12
  -3  -3  -4    2.05    0.11
  -3   3  -5   -0.01    0.03
   3   3   5    0.00    0.04
   3  -3   5    0.02    0.03
  -3  -3  -5   -0.01    0.02
   3  -3   5    0.07    0.04
  -3   3  -6    2.03    0.14
   3   3   6    2.71    0.17
   3  -3   6    3.25    0.15
   3  -3   6    3.10    0.15
  -3  -3  -6    2.76    0.15
   3   3   7    4.20    0.22
  -3   3  -7    3.17    0.19
   3  -3   7    3.80    0.18
   3   3   8    0.02    0.06
   3   3   9    0.03    0.07
   3   3  10    0.12    0.09
   3   3  11    0.06    0.09
   3   3  12    0.04    0.10
  -3   4  12    0.10    0.10
  -3   4  12    0.02    0.10
  -3   4  11    0.19    0.10
  -3   4  11    0.19    0.11
  -3   4  10   -0.04    0.07
  -3   4  10   -0.02    0.07
   3  -4 -10    0.11    0.08
  -3   4   9    0.05    0.08
   3   4  -9    0.07    0.06
   3   4  -9   -0.04    0.06
  -3   4   9   -0.02    0.06
  -3  -4   9    0.01    0.06
   3  -4  -9    0.00    0.05
   3   4  -8    0.05    0.06
  -3   4   8   -0.02    0.05
   3   4  -8    0.03    0.06
  -3   4   8   -0.03    0.06
  -3  -4   8    0.07    0.05
  -3  -4   8    0.19    0.08
   3  -4  -8    0.00    0.05
  -3   4   7    1.25    0.15
   3   4  -7    1.40    0.15
  -3   4   7    1.43    0.16
   3   4  -7    1.18    0.13
  -3  -4   7    1.35    0.14
  -3  -4   7    1.30    0.13
   3  -4  -7    1.10    0.14
  -3  -4   7    1.27    0.14
  -3  -4   7    1.42    0.14
  -3   4   6    4.06    0.22
   3   4  -6    3.59    0.20
   3   4  -6    3.80    0.20
  -3   4   6    4.00    0.22
  -3  -4   6    3.55    0.19
   3  -4  -6    3.61    0.17
  -3  -4   6    3.45    0.18
   3  -4  -6    3.52    0.21
   3   4  -5    6.03    0.25
  -3   4   5    5.78    0.26
   3   4  -5    5.94    0.24
   3  -4  -5    5.71    0.22
   3  -4  -5    5.64    0.26
  -3  -4   5    5.76    0.23
  -3  -4   5    5.68    0.24
  -3   4   4   13.13    0.43
   3   4  -4   12.91    0.41
   3   4  -4   13.28    0.41
   3  -4  -4   13.67    0.43
   3  -4  -4   12.91    0.38
  -3  -4   4   13.47    0.40
  -3  -4   4   13.94    0.41
   3   4  -3    0.48    0.07
   3   4  -3    0.47    0.07
  -3   4   3    0.51    0.07
   3  -4  -3    0.54    0.07
  -3  -4   3    0.50    0.06
   3  -4  -3    0.51    0.06
   3   4  -2    0.18    0.05
  -3   4   2    0.10    0.03
   3   4  -2    0.04    0.03
   3  -4  -2    0.12    0.03
   3  -4  -2    0.12    0.03
  -3  -4   2    0.05    0.02
   3   4  -1    7.50    0.24
   3   4  -1    7.29    0.23
  -3   4   1    7.13    0.24
   3  -4  -1    7.07    0.23
   3  -4  -1    7.36    0.24
  -3  -4   1    7.27    0.23
   3   4   0   62.32    1.44
   3   4   0   64.58    1.46
  -3  -4   0   60.50    1.47
   3  -4   0   64.12    1.47
   3  -4   0   63.85    1.45
   3   4   1   14.23    0.38
  -3  -4  -1   14.74    0.39
   3  -4   1   14.03    0.36
   3  -4   1   13.84    0.39
   3   4   2   37.92    0.93
  -3  -4  -2   38.87    0.94
   3  -4   2   37.56    0.92
   3   4   3   10.20    0.32
  -3  -4  -3   10.34    0.32
   3  -4   3   10.50    0.31
   3  -4   3   10.26    0.28
   3   4   4    1.41    0.10
  -3   4  -4    1.40    0.12
   3  -4   4    1.33    0.08
   3  -4   4    1.50    0.10
  -3  -4  -4    1.53    0.10
   3   4   5    0.26    0.07
  -3   4  -5    0.25    0.06
   3  -4   5    0.28    0.05
   3  -4   5    0.31    0.06
  -3  -4  -5    0.32    0.06
  -3   4  -6    0.17    0.06
   3   4   6    0.08    0.06
   3  -4   6    0.10    0.05
  -3  -4  -6    0.01    0.03
  -3   4  -7    0.03    0.05
   3   4   7    0.05    0.06
   3   4   8    3.13    0.21
   3   4   9    0.75    0.13
   3   4  10    0.00    0.08
   3   4  11    0.15    0.10
  -3   5  12    0.24    0.12
  -3   5  12    0.17    0.10
  -3   5  11    0.31    0.11
  -3   5  11    0.27    0.12
  -3   5  10    0.20    0.10
  -3   5  10    0.33    0.12
   3   5 -10    0.18    0.09
   3  -5 -10    0.25    0.10
   3   5  -9   -0.03    0.06
  -3   5   9   -0.01    0.07
   3   5  -9    0.04    0.07
  -3   5   9   -0.05    0.06
   3  -5  -9    0.00    0.05
  -3  -5   9   -0.16    0.05
  -3   5   8   -0.01    0.06
  -3   5   8    0.16    0.08
   3   5  -8    0.04    0.06
   3   5  -8    0.02    0.06
  -3  -5   8    0.07    0.06
   3  -5  -8    0.01    0.05
  -3   5   7    0.44    0.10
  -3   5   7    0.47    0.10
   3   5  -7    0.40    0.09
   3   5  -7    0.26    0.07
  -3  -5   7    0.34    0.07
   3  -5  -7    0.20    0.07
  -3  -5   7    0.16    0.07
  -3  -5   7    0.35    0.08
   3   5  -6    5.65    0.25
  -3   5   6    6.08    0.28
  -3   5   6    5.66    0.27
   3   5  -6    5.57    0.26
   3  -5  -6    5.16    0.27
   3  -5  -6    6.02    0.22
  -3  -5   6    5.73    0.26
  -3  -5   6    5.78    0.24
  -3   5   5    6.82    0.29
   3   5  -5    6.60    0.27
   3   5  -5    6.48    0.27
  -3   5   5    6.65    0.28
   3  -5  -5    6.70    0.29
   3  -5  -5    6.79    0.24
  -3  -5   5    6.95    0.27
  -3  -5   5    6.47    0.25
   3   5  -4    0.09    0.04
   3   5  -4    0.10    0.05
  -3   5   4    0.06    0.04
   3  -5  -4    0.09    0.04
   3  -5  -4    0.17    0.05
  -3  -5   4    0.08    0.04
  -3  -5   4    0.11    0.04
  -3   5   3   43.00    1.09
   3   5  -3   40.65    1.03
   3   5  -3   41.32    1.04
   3  -5  -3   40.60    1.00
   3  -5  -3   42.46    1.07
  -3  -5   3   41.71    1.03
  -3  -5   3   42.56    1.03
   3   5  -2   18.54    0.52
  -3   5   2   19.07    0.54
   3   5  -2   19.52    0.53
   3  -5  -2   18.95    0.51
  -3  -5   2   19.84    0.52
  -3  -5   2   19.13    0.52
   3  -5  -2   20.25    0.55
   3   5  -1    3.15    0.14
  -3   5   1    2.76    0.13
   3   5  -1    3.14    0.14
  -3  -5   1    3.28    0.14
   3  -5  -1    3.17    0.14
   3  -5  -1    3.36    0.14
  -3  -5   1    3.22    0.13
   3   5   0   20.33    0.51
  -3   5   0   20.30    0.52
   3   5   0   19.73    0.51
   3   5   0   19.91    0.51
   3  -5   0   20.26    0.52
  -3  -5   0   19.80    0.52
   3  -5   0   20.27    0.52
  -3   5  -1    4.23    0.13
   3   5   1    3.89    0.15
   3   5   1    4.13    0.14
  -3  -5  -1    4.27    0.14
   3  -5   1    4.35    0.17
   3  -5   1    4.43    0.14
  -3  -5  -1    4.35    0.17
  -3   5  -2   45.70    1.05
   3   5   2   45.83    1.12
  -3  -5  -2   46.55    1.13
   3  -5   2   47.00    1.06
   3  -5   2   46.25    1.11
   3   5   3    1.37    0.10
  -3   5  -3    1.32    0.10
   3  -5   3    1.21    0.11
  -3  -5  -3    1.31    0.09
  -3   5  -4    2.79    0.16
   3   5   4    2.83    0.15
  -3  -5  -4    2.73    0.15
   3  -5   4    2.84    0.15
   3  -5   4    2.67    0.11
   3   5   5    2.06    0.14
  -3   5  -5    1.72    0.13
  -3  -5  -5    1.80    0.13
   3  -5   5    1.89    0.13
  -3   5  -6    3.29    0.20
   3   5   6    3.03    0.19
   3  -5   6    3.59    0.18
  -3  -5  -6    3.23    0.18
  -3   5  -7    0.07    0.06
   3   5   7    0.00    0.06
   3  -5   7    0.03    0.05
  -3  -5  -7    0.16    0.06
   3   5   8    0.98    0.15
  -3   5  -8    1.18    0.15
   3   5   9    0.22    0.09
   3   5  10    0.35    0.12
   3   5  11    0.05    0.09
  -3   6  12    0.03    0.10
  -3   6  11    0.43    0.13
  -3   6  11    0.54    0.14
   3   6 -10    0.34    0.11
   3   6 -10    0.34    0.10
  -3   6  10    0.17    0.10
  -3   6  10    0.21    0.09
   3  -6 -10    0.18    0.10
  -3   6   9    0.22    0.09
   3   6  -9    0.32    0.10
   3   6  -9    0.33    0.10
  -3   6   9    0.09    0.08
   3  -6  -9    0.26    0.10
  -3  -6   9    0.15    0.08
  -3   6   8    0.01    0.06
   3   6  -8    0.05    0.06
  -3   6   8    0.08    0.07
   3   6  -8   -0.01    0.06
   3  -6  -8   -0.02    0.05
  -3  -6   8    0.03    0.06
  -3   6   7   -0.02    0.05
  -3   6   7    0.09    0.06
   3   6  -7    0.06    0.06
   3   6  -7    0.01    0.05
  -3  -6   7    0.21    0.08
   3  -6  -7   -0.01    0.04
  -3  -6   7    0.06    0.05
  -3   6   6    0.12    0.06
  -3   6   6    0.09    0.06
   3   6  -6    0.04    0.05
   3   6  -6    0.04    0.04
   3  -6  -6    0.02    0.04
  -3  -6   6    0.11    0.05
  -3  -6   6   -0.02    0.05
   3   6  -5    2.52    0.17
  -3   6   5    2.49    0.16
   3   6  -5    2.63    0.16
  -3   6   5    2.39    0.16
  -3  -6   5    2.35    0.14
   3  -6  -5    2.47    0.13
  -3  -6   5    2.44    0.16
   3  -6  -5    2.55    0.17
  -3   6   4   11.88    0.41
   3   6  -4   12.12    0.40
   3   6  -4   12.04    0.39
  -3  -6   4   11.86    0.39
   3  -6  -4   11.65    0.41
  -3  -6   4   11.54    0.36
   3  -6  -4   11.65    0.35
   3   6  -3    1.23    0.12
   3   6  -3    1.45    0.11
  -3   6   3    1.54    0.11
  -3  -6   3    1.51    0.11
   3  -6  -3    1.46    0.09
   3  -6  -3    1.62    0.12
  -3  -6   3    1.54    0.10
   3   6  -2    0.82    0.09
  -3   6   2    0.62    0.07
   3   6  -2    0.61    0.08
   3  -6  -2    0.71    0.07
   3  -6  -2    0.69    0.08
  -3  -6   2    0.78    0.07
  -3  -6   2    0.69    0.08
   3   6  -1   13.57    0.39
   3   6  -1   13.21    0.39
   3   6  -1   12.95    0.36
  -3  -6   1   13.52    0.38
   3  -6  -1   13.62    0.39
   3  -6  -1   13.83    0.40
  -3  -6   1   14.06    0.39
   3   6   0    9.00    0.28
   3   6   0    8.95    0.26
   3   6   0    8.99    0.27
  -3   6   0    8.67    0.26
  -3  -6   0    8.67    0.26
   3  -6   0    8.89    0.27
  -3  -6   0    8.60    0.28
   3  -6   0    9.35    0.29
  -3   6  -1   12.17    0.32
   3   6   1   12.01    0.34
   3   6   1   11.73    0.32
   3  -6   1   12.51    0.33
  -3  -6  -1   11.86    0.32
   3  -6   1   11.51    0.35
  -3  -6  -1   11.82    0.36
   3   6   2    2.93    0.14
   3  -6   2    3.01    0.15
   3  -6   2    3.09    0.11
  -3  -6  -2    3.30    0.15
   3   6   3    4.40    0.19
  -3   6  -3    4.06    0.19
   3  -6   3    4.11    0.18
  -3  -6  -3    4.21    0.19
  -3   6  -4    1.72    0.13
   3   6   4    1.49    0.12
   3  -6   4    1.75    0.12
  -3  -6  -4    1.61    0.11
  -3   6  -5   -0.04    0.03
   3   6   5    0.02    0.04
  -3  -6  -5    0.07    0.04
   3  -6   5    0.00    0.04
  -3   6  -6    0.21    0.07
   3   6   6    0.28    0.08
   3  -6   6    0.34    0.08
  -3  -6  -6    0.31    0.07
  -3   6  -7    1.87    0.18
   3   6   7    1.44    0.16
   3  -6   7    1.63    0.16
  -3  -6  -7    1.35    0.14
  -3   6  -8    0.07    0.07
   3   6   8    0.10    0.08
   3   6   9    0.38    0.12
   3   6  10   -0.04    0.08
   3   6  11    0.01    0.09
  -3   7  12   -0.02    0.09
  -3   7  11    0.04    0.08
  -3   7  11    0.25    0.11
   3   7 -10   -0.03    0.07
  -3   7  10    0.06    0.09
   3   7 -10   -0.05    0.07
  -3   7  10    0.03    0.08
  -3  -7  10   -0.04    0.07
   3   7  -9    0.49    0.12
  -3   7   9    0.56    0.13
  -3   7   9    0.50    0.12
   3   7  -9    0.44    0.11
   3  -7  -9    0.42    0.11
  -3  -7   9    0.54    0.12
   3   7  -8    0.12    0.07
  -3   7   8    0.28    0.10
   3   7  -8    0.42    0.11
  -3   7   8    0.32    0.10
  -3  -7   8    0.35    0.10
   3  -7  -8    0.16    0.08
   3   7  -7    0.02    0.05
  -3   7   7    0.04    0.06
   3   7  -7    0.08    0.06
  -3   7   7    0.00    0.05
  -3  -7   7    0.06    0.06
   3  -7  -7    0.03    0.05
  -3  -7   7   -0.01    0.04
  -3   7   6    0.10    0.06
  -3   7   6    0.20    0.08
   3   7  -6    0.03    0.05
   3   7  -6    0.06    0.05
  -3  -7   6    0.05    0.04
   3  -7  -6    0.02    0.04
  -3  -7   6    0.01    0.05
   3   7  -5    5.85    0.26
  -3   7   5    5.05    0.25
  -3   7   5    5.74    0.26
   3   7  -5    5.41    0.26
   3  -7  -5    5.23    0.26
  -3  -7   5    5.04    0.24
  -3  -7   5    5.18    0.22
   3  -7  -5    5.02    0.20
   3   7  -4    8.06    0.30
  -3   7   4    8.30    0.32
   3   7  -4    8.03    0.32
  -3   7   4    8.43    0.32
   3  -7  -4    8.03    0.27
  -3  -7   4    7.90    0.30
  -3  -7   4    8.31    0.28
   3  -7  -4    8.10    0.33
   3   7  -3    8.18    0.30
   3   7  -3    7.63    0.29
  -3   7   3    7.68    0.29
   3  -7  -3    7.89    0.30
   3  -7  -3    7.53    0.26
  -3  -7   3    7.70    0.28
  -3  -7   3    7.84    0.26
   3   7  -2   14.12    0.38
   3   7  -2   13.46    0.43
   3   7  -2   14.41    0.42
  -3   7   2   14.58    0.43
   3  -7  -2   13.96    0.44
  -3  -7   2   13.70    0.42
  -3  -7   2   14.20    0.41
   3  -7  -2   14.53    0.41
   3   7  -1    0.04    0.03
   3   7  -1    0.06    0.04
   3   7  -1    0.09    0.03
  -3   7   1    0.02    0.02
   3  -7  -1    0.06    0.03
   3  -7  -1    0.15    0.04
  -3  -7   1    0.10    0.03
  -3  -7   1    0.09    0.04
   3   7   0    2.43    0.12
  -3   7   0    2.46    0.11
   3   7   0    2.49    0.12
   3   7   0    1.68    0.09
  -3  -7   0    2.29    0.12
   3  -7   0    2.20    0.13
   3  -7   0    2.46    0.12
  -3  -7   0    2.24    0.11
   3   7   1   11.37    0.32
   3   7   1   11.13    0.32
  -3   7  -1   11.29    0.31
   3   7   1   11.35    0.33
  -3  -7  -1   11.42    0.32
   3  -7   1   11.19    0.32
  -3  -7  -1   11.42    0.35
   3  -7   1   11.48    0.36
   3   7   2    2.66    0.11
   3   7   2    2.66    0.14
   3  -7   2    2.82    0.11
  -3  -7  -2    2.86    0.15
   3  -7   2    2.62    0.15
  -3  -7  -2    2.73    0.11
  -3   7  -3    2.73    0.16
   3   7   3    2.47    0.14
   3  -7   3    2.17    0.14
  -3  -7  -3    2.75    0.15
   3   7   4    4.62    0.21
  -3   7  -4    4.52    0.22
   3  -7   4    4.53    0.21
  -3  -7  -4    3.83    0.20
  -3   7  -5    2.63    0.18
   3   7   5    2.83    0.17
   3  -7   5    2.64    0.17
  -3  -7  -5    2.91    0.17
   3   7   6    0.39    0.09
  -3   7  -6    0.59    0.11
  -3  -7  -6    0.58    0.10
   3  -7   6    0.44    0.09
  -3   7  -7    1.17    0.15
   3   7   7    1.21    0.15
  -3  -7  -7    0.91    0.13
   3  -7   7    1.22    0.14
  -3   7  -8   -0.05    0.05
   3   7   8    0.06    0.07
   3   7   9    0.04    0.07
   3   7  10   -0.04    0.08
   3   7  11    0.05    0.10
  -3   8  12   -0.07    0.08
  -3   8  11    0.03    0.08
   3   8 -11   -0.05    0.09
  -3   8  11    0.01    0.09
  -3   8  10   -0.03    0.08
   3   8 -10    0.04    0.08
  -3   8  10    0.03    0.07
   3   8 -10    0.08    0.08
  -3  -8  10    0.08    0.09
   3   8  -9    0.10    0.08
   3   8  -9    0.09    0.08
  -3   8   9    0.02    0.07
  -3   8   9    0.12    0.09
   3  -8  -9    0.04    0.06
  -3  -8   9    0.04    0.08
  -3   8   8    0.02    0.06
   3   8  -8    0.14    0.08
  -3   8   8   -0.01    0.06
   3   8  -8    0.23    0.09
   3  -8  -8    0.10    0.07
  -3  -8   8    0.05    0.07
  -3   8   7    0.90    0.14
   3   8  -7    0.59    0.11
   3   8  -7    0.44    0.10
  -3   8   7    0.58    0.12
   3  -8  -7    0.60    0.12
  -3  -8   7    0.53    0.11
  -3   8   6   -0.05    0.05
   3   8  -6   -0.01    0.05
  -3   8   6    0.04    0.05
   3   8  -6    0.04    0.05
  -3  -8   6   -0.03    0.05
   3  -8  -6    0.00    0.04
  -3  -8   6    0.04    0.04
  -3   8   5    0.15    0.06
  -3   8   5    0.16    0.06
   3   8  -5    0.14    0.06
   3   8  -5    0.11    0.06
   3  -8  -5    0.18    0.05
  -3  -8   5    0.15    0.06
  -3  -8   5    0.19    0.05
   3  -8  -5    0.09    0.05
  -3   8   4    2.86    0.18
  -3   8   4    2.72    0.17
   3   8  -4    2.73    0.17
   3   8  -4    2.63    0.17
   3  -8  -4    2.95    0.15
  -3  -8   4    2.50    0.16
  -3  -8   4    2.91    0.15
   3  -8  -4    2.75    0.18
  -3   8   3   11.83    0.40
   3   8  -3   12.08    0.40
  -3   8   3   11.38    0.38
   3   8  -3   11.12    0.38
  -3  -8   3   11.44    0.36
   3  -8  -3   12.06    0.41
   3  -8  -3   11.75    0.36
  -3  -8   3   10.97    0.38
   3   8  -2    2.19    0.14
   3   8  -2    2.37    0.14
   3   8  -2    2.40    0.11
  -3   8   2    2.45    0.14
   3  -8  -2    2.02    0.13
  -3  -8   2    2.19    0.13
   3  -8  -2    2.56    0.13
  -3  -8   2    2.24    0.12
   3   8  -1    3.75    0.18
   3   8  -1    4.00    0.18
   3   8  -1    3.93    0.14
   3  -8  -1    3.91    0.18
  -3  -8   1    3.60    0.16
   3  -8  -1    3.96    0.17
  -3  -8   1    4.10    0.18
   3   8   0   22.55    0.60
  -3   8   0   22.26    0.59
   3   8   0   21.72    0.58
   3  -8   0   22.45    0.60
   3  -8   0   22.53    0.60
  -3  -8   0   23.17    0.61
  -3  -8   0   21.83    0.58
   3   8   1   33.34    0.83
  -3   8  -1   33.62    0.82
   3   8   1   32.63    0.81
   3   8   1   33.04    0.81
  -3  -8  -1   33.22    0.86
   3  -8   1   32.92    0.85
   3  -8   1   33.44    0.83
  -3  -8  -1   33.26    0.81
   3   8   2    1.03    0.10
   3   8   2    0.95    0.07
  -3   8  -2    1.38    0.13
  -3  -8  -2    1.22    0.12
   3  -8   2    1.07    0.11
  -3  -8  -2    1.02    0.07
   3  -8   2    1.11    0.07
  -3   8  -3    2.22    0.15
   3   8   3    2.51    0.14
  -3  -8  -3    2.32    0.15
   3  -8   3    2.33    0.15
   3   8   4   16.58    0.51
  -3   8  -4   16.75    0.53
  -3  -8  -4   15.59    0.52
   3  -8   4   17.14    0.51
  -3   8  -5    2.20    0.17
   3   8   5    1.92    0.15
   3  -8   5    1.93    0.15
  -3  -8  -5    2.21    0.16
   3   8   6    0.18    0.08
  -3   8  -6    0.11    0.07
  -3  -8  -6    0.11    0.06
   3  -8   6    0.19    0.08
   3   8   7    0.18    0.09
  -3   8  -7    0.13    0.07
   3  -8   7    0.06    0.07
  -3  -8  -7    0.15    0.07
   3   8   8    0.53    0.12
  -3   8  -8    0.86    0.15
   3  -8   8    0.58    0.12
  -3   8  -9    0.21    0.10
   3   8   9    0.03    0.08
   3   8  10    0.04    0.08
   3   8  11    0.04    0.09
  -3   9  11    0.06    0.09
   3   9 -11    0.08    0.11
  -3   9  11   -0.02    0.09
   3   9 -10    0.50    0.13
  -3   9  10    0.51    0.14
   3   9 -10    0.68    0.14
  -3   9  10    0.63    0.15
  -3  -9  10    0.53    0.13
  -3   9   9    0.06    0.07
  -3   9   9   -0.09    0.07
   3   9  -9    0.07    0.07
   3   9  -9    0.06    0.08
  -3  -9   9    0.06    0.09
  -3   9   8    0.08    0.08
  -3   9   8    0.00    0.07
   3   9  -8    0.05    0.07
   3   9  -8   -0.02    0.06
  -3  -9   8    0.21    0.09
   3  -9  -8    0.11    0.08
  -3   9   7    3.14    0.23
   3   9  -7    3.57    0.23
   3   9  -7    3.02    0.22
  -3   9   7    3.12    0.22
   3  -9  -7    3.24    0.23
  -3  -9   7    3.42    0.23
  -3   9   6    8.05    0.36
   3   9  -6    8.50    0.37
   3   9  -6    9.38    0.37
  -3   9   6    8.30    0.37
  -3  -9   6    8.72    0.31
   3  -9  -6    8.58    0.39
  -3  -9   6    8.12    0.36
  -3   9   5    3.20    0.20
  -3   9   5    3.16    0.20
   3   9  -5    3.19    0.20
   3   9  -5    2.91    0.19
  -3  -9   5    2.79    0.15
  -3  -9   5    3.37    0.20
   3  -9  -5    3.01    0.20
   3   9  -4    0.65    0.10
   3   9  -4    0.75    0.11
  -3   9   4    0.52    0.10
  -3   9   4    0.42    0.08
   3  -9  -4    0.65    0.10
   3  -9  -4    0.57    0.08
  -3  -9   4    0.69    0.08
  -3  -9   4    0.65    0.10
  -3   9   3    9.20    0.34
  -3   9   3    9.99    0.35
   3   9  -3    9.62    0.35
   3   9  -3    9.09    0.35
   3  -9  -3    9.55    0.31
  -3  -9   3    9.62    0.34
  -3  -9   3    9.53    0.32
   3  -9  -3    9.54    0.36
   3   9  -2    1.96    0.13
  -3   9   2    1.73    0.12
   3   9  -2    1.89    0.09
  -3   9   2    1.30    0.11
   3   9  -2    1.91    0.13
  -3  -9   2    1.87    0.13
  -3  -9   2    1.90    0.11
   3  -9  -2    1.75    0.13
   3  -9  -2    1.98    0.13
   3   9  -1    2.66    0.15
  -3   9   1    2.22    0.13
   3   9  -1    2.57    0.15
   3   9  -1    2.42    0.11
   3  -9  -1    2.68    0.15
  -3  -9   1    2.43    0.14
   3  -9  -1    2.98    0.15
  -3  -9   1    2.18    0.13
  -3   9   0    0.21    0.04
   3   9   0    0.17    0.05
   3   9   0    0.32    0.06
   3   9   0    0.28    0.05
  -3  -9   0    0.14    0.04
   3  -9   0    0.26    0.05
  -3  -9   0    0.24    0.05
   3  -9   0    0.17    0.05
   3   9   1    0.22    0.05
   3   9   1    0.28    0.06
   3   9   1    0.35    0.06
  -3   9  -1    0.31    0.04
   3  -9   1    0.41    0.07
  -3  -9  -1    0.25    0.06
  -3  -9  -1    0.21    0.05
   3  -9   1    0.25    0.05
  -3   9  -2   10.01    0.36
   3   9   2   10.22    0.33
   3   9   2    9.73    0.29
   3  -9   2   10.23    0.35
  -3  -9  -2    9.69    0.35
  -3  -9  -2    9.82    0.29
   3  -9   2   10.06    0.30
   3   9   3    0.50    0.08
  -3   9  -3    0.48    0.09
   3  -9   3    0.57    0.09
  -3  -9  -3    0.43    0.08
  -3   9  -4    2.64    0.18
   3   9   4    2.57    0.16
   3  -9   4    3.09    0.18
  -3  -9  -4    2.91    0.18
  -3   9  -5    5.25    0.27
   3   9   5    5.71    0.26
   3  -9   5    5.28    0.26
  -3  -9  -5    4.96    0.26
   3   9   6    0.54    0.11
  -3   9  -6    0.25    0.09
  -3  -9  -6    0.33    0.08
   3  -9   6    0.51    0.11
   3   9   7    0.24    0.09
  -3   9  -7    0.27    0.09
   3  -9   7    0.28    0.10
  -3  -9  -7    0.19    0.07
   3   9   8    0.12    0.08
  -3   9  -8    0.00    0.07
  -3  -9  -8    0.10    0.07
   3  -9   8    0.08    0.08
  -3   9  -9    0.13    0.10
   3   9   9    0.03    0.08
   3   9  10    0.04    0.09
   3   9  11    0.11    0.11
   3  10 -11    0.19    0.12
  -3  10  11    0.29    0.13
   3  10 -11    0.34    0.12
  -3 -10  11    0.09    0.10
  -3  10  10    0.16    0.10
  -3  10  10   -0.04    0.07
   3  10 -10    0.02    0.09
   3  10 -10    0.17    0.10
  -3 -10  10    0.20    0.11
   3  10  -9   -0.01    0.07
  -3  10   9   -0.04    0.08
   3  10  -9    0.13    0.09
  -3  10   9    0.08    0.08
  -3 -10   9   -0.04    0.08
  -3  10   8    0.67    0.14
  -3  10   8    0.81    0.14
   3  10  -8    0.56    0.13
   3  10  -8    0.81    0.14
   3 -10  -8    0.67    0.13
  -3 -10   8    0.69    0.13
  -3  10   7    1.36    0.17
  -3  10   7    1.55    0.19
   3  10  -7    1.85    0.21
   3  10  -7    1.51    0.18
  -3 -10   7    1.85    0.19
   3 -10  -7    1.53    0.19
   3  10  -6    7.31    0.34
  -3  10   6    7.79    0.35
  -3  10   6    7.07    0.34
   3  10  -6    6.93    0.35
   3 -10  -6    6.75    0.35
  -3 -10   6    7.85    0.29
  -3  10   5    1.60    0.17
   3  10  -5    1.26    0.16
  -3  10   5    1.41    0.16
   3  10  -5    1.45    0.16
   3 -10  -5    1.11    0.15
  -3 -10   5    1.52    0.16
  -3 -10   5    1.25    0.12
   3  10  -4    2.25    0.17
  -3  10   4    2.29    0.17
  -3  10   4    2.43    0.16
   3  10  -4    2.29    0.17
   3 -10  -4    2.46    0.14
   3 -10  -4    2.18    0.17
  -3 -10   4    2.53    0.17
  -3 -10   4    2.26    0.14
  -3  10   3    2.45    0.16
  -3  10   3    2.41    0.16
   3  10  -3    2.58    0.17
   3  10  -3    2.46    0.17
  -3 -10   3    2.38    0.14
   3 -10  -3    2.63    0.17
   3 -10  -3    2.52    0.15
  -3 -10   3    2.42    0.16
   3  10  -2    0.25    0.07
   3  10  -2    0.24    0.07
  -3  10   2    0.10    0.04
  -3  10   2    0.41    0.07
   3 -10  -2    0.36    0.07
  -3 -10   2    0.42    0.08
  -3 -10   2    0.27    0.06
   3 -10  -2    0.35    0.08
   3  10  -1   10.55    0.37
  -3  10   1   11.14    0.34
   3  10  -1   10.46    0.31
  -3  10   1   11.02    0.35
   3  10  -1   10.84    0.36
   3 -10  -1   10.27    0.37
  -3 -10   1   10.16    0.35
   3 -10  -1   11.07    0.36
  -3 -10   1   11.12    0.36
   3  10   0    0.77    0.09
   3  10   0    0.85    0.08
  -3  10   0    0.90    0.08
   3  10   0    0.82    0.10
  -3 -10   0    0.81    0.09
  -3 -10   0    0.64    0.09
   3 -10   0    1.06    0.11
   3 -10   0    0.85    0.09
  -3  10  -1   15.52    0.48
   3  10   1   14.84    0.43
   3  10   1   15.34    0.43
   3  10   1   14.55    0.43
   3 -10   1   14.04    0.46
  -3 -10  -1   15.42    0.47
   3 -10   1   14.86    0.44
  -3 -10  -1   14.76    0.42
  -3  10  -2    0.24    0.07
   3  10   2    0.25    0.06
   3 -10   2    0.24    0.05
  -3 -10  -2    0.18    0.06
   3 -10   2    0.30    0.07
  -3  10  -3    9.03    0.36
   3  10   3    9.08    0.33
  -3 -10  -3    9.51    0.36
   3 -10   3    9.44    0.35
  -3  10  -4    0.39    0.09
   3  10   4    0.57    0.10
   3 -10   4    0.33    0.09
  -3 -10  -4    0.59    0.10
  -3  10  -5   -0.05    0.05
   3  10   5    0.05    0.06
   3 -10   5    0.00    0.06
  -3 -10  -5   -0.03    0.03
   3  10   6    0.99    0.14
  -3  10  -6    0.83    0.14
  -3 -10  -6    1.04    0.14
   3 -10   6    0.87    0.13
   3  10   7    0.90    0.14
  -3  10  -7    0.90    0.15
   3 -10   7    1.06    0.15
  -3 -10  -7    0.84    0.14
  -3  10  -8    0.63    0.14
   3  10   8    0.58    0.13
   3 -10   8    0.61    0.13
  -3 -10  -8    0.44    0.11
   3  10   9    0.19    0.10
  -3  10  -9    0.00    0.08
   3  10  10   -0.14    0.08
  -3  10 -10    0.02    0.10
   3  11 -11    0.05    0.10
  -3  11  11   -0.12    0.09
   3  11 -11   -0.04    0.10
  -3 -11  11    0.02    0.09
  -3  11  10   -0.07    0.08
   3  11 -10    0.05    0.10
  -3  11  10    0.06    0.09
   3  11 -10   -0.05    0.09
  -3 -11  10    0.13    0.10
  -3  11   9    0.11    0.09
   3  11  -9    0.03    0.08
  -3  11   9   -0.06    0.07
   3  11  -9    0.18    0.10
  -3 -11   9    0.00    0.08
   3  11  -8    0.19    0.10
  -3  11   8    0.08    0.08
   3  11  -8    0.24    0.10
  -3  11   8    0.02    0.06
  -3 -11   8    0.17    0.09
  -3  11   7    0.63    0.13
   3  11  -7    0.79    0.15
   3  11  -7    0.65    0.14
  -3  11   7    0.78    0.14
  -3 -11   7    0.76    0.14
   3 -11  -7    0.73    0.14
  -3  11   6    0.01    0.07
  -3  11   6    0.10    0.07
   3  11  -6    0.10    0.08
   3  11  -6    0.08    0.08
  -3 -11   6    0.01    0.07
   3 -11  -6    0.04    0.06
   3  11  -5    0.12    0.07
   3  11  -5    0.02    0.06
  -3  11   5   -0.03    0.05
  -3  11   5    0.04    0.06
   3 -11  -5    0.05    0.06
  -3 -11   5    0.08    0.07
  -3 -11   5    0.09    0.05
   3  11  -4    9.32    0.37
  -3  11   4    8.94    0.35
  -3  11   4    8.82    0.36
   3  11  -4    8.47    0.37
   3 -11  -4    8.31    0.37
  -3 -11   4    8.34    0.35
  -3 -11   4    9.02    0.32
   3 -11  -4    8.77    0.31
   3  11  -3    0.14    0.06
  -3  11   3    0.09    0.06
   3  11  -3    0.13    0.07
  -3  11   3    0.08    0.06
  -3 -11   3    0.30    0.07
   3 -11  -3    0.13    0.06
  -3 -11   3    0.14    0.07
   3 -11  -3    0.20    0.07
  -3  11   2    0.41    0.08
   3  11  -2    0.75    0.11
   3  11  -2    0.49    0.10
  -3  11   2    0.38    0.07
   3 -11  -2    0.39    0.08
   3 -11  -2    0.47    0.08
  -3 -11   2    0.46    0.08
  -3 -11   2    0.71    0.10
   3  11  -1    1.01    0.12
  -3  11   1    0.76    0.09
  -3  11   1    0.94    0.10
   3  11  -1    1.23    0.12
   3 -11  -1    0.93    0.11
  -3 -11   1    0.92    0.11
  -3 -11   1    1.05    0.11
   3 -11  -1    0.95    0.11
   3  11   0   12.13    0.38
   3  11   0   11.75    0.35
  -3  11   0   12.01    0.40
   3  11   0   12.18    0.39
  -3  11   0   11.93    0.37
  -3 -11   0   12.37    0.38
  -3 -11   0   11.58    0.40
   3 -11   0   11.96    0.40
   3 -11   0   11.92    0.40
   3  11   1    0.00    0.04
  -3  11  -1   -0.03    0.04
   3  11   1    0.00    0.02
   3  11   1    0.05    0.04
   3 -11   1    0.09    0.05
  -3 -11  -1   -0.03    0.03
   3 -11   1    0.00    0.03
  -3 -11  -1   -0.01    0.03
   3  11   2    0.05    0.05
  -3  11  -2    0.08    0.06
   3 -11   2    0.01    0.05
  -3 -11  -2    0.04    0.04
   3  11   3   13.54    0.43
  -3  11  -3   13.61    0.47
  -3 -11  -3   12.42    0.45
   3 -11   3   11.83    0.43
   3  11   4    2.71    0.17
  -3  11  -4    2.51    0.19
  -3 -11  -4    2.16    0.17
   3 -11   4    2.44    0.18
   3  11   5    1.24    0.15
  -3  11  -5    1.38    0.17
  -3 -11  -5    1.20    0.15
   3 -11   5    1.15    0.15
   3  11   6   -0.06    0.06
  -3  11  -6   -0.02    0.06
   3 -11   6    0.04    0.07
  -3 -11  -6   -0.01    0.04
  -3  11  -7    0.36    0.10
   3  11   7    0.48    0.12
   3 -11   7    0.51    0.12
  -3 -11  -7    0.33    0.10
  -3  11  -8    0.11    0.09
   3  11   8   -0.07    0.07
   3 -11   8    0.07    0.08
  -3  11  -9    0.03    0.09
   3  11   9    0.03    0.09
   3 -11   9   -0.05    0.09
  -3  11 -10   -0.07    0.09
   3  11  10   -0.08    0.07
  -3  12  11   -0.02    0.09
   3  12 -11    0.05    0.11
   3  12 -11    0.02    0.10
  -3 -12  11    0.13    0.10
  -3  12  10   -0.09    0.07
   3  12 -10   -0.01    0.08
   3  12 -10   -0.16    0.08
  -3 -12  10   -0.09    0.08
  -3  12   9    0.48    0.13
   3  12  -9    0.15    0.10
   3  12  -9    0.34    0.11
  -3  12   9    0.29    0.11
  -3 -12   9    0.17    0.10
   3  12  -8   -0.09    0.06
   3  12  -8    0.06    0.09
  -3  12   8   -0.03    0.07
  -3  12   8    0.08    0.08
  -3 -12   8    0.07    0.08
  -3  12   7    0.08    0.07
   3  12  -7    0.05    0.07
   3  12  -7    0.22    0.09
  -3  12   7    0.05    0.08
  -3 -12   7    0.11    0.08
   3 -12  -7    0.16    0.09
  -3  12   6    0.26    0.09
   3  12  -6    0.19    0.08
  -3  12   6    0.34    0.10
   3  12  -6    0.34    0.10
   3 -12  -6    0.09    0.07
  -3  12   5    3.49    0.22
   3  12  -5    3.83    0.25
   3  12  -5    3.36    0.23
  -3  12   5    3.59    0.23
  -3 -12   5    3.57    0.19
   3 -12  -5    3.54    0.25
  -3 -12   5    3.73    0.23
   3  12  -4    1.07    0.15
  -3  12   4    1.41    0.16
   3  12  -4    1.05    0.14
  -3  12   4    1.24    0.14
   3 -12  -4    1.25    0.16
  -3 -12   4    0.95    0.13
  -3 -12   4    1.32    0.13
  -3  12   3    2.26    0.16
   3  12  -3    1.82    0.19
  -3  12   3    2.05    0.15
   3  12  -3    2.02    0.18
   3 -12  -3    1.82    0.16
   3 -12  -3    2.09    0.17
  -3 -12   3    1.95    0.14
  -3 -12   3    1.85    0.17
  -3  12   2    0.16    0.06
  -3  12   2    0.16    0.06
   3  12  -2    0.20    0.07
   3  12  -2    0.14    0.06
  -3 -12   2    0.30    0.08
   3 -12  -2    0.34    0.08
  -3 -12   2    0.22    0.06
   3 -12  -2    0.27    0.08
  -3  12   1    0.33    0.07
  -3  12   1    0.36    0.07
   3  12  -1    0.36    0.08
   3  12  -1    0.66    0.10
   3 -12  -1    0.31    0.08
  -3 -12   1    0.30    0.07
   3 -12  -1    0.39    0.08
  -3 -12   1    0.37    0.08
   3  12   0    1.30    0.14
  -3  12   0    1.14    0.13
   3  12   0    1.42    0.14
   3 -12   0    1.32    0.14
  -3 -12   0    1.63    0.14
  -3 -12   0    1.17    0.13
   3 -12   0    1.23    0.13
  -3  12  -1   29.95    0.83
   3  12   1   25.21    0.76
  -3 -12  -1   29.03    0.83
   3 -12   1   31.05    0.80
   3 -12   1   31.00    0.82
  -3 -12  -1   30.64    0.77
   3  12   2   -0.08    0.04
  -3  12  -2    0.05    0.05
  -3 -12  -2    0.06    0.06
   3 -12   2    0.05    0.06
   3  12   3    0.77    0.11
  -3  12  -3    0.92    0.14
   3 -12   3    0.76    0.12
  -3 -12  -3    0.67    0.11
  -3  12  -4    0.57    0.11
   3  12   4    0.49    0.10
  -3 -12  -4    0.57    0.10
   3 -12   4    0.72    0.12
   3  12   5   -0.09    0.05
  -3  12  -5    0.08    0.07
  -3 -12  -5   -0.02    0.04
   3 -12   5   -0.04    0.05
  -3  12  -6    0.32    0.10
   3  12   6    0.43    0.11
   3 -12   6    0.32    0.10
  -3 -12  -6    0.38    0.10
   3  12   7    0.00    0.07
  -3  12  -7   -0.04    0.07
  -3 -12  -7    0.01    0.06
   3 -12   7   -0.04    0.07
  -3  12  -8    0.31    0.12
   3  12   8    0.24    0.10
   3 -12   8    0.36    0.13
   3  12   9    0.43    0.13
  -3  12  -9    0.33    0.12
   3 -12   9    0.44    0.14
  -3  12 -10   -0.08    0.08
   3  12  10   -0.03    0.09
   3  13 -10    0.11    0.12
  -3  13  10    0.10    0.10
   3  13 -10   -0.12    0.08
  -3 -13  10    0.12    0.10
  -3  13   9    0.00    0.09
   3  13  -9    0.03    0.08
   3  13  -9    0.21    0.11
  -3  13   9    0.15    0.10
  -3 -13   9   -0.05    0.08
  -3  13   8    0.02    0.07
   3  13  -8    0.11    0.09
   3  13  -8    0.01    0.08
  -3  13   8    0.11    0.09
  -3 -13   8    0.04    0.08
   3  13  -7    0.32    0.12
   3  13  -7    0.53    0.13
  -3  13   7    0.36    0.11
  -3  13   7    0.39    0.12
  -3 -13   7    0.54    0.13
  -3  13   6    0.94    0.15
  -3  13   6    0.84    0.14
   3  13  -6    0.98    0.16
   3  13  -6    1.12    0.16
  -3 -13   6    1.18    0.16
   3 -13  -6    1.15    0.17
   3  13  -5    1.28    0.16
  -3  13   5    1.05    0.15
  -3  13   5    1.18    0.15
   3  13  -5    1.16    0.17
  -3 -13   5    0.96    0.12
   3 -13  -5    1.39    0.18
  -3 -13   5    1.01    0.15
   3  13  -4    1.80    0.20
  -3  13   4    1.62    0.17
  -3  13   4    1.75    0.17
   3  13  -4    1.70    0.18
   3 -13  -4    1.56    0.18
  -3 -13   4    1.99    0.19
  -3 -13   4    1.63    0.15
  -3  13   3    0.37    0.08
   3  13  -3    0.96    0.14
  -3  13   3    0.81    0.12
   3  13  -3    0.84    0.13
  -3 -13   3    0.83    0.10
  -3 -13   3    0.66    0.11
   3 -13  -3    0.66    0.11
   3 -13  -3    0.95    0.12
  -3  13   2    7.34    0.29
   3  13  -2    7.42    0.33
   3  13  -2    7.92    0.33
  -3  13   2    8.23    0.32
   3 -13  -2    7.93    0.32
   3 -13  -2    7.84    0.34
  -3 -13   2    7.99    0.32
  -3 -13   2    7.47    0.31
  -3  13   1    1.95    0.14
   3  13  -1    1.84    0.17
   3  13  -1    2.15    0.16
  -3  13   1    1.99    0.15
  -3 -13   1    2.01    0.15
  -3 -13   1    2.13    0.16
   3 -13  -1    2.12    0.16
   3 -13  -1    2.04    0.16
   3  13   0    0.00    0.06
  -3  13   0    0.07    0.06
   3  13   0   -0.07    0.05
  -3 -13   0    0.10    0.06
   3 -13   0    0.05    0.06
  -3 -13   0    0.11    0.06
   3 -13   0    0.13    0.06
  -3  13  -1    0.74    0.11
   3  13   1    0.79    0.10
   3 -13   1    0.79    0.10
   3 -13   1    0.66    0.11
  -3 -13  -1    0.82    0.10
  -3 -13  -1    0.60    0.10
   3  13   2    0.94    0.11
  -3  13  -2    1.04    0.14
  -3 -13  -2    0.81    0.12
   3 -13   2    1.11    0.14
   3  13   3    3.01    0.18
  -3  13  -3    2.66    0.20
   3 -13   3    3.35    0.21
  -3 -13  -3    3.22    0.21
  -3  13  -4    0.62    0.12
   3  13   4    0.52    0.10
   3 -13   4    0.75    0.12
  -3 -13  -4    0.48    0.10
  -3  13  -5    0.75    0.14
   3  13   5    0.87    0.13
   3 -13   5    0.73    0.13
  -3 -13  -5    0.60    0.12
  -3  13  -6    0.14    0.09
   3  13   6    0.07    0.07
   3 -13   6    0.19    0.08
  -3 -13  -6    0.18    0.09
  -3  13  -7    0.27    0.11
   3  13   7    0.50    0.12
   3 -13   7    0.33    0.11
  -3  13  -8    0.96    0.18
   3  13   8    0.82    0.15
   3 -13   8    0.64    0.15
  -3  13  -9    0.02    0.08
   3  13   9    0.11    0.09
   3 -13   9   -0.05    0.10
   3  14 -10    0.12    0.12
  -3  14  10    0.12    0.10
  -3 -14  10    0.06    0.10
  -3  14   9    0.09    0.09
   3  14  -9    0.23    0.12
  -3  14   9   -0.03    0.08
   3  14  -9    0.17    0.11
  -3 -14   9    0.10    0.11
  -3  14   8    0.03    0.08
  -3  14   8    0.03    0.09
   3  14  -8   -0.01    0.08
   3  14  -8    0.09    0.08
  -3 -14   8   -0.03    0.08
   3  14  -7    0.68    0.15
   3  14  -7    0.64    0.14
  -3  14   7    0.74    0.15
  -3  14   7    0.75    0.14
  -3 -14   7    0.71    0.15
   3  14  -6    0.04    0.07
  -3  14   6    0.12    0.09
  -3  14   6    0.08    0.07
   3  14  -6    0.19    0.09
  -3 -14   6    0.02    0.07
   3  14  -5    0.38    0.11
   3  14  -5    0.28    0.10
  -3  14   5    0.41    0.11
  -3  14   5    0.25    0.09
  -3 -14   5    0.44    0.11
   3 -14  -5    0.45    0.11
  -3  14   4    2.49    0.19
  -3  14   4    2.57    0.18
   3  14  -4    2.78    0.25
   3  14  -4    2.54    0.23
  -3 -14   4    2.53    0.17
  -3 -14   4    2.67    0.20
   3 -14  -4    2.47    0.23
   3  14  -3    0.42    0.10
   3  14  -3    0.42    0.11
  -3  14   3    0.61    0.10
   3 -14  -3    0.49    0.10
  -3 -14   3    0.41    0.08
   3 -14  -3    0.76    0.11
  -3 -14   3    0.74    0.12
   3  14  -2    0.05    0.06
  -3  14   2    0.07    0.06
   3  14  -2   -0.03    0.05
  -3  14   2    0.16    0.06
   3 -14  -2    0.11    0.06
  -3 -14   2    0.00    0.05
  -3 -14   2    0.05    0.06
   3 -14  -2    0.02    0.05
   3  14  -1    2.63    0.19
  -3  14   1    3.24    0.19
   3  14  -1    2.98    0.20
   3 -14  -1    3.28    0.20
  -3 -14   1    3.12    0.19
  -3 -14   1    3.25    0.20
   3 -14  -1    3.21    0.20
   3  14   0    1.40    0.15
  -3  14   0    0.99    0.13
   3 -14   0    1.26    0.15
  -3 -14   0    1.18    0.14
   3 -14   0    1.34    0.14
  -3 -14   0    1.28    0.13
  -3  14  -1   -0.01    0.05
  -3 -14  -1   -0.04    0.04
   3 -14   1   -0.01    0.05
  -3  14  -2    0.04    0.06
   3  14   2    0.00    0.04
  -3 -14  -2    0.01    0.04
   3 -14   2    0.00    0.05
   3  14   3    0.00    0.05
  -3  14  -3    0.00    0.06
   3 -14   3   -0.07    0.05
  -3 -14  -3    0.04    0.05
   3  14   4    0.10    0.07
  -3  14  -4    0.06    0.07
   3 -14   4    0.09    0.07
  -3 -14  -4    0.06    0.06
   3  14   5   -0.05    0.05
  -3  14  -5    0.01    0.07
   3 -14   5    0.03    0.07
  -3 -14  -5    0.13    0.07
  -3  14  -6    0.07    0.09
   3  14   6    0.12    0.08
   3 -14   6    0.15    0.09
  -3  14  -7    0.06    0.08
   3  14   7    0.02    0.08
   3 -14   7    0.02    0.09
  -3  14  -8   -0.03    0.09
   3  14   8    0.19    0.10
   3 -14   8    0.25    0.11
  -3  14  -9    0.13    0.11
   3  14   9    0.22    0.11
   3 -14   9   -0.02    0.09
  -3  15   9    0.40    0.13
   3  15  -9    0.17    0.11
  -3 -15   9    0.29    0.11
  -3  15   8    0.46    0.13
  -3  15   8    0.42    0.13
   3  15  -8    0.15    0.10
  -3 -15   8    0.64    0.15
  -3  15   7    0.99    0.16
  -3  15   7    0.66    0.14
   3  15  -7    0.65    0.15
   3  15  -7    0.81    0.17
  -3 -15   7    0.76    0.15
   3  15  -6    0.55    0.13
   3  15  -6    0.58    0.14
  -3  15   6    0.42    0.11
  -3  15   6    0.43    0.11
  -3 -15   6    0.44    0.11
  -3  15   5    0.07    0.07
   3  15  -5    0.01    0.07
   3  15  -5   -0.04    0.07
  -3  15   5    0.05    0.07
   3 -15  -5    0.02    0.06
  -3 -15   5    0.13    0.07
  -3  15   4    0.71    0.13
   3  15  -4    0.74    0.13
   3  15  -4    0.63    0.13
  -3 -15   4    0.68    0.13
  -3 -15   4    0.91    0.12
   3 -15  -4    0.71    0.13
   3  15  -3    0.27    0.09
  -3  15   3    0.21    0.08
   3  15  -3    0.27    0.09
  -3 -15   3    0.37    0.09
  -3 -15   3    0.26    0.08
   3 -15  -3    0.16    0.07
   3  15  -2    0.30    0.09
   3  15  -2    0.28    0.09
  -3 -15   2    0.44    0.09
  -3 -15   2    0.18    0.07
   3 -15  -2    0.56    0.11
   3 -15  -2    0.31    0.09
   3  15  -1    0.49    0.11
  -3  15   1    0.47    0.10
  -3 -15   1    0.52    0.10
   3 -15  -1    0.50    0.10
   3 -15  -1    0.40    0.10
  -3 -15   1    0.35    0.08
  -3  15   0    0.01    0.05
   3 -15   0    0.05    0.05
   3 -15   0    0.15    0.08
  -3 -15   0    0.13    0.06
  -3 -15   0    0.11    0.06
  -3  15  -1    0.04    0.06
   3 -15   1    0.02    0.07
  -3 -15  -1    0.06    0.06
  -3  15  -2   -0.04    0.05
   3 -15   2    0.10    0.07
  -3 -15  -2    0.09    0.06
   3  15   3    0.79    0.11
  -3  15  -3    0.94    0.15
  -3 -15  -3    0.93    0.14
   3 -15   3    0.92    0.14
  -3  15  -4    0.38    0.11
   3  15   4    0.36    0.09
   3 -15   4    0.27    0.09
  -3 -15  -4    0.31    0.09
   3  15   5    0.57    0.11
  -3  15  -5    0.42    0.11
   3 -15   5    0.38    0.11
   3  15   6    0.18    0.09
  -3  15  -6    0.18    0.09
   3 -15   6    0.20    0.09
   3  15   7    0.00    0.07
  -3  15  -7    0.07    0.09
   3 -15   7    0.05    0.09
  -3  15  -8    0.01    0.09
   3  15   8    0.04    0.09
   3 -15   8    0.01    0.10
  -3  15  -9    0.04    0.10
   3  15   9    0.06    0.09
   3 -15   9    0.12    0.11
   3  16  -9   -0.03    0.10
  -3  16   9    0.10    0.10
  -3 -16   9    0.04    0.10
  -3  16   8    0.01    0.08
  -3  16   8    0.01    0.09
   3  16  -8   -0.09    0.09
  -3 -16   8    0.08    0.09
  -3  16   7    0.02    0.07
   3  16  -7   -0.05    0.08
   3  16  -7    0.12    0.10
  -3  16   7    0.08    0.08
  -3 -16   7    0.09    0.09
  -3  16   6    0.29    0.10
  -3  16   6    0.33    0.10
   3  16  -6    0.34    0.12
   3  16  -6    0.47    0.14
  -3 -16   6    0.47    0.12
  -3  16   5    0.33    0.11
   3  16  -5    0.25    0.11
   3  16  -5    0.44    0.12
  -3 -16   5    0.68    0.14
   3  16  -4    0.00    0.07
   3  16  -4   -0.05    0.06
  -3  16   4    0.00    0.06
  -3 -16   4    0.08    0.07
   3 -16  -4    0.04    0.07
  -3  16   3    0.64    0.12
   3  16  -3    0.98    0.16
  -3 -16   3    0.80    0.13
   3 -16  -3    0.67    0.13
  -3 -16   3    0.75    0.12
   3  16  -2    3.37    0.24
  -3 -16   2    4.05    0.23
   3 -16  -2    4.01    0.24
   3 -16  -2    3.60    0.24
  -3 -16   2    3.51    0.23
  -3  16   1    0.16    0.07
   3  16  -1    0.08    0.08
  -3 -16   1    0.07    0.07
   3 -16  -1    0.13    0.08
  -3 -16   1    0.17    0.07
   3 -16  -1    0.00    0.05
  -3  16   0   -0.08    0.05
   3 -16   0    0.02    0.07
  -3 -16   0    0.06    0.05
  -3 -16   0   -0.01    0.05
  -3  16  -1    0.35    0.10
  -3 -16  -1    0.31    0.09
   3 -16   1    0.20    0.09
  -3  16  -2   -0.03    0.06
  -3 -16  -2   -0.04    0.04
   3 -16   2   -0.04    0.07
  -3  16  -3    0.61    0.13
   3 -16   3    0.78    0.14
   3  16   4    0.95    0.13
  -3  16  -4    1.03    0.17
   3 -16   4    0.82    0.14
   3  16   5    0.04    0.07
  -3  16  -5   -0.02    0.07
   3 -16   5    0.01    0.07
   3  16   6    0.67    0.14
  -3  16  -6    0.81    0.17
   3 -16   6    0.94    0.16
  -3  16  -7    0.12    0.10
   3  16   7    0.10    0.09
   3 -16   7    0.07    0.10
  -3  16  -8   -0.01    0.09
   3  16   8   -0.03    0.08
   3 -16   8   -0.04    0.10
  -3  17   8    0.10    0.10
   3  17  -8    0.11    0.12
  -3 -17   8    0.08    0.10
  -3  17   7    0.10    0.10
   3  17  -7    0.30    0.13
  -3  17   7    0.36    0.12
  -3 -17   7    0.21    0.11
   3  17  -6    0.64    0.16
  -3  17   6    0.64    0.14
  -3 -17   6    0.72    0.15
   3  17  -5    0.57    0.14
  -3  17   5    0.61    0.14
  -3 -17   5    0.33    0.11
   3  17  -4    0.03    0.08
  -3 -17   4   -0.01    0.07
   3  17  -3    0.71    0.14
   3 -17  -3    0.97    0.15
  -3 -17   3    0.95    0.15
  -3 -17   3    0.75    0.12
   3  17  -2    0.01    0.07
   3 -17  -2   -0.02    0.07
  -3 -17   2   -0.03    0.06
   3 -17  -2    0.04    0.06
  -3 -17   2    0.12    0.07
  -3 -17   1    1.72    0.18
  -3 -17   1    1.28    0.16
   3 -17  -1    1.45    0.18
   3 -17  -1    1.54    0.18
  -3  17   0    1.93    0.20
   3 -17   0    2.51    0.23
  -3 -17   0    2.40    0.19
  -3  17  -1    0.04    0.07
   3 -17   1    0.11    0.08
  -3 -17  -1    0.15    0.07
  -3  17  -2    0.07    0.08
   3 -17   2    0.06    0.08
  -3  17  -3    0.40    0.11
   3 -17   3    0.60    0.13
  -3  17  -4    0.74    0.15
   3 -17   4    0.60    0.13
  -3  17  -5    0.44    0.13
   3  17   5    0.08    0.08
   3 -17   5    0.12    0.09
   3  17   6    0.14    0.09
  -3  17  -6    0.08    0.09
   3 -17   6    0.22    0.11
  -3  17  -7    0.37    0.13
   3  17   7    0.56    0.13
   3 -17   7    0.37    0.13
   3  18  -8    0.01    0.10
  -3  18   8    0.17    0.10
   3  18  -7    0.69    0.17
  -3 -18   7    0.63    0.16
   3  18  -6   -0.02    0.10
  -3 -18   6    0.10    0.10
   3  18  -5    0.14    0.10
  -3 -18   5    0.03    0.08
   3  18  -4    0.67    0.15
  -3 -18   4    0.47    0.13
   3  18  -3    0.07    0.09
  -3 -18   3    0.05    0.08
   3  18  -2    0.25    0.10
  -3 -18   2    0.26    0.08
  -3 -18   2    0.28    0.10
   3 -18  -2    0.18    0.09
  -3 -18   1    3.22    0.22
   3 -18  -1    3.14    0.23
  -3  18   0    0.16    0.09
   3 -18   0    0.06    0.09
  -3  18  -1    0.38    0.11
   3 -18   1    0.42    0.12
  -3  18  -2   -0.06    0.07
   3 -18   2    0.08    0.08
  -3  18  -3    0.52    0.13
   3 -18   3    0.43    0.12
  -3  18  -4   -0.04    0.07
   3 -18   4    0.04    0.08
  -3  18  -5    0.10    0.10
   3 -18   5    0.01    0.09
   3  18   6    0.02    0.08
  -3  18  -6    0.00    0.09
   3 -18   6   -0.02    0.08
  -3  18  -7    0.27    0.12
   3  18   7   -0.06    0.08
   3 -18   7    0.05    0.10
   3  19  -7    0.06    0.11
  -3 -19   7    0.04    0.11
   3  19  -6    0.16    0.11
  -3 -19   6    0.00    0.10
   3  19  -5   -0.09    0.09
  -3 -19   5   -0.04    0.08
   3  19  -4    0.02    0.10
  -3 -19   4    0.13    0.09
   3  19  -3    0.84    0.16
  -3 -19   3    0.77    0.14
   3  19  -2   -0.04    0.08
  -3 -19   2    0.10    0.08
  -3 -19   1    1.41    0.18
   3 -19  -1    1.48    0.19
   3 -19   0    3.18    0.27
  -3  19  -1   -0.02    0.07
   3 -19   1   -0.04    0.08
  -3  19  -2    0.54    0.13
   3 -19   2    0.51    0.13
  -3  19  -3   -0.04    0.06
   3 -19   3   -0.01    0.08
  -3  19  -4    0.41    0.13
   3 -19   4    0.47    0.14
  -3  19  -5    0.25    0.12
   3 -19   5    0.24    0.11
  -3  19  -6    0.06    0.10
   3 -19   6    0.01    0.10
   3  20  -6    0.65    0.17
  -3 -20   6    0.43    0.14
   3  20  -5    0.08    0.10
  -3 -20   5    0.17    0.10
   3  20  -4    0.07    0.10
  -3 -20   4   -0.01    0.08
   3  20  -3    0.13    0.11
  -3 -20   3    0.31    0.12
  -3 -20   2    0.24    0.10
   3 -20  -1   -0.01    0.09
   3 -20   0   -0.04    0.09
  -3  20  -1    0.60    0.14
   3 -20   1    0.61    0.15
  -3  20  -2    0.02    0.08
   3 -20   2   -0.06    0.07
  -3  20  -3    0.02    0.08
   3 -20   3   -0.01    0.08
  -3  20  -4    0.24    0.11
   3 -20   4    0.00    0.09
  -3  20  -5    0.00    0.08
   3 -20   5    0.01    0.09
   3  21  -5    0.25    0.12
  -3 -21   5    0.21    0.12
   3  21  -4   -0.01    0.09
  -3 -21   4   -0.05    0.08
   3  21  -3    0.11    0.10
  -3 -21   3    0.14    0.10
  -3 -21   2    0.62    0.14
   3 -21   0    0.69    0.15
   3 -21   1    0.03    0.09
  -3  21  -2    0.07    0.09
   3 -21   2    0.22    0.11
  -3  21  -3    0.05    0.09
   3 -21   3    0.04    0.10
  -3  21  -4    0.40    0.14
   3 -21   4    0.44    0.14
  -3 -22   3   -0.03    0.09
   3 -22   0   -0.08    0.09
   3 -22   1    0.07    0.11
  -3  22  -2    0.12    0.11
   3 -22   2    0.29    0.13
  -4   0  11   -0.08    0.08
  -4   0  10    0.02    0.09
  -4   0  10    0.14    0.09
  -4   0   9   -0.03    0.06
  -4   0   9    0.04    0.08
   4   0  -9    0.07    0.06
   4   0  -8    0.22    0.06
  -4   0   8    0.26    0.09
  -4   0   8    0.41    0.10
   4   0  -8    0.20    0.07
   4   0  -8    0.25    0.08
  -4   0   7    0.00    0.05
   4   0  -7   -0.11    0.04
   4   0  -7    0.05    0.05
   4   0  -7    0.01    0.05
  -4   0   6    0.12    0.05
   4   0  -6    0.24    0.06
   4   0  -6    0.22    0.06
   4   0  -6    0.15    0.05
   4   0  -5    0.00    0.03
   4   0  -5    0.02    0.04
   4   0  -5    0.01    0.03
   4   0  -4    3.52    0.16
   4   0  -4    3.37    0.17
   4   0  -4    3.46    0.16
   4   0  -3    0.01    0.02
   4   0  -3   -0.01    0.02
   4   0  -3    0.02    0.03
   4   0  -2    1.96    0.11
   4   0  -2    2.10    0.11
   4   0  -1    0.02    0.02
   4   0  -1   -0.02    0.02
   4   0  -1   -0.04    0.02
  -4   0   0  202.23    4.51
   4   0   0  196.21    4.50
   4   0   0  200.30    4.42
   4   0   1    0.01    0.02
  -4   0  -1    0.02    0.02
   4   0   1   -0.01    0.02
   4   0   2   14.52    0.38
   4   0   2   13.87    0.39
  -4   0  -2   14.30    0.36
   4   0   3    0.02    0.03
   4   0   3    0.00    0.02
  -4   0  -3   -0.01    0.01
   4   0   4  137.38    3.19
  -4   0  -4  139.13    3.15
   4   0   4  139.80    3.09
   4   0   5    0.05    0.05
  -4   0  -5    0.06    0.04
   4   0   6    2.83    0.16
   4   0   7    0.02    0.06
   4   0   8    1.33    0.15
   4   0   9   -0.02    0.07
  -4   1  12    0.02    0.11
  -4   1  11    0.08    0.10
  -4   1  11    0.20    0.10
  -4   1  10    1.35    0.19
  -4   1  10    1.30    0.18
   4  -1 -10    1.56    0.19
  -4  -1  10    1.38    0.18
  -4  -1  10    1.72    0.20
  -4   1   9    1.87    0.20
  -4   1   9    1.37    0.17
  -4  -1   9    1.64    0.19
  -4  -1   9    1.73    0.19
   4  -1  -9    1.76    0.19
  -4   1   8    0.73    0.12
  -4   1   8    0.67    0.13
   4   1  -8    0.68    0.11
   4   1  -8    0.59    0.10
   4  -1  -8    0.50    0.11
   4  -1  -8    0.70    0.11
  -4  -1   8    0.63    0.12
  -4  -1   8    0.78    0.13
  -4  -1   8    0.76    0.12
   4   1  -7    4.66    0.24
  -4   1   7    4.27    0.24
   4   1  -7    4.69    0.22
   4   1  -7    4.74    0.23
   4  -1  -7    3.99    0.20
   4  -1  -7    4.61    0.22
  -4  -1   7    4.72    0.25
   4  -1  -7    4.11    0.24
   4   1  -6    0.08    0.04
  -4   1   6    0.03    0.05
   4   1  -6    0.06    0.04
   4   1  -6    0.12    0.05
   4  -1  -6    0.06    0.05
  -4  -1   6    0.09    0.05
   4  -1  -6    0.08    0.05
   4  -1  -6   -0.02    0.03
   4   1  -5    0.81    0.10
   4   1  -5    1.16    0.11
  -4   1   5    0.87    0.11
   4   1  -5    1.01    0.11
   4  -1  -5    0.70    0.09
   4  -1  -5    0.80    0.10
   4  -1  -5    0.73    0.09
   4   1  -4   23.22    0.63
   4   1  -4   23.67    0.63
   4  -1  -4   22.81    0.66
   4  -1  -4   23.52    0.62
   4  -1  -4   23.67    0.62
   4   1  -3    1.62    0.10
   4   1  -3    1.38    0.09
   4  -1  -3    1.44    0.10
   4  -1  -3    1.50    0.11
   4  -1  -3    1.31    0.09
   4   1  -2   -0.02    0.02
   4   1  -2    0.04    0.03
   4   1  -2    0.01    0.02
  -4  -1   2    0.00    0.02
   4  -1  -2    0.02    0.02
   4  -1  -2    0.05    0.03
   4  -1  -2    0.05    0.03
   4   1  -1    0.20    0.04
   4   1  -1    0.18    0.04
   4   1  -1    0.22    0.04
   4  -1  -1    0.21    0.04
   4  -1  -1    0.23    0.04
  -4  -1   1    0.19    0.04
  -4   1   0   23.86    0.57
   4   1   0   22.03    0.57
   4   1   0   21.91    0.57
   4  -1   0   23.01    0.58
   4  -1   0   22.26    0.57
  -4  -1   0   23.44    0.57
   4   1   1   15.96    0.43
  -4   1  -1   16.74    0.41
   4   1   1   16.59    0.43
   4  -1   1   15.94    0.43
   4  -1   1   16.32    0.43
  -4  -1  -1   16.51    0.42
  -4   1  -2   25.14    0.58
   4   1   2   24.51    0.62
   4   1   2   24.71    0.60
   4  -1   2   24.13    0.61
   4  -1   2   24.48    0.62
  -4  -1  -2   24.79    0.60
  -4   1  -3    6.36    0.17
   4   1   3    6.43    0.22
   4   1   3    6.39    0.20
  -4  -1  -3    6.36    0.20
   4  -1   3    6.22    0.21
   4  -1   3    6.10    0.21
   4   1   4    0.29    0.05
   4   1   4    0.33    0.07
  -4   1  -4    0.33    0.04
   4  -1   4    0.41    0.07
  -4  -1  -4    0.31    0.05
   4  -1   4    0.35    0.06
   4   1   5   11.90    0.38
  -4   1  -5   11.79    0.37
  -4  -1  -5   12.12    0.35
   4  -1   5   12.14    0.37
   4  -1   5   11.78    0.34
  -4   1  -6    0.14    0.05
   4   1   6    0.00    0.05
   4  -1   6    0.06    0.05
   4   1   7    2.34    0.16
   4  -1   7    2.55    0.16
   4   1   8    0.13    0.08
   4  -1   8    0.21    0.08
   4   1   9    0.08    0.08
   4   1  10    0.32    0.11
  -4   2  12    0.05    0.11
  -4   2  11    0.06    0.09
  -4   2  11    0.04    0.10
  -4   2  10    0.02    0.08
  -4   2  10   -0.08    0.07
   4  -2 -10    0.07    0.08
  -4  -2  10    0.08    0.09
  -4   2   9    0.04    0.06
   4   2  -9    0.06    0.07
  -4   2   9   -0.02    0.06
   4   2  -9   -0.01    0.06
  -4  -2   9   -0.07    0.06
  -4  -2   9    0.07    0.07
  -4  -2   9    0.09    0.08
   4  -2  -9    0.05    0.06
  -4   2   8    0.45    0.10
  -4   2   8    0.72    0.13
   4   2  -8    0.64    0.11
   4   2  -8    0.39    0.09
  -4  -2   8    0.49    0.11
  -4  -2   8    0.53    0.11
  -4  -2   8    0.58    0.10
   4  -2  -8    0.39    0.10
   4   2  -7    0.08    0.06
  -4   2   7    0.14    0.07
   4   2  -7    0.02    0.05
  -4   2   7    0.19    0.08
   4  -2  -7    0.05    0.05
   4  -2  -7    0.03    0.05
   4  -2  -7   -0.02    0.04
  -4  -2   7    0.05    0.05
  -4  -2   7    0.07    0.06
   4   2  -6    5.10    0.23
  -4   2   6    5.10    0.26
   4   2  -6    5.29    0.24
   4  -2  -6    4.87    0.21
   4  -2  -6    5.21    0.22
   4  -2  -6    5.42    0.26
   4   2  -5   35.92    0.94
  -4   2   5   36.66    1.01
   4   2  -5   36.69    0.94
   4  -2  -5   36.43    0.92
   4  -2  -5   36.90    0.98
   4   2  -4    0.71    0.09
   4   2  -4    0.97    0.10
  -4   2   4    1.20    0.12
   4  -2  -4    0.99    0.10
   4  -2  -4    0.79    0.09
   4  -2  -4    1.06    0.10
   4   2  -3   13.38    0.41
   4   2  -3   13.92    0.41
   4  -2  -3   14.21    0.43
   4  -2  -3   14.70    0.40
  -4  -2   3   13.35    0.41
   4  -2  -3   13.79    0.40
   4   2  -2    2.44    0.12
   4   2  -2    2.59    0.13
   4   2  -2    2.27    0.11
   4  -2  -2    2.51    0.13
  -4  -2   2    2.51    0.12
   4  -2  -2    2.56    0.12
   4   2  -1   39.66    0.94
  -4  -2   1   39.12    0.95
   4  -2  -1   39.47    0.96
   4  -2  -1   38.89    0.94
   4  -2  -1   38.38    0.95
   4   2   0    3.15    0.12
   4   2   0    2.80    0.12
   4   2   0    3.22    0.13
   4  -2   0    2.70    0.13
   4  -2   0    2.97    0.12
  -4  -2   0    2.99    0.12
  -4   2  -1    9.86    0.26
   4   2   1    9.77    0.28
   4   2   1    9.54    0.27
   4  -2   1    9.88    0.28
   4  -2   1    9.22    0.28
  -4  -2  -1    9.91    0.27
   4   2   2    1.32    0.08
  -4   2  -2    1.36    0.06
   4   2   2    1.15    0.07
  -4   2  -2    1.31    0.05
  -4  -2  -2    1.37    0.08
   4  -2   2    1.34    0.08
   4  -2   2    1.26    0.07
  -4   2  -3    1.89    0.06
   4   2   3    1.68    0.10
  -4  -2  -3    1.90    0.10
   4  -2   3    1.81    0.10
   4  -2   3    1.78    0.10
   4   2   4    2.40    0.14
   4  -2   4    2.57    0.13
  -4  -2  -4    2.89    0.13
   4  -2   4    2.52    0.12
   4   2   5    0.24    0.07
   4  -2   5    0.51    0.07
   4  -2   5    0.30    0.06
  -4  -2  -5    0.37    0.06
  -4   2  -6    1.15    0.12
   4   2   6    0.95    0.12
   4  -2   6    1.07    0.11
   4   2   7    2.00    0.15
   4  -2   7    2.50    0.15
   4   2   8    0.01    0.07
   4   2   9    0.20    0.10
   4   2  10    0.08    0.09
   4   2  11    0.19    0.11
  -4   3  12   -0.01    0.10
  -4   3  12    0.08    0.09
  -4   3  11    0.09    0.10
  -4   3  11    0.11    0.10
  -4   3  10    0.00    0.07
  -4   3  10    0.20    0.10
   4  -3 -10    0.16    0.08
  -4   3   9    0.30    0.11
   4   3  -9    0.08    0.07
  -4   3   9    0.08    0.07
   4   3  -9    0.05    0.07
   4  -3  -9    0.04    0.06
  -4  -3   9    0.06    0.08
  -4  -3   9    0.19    0.08
  -4  -3   9    0.26    0.10
   4   3  -8    0.11    0.06
  -4   3   8    0.16    0.08
   4   3  -8    0.30    0.08
  -4   3   8    0.05    0.06
   4  -3  -8    0.19    0.08
  -4  -3   8    0.28    0.08
  -4  -3   8    0.29    0.09
  -4  -3   8    0.36    0.09
  -4   3   7   11.95    0.45
   4   3  -7   12.57    0.44
  -4   3   7   12.15    0.46
   4   3  -7   12.54    0.43
  -4  -3   7   12.30    0.45
   4  -3  -7   11.52    0.46
  -4  -3   7   12.16    0.43
   4  -3  -7   12.35    0.40
   4   3  -6    6.60    0.28
  -4   3   6    7.35    0.31
   4   3  -6    6.37    0.28
   4  -3  -6    6.68    0.26
   4  -3  -6    6.80    0.25
   4  -3  -6    6.36    0.30
   4   3  -5    6.27    0.26
   4   3  -5    6.57    0.26
  -4   3   5    6.61    0.29
   4  -3  -5    6.12    0.24
   4  -3  -5    6.30    0.28
  -4  -3   5    6.09    0.25
   4   3  -4    0.06    0.04
   4   3  -4    0.05    0.04
  -4   3   4    0.07    0.04
  -4  -3   4    0.08    0.04
   4  -3  -4    0.04    0.04
   4  -3  -4    0.05    0.03
  -4   3   3    2.91    0.15
   4   3  -3    2.87    0.15
   4   3  -3    2.68    0.15
   4  -3  -3    2.89    0.15
  -4  -3   3    2.90    0.14
   4  -3  -3    3.05    0.14
   4   3  -2    0.78    0.08
   4   3  -2    0.65    0.07
   4   3  -2    0.75    0.07
   4  -3  -2    0.69    0.07
   4  -3  -2    0.59    0.07
  -4  -3   2    0.58    0.06
   4   3  -1    1.85    0.10
   4   3  -1    1.66    0.09
   4   3  -1    1.70    0.10
  -4  -3   1    1.55    0.09
   4  -3  -1    1.67    0.10
   4  -3  -1    1.67    0.10
   4   3   0    0.14    0.03
   4   3   0    0.26    0.04
   4   3   0    0.15    0.03
   4  -3   0    0.20    0.04
   4  -3   0    0.25    0.04
  -4  -3   0    0.19    0.03
   4  -3   0    0.17    0.04
   4   3   1    1.18    0.08
   4   3   1    1.22    0.07
   4  -3   1    1.30    0.09
  -4  -3  -1    1.20    0.07
   4  -3   1    1.26    0.07
  -4   3  -2   13.00    0.31
   4   3   2   12.81    0.37
  -4   3  -2   13.51    0.31
   4   3   2   12.86    0.34
  -4  -3  -2   12.94    0.36
   4  -3   2   12.88    0.37
   4  -3   2   12.88    0.35
   4   3   3    4.03    0.17
   4  -3   3    3.98    0.17
  -4  -3  -3    3.97    0.16
   4  -3   3    4.01    0.15
   4   3   4    1.29    0.10
   4  -3   4    1.33    0.10
  -4  -3  -4    1.24    0.09
   4  -3   4    1.47    0.09
   4   3   5    7.72    0.29
  -4   3  -5    7.75    0.29
   4  -3   5    7.76    0.27
   4  -3   5    7.93    0.26
  -4  -3  -5    7.27    0.27
  -4   3  -6    0.31    0.07
   4   3   6    0.87    0.12
   4  -3   6    0.76    0.09
   4   3   7    0.26    0.08
   4   3   8    0.79    0.13
   4   3   9    0.11    0.08
   4   3  10   -0.06    0.08
   4   3  11    0.04    0.09
  -4   4  12   -0.06    0.08
  -4   4  12   -0.10    0.09
  -4   4  11    0.02    0.08
  -4   4  11   -0.03    0.09
  -4   4  10    0.30    0.10
  -4   4  10    0.31    0.11
   4  -4 -10    0.29    0.10
  -4   4   9    0.10    0.08
  -4   4   9    0.05    0.07
   4   4  -9   -0.01    0.07
   4   4  -9    0.13    0.08
   4  -4  -9    0.17    0.08
  -4  -4   9    0.19    0.09
  -4   4   8    0.90    0.14
   4   4  -8    0.90    0.13
  -4   4   8    0.94    0.15
   4   4  -8    0.85    0.13
  -4  -4   8    0.85    0.13
  -4  -4   8    0.80    0.12
   4  -4  -8    0.97    0.14
  -4  -4   8    1.00    0.14
  -4  -4   8    1.00    0.13
   4   4  -7    0.36    0.09
  -4   4   7    0.47    0.10
  -4   4   7    0.47    0.10
   4   4  -7    0.36    0.09
   4  -4  -7    0.45    0.08
  -4  -4   7    0.29    0.08
   4  -4  -7    0.27    0.08
  -4  -4   7    0.46    0.09
  -4  -4   7    0.22    0.07
  -4   4   6    1.10    0.14
   4   4  -6    1.08    0.12
   4   4  -6    1.21    0.13
  -4  -4   6    1.17    0.12
  -4  -4   6    1.34    0.14
   4  -4  -6    1.36    0.12
   4  -4  -6    1.15    0.14
   4   4  -5    0.63    0.09
  -4   4   5    0.37    0.08
   4   4  -5    0.63    0.09
   4  -4  -5    0.33    0.08
   4  -4  -5    0.42    0.07
  -4  -4   5    0.40    0.07
  -4   4   4    8.66    0.33
   4   4  -4    9.51    0.32
   4   4  -4    9.25    0.32
   4  -4  -4    9.11    0.34
   4  -4  -4    8.67    0.30
  -4  -4   4    9.48    0.32
  -4   4   3    1.18    0.11
   4   4  -3    1.22    0.11
   4   4  -3    1.60    0.11
  -4  -4   3    1.47    0.10
   4  -4  -3    1.41    0.11
   4  -4  -3    1.44    0.10
   4   4  -2   21.02    0.58
   4   4  -2   21.59    0.56
  -4   4   2   21.79    0.61
   4   4  -2   21.91    0.58
  -4  -4   2   21.32    0.58
   4  -4  -2   21.95    0.57
   4  -4  -2   22.00    0.60
   4   4  -1   30.89    0.76
   4   4  -1   31.33    0.77
   4   4  -1   31.17    0.75
   4  -4  -1   30.25    0.76
  -4  -4   1   29.64    0.76
   4  -4  -1   29.65    0.77
   4   4   0  156.60    3.62
   4   4   0  160.59    3.56
   4   4   0  161.70    3.56
   4  -4   0  158.62    3.62
  -4  -4   0  161.13    3.63
   4  -4   0  156.20    3.57
   4  -4   0  161.48    3.63
   4   4   1    4.31    0.16
   4   4   1    4.52    0.16
   4   4   1    4.65    0.17
   4  -4   1    4.44    0.14
  -4  -4  -1    4.50    0.17
   4  -4   1    3.98    0.17
   4  -4   1    4.32    0.16
  -4   4  -2    4.29    0.12
   4   4   2    4.51    0.18
  -4   4  -2    4.56    0.12
  -4  -4  -2    4.31    0.17
   4  -4   2    4.48    0.15
   4  -4   2    4.27    0.18
   4   4   3    3.95    0.17
   4  -4   3    4.15    0.15
  -4  -4  -3    3.91    0.17
   4  -4   3    3.81    0.17
   4   4   4    0.62    0.09
   4  -4   4    0.52    0.06
   4  -4   4    0.53    0.08
  -4  -4  -4    0.56    0.07
  -4   4  -5    1.59    0.13
   4   4   5    1.90    0.14
  -4  -4  -5    1.54    0.11
   4  -4   5    1.65    0.12
   4  -4   5    1.86    0.11
   4   4   6    4.76    0.23
  -4   4  -6    4.34    0.23
  -4  -4  -6    4.85    0.22
   4  -4   6    4.83    0.22
   4   4   7    1.06    0.14
   4   4   8    0.43    0.11
   4   4   9    0.05    0.08
   4   4  10   -0.11    0.08
   4   4  11    0.12    0.10
  -4   5  12    0.37    0.13
  -4   5  12    0.24    0.13
  -4   5  11    0.04    0.08
  -4   5  11    0.16    0.11
  -4   5  10   -0.07    0.07
   4   5 -10    0.02    0.07
   4   5 -10    0.09    0.08
  -4   5  10    0.04    0.08
  -4  -5  10    0.00    0.07
   4  -5 -10    0.02    0.06
  -4   5   9    0.07    0.07
  -4   5   9   -0.08    0.06
   4   5  -9   -0.02    0.06
   4   5  -9    0.06    0.07
   4  -5  -9    0.06    0.07
  -4  -5   9   -0.03    0.07
   4   5  -8    0.99    0.14
  -4   5   8    0.95    0.15
  -4   5   8    1.20    0.16
   4   5  -8    0.93    0.14
   4  -5  -8    1.07    0.15
  -4  -5   8    1.02    0.14
  -4  -5   8    1.12    0.13
   4   5  -7    0.38    0.09
   4   5  -7    0.30    0.09
  -4   5   7    0.08    0.06
  -4   5   7    0.30    0.09
  -4  -5   7    0.13    0.06
  -4  -5   7    0.15    0.07
   4  -5  -7    0.16    0.07
   4   5  -6    3.45    0.20
  -4   5   6    3.36    0.21
  -4   5   6    3.27    0.21
   4   5  -6    3.21    0.19
   4  -5  -6    3.39    0.21
  -4  -5   6    2.95    0.19
   4  -5  -6    3.04    0.16
  -4  -5   6    3.53    0.18
   4   5  -5    0.39    0.08
  -4   5   5    0.40    0.09
   4   5  -5    0.30    0.07
   4  -5  -5    0.45    0.07
  -4  -5   5    0.27    0.06
  -4  -5   5    0.30    0.07
   4  -5  -5    0.29    0.07
   4   5  -4    0.18    0.06
   4   5  -4    0.07    0.04
  -4   5   4    0.07    0.04
  -4  -5   4    0.19    0.06
   4  -5  -4    0.07    0.04
  -4  -5   4    0.10    0.04
   4  -5  -4    0.08    0.04
   4   5  -3   30.30    0.81
  -4   5   3   32.46    0.87
   4   5  -3   31.08    0.83
   4  -5  -3   31.61    0.80
   4  -5  -3   32.24    0.85
  -4  -5   3   31.43    0.81
   4   5  -2    6.12    0.23
   4   5  -2    6.13    0.23
   4   5  -2    4.82    0.19
  -4   5   2    5.65    0.22
   4  -5  -2    6.27    0.23
   4  -5  -2    6.10    0.22
  -4  -5   2    6.29    0.22
  -4   5   1    0.34    0.05
   4   5  -1    0.45    0.07
   4   5  -1    0.41    0.06
   4   5  -1    0.55    0.06
   4  -5  -1    0.49    0.06
   4  -5  -1    0.40    0.06
  -4  -5   1    0.53    0.06
   4   5   0   60.98    1.39
   4   5   0   58.61    1.38
   4   5   0   58.70    1.39
   4  -5   0   58.58    1.39
  -4  -5   0   59.14    1.41
   4  -5   0   59.14    1.40
   4   5   1    1.65    0.09
   4   5   1    1.60    0.10
   4   5   1    2.00    0.10
   4  -5   1    1.67    0.09
   4  -5   1    1.51    0.11
   4  -5   1    1.73    0.08
  -4  -5  -1    1.85    0.10
   4   5   2   43.29    1.01
   4   5   2   44.08    1.08
  -4   5  -2   44.57    1.00
   4  -5   2   43.35    1.03
  -4  -5  -2   43.97    1.08
   4  -5   2   42.73    1.00
   4  -5   2   43.27    1.06
   4   5   3    7.55    0.27
  -4  -5  -3    8.05    0.28
   4  -5   3    7.91    0.28
   4  -5   3    8.03    0.24
  -4   5  -4    2.60    0.16
   4   5   4    2.85    0.16
  -4  -5  -4    2.59    0.14
   4  -5   4    2.45    0.15
   4  -5   4    2.80    0.12
   4   5   5    1.53    0.15
  -4   5  -5    1.42    0.14
   4  -5   5    1.50    0.13
  -4  -5  -5    1.24    0.12
   4   5   6    3.36    0.20
  -4   5  -6    3.22    0.20
   4  -5   6    2.83    0.17
  -4  -5  -6    3.05    0.18
  -4   5  -7   -0.08    0.05
   4   5   7    0.06    0.06
   4   5   8    0.20    0.09
   4   5   9   -0.06    0.07
   4   5  10    0.05    0.09
   4   5  11    0.11    0.10
  -4   6  12    0.13    0.11
  -4   6  11    0.05    0.09
  -4   6  11    0.11    0.09
   4   6 -10   -0.02    0.06
  -4   6  10    0.01    0.07
  -4   6  10    0.16    0.10
   4   6 -10   -0.02    0.07
  -4  -6  10    0.00    0.08
  -4   6   9   -0.06    0.05
  -4   6   9    0.07    0.07
   4   6  -9    0.06    0.07
   4   6  -9    0.00    0.06
   4  -6  -9    0.06    0.07
  -4  -6   9    0.05    0.08
   4   6  -8    0.10    0.07
   4   6  -8    0.14    0.08
  -4   6   8    0.08    0.08
  -4   6   8    0.04    0.06
   4  -6  -8    0.10    0.06
  -4  -6   8    0.14    0.08
  -4  -6   8    0.10    0.07
   4   6  -7    0.15    0.07
  -4   6   7    0.17    0.07
  -4   6   7    0.26    0.09
   4   6  -7    0.30    0.09
  -4  -6   7    0.30    0.09
   4  -6  -7    0.23    0.08
  -4  -6   7    0.24    0.07
   4   6  -6    1.46    0.15
   4   6  -6    1.45    0.16
  -4   6   6    1.26    0.15
  -4   6   6    1.57    0.17
   4  -6  -6    1.42    0.13
   4  -6  -6    1.36    0.16
  -4  -6   6    1.39    0.13
  -4  -6   6    1.24    0.14
  -4   6   5    3.66    0.21
   4   6  -5    4.45    0.23
   4   6  -5    4.05    0.21
  -4  -6   5    3.87    0.19
   4  -6  -5    3.47    0.21
  -4  -6   5    3.86    0.21
   4  -6  -5    4.05    0.19
   4   6  -4    0.52    0.09
  -4   6   4    0.58    0.09
   4   6  -4    0.44    0.08
  -4  -6   4    0.41    0.08
   4  -6  -4    0.60    0.09
  -4  -6   4    0.34    0.06
   4  -6  -4    0.43    0.07
   4   6  -3    3.03    0.17
  -4   6   3    3.13    0.17
   4   6  -3    3.07    0.17
   4   6  -3    3.39    0.14
   4  -6  -3    3.34    0.16
  -4  -6   3    3.02    0.15
   4  -6  -3    2.74    0.16
  -4  -6   3    3.14    0.16
   4   6  -2    2.33    0.12
   4   6  -2    2.93    0.16
  -4   6   2    3.17    0.16
   4   6  -2    2.84    0.15
  -4  -6   2    3.27    0.15
  -4  -6   2    3.13    0.16
   4  -6  -2    3.35    0.15
   4  -6  -2    3.01    0.16
   4   6  -1   12.28    0.34
   4   6  -1   11.69    0.37
   4   6  -1   12.24    0.37
  -4  -6   1   12.41    0.36
   4  -6  -1   11.95    0.36
   4  -6  -1   11.98    0.37
   4   6   0   13.41    0.39
  -4   6   0   13.69    0.39
   4   6   0   13.89    0.38
   4   6   0   13.79    0.39
   4  -6   0   13.85    0.39
  -4  -6   0   13.70    0.40
   4  -6   0   13.56    0.40
   4   6   1    1.21    0.09
   4   6   1    1.31    0.08
   4   6   1    1.30    0.08
  -4   6  -1    1.33    0.07
   4  -6   1    1.32    0.11
   4  -6   1    1.35    0.08
  -4  -6  -1    1.11    0.09
   4   6   2    1.20    0.11
  -4   6  -2    0.92    0.05
   4   6   2    0.80    0.06
  -4  -6  -2    0.86    0.09
   4  -6   2    0.72    0.09
   4  -6   2    0.85    0.06
   4  -6   2    0.81    0.05
  -4  -6  -2    0.82    0.06
   4   6   3    0.03    0.04
   4  -6   3    0.08    0.03
   4  -6   3    0.07    0.04
  -4  -6  -3    0.08    0.04
  -4   6  -4    1.95    0.14
   4   6   4    1.82    0.13
  -4  -6  -4    1.77    0.12
   4  -6   4    1.88    0.13
   4   6   5    0.26    0.07
  -4   6  -5    0.22    0.07
  -4  -6  -5    0.22    0.06
   4  -6   5    0.27    0.07
  -4   6  -6    0.08    0.06
   4   6   6    0.11    0.06
   4  -6   6    0.06    0.06
  -4  -6  -6    0.08    0.05
  -4   6  -7    0.09    0.07
   4   6   7    0.02    0.06
   4  -6   7    0.03    0.07
   4   6   8    0.12    0.08
  -4   6  -8    0.15    0.08
   4   6   9    0.01    0.08
   4   6  10   -0.05    0.08
   4   6  11    0.08    0.10
  -4   7  12    0.08    0.11
  -4   7  11    0.05    0.09
   4   7 -11    0.14    0.10
  -4   7  11    0.21    0.12
  -4   7  10    0.18    0.11
   4   7 -10    0.29    0.11
   4   7 -10    0.05    0.08
  -4   7  10    0.10    0.08
  -4  -7  10    0.21    0.10
   4   7  -9    0.08    0.08
  -4   7   9   -0.02    0.08
  -4   7   9   -0.02    0.06
   4   7  -9   -0.05    0.06
   4  -7  -9    0.03    0.06
  -4  -7   9    0.01    0.07
   4   7  -8   -0.05    0.06
  -4   7   8    0.03    0.07
   4   7  -8   -0.06    0.05
  -4   7   8    0.09    0.07
  -4  -7   8   -0.06    0.06
   4  -7  -8   -0.06    0.04
  -4   7   7    0.88    0.14
  -4   7   7    1.33    0.17
   4   7  -7    1.02    0.14
   4   7  -7    1.34    0.16
  -4  -7   7    0.84    0.13
  -4  -7   7    1.24    0.13
   4  -7  -7    0.85    0.14
  -4   7   6    0.56    0.11
   4   7  -6    0.46    0.10
   4   7  -6    0.70    0.11
  -4   7   6    0.39    0.09
   4  -7  -6    0.37    0.09
  -4  -7   6    0.49    0.08
  -4  -7   6    0.46    0.10
   4   7  -5    0.06    0.05
  -4   7   5    0.07    0.05
  -4   7   5    0.01    0.05
   4   7  -5    0.15    0.06
   4  -7  -5    0.09    0.04
  -4  -7   5    0.02    0.04
  -4  -7   5    0.07    0.05
   4  -7  -5    0.06    0.04
  -4   7   4    4.93    0.24
   4   7  -4    4.74    0.23
   4   7  -4    4.76    0.22
  -4  -7   4    4.61    0.22
   4  -7  -4    4.48    0.20
  -4  -7   4    4.51    0.20
   4  -7  -4    4.69    0.24
   4   7  -3    0.26    0.05
   4   7  -3    0.12    0.05
  -4   7   3    0.10    0.05
   4   7  -3    0.08    0.05
  -4  -7   3    0.15    0.04
  -4  -7   3    0.14    0.05
   4  -7  -3    0.19    0.05
   4  -7  -3    0.19    0.06
  -4   7   2    1.81    0.12
   4   7  -2    1.69    0.12
   4   7  -2    1.89    0.13
   4   7  -2    1.93    0.10
  -4  -7   2    1.96    0.12
   4  -7  -2    1.94    0.12
   4  -7  -2    1.62    0.12
  -4  -7   2    1.80    0.11
  -4   7   1    0.00    0.02
   4   7  -1    0.01    0.02
   4   7  -1   -0.02    0.03
   4   7  -1    0.02    0.03
   4  -7  -1    0.00    0.03
  -4  -7   1    0.06    0.03
   4  -7  -1    0.01    0.02
  -4  -7   1    0.00    0.03
   4   7   0    0.00    0.03
  -4   7   0    0.02    0.03
   4   7   0    0.02    0.03
  -4  -7   0    0.03    0.03
  -4  -7   0   -0.01    0.03
   4  -7   0    0.01    0.02
   4  -7   0    0.01    0.03
   4   7   1    5.73    0.21
   4   7   1    5.29    0.19
  -4   7  -1    5.67    0.18
   4   7   1    5.55    0.20
  -4  -7  -1    5.50    0.19
   4  -7   1    5.44    0.22
   4  -7   1    5.65    0.19
  -4  -7  -1    5.43    0.22
   4   7   2    5.38    0.18
   4   7   2    5.65    0.18
   4   7   2    5.47    0.22
   4  -7   2    5.65    0.23
   4  -7   2    5.71    0.18
  -4  -7  -2    5.72    0.23
  -4  -7  -2    5.68    0.18
   4   7   3    1.27    0.12
  -4  -7  -3    1.34    0.13
   4  -7   3    1.22    0.12
   4   7   4    0.11    0.05
  -4   7  -4    0.26    0.07
  -4  -7  -4    0.08    0.05
   4  -7   4    0.07    0.05
  -4   7  -5    9.45    0.37
   4   7   5    9.59    0.36
   4  -7   5    9.34    0.35
  -4  -7  -5    9.20    0.35
  -4   7  -6    0.95    0.14
   4   7   6    0.89    0.13
  -4  -7  -6    0.67    0.10
   4  -7   6    0.97    0.13
   4   7   7    1.79    0.19
  -4   7  -7    2.11    0.20
   4  -7   7    1.52    0.16
   4   7   8    0.06    0.07
  -4   7  -8    0.10    0.08
   4   7   9    0.04    0.08
   4   7  10    0.06    0.08
   4   7  11    0.11    0.10
  -4   8  12    0.10    0.11
   4   8 -11    0.05    0.09
  -4   8  11    0.06    0.08
  -4   8  11    0.07    0.10
  -4   8  10    0.05    0.09
   4   8 -10   -0.07    0.07
   4   8 -10   -0.05    0.08
  -4   8  10   -0.04    0.07
  -4  -8  10    0.12    0.09
   4   8  -9    0.23    0.10
  -4   8   9    0.29    0.11
   4   8  -9    0.22    0.10
  -4   8   9    0.21    0.10
  -4  -8   9    0.57    0.12
   4   8  -8    0.20    0.09
  -4   8   8    0.05    0.07
   4   8  -8    0.28    0.09
  -4   8   8    0.10    0.08
   4  -8  -8    0.04    0.06
  -4  -8   8    0.13    0.09
  -4   8   7    0.00    0.06
  -4   8   7   -0.03    0.05
   4   8  -7    0.01    0.05
   4   8  -7   -0.07    0.05
  -4  -8   7    0.01    0.06
   4  -8  -7   -0.06    0.04
  -4  -8   7   -0.02    0.05
   4   8  -6    0.02    0.06
  -4   8   6   -0.03    0.05
  -4   8   6    0.01    0.05
   4   8  -6    0.01    0.05
   4  -8  -6   -0.03    0.04
  -4  -8   6    0.00    0.06
  -4  -8   6    0.00    0.04
  -4   8   5    4.27    0.24
   4   8  -5    4.36    0.23
   4   8  -5    4.75    0.25
  -4   8   5    4.35    0.23
   4  -8  -5    4.43    0.25
  -4  -8   5    4.55    0.24
   4  -8  -5    4.40    0.20
  -4  -8   5    4.44    0.20
  -4   8   4    0.76    0.11
   4   8  -4    0.82    0.11
   4   8  -4    0.57    0.10
   4  -8  -4    0.78    0.09
   4  -8  -4    0.75    0.11
  -4  -8   4    0.62    0.08
  -4  -8   4    0.70    0.10
  -4   8   3    3.13    0.18
   4   8  -3    3.54    0.19
   4   8  -3    3.15    0.14
   4   8  -3    2.98    0.17
   4  -8  -3    3.41    0.17
   4  -8  -3    3.12    0.19
  -4  -8   3    3.23    0.16
  -4  -8   3    2.94    0.17
   4   8  -2    1.41    0.13
   4   8  -2    1.48    0.09
  -4   8   2    1.63    0.12
   4   8  -2    1.37    0.13
   4  -8  -2    1.31    0.13
  -4  -8   2    1.59    0.11
  -4  -8   2    1.58    0.12
   4  -8  -2    1.52    0.11
   4   8  -1    1.12    0.11
   4   8  -1    0.86    0.10
   4   8  -1    0.99    0.07
  -4   8   1    1.10    0.09
  -4  -8   1    0.96    0.10
   4  -8  -1    1.08    0.11
   4  -8  -1    0.86    0.10
  -4  -8   1    0.80    0.09
   4   8   0   14.40    0.43
   4   8   0   14.10    0.41
   4   8   0   14.46    0.42
  -4   8   0   14.26    0.41
   4  -8   0   14.38    0.44
   4  -8   0   14.87    0.43
  -4  -8   0   14.44    0.44
  -4  -8   0   14.91    0.42
  -4   8  -1    0.45    0.05
   4   8   1    0.39    0.06
   4   8   1    0.47    0.06
   4   8   1    0.44    0.06
  -4  -8  -1    0.32    0.05
  -4  -8  -1    0.48    0.07
   4  -8   1    0.42    0.08
   4  -8   1    0.45    0.06
   4   8   2    3.73    0.17
  -4  -8  -2    3.63    0.18
  -4  -8  -2    3.47    0.14
   4  -8   2    3.52    0.19
  -4   8  -3    3.87    0.21
   4   8   3    4.05    0.19
  -4  -8  -3    3.52    0.19
   4  -8   3    3.88    0.20
  -4   8  -4    4.42    0.23
   4   8   4    4.21    0.21
   4  -8   4    4.32    0.22
  -4  -8  -4    4.08    0.21
  -4   8  -5    2.06    0.16
   4   8   5    1.93    0.15
  -4  -8  -5    1.77    0.17
   4  -8   5    2.24    0.17
  -4   8  -6    1.24    0.16
   4   8   6    1.26    0.15
   4  -8   6    1.27    0.15
  -4  -8  -6    1.40    0.16
   4   8   7    0.80    0.13
  -4   8  -7    0.54    0.12
   4  -8   7    0.55    0.12
  -4  -8  -7    0.65    0.11
  -4   8  -8    0.71    0.14
   4   8   8    0.62    0.13
   4   8   9    0.13    0.09
  -4   8  -9    0.23    0.10
   4   8  10    0.00    0.09
   4   8  11    0.04    0.10
   4   9 -11   -0.01    0.08
   4   9 -11    0.05    0.10
  -4   9  11    0.04    0.10
  -4  -9  11    0.10    0.09
   4   9 -10    0.13    0.10
  -4   9  10    0.02    0.08
   4   9 -10    0.08    0.08
  -4   9  10    0.10    0.09
  -4  -9  10    0.06    0.08
  -4   9   9    0.48    0.13
   4   9  -9    0.30    0.10
   4   9  -9    0.33    0.12
  -4   9   9    0.33    0.11
  -4  -9   9    0.36    0.11
  -4   9   8    0.01    0.08
   4   9  -8   -0.03    0.07
  -4   9   8   -0.01    0.06
   4   9  -8    0.07    0.08
   4  -9  -8   -0.01    0.06
  -4  -9   8   -0.04    0.07
   4   9  -7    0.89    0.15
  -4   9   7    0.80    0.13
   4   9  -7    1.14    0.16
  -4   9   7    0.76    0.14
   4  -9  -7    0.81    0.14
  -4  -9   7    1.05    0.15
  -4  -9   7    0.80    0.11
   4   9  -6    0.81    0.13
  -4   9   6    0.86    0.14
  -4   9   6    0.44    0.11
   4   9  -6    0.60    0.12
   4  -9  -6    0.55    0.11
  -4  -9   6    0.71    0.12
  -4  -9   6    0.68    0.10
   4   9  -5    0.65    0.11
  -4   9   5    0.82    0.12
   4   9  -5    0.83    0.12
  -4   9   5    0.76    0.12
  -4  -9   5    0.65    0.09
   4  -9  -5    0.93    0.11
   4  -9  -5    0.78    0.13
  -4  -9   5    0.82    0.12
  -4   9   4    0.81    0.12
  -4   9   4    0.84    0.12
   4   9  -4    1.08    0.13
   4   9  -4    1.12    0.14
  -4  -9   4    1.26    0.14
   4  -9  -4    0.83    0.12
  -4  -9   4    1.20    0.11
   4  -9  -4    0.95    0.11
   4   9  -3    1.19    0.14
   4   9  -3    1.22    0.13
  -4   9   3    1.21    0.12
  -4  -9   3    1.25    0.13
   4  -9  -3    1.29    0.14
   4  -9  -3    1.17    0.12
  -4  -9   3    1.06    0.11
   4   9  -2    9.88    0.35
   4   9  -2    9.66    0.30
  -4   9   2    9.80    0.35
   4   9  -2    9.65    0.36
   4  -9  -2   10.15    0.36
  -4  -9   2    9.70    0.35
  -4  -9   2    9.74    0.33
   4  -9  -2    9.92    0.34
  -4   9   1   12.02    0.38
   4   9  -1   12.00    0.39
   4   9  -1   11.57    0.38
   4   9  -1   11.56    0.35
   4  -9  -1   12.27    0.40
   4  -9  -1   12.23    0.39
  -4  -9   1   11.76    0.38
  -4  -9   1   11.82    0.38
   4   9   0    0.50    0.07
   4   9   0    0.57    0.08
   4   9   0    0.42    0.06
  -4   9   0    0.69    0.07
  -4  -9   0    0.59    0.08
  -4  -9   0    0.65    0.09
   4  -9   0    0.89    0.11
   4  -9   0    0.78    0.09
   4   9   1    0.08    0.04
   4   9   1    0.08    0.03
   4   9   1    0.05    0.04
   4  -9   1    0.05    0.03
   4  -9   1   -0.01    0.04
  -4  -9  -1   -0.02    0.03
  -4  -9  -1    0.06    0.03
   4   9   2    4.17    0.19
  -4  -9  -2    3.87    0.20
   4  -9   2    4.02    0.21
   4   9   3    6.11    0.25
  -4   9  -3    6.21    0.28
   4  -9   3    6.02    0.27
  -4  -9  -3    5.57    0.26
  -4   9  -4    0.09    0.06
   4   9   4    0.00    0.05
   4  -9   4    0.04    0.06
  -4  -9  -4    0.12    0.05
   4   9   5    0.38    0.09
  -4   9  -5    0.29    0.09
   4  -9   5    0.28    0.08
  -4  -9  -5    0.32    0.08
   4   9   6    0.39    0.10
  -4   9  -6    0.23    0.08
  -4  -9  -6    0.19    0.07
   4  -9   6    0.42    0.11
   4   9   7    0.01    0.07
  -4   9  -7    0.02    0.07
   4  -9   7    0.07    0.07
  -4  -9  -7    0.03    0.05
   4   9   8    0.02    0.07
  -4   9  -8    0.15    0.09
   4  -9   8    0.12    0.09
   4   9   9   -0.04    0.07
  -4   9  -9    0.01    0.08
   4   9  10   -0.02    0.08
   4  10 -11    0.13    0.10
   4  10 -11   -0.02    0.10
  -4  10  11   -0.02    0.09
  -4 -10  11   -0.01    0.10
  -4  10  10    0.07    0.10
  -4  10  10    0.06    0.08
   4  10 -10    0.21    0.11
   4  10 -10    0.16    0.10
  -4 -10  10    0.10    0.09
  -4  10   9    0.09    0.08
  -4  10   9    0.11    0.09
   4  10  -9    0.13    0.10
   4  10  -9    0.09    0.08
  -4 -10   9    0.10    0.09
   4  10  -8    1.59    0.20
  -4  10   8    1.34    0.19
  -4  10   8    1.29    0.18
   4  10  -8    1.37    0.18
  -4 -10   8    1.50    0.18
   4 -10  -8    1.31    0.19
   4  10  -7    0.05    0.07
  -4  10   7    0.01    0.07
  -4  10   7    0.11    0.08
   4  10  -7    0.03    0.07
   4 -10  -7    0.12    0.08
  -4 -10   7    0.00    0.06
   4  10  -6    1.86    0.19
  -4  10   6    2.00    0.20
   4  10  -6    1.89    0.20
  -4  10   6    2.21    0.18
  -4 -10   6    2.21    0.15
  -4 -10   6    2.05    0.20
   4 -10  -6    1.55    0.18
  -4  10   5    4.79    0.26
   4  10  -5    5.31    0.28
  -4  10   5    5.27    0.27
   4  10  -5    4.92    0.26
  -4 -10   5    5.00    0.23
  -4 -10   5    4.43    0.25
   4 -10  -5    5.00    0.28
   4  10  -4    8.27    0.35
   4  10  -4    8.46    0.34
  -4  10   4    7.65    0.32
  -4  10   4    8.38    0.34
   4 -10  -4    7.41    0.29
   4 -10  -4    7.75    0.35
  -4 -10   4    7.84    0.33
  -4 -10   4    8.05    0.30
  -4  10   3    0.29    0.07
  -4  10   3    0.22    0.07
   4  10  -3    0.26    0.07
   4  10  -3    0.30    0.09
  -4 -10   3    0.32    0.07
   4 -10  -3    0.17    0.06
  -4 -10   3    0.27    0.07
   4 -10  -3    0.36    0.07
  -4  10   2    1.88    0.13
   4  10  -2    1.57    0.15
   4  10  -2    1.78    0.14
  -4 -10   2    1.68    0.12
  -4 -10   2    1.66    0.15
   4 -10  -2    1.71    0.15
   4 -10  -2    1.54    0.15
   4  10  -1   12.07    0.39
  -4  10   1   12.41    0.38
   4  10  -1   11.37    0.35
   4  10  -1   11.81    0.40
   4 -10  -1   12.54    0.41
  -4 -10   1   11.56    0.38
  -4 -10   1   11.13    0.38
   4 -10  -1   11.71    0.40
  -4  10   0    6.15    0.23
   4  10   0    5.96    0.25
   4  10   0    6.59    0.25
  -4 -10   0    6.23    0.26
   4 -10   0    6.27    0.25
   4 -10   0    6.59    0.27
  -4 -10   0    6.33    0.24
   4  10   1    0.04    0.04
   4  10   1    0.07    0.04
   4  10   1    0.03    0.04
   4 -10   1    0.06    0.05
   4 -10   1    0.03    0.03
  -4 -10  -1    0.03    0.04
  -4 -10  -1    0.00    0.03
  -4  10  -2    1.95    0.15
   4  10   2    2.47    0.15
  -4 -10  -2    1.88    0.14
   4 -10   2    2.05    0.16
  -4  10  -3    0.07    0.05
   4  10   3    0.09    0.05
   4 -10   3    0.16    0.07
  -4 -10  -3    0.02    0.05
   4  10   4    3.58    0.20
  -4  10  -4    3.71    0.22
   4 -10   4    3.75    0.22
  -4 -10  -4    3.36    0.21
   4  10   5    2.36    0.18
  -4  10  -5    2.85    0.21
   4 -10   5    2.67    0.19
  -4 -10  -5    2.48    0.18
   4  10   6    0.88    0.14
  -4  10  -6    1.15    0.16
   4 -10   6    0.80    0.13
  -4 -10  -6    1.08    0.15
   4  10   7    0.33    0.10
  -4  10  -7    0.38    0.10
   4 -10   7    0.53    0.13
  -4 -10  -7    0.34    0.09
  -4  10  -8   -0.01    0.08
   4  10   8    0.05    0.07
   4 -10   8    0.14    0.10
   4  10   9    0.00    0.08
  -4  10  -9    0.12    0.10
   4  10  10   -0.07    0.08
   4  11 -11   -0.03    0.09
   4  11 -11    0.19    0.12
  -4  11  11    0.01    0.09
  -4 -11  11    0.06    0.10
   4  11 -10   -0.05    0.09
   4  11 -10   -0.01    0.08
  -4  11  10   -0.01    0.07
  -4  11  10    0.12    0.10
  -4 -11  10   -0.06    0.08
   4  11  -9    0.07    0.08
   4  11  -9   -0.10    0.07
  -4  11   9    0.07    0.09
  -4  11   9   -0.05    0.06
  -4 -11   9   -0.07    0.08
  -4  11   8    0.07    0.09
  -4  11   8    0.02    0.07
   4  11  -8   -0.01    0.07
   4  11  -8    0.03    0.08
  -4 -11   8    0.06    0.09
   4  11  -7    0.34    0.11
   4  11  -7    0.45    0.12
  -4  11   7    0.53    0.13
  -4  11   7    0.41    0.11
  -4 -11   7    0.38    0.11
   4 -11  -7    0.42    0.11
  -4  11   6    0.15    0.08
   4  11  -6    0.29    0.10
  -4  11   6    0.08    0.07
   4  11  -6    0.10    0.08
   4 -11  -6    0.11    0.07
  -4 -11   6    0.05    0.07
  -4 -11   6    0.08    0.06
   4  11  -5    8.10    0.35
  -4  11   5    7.75    0.34
  -4  11   5    8.11    0.36
   4  11  -5    7.70    0.36
  -4 -11   5    7.73    0.31
   4 -11  -5    7.81    0.38
  -4 -11   5    7.29    0.34
  -4  11   4    0.21    0.08
  -4  11   4    0.14    0.08
   4  11  -4    0.17    0.08
   4  11  -4    0.10    0.07
   4 -11  -4    0.20    0.08
  -4 -11   4    0.10    0.05
  -4 -11   4    0.15    0.07
   4 -11  -4    0.09    0.06
   4  11  -3    0.34    0.08
  -4  11   3    0.35    0.08
  -4  11   3    0.40    0.09
   4  11  -3    0.27    0.08
  -4 -11   3    0.38    0.07
  -4 -11   3    0.37    0.09
   4 -11  -3    0.36    0.09
   4 -11  -3    0.48    0.09
   4  11  -2   10.60    0.38
   4  11  -2   10.40    0.39
  -4  11   2   10.35    0.36
  -4  11   2   10.25    0.37
  -4 -11   2   10.64    0.37
   4 -11  -2   10.61    0.37
  -4 -11   2    9.75    0.37
   4 -11  -2   10.64    0.40
   4  11  -1    5.68    0.26
   4  11  -1    6.65    0.28
   4  11  -1    5.92    0.22
  -4  11   1    6.16    0.25
  -4 -11   1    6.20    0.26
   4 -11  -1    6.33    0.27
  -4 -11   1    6.39    0.26
   4 -11  -1    6.21    0.27
   4  11   0    4.94    0.22
   4  11   0    4.73    0.23
   4  11   0    5.27    0.21
   4 -11   0    5.12    0.23
  -4 -11   0    5.20    0.24
   4 -11   0    5.43    0.25
  -4 -11   0    5.18    0.22
   4  11   1   17.41    0.49
   4  11   1   17.48    0.50
  -4  11  -1   17.24    0.54
   4 -11   1   17.59    0.55
  -4 -11  -1   17.27    0.49
   4 -11   1   17.30    0.51
  -4 -11  -1   16.73    0.54
  -4  11  -2    0.06    0.06
   4  11   2    0.06    0.05
   4 -11   2    0.13    0.07
  -4 -11  -2    0.08    0.05
   4  11   3    6.12    0.26
  -4  11  -3    6.26    0.30
   4 -11   3    6.43    0.29
  -4 -11  -3    5.73    0.28
   4  11   4    0.10    0.06
  -4  11  -4    0.10    0.06
  -4 -11  -4    0.12    0.06
   4 -11   4    0.08    0.07
   4  11   5    2.05    0.16
  -4  11  -5    2.23    0.22
  -4 -11  -5    2.18    0.18
   4 -11   5    2.60    0.20
  -4  11  -6    0.44    0.12
   4  11   6    0.60    0.12
   4 -11   6    0.64    0.13
  -4 -11  -6    0.36    0.10
   4  11   7    0.03    0.06
  -4  11  -7   -0.06    0.06
   4 -11   7   -0.03    0.07
  -4 -11  -7    0.07    0.06
  -4  11  -8    0.09    0.08
   4  11   8    0.04    0.08
   4 -11   8    0.03    0.09
  -4  11  -9   -0.06    0.09
   4  11   9    0.06    0.09
  -4  11 -10    0.26    0.13
   4  11  10    0.07    0.10
   4  12 -11    0.20    0.12
   4  12 -11    0.21    0.13
  -4 -12  11    0.02    0.09
   4  12 -10    0.00    0.09
   4  12 -10    0.05    0.09
  -4  12  10    0.09    0.09
  -4 -12  10   -0.06    0.08
   4  12  -9    0.03    0.10
  -4  12   9    0.02    0.09
   4  12  -9    0.14    0.10
  -4  12   9    0.06    0.08
  -4 -12   9   -0.10    0.08
  -4  12   8    0.04    0.08
  -4  12   8    0.03    0.07
   4  12  -8    0.05    0.08
   4  12  -8    0.05    0.09
  -4 -12   8    0.15    0.09
  -4  12   7    0.70    0.14
   4  12  -7    0.74    0.14
  -4  12   7    0.72    0.14
   4  12  -7    0.55    0.14
  -4 -12   7    0.47    0.12
   4  12  -6    0.45    0.12
   4  12  -6    0.32    0.10
  -4  12   6    0.25    0.09
  -4  12   6    0.28    0.10
   4 -12  -6    0.50    0.12
  -4 -12   6    0.56    0.12
   4  12  -5   -0.03    0.06
  -4  12   5   -0.03    0.06
  -4  12   5    0.03    0.06
   4  12  -5   -0.04    0.06
   4 -12  -5   -0.05    0.04
  -4 -12   5    0.03    0.06
  -4 -12   5   -0.01    0.05
  -4  12   4    2.04    0.17
  -4  12   4    1.98    0.16
   4  12  -4    2.35    0.22
   4  12  -4    1.72    0.18
  -4 -12   4    1.91    0.19
   4 -12  -4    2.27    0.16
   4 -12  -4    1.82    0.19
  -4 -12   4    2.09    0.15
   4  12  -3    3.81    0.23
  -4  12   3    3.79    0.22
  -4  12   3    3.68    0.20
   4  12  -3    3.59    0.23
  -4 -12   3    3.51    0.19
   4 -12  -3    3.61    0.20
   4 -12  -3    3.64    0.23
  -4 -12   3    4.11    0.23
  -4  12   2    1.48    0.15
   4  12  -2    2.11    0.16
   4  12  -2    1.98    0.19
  -4  12   2    1.93    0.14
  -4 -12   2    1.72    0.13
   4 -12  -2    2.19    0.16
  -4 -12   2    1.93    0.17
   4 -12  -2    2.00    0.18
  -4  12   1   44.54    1.15
   4  12  -1   44.30    1.13
   4  12  -1   43.66    1.14
   4 -12  -1   43.85    1.14
   4 -12  -1   43.87    1.16
  -4 -12   1   43.00    1.11
  -4 -12   1   42.33    1.14
   4  12   0   17.23    0.50
   4  12   0   17.72    0.54
   4  12   0   17.59    0.53
   4 -12   0   17.87    0.55
  -4 -12   0   17.29    0.56
   4 -12   0   17.91    0.56
  -4 -12   0   17.98    0.53
   4  12   1    0.09    0.06
  -4  12  -1    0.13    0.07
  -4 -12  -1    0.05    0.05
   4 -12   1   -0.02    0.05
   4  12   2    1.01    0.12
  -4  12  -2    0.89    0.13
  -4 -12  -2    0.83    0.12
   4 -12   2    0.75    0.12
   4  12   3    2.07    0.15
  -4  12  -3    1.56    0.18
   4 -12   3    1.70    0.17
  -4 -12  -3    1.48    0.16
   4  12   4    0.06    0.06
  -4  12  -4    0.02    0.06
   4 -12   4    0.01    0.06
  -4 -12  -4   -0.04    0.04
   4  12   5    0.08    0.07
  -4  12  -5    0.20    0.08
  -4 -12  -5    0.16    0.07
   4 -12   5    0.25    0.10
  -4  12  -6    0.29    0.10
   4  12   6    0.21    0.09
  -4 -12  -6    0.18    0.08
   4 -12   6    0.31    0.11
  -4  12  -7    0.83    0.16
   4  12   7    1.01    0.16
   4 -12   7    0.85    0.15
  -4  12  -8    0.00    0.08
   4  12   8   -0.04    0.07
   4 -12   8    0.12    0.10
  -4  12  -9    0.26    0.13
   4  12   9    0.60    0.15
   4  13 -10    0.13    0.11
   4  13 -10    0.15    0.11
  -4  13  10    0.29    0.12
  -4 -13  10   -0.05    0.08
  -4  13   9    0.41    0.13
   4  13  -9    0.87    0.17
  -4  13   9    0.65    0.16
   4  13  -9    1.07    0.20
  -4 -13   9    0.70    0.15
   4  13  -8   -0.05    0.07
  -4  13   8    0.03    0.07
   4  13  -8    0.09    0.08
  -4  13   8    0.09    0.09
  -4 -13   8   -0.07    0.08
  -4  13   7    0.03    0.08
  -4  13   7    0.18    0.09
   4  13  -7    0.05    0.08
   4  13  -7   -0.02    0.06
  -4 -13   7    0.09    0.08
   4  13  -6    1.29    0.18
  -4  13   6    0.92    0.15
  -4  13   6    1.22    0.17
   4  13  -6    1.46    0.20
   4 -13  -6    1.36    0.19
  -4 -13   6    1.05    0.16
   4  13  -5    0.16    0.08
  -4  13   5    0.02    0.06
   4  13  -5    0.10    0.08
  -4  13   5    0.07    0.07
  -4 -13   5    0.11    0.06
   4 -13  -5    0.21    0.09
  -4 -13   5    0.03    0.06
  -4  13   4    0.09    0.06
   4  13  -4    0.08    0.07
   4  13  -4    0.03    0.07
  -4  13   4    0.02    0.05
  -4 -13   4    0.04    0.06
   4 -13  -4    0.00    0.05
   4 -13  -4    0.14    0.07
  -4 -13   4   -0.01    0.04
   4  13  -3    1.10    0.16
  -4  13   3    1.36    0.15
   4  13  -3    1.09    0.15
   4 -13  -3    1.04    0.13
   4 -13  -3    0.86    0.13
  -4 -13   3    1.06    0.14
  -4 -13   3    1.04    0.12
   4  13  -2    1.45    0.16
   4  13  -2    1.44    0.17
   4 -13  -2    1.62    0.17
  -4 -13   2    1.45    0.15
   4 -13  -2    1.56    0.17
  -4 -13   2    1.89    0.17
  -4  13   1    0.94    0.12
   4  13  -1    1.00    0.14
   4  13  -1    0.99    0.13
   4 -13  -1    1.03    0.14
   4 -13  -1    0.78    0.12
  -4 -13   1    0.91    0.12
  -4 -13   1    0.80    0.11
   4  13   0    6.91    0.29
   4  13   0    6.87    0.28
  -4  13   0    6.93    0.30
  -4 -13   0    7.31    0.29
   4 -13   0    6.90    0.30
  -4 -13   0    6.28    0.29
   4 -13   0    6.68    0.29
  -4  13  -1    3.11    0.20
  -4 -13  -1    3.00    0.19
   4 -13   1    3.39    0.21
   4  13   2    0.05    0.05
  -4  13  -2   -0.03    0.05
   4 -13   2    0.04    0.06
  -4 -13  -2   -0.01    0.04
  -4  13  -3    0.93    0.14
   4  13   3    0.76    0.11
  -4 -13  -3    0.95    0.13
   4 -13   3    0.72    0.12
  -4  13  -4    0.20    0.08
   4  13   4    0.20    0.08
  -4 -13  -4    0.27    0.08
   4 -13   4    0.23    0.09
  -4  13  -5    0.36    0.10
   4  13   5    0.43    0.10
  -4 -13  -5    0.37    0.10
   4 -13   5    0.28    0.10
  -4  13  -6    0.59    0.13
   4  13   6    0.48    0.11
   4 -13   6    0.51    0.13
   4  13   7    0.05    0.08
  -4  13  -7   -0.06    0.07
   4 -13   7    0.16    0.10
   4  13   8    0.00    0.08
  -4  13  -8    0.18    0.10
   4 -13   8    0.02    0.09
  -4  13  -9    0.30    0.12
   4  13   9    0.02    0.09
   4 -13   9    0.01    0.10
   4  14 -10    0.10    0.10
   4  14 -10    0.04    0.11
  -4  14  10    0.02    0.09
  -4 -14  10    0.05    0.10
   4  14  -9   -0.05    0.08
   4  14  -9   -0.05    0.09
  -4  14   9   -0.07    0.08
  -4 -14   9    0.09    0.10
  -4  14   8    0.10    0.10
   4  14  -8    0.19    0.11
   4  14  -8    0.13    0.11
  -4  14   8    0.08    0.09
  -4 -14   8    0.26    0.11
  -4  14   7    0.07    0.09
   4  14  -7    0.03    0.08
   4  14  -7    0.13    0.10
  -4  14   7    0.08    0.09
  -4 -14   7    0.16    0.10
  -4  14   6    0.32    0.10
   4  14  -6    0.27    0.11
  -4  14   6    0.33    0.11
   4  14  -6    0.38    0.12
  -4 -14   6    0.34    0.12
  -4  14   5   -0.02    0.06
   4  14  -5    0.01    0.06
  -4  14   5    0.02    0.06
   4  14  -5    0.16    0.09
  -4 -14   5   -0.02    0.06
  -4 -14   5    0.01    0.05
   4 -14  -5   -0.02    0.06
   4  14  -4    0.16    0.08
  -4  14   4    0.00    0.06
   4  14  -4    0.19    0.08
  -4  14   4    0.11    0.07
  -4 -14   4    0.02    0.05
   4 -14  -4    0.12    0.07
  -4 -14   4    0.04    0.06
   4  14  -3    1.17    0.15
  -4  14   3    1.56    0.17
   4  14  -3    1.37    0.17
   4 -14  -3    1.37    0.15
  -4 -14   3    1.11    0.13
  -4 -14   3    1.33    0.16
   4 -14  -3    1.30    0.16
   4  14  -2    0.15    0.08
  -4  14   2    0.15    0.07
   4  14  -2    0.23    0.08
   4 -14  -2    0.14    0.07
   4 -14  -2    0.13    0.06
  -4 -14   2    0.09    0.06
  -4 -14   2    0.26    0.08
  -4  14   1    1.18    0.14
   4  14  -1    1.45    0.15
   4  14  -1    1.46    0.16
   4 -14  -1    1.53    0.17
   4 -14  -1    1.93    0.19
  -4 -14   1    1.46    0.15
  -4 -14   1    1.13    0.14
  -4  14   0    1.42    0.15
   4  14   0    1.41    0.15
   4 -14   0    1.31    0.16
  -4 -14   0    1.08    0.14
  -4 -14   0    1.16    0.13
  -4  14  -1    0.21    0.08
  -4 -14  -1    0.04    0.05
   4  14   2    1.42    0.14
  -4  14  -2    1.25    0.16
   4 -14   2    1.47    0.17
  -4 -14  -2    1.51    0.16
   4  14   3    0.04    0.06
  -4  14  -3    0.21    0.08
   4 -14   3    0.13    0.08
  -4 -14  -3    0.09    0.06
   4  14   4    2.08    0.16
  -4  14  -4    1.71    0.20
   4 -14   4    2.12    0.21
  -4 -14  -4    2.09    0.21
   4  14   5    0.03    0.06
  -4  14  -5    0.11    0.08
   4 -14   5    0.04    0.08
  -4  14  -6    0.66    0.15
   4  14   6    0.54    0.12
   4 -14   6    0.42    0.12
   4  14   7    0.07    0.09
  -4  14  -7    0.03    0.08
   4 -14   7    0.04    0.09
  -4  14  -8    0.00    0.09
   4  14   8    0.14    0.09
   4 -14   8   -0.02    0.10
  -4  14  -9    0.33    0.13
   4  14   9    0.20    0.11
   4 -14   9    0.36    0.14
  -4  15   9    0.14    0.10
   4  15  -9   -0.05    0.09
   4  15  -9   -0.03    0.10
  -4 -15   9    0.24    0.12
  -4  15   8    0.04    0.08
  -4  15   8    0.13    0.10
   4  15  -8   -0.01    0.09
   4  15  -8   -0.03    0.08
  -4 -15   8    0.20    0.11
  -4  15   7   -0.04    0.07
   4  15  -7   -0.01    0.09
  -4  15   7    0.03    0.08
   4  15  -7   -0.06    0.07
  -4 -15   7    0.02    0.08
  -4  15   6    0.29    0.10
   4  15  -6    0.45    0.14
  -4  15   6    0.45    0.12
   4  15  -6    0.31    0.11
  -4 -15   6    0.43    0.12
   4  15  -5    0.01    0.07
  -4  15   5    0.04    0.07
   4  15  -5    0.06    0.07
  -4  15   5   -0.02    0.06
  -4 -15   5   -0.09    0.06
   4  15  -4    1.10    0.17
   4  15  -4    1.10    0.16
  -4  15   4    1.47    0.17
  -4 -15   4    1.20    0.16
  -4 -15   4    0.89    0.13
   4 -15  -4    1.32    0.18
   4  15  -3   -0.04    0.06
  -4  15   3   -0.04    0.04
   4  15  -3   -0.04    0.05
   4 -15  -3   -0.02    0.05
   4 -15  -3   -0.04    0.05
  -4 -15   3    0.05    0.06
  -4 -15   3    0.00    0.06
   4  15  -2    4.15    0.25
   4  15  -2    3.84    0.23
   4 -15  -2    3.58    0.23
  -4 -15   2    3.81    0.23
  -4 -15   2    4.08    0.23
   4 -15  -2    3.44    0.23
   4  15  -1   -0.01    0.06
   4  15  -1    0.13    0.07
  -4  15   1   -0.01    0.05
   4 -15  -1    0.16    0.08
   4 -15  -1   -0.03    0.05
  -4 -15   1    0.05    0.05
  -4 -15   1   -0.06    0.05
  -4  15   0    0.31    0.09
  -4 -15   0    0.14    0.07
   4 -15   0    0.03    0.07
  -4 -15   0    0.08    0.06
  -4  15  -1    0.37    0.09
  -4 -15  -1    0.39    0.09
   4 -15   1    0.38    0.10
  -4  15  -2    1.18    0.16
   4 -15   2    1.25    0.16
  -4 -15  -2    1.42    0.17
   4  15   3    0.99    0.13
  -4  15  -3    0.81    0.14
   4 -15   3    0.91    0.15
  -4 -15  -3    0.73    0.13
  -4  15  -4    0.21    0.09
   4  15   4    0.31    0.09
   4 -15   4    0.20    0.09
   4  15   5   -0.02    0.06
  -4  15  -5   -0.04    0.07
   4 -15   5    0.06    0.08
   4  15   6   -0.02    0.07
  -4  15  -6    0.10    0.08
   4 -15   6    0.03    0.08
  -4  15  -7    0.16    0.10
   4  15   7    0.03    0.07
   4 -15   7    0.00    0.09
  -4  15  -8   -0.07    0.09
   4  15   8    0.07    0.09
   4 -15   8    0.01    0.10
  -4  16   9    0.06    0.10
   4  16  -9    0.06    0.11
   4  16  -9   -0.03    0.10
  -4 -16   9    0.00    0.10
  -4  16   8    0.05    0.09
   4  16  -8   -0.06    0.08
   4  16  -8    0.30    0.13
  -4 -16   8    0.02    0.10
  -4  16   7    0.05    0.08
  -4  16   7    0.11    0.09
   4  16  -7    0.20    0.11
   4  16  -7    0.04    0.09
  -4 -16   7    0.04    0.09
   4  16  -6    0.40    0.13
  -4  16   6    0.27    0.10
  -4  16   6    0.40    0.11
   4  16  -6    0.32    0.12
  -4 -16   6    0.22    0.10
  -4  16   5    0.60    0.13
   4  16  -5    0.51    0.14
   4  16  -5    0.78    0.15
  -4 -16   5    0.70    0.13
   4  16  -4    0.53    0.12
  -4  16   4    0.57    0.12
   4  16  -4    0.47    0.12
  -4 -16   4    0.77    0.12
  -4 -16   4    0.77    0.14
   4 -16  -4    0.52    0.12
   4  16  -3    0.34    0.10
   4  16  -3    0.22    0.10
   4 -16  -3    0.25    0.09
  -4 -16   3    0.36    0.09
   4 -16  -3    0.38    0.10
  -4 -16   3    0.22    0.09
   4  16  -2    1.41    0.18
   4  16  -2    1.64    0.19
   4 -16  -2    1.97    0.20
   4 -16  -2    2.00    0.20
  -4 -16   2    1.70    0.18
  -4 -16   2    1.40    0.17
  -4  16   1    0.92    0.14
   4  16  -1    0.99    0.14
  -4 -16   1    1.18    0.14
  -4 -16   1    0.82    0.13
   4 -16  -1    0.92    0.15
   4 -16  -1    0.89    0.14
  -4  16   0    0.22    0.08
   4 -16   0    0.13    0.08
  -4 -16   0    0.18    0.07
  -4  16  -1    0.75    0.13
  -4 -16  -1    0.50    0.11
   4 -16   1    0.63    0.13
  -4  16  -2    2.56    0.24
  -4 -16  -2    2.25    0.22
   4 -16   2    2.27    0.22
  -4  16  -3    0.31    0.10
   4 -16   3    0.37    0.11
   4  16   4    0.69    0.12
  -4  16  -4    0.69    0.15
   4 -16   4    0.39    0.12
   4  16   5    0.25    0.09
  -4  16  -5    0.16    0.09
   4 -16   5    0.18    0.10
   4  16   6   -0.02    0.06
  -4  16  -6   -0.09    0.06
   4 -16   6    0.10    0.09
   4  16   7    0.11    0.09
  -4  16  -7    0.10    0.09
   4 -16   7    0.08    0.10
   4  16   8   -0.05    0.07
  -4  16  -8    0.12    0.11
   4 -16   8   -0.02    0.09
   4  17  -8    0.59    0.15
  -4  17   8    0.89    0.17
   4  17  -8    0.74    0.19
  -4 -17   8    0.71    0.16
  -4  17   7    0.00    0.08
   4  17  -7   -0.07    0.08
  -4  17   7    0.09    0.09
   4  17  -7   -0.06    0.09
  -4 -17   7    0.05    0.09
  -4  17   6    0.04    0.08
   4  17  -6    0.09    0.09
   4  17  -6    0.10    0.10
  -4 -17   6    0.09    0.09
  -4  17   5    0.27    0.10
   4  17  -5    0.55    0.14
   4  17  -5    0.39    0.13
  -4 -17   5    0.54    0.13
   4  17  -4    0.01    0.08
   4  17  -4    0.20    0.09
  -4 -17   4    0.15    0.09
   4  17  -3    0.42    0.12
   4  17  -3    0.23    0.10
  -4 -17   3    0.45    0.10
   4 -17  -3    0.37    0.11
  -4 -17   3    0.39    0.11
   4  17  -2    0.31    0.11
  -4 -17   2    0.16    0.08
   4 -17  -2    0.41    0.11
   4 -17  -2    0.35    0.10
  -4 -17   2    0.33    0.10
  -4  17   1    0.30    0.10
  -4 -17   1    0.48    0.11
   4 -17  -1    0.39    0.11
  -4 -17   1    0.48    0.11
  -4  17   0    0.03    0.07
   4 -17   0    0.01    0.07
  -4  17  -1    2.78    0.25
   4 -17   1    2.83    0.22
  -4  17  -2    0.04    0.08
   4 -17   2   -0.03    0.07
  -4  17  -3    1.18    0.18
   4 -17   3    1.17    0.17
  -4  17  -4    0.81    0.16
   4 -17   4    1.03    0.17
  -4  17  -5    0.02    0.08
   4  17   5   -0.01    0.07
   4 -17   5    0.10    0.10
  -4  17  -6    0.16    0.10
   4 -17   6    0.06    0.10
   4  17   7   -0.04    0.07
  -4  17  -7   -0.01    0.09
   4 -17   7    0.15    0.12
   4  18  -7    0.70    0.18
  -4 -18   7    0.73    0.16
  -4  18   6   -0.03    0.08
   4  18  -6    0.12    0.11
  -4 -18   6    0.02    0.08
   4  18  -5    0.08    0.10
  -4  18   5    0.18    0.10
  -4 -18   5    0.27    0.11
   4  18  -4    0.34    0.12
  -4 -18   4    0.14    0.09
   4  18  -3    1.28    0.19
  -4 -18   3    1.32    0.18
   4  18  -2    0.21    0.10
   4 -18  -2   -0.02    0.06
  -4 -18   2    0.00    0.06
   4 -18  -2    0.20    0.10
   4 -18  -1    0.45    0.12
  -4  18   0    0.24    0.10
   4 -18   0    0.35    0.12
  -4  18  -1    0.10    0.08
   4 -18   1   -0.03    0.07
  -4  18  -2    0.29    0.11
   4 -18   2    0.21    0.10
  -4  18  -3    0.27    0.11
   4 -18   3    0.08    0.09
  -4  18  -4    0.12    0.09
   4 -18   4    0.06    0.08
  -4  18  -5    0.22    0.11
   4 -18   5    0.16    0.10
   4  18   6   -0.07    0.07
  -4  18  -6    0.07    0.10
   4 -18   6    0.00    0.10
   4  19  -7    0.02    0.11
   4  19  -6    0.13    0.11
  -4 -19   6    0.05    0.09
   4  19  -5    1.32    0.22
  -4 -19   5    1.47    0.20
   4  19  -4    0.14    0.11
  -4 -19   4    0.14    0.10
   4  19  -3   -0.12    0.07
  -4 -19   3   -0.01    0.08
  -4 -19   2    0.71    0.14
   4 -19  -1    0.20    0.10
  -4  19   0    0.84    0.15
   4 -19   0    1.02    0.17
  -4  19  -1    0.29    0.11
   4 -19   1    0.13    0.10
  -4  19  -2   -0.02    0.07
   4 -19   2    0.19    0.11
  -4  19  -3    0.96    0.17
   4 -19   3    1.20    0.18
  -4  19  -4    0.25    0.11
   4 -19   4   -0.01    0.08
  -4  19  -5   -0.01    0.09
   4 -19   5    0.11    0.11
  -4  19  -6    0.51    0.15
   4  20  -6   -0.02    0.10
  -4 -20   6    0.17    0.11
   4  20  -5    0.03    0.11
  -4 -20   5   -0.10    0.08
   4  20  -4   -0.02    0.09
  -4 -20   4   -0.07    0.09
   4  20  -3    0.01    0.09
  -4 -20   3    0.06    0.09
  -4 -20   2    0.19    0.10
   4 -20  -1    0.24    0.12
   4 -20   0   -0.03    0.08
  -4  20  -1   -0.02    0.09
   4 -20   1   -0.03    0.08
  -4  20  -2    0.59    0.14
   4 -20   2    0.49    0.14
  -4  20  -3    0.13    0.10
   4 -20   3    0.15    0.10
  -4  20  -4    0.25    0.12
   4 -20   4    0.41    0.13
  -4  20  -5    0.06    0.10
   4  21  -4    0.14    0.11
  -4 -21   4    0.14    0.11
  -4 -21   3   -0.04    0.09
   4 -21  -1    0.42    0.14
   4 -21   0    0.01    0.09
  -4  21  -1    0.14    0.10
   4 -21   1   -0.03    0.10
  -4  21  -2    0.04    0.10
   4 -21   2   -0.03    0.09
  -4  21  -3    0.44    0.14
   4 -21   3    0.17    0.12
   4 -22   0    0.51    0.15
   4 -22   1    0.11    0.11
  -5   0  11   -0.06    0.09
  -5   0  11   -0.15    0.06
  -5   0  10    0.03    0.08
  -5   0  10    0.15    0.10
  -5   0   9    0.07    0.07
  -5   0   9    0.11    0.08
   5   0  -9    0.02    0.06
  -5   0   8    1.34    0.17
   5   0  -8    1.33    0.16
   5   0  -8    1.44    0.15
   5   0  -8    1.77    0.17
   5   0  -7   -0.04    0.04
   5   0  -7   -0.05    0.04
   5   0  -7   -0.02    0.04
  -5   0   7   -0.01    0.05
  -5   0   6    3.87    0.23
   5   0  -6    4.07    0.21
   5   0  -6    4.19    0.21
   5   0  -6    4.65    0.24
   5   0  -5   -0.01    0.03
   5   0  -5   -0.02    0.03
   5   0  -5    0.00    0.03
   5   0  -4    1.37    0.12
   5   0  -4    1.35    0.13
   5   0  -4    1.48    0.11
   5   0  -3    0.00    0.03
   5   0  -3   -0.01    0.02
   5   0  -2   36.52    0.91
   5   0  -2   36.45    0.92
   5   0  -2   36.79    0.91
   5   0  -1   -0.01    0.02
   5   0  -1    0.01    0.03
  -5   0   1    0.00    0.02
   5   0   0    0.27    0.05
  -5   0   0    0.32    0.04
   5   0   0    0.40    0.06
   5   0   1    0.00    0.02
  -5   0  -1    0.00    0.01
   5   0   1   -0.01    0.02
   5   0   2    1.61    0.09
   5   0   2    1.50    0.09
  -5   0  -2    1.59    0.08
  -5   0  -3    0.04    0.02
   5   0   3    0.06    0.04
   5   0   3    0.00    0.03
  -5   0  -4    0.67    0.06
   5   0   4    0.55    0.07
   5   0   4    0.70    0.09
   5   0   5   -0.03    0.05
   5   0   6   23.04    0.66
   5   0   7    0.10    0.07
   5   0   8    2.00    0.19
   5   0   9   -0.09    0.07
  -5   1  12    0.28    0.13
  -5   1  11    0.02    0.09
  -5   1  11   -0.01    0.09
  -5  -1  11   -0.10    0.09
  -5   1  10    0.39    0.13
  -5   1  10    0.24    0.10
  -5  -1  10    0.48    0.12
  -5  -1  10    0.39    0.13
   5  -1 -10    0.46    0.12
   5   1  -9   -0.02    0.06
  -5   1   9    0.00    0.07
   5   1  -9    0.16    0.08
  -5   1   9    0.14    0.10
   5  -1  -9    0.00    0.06
  -5  -1   9    0.10    0.08
  -5  -1   9    0.12    0.07
  -5  -1   9    0.15    0.08
   5   1  -8    0.42    0.10
  -5   1   8    0.40    0.10
   5   1  -8    0.38    0.09
  -5   1   8    0.43    0.11
  -5  -1   8    0.26    0.09
   5  -1  -8    0.33    0.09
   5  -1  -8    0.04    0.05
   5  -1  -8    0.31    0.09
   5   1  -7    0.03    0.05
   5   1  -7    0.05    0.06
  -5   1   7    0.04    0.06
   5  -1  -7    0.02    0.06
   5  -1  -7   -0.01    0.05
  -5  -1   7    0.02    0.05
   5  -1  -7    0.05    0.06
   5   1  -6    0.42    0.08
   5   1  -6    0.39    0.08
  -5   1   6    0.45    0.09
   5  -1  -6    0.34    0.08
   5  -1  -6    0.39    0.08
   5  -1  -6    0.45    0.08
   5   1  -5    1.06    0.12
   5   1  -5    0.97    0.11
   5  -1  -5    1.12    0.11
   5  -1  -5    1.05    0.11
   5  -1  -5    0.58    0.09
   5   1  -4    3.86    0.18
   5   1  -4    3.36    0.18
   5  -1  -4    3.49    0.19
   5  -1  -4    3.63    0.17
   5  -1  -4    3.73    0.18
   5   1  -3    0.07    0.03
   5   1  -3    0.02    0.02
   5  -1  -3    0.02    0.03
   5  -1  -3    0.01    0.03
   5  -1  -3    0.00    0.03
   5   1  -2    3.67    0.16
   5   1  -2    3.29    0.16
   5   1  -2    3.47    0.15
   5  -1  -2    3.37    0.16
  -5  -1   2    3.63    0.16
   5  -1  -2    3.40    0.16
   5   1  -1    0.41    0.06
   5   1  -1    0.20    0.05
   5   1  -1    0.34    0.05
   5  -1  -1    0.47    0.06
  -5  -1   1    0.32    0.05
   5  -1  -1    0.41    0.06
  -5   1   0    7.48    0.23
   5   1   0    7.29    0.24
   5   1   0    7.17    0.24
   5  -1   0    7.40    0.24
   5  -1   0    7.22    0.25
  -5  -1   0    6.96    0.23
   5   1   1    0.02    0.03
  -5   1  -1    0.00    0.01
   5   1   1    0.00    0.02
   5  -1   1    0.02    0.03
   5  -1   1    0.02    0.02
  -5  -1  -1   -0.01    0.01
   5   1   2   -0.01    0.02
  -5   1  -2    0.01    0.01
   5   1   2    0.03    0.03
  -5  -1  -2   -0.01    0.01
   5  -1   2    0.00    0.02
   5  -1   2    0.01    0.02
   5   1   3    1.79    0.11
  -5   1  -3    2.08    0.08
   5   1   3    1.91    0.12
   5  -1   3    2.04    0.11
   5  -1   3    2.23    0.12
  -5  -1  -3    1.68    0.09
   5   1   4    3.43    0.17
   5  -1   4    3.52    0.16
   5  -1   4    3.37    0.16
  -5  -1  -4    3.66    0.14
   5   1   5    3.92    0.19
   5  -1   5    3.74    0.18
   5   1   6   11.16    0.39
   5  -1   6   11.83    0.39
   5   1   7    1.71    0.16
   5  -1   7    2.17    0.15
   5   1   8    0.32    0.10
   5  -1   8    0.20    0.09
   5   1   9   -0.10    0.07
   5   1  10    0.04    0.09
  -5   2  12    0.04    0.10
  -5   2  12    0.05    0.09
  -5   2  11   -0.05    0.08
  -5   2  11    0.09    0.10
  -5   2  10    0.53    0.13
  -5   2  10    0.36    0.13
   5  -2 -10    0.56    0.13
  -5  -2  10    0.43    0.13
  -5  -2  10    0.48    0.12
   5   2  -9    3.74    0.23
   5   2  -9    3.52    0.22
  -5   2   9    3.20    0.24
  -5   2   9    3.47    0.25
  -5  -2   9    3.30    0.23
   5  -2  -9    3.35    0.25
  -5  -2   9    3.27    0.24
   5   2  -8    3.20    0.21
   5   2  -8    3.04    0.20
  -5   2   8    3.27    0.23
  -5   2   8    3.20    0.22
  -5  -2   8    3.06    0.20
  -5  -2   8    3.15    0.22
   5  -2  -8    3.25    0.20
   5  -2  -8    2.89    0.22
   5   2  -7    8.17    0.34
   5   2  -7    8.65    0.35
  -5   2   7    8.69    0.38
   5  -2  -7    8.39    0.37
   5  -2  -7    9.13    0.34
  -5  -2   7    8.65    0.37
   5   2  -6    0.08    0.05
  -5   2   6   -0.02    0.04
   5   2  -6    0.07    0.05
   5  -2  -6   -0.04    0.04
   5  -2  -6   -0.01    0.04
   5  -2  -6   -0.01    0.04
   5   2  -5   -0.01    0.03
  -5   2   5    0.04    0.04
   5   2  -5    0.22    0.06
   5  -2  -5    0.01    0.04
   5  -2  -5    0.03    0.04
   5  -2  -5    0.06    0.04
   5   2  -4   13.05    0.41
   5   2  -4   12.88    0.41
   5  -2  -4   12.62    0.40
  -5  -2   4   12.93    0.42
   5  -2  -4   13.40    0.40
   5  -2  -4   12.56    0.43
   5   2  -3   14.51    0.44
   5   2  -3   14.51    0.44
  -5  -2   3   14.33    0.44
   5  -2  -3   14.79    0.46
   5  -2  -3   14.92    0.44
   5   2  -2    2.31    0.13
   5   2  -2    2.59    0.14
   5   2  -2    2.57    0.13
   5  -2  -2    2.81    0.14
  -5  -2   2    2.59    0.13
   5  -2  -2    2.59    0.14
   5   2  -1   20.78    0.55
   5   2  -1   19.64    0.55
   5   2  -1   20.80    0.55
   5  -2  -1   19.87    0.55
   5  -2  -1   20.04    0.55
   5  -2  -1   20.85    0.55
  -5  -2   1   20.95    0.55
   5   2   0    0.13    0.03
   5   2   0    0.04    0.03
   5  -2   0    0.11    0.04
   5  -2   0    0.10    0.04
  -5  -2   0    0.13    0.03
  -5   2  -1    0.03    0.02
   5   2   1    0.03    0.02
   5   2   1    0.01    0.02
  -5  -2  -1    0.08    0.03
   5  -2   1    0.02    0.03
   5  -2   1    0.02    0.03
   5   2   2    0.12    0.03
  -5   2  -2    0.12    0.02
   5   2   2    0.10    0.04
  -5  -2  -2    0.13    0.03
   5  -2   2    0.18    0.04
   5  -2   2    0.14    0.04
  -5   2  -3   14.15    0.34
   5   2   3   14.43    0.42
   5   2   3   13.94    0.38
  -5  -2  -3   13.96    0.39
   5  -2   3   13.55    0.40
   5  -2   3   14.26    0.40
   5   2   4    1.17    0.12
  -5  -2  -4    1.05    0.09
   5  -2   4    1.23    0.11
   5  -2   4    1.19    0.09
   5   2   5    0.18    0.06
   5  -2   5    0.27    0.06
   5  -2   5    0.19    0.06
   5   2   6    0.91    0.12
  -5   2  -6    0.87    0.11
   5  -2   6    1.01    0.11
   5   2   7    1.19    0.14
   5  -2   7    1.04    0.12
   5   2   8    0.31    0.09
   5   2   9    0.84    0.14
   5   2  11    0.14    0.11
  -5   3  12    0.09    0.11
  -5   3  12   -0.03    0.08
  -5   3  11    0.36    0.12
  -5   3  11    0.21    0.12
  -5   3  10   -0.04    0.06
  -5   3  10   -0.01    0.08
   5  -3 -10   -0.03    0.06
   5   3  -9    5.84    0.30
  -5   3   9    5.48    0.31
  -5   3   9    5.65    0.32
   5   3  -9    5.44    0.28
  -5  -3   9    5.79    0.32
  -5  -3   9    5.88    0.30
   5  -3  -9    5.59    0.33
  -5  -3   9    5.82    0.30
  -5  -3   9    5.85    0.30
  -5   3   8    2.90    0.21
   5   3  -8    2.45    0.19
   5   3  -8    2.39    0.18
  -5   3   8    2.41    0.23
  -5  -3   8    2.79    0.20
   5  -3  -8    2.86    0.22
  -5  -3   8    2.97    0.20
  -5  -3   8    2.78    0.21
   5   3  -7    0.75    0.12
  -5   3   7    0.76    0.13
   5   3  -7    0.77    0.12
   5  -3  -7    0.92    0.14
  -5  -3   7    0.87    0.12
   5  -3  -7    1.05    0.13
   5  -3  -7    0.82    0.10
   5   3  -6    4.04    0.22
  -5   3   6    3.72    0.23
   5   3  -6    4.06    0.21
   5  -3  -6    4.09    0.23
  -5  -3   6    4.25    0.22
   5  -3  -6    3.90    0.20
   5   3  -5    2.83    0.17
  -5   3   5    2.31    0.16
   5   3  -5    2.50    0.16
   5  -3  -5    2.69    0.16
   5  -3  -5    2.40    0.17
  -5  -3   5    2.49    0.16
   5   3  -4    1.92    0.13
   5   3  -4    1.92    0.14
  -5   3   4    2.25    0.15
   5  -3  -4    1.78    0.13
   5  -3  -4    2.10    0.13
  -5  -3   4    1.90    0.13
   5   3  -3    0.14    0.04
   5   3  -3    0.30    0.06
   5  -3  -3    0.21    0.05
   5  -3  -3    0.31    0.06
  -5  -3   3    0.24    0.05
   5   3  -2   12.13    0.36
   5   3  -2   11.99    0.37
   5   3  -2   11.81    0.37
  -5  -3   2   11.47    0.36
   5  -3  -2   11.75    0.37
   5  -3  -2   12.26    0.38
   5   3  -1    0.32    0.06
   5   3  -1    0.39    0.06
   5   3  -1    0.23    0.05
  -5  -3   1    0.42    0.06
   5  -3  -1    0.17    0.05
   5  -3  -1    0.20    0.05
   5   3   0   28.99    0.73
   5   3   0   29.00    0.73
   5   3   0   29.48    0.73
   5  -3   0   28.89    0.73
  -5  -3   0   29.15    0.73
   5  -3   0   28.32    0.74
   5  -3   0   29.65    0.74
   5   3   1    0.28    0.05
  -5   3  -1    0.14    0.03
   5   3   1    0.18    0.04
   5  -3   1    0.18    0.04
  -5  -3  -1    0.25    0.04
   5  -3   1    0.14    0.04
  -5   3  -2    6.08    0.17
   5   3   2    6.32    0.23
   5   3   2    6.00    0.20
   5  -3   2    6.11    0.21
   5  -3   2    6.12    0.23
  -5  -3  -2    6.53    0.22
   5   3   3    1.65    0.09
   5   3   3    1.65    0.11
   5  -3   3    1.68    0.10
   5  -3   3    1.31    0.11
  -5  -3  -3    1.48    0.10
   5   3   4    4.86    0.21
  -5  -3  -4    5.08    0.20
   5  -3   4    4.89    0.19
   5  -3   4    4.61    0.20
   5   3   5    4.91    0.23
  -5   3  -5    5.27    0.23
   5  -3   5    4.92    0.20
   5  -3   5    4.99    0.21
  -5  -3  -5    4.63    0.20
   5   3   6    0.53    0.10
  -5   3  -6    0.22    0.07
   5  -3   6    0.41    0.07
   5   3   7    0.29    0.09
   5   3   8    0.08    0.07
   5   3   9   -0.02    0.07
   5   3  10   -0.04    0.08
   5   3  11    0.16    0.11
  -5   4  12    0.00    0.09
  -5   4  12    0.32    0.13
  -5   4  11   -0.01    0.08
  -5   4  11    0.03    0.09
   5   4 -10    0.00    0.06
  -5   4  10    0.03    0.09
  -5   4  10    0.05    0.08
   5   4 -10   -0.03    0.07
   5   4  -9    0.04    0.07
  -5   4   9    0.06    0.09
   5   4  -9   -0.02    0.06
  -5   4   9    0.05    0.07
  -5  -4   9    0.06    0.08
  -5  -4   9    0.01    0.07
   5  -4  -9    0.02    0.06
  -5  -4   9    0.08    0.07
   5   4  -8    0.15    0.08
  -5   4   8    0.24    0.09
   5   4  -8    0.11    0.07
  -5   4   8    0.03    0.07
  -5  -4   8    0.18    0.08
  -5  -4   8    0.15    0.08
  -5  -4   8    0.19    0.09
   5  -4  -8    0.20    0.08
  -5   4   7    2.19    0.18
   5   4  -7    2.69    0.18
   5   4  -7    2.15    0.17
   5  -4  -7    2.17    0.15
   5  -4  -7    2.37    0.19
  -5  -4   7    2.23    0.16
  -5  -4   7    2.26    0.17
   5   4  -6    3.21    0.20
   5   4  -6    3.52    0.20
  -5   4   6    3.27    0.21
  -5  -4   6    2.72    0.17
   5  -4  -6    3.25    0.18
   5  -4  -6    2.93    0.20
  -5   4   5    0.29    0.07
   5   4  -5    0.11    0.06
   5   4  -5    0.18    0.06
   5  -4  -5    0.34    0.07
  -5  -4   5    0.29    0.06
   5  -4  -5    0.23    0.07
   5   4  -4    0.16    0.05
  -5   4   4    0.08    0.05
   5   4  -4    0.13    0.05
   5  -4  -4    0.12    0.04
  -5  -4   4    0.07    0.04
   5  -4  -4    0.12    0.05
   5   4  -3   10.25    0.36
  -5   4   3   10.40    0.37
   5   4  -3   10.57    0.36
   5  -4  -3   11.12    0.35
   5  -4  -3   11.08    0.38
  -5  -4   3   11.11    0.36
   5   4  -2   37.43    0.95
   5   4  -2   38.60    0.95
   5   4  -2   36.76    0.95
  -5  -4   2   38.89    0.96
   5  -4  -2   38.23    0.98
   5  -4  -2   37.66    0.95
   5   4  -1   18.94    0.52
   5   4  -1   19.93    0.54
   5   4  -1   19.74    0.53
   5  -4  -1   19.36    0.53
   5  -4  -1   19.05    0.53
  -5  -4   1   19.12    0.53
   5   4   0    0.18    0.04
   5   4   0    0.23    0.05
   5   4   0    0.16    0.04
  -5  -4   0    0.20    0.04
   5  -4   0    0.13    0.04
   5  -4   0    0.21    0.04
   5  -4   0    0.16    0.04
   5   4   1    3.63    0.16
   5   4   1    3.65    0.15
   5   4   1    3.72    0.15
   5  -4   1    3.61    0.15
   5  -4   1    3.38    0.16
  -5  -4  -1    3.91    0.16
  -5   4  -2    6.37    0.18
   5   4   2    6.74    0.24
   5   4   2    6.56    0.21
   5  -4   2    6.71    0.22
  -5  -4  -2    7.15    0.24
   5  -4   2    6.71    0.25
   5   4   3    4.58    0.20
  -5  -4  -3    4.59    0.19
   5  -4   3    4.56    0.17
   5  -4   3    4.55    0.20
   5   4   4    0.18    0.06
   5  -4   4    0.24    0.05
   5  -4   4    0.30    0.06
  -5  -4  -4    0.18    0.05
   5   4   5    1.69    0.13
  -5   4  -5    1.80    0.14
   5  -4   5    1.99    0.14
  -5  -4  -5    1.79    0.12
   5  -4   5    1.81    0.11
   5   4   6    3.74    0.20
  -5   4  -6    3.27    0.20
  -5   4  -7    0.23    0.08
   5   4   7    0.21    0.08
   5   4   8   -0.02    0.07
   5   4   9   -0.04    0.07
   5   4  10    0.17    0.10
   5   4  11    0.02    0.09
  -5   5  12   -0.06    0.10
  -5   5  11    0.07    0.09
  -5   5  11    0.00    0.08
   5   5 -10    0.16    0.09
  -5   5  10    0.02    0.08
  -5   5  10    0.13    0.09
   5   5 -10    0.24    0.10
  -5  -5  10    0.12    0.09
   5   5  -9    0.54    0.12
  -5   5   9    0.39    0.12
   5   5  -9    0.37    0.10
  -5   5   9    0.44    0.13
  -5  -5   9    0.30    0.10
   5  -5  -9    0.35    0.10
  -5   5   8    2.32    0.23
  -5   5   8    2.19    0.22
   5   5  -8    2.19    0.20
   5   5  -8    1.87    0.20
  -5  -5   8    1.78    0.17
  -5  -5   8    2.09    0.20
  -5  -5   8    1.91    0.20
   5  -5  -8    1.67    0.19
   5   5  -7    0.00    0.06
  -5   5   7   -0.04    0.05
   5   5  -7   -0.01    0.05
  -5   5   7    0.00    0.06
  -5  -5   7   -0.01    0.04
  -5  -5   7    0.09    0.07
   5  -5  -7    0.16    0.07
   5  -5  -7    0.05    0.05
   5   5  -6    0.61    0.10
  -5   5   6    0.50    0.10
   5   5  -6    0.49    0.10
   5  -5  -6    0.54    0.10
  -5  -5   6    0.87    0.11
   5  -5  -6    0.57    0.09
  -5  -5   6    0.67    0.11
   5   5  -5    0.01    0.04
   5   5  -5    0.09    0.05
  -5   5   5    0.00    0.04
   5  -5  -5    0.04    0.04
  -5  -5   5   -0.02    0.03
   5  -5  -5   -0.01    0.04
   5   5  -4    3.10    0.18
   5   5  -4    3.30    0.18
  -5   5   4    3.27    0.19
  -5  -5   4    3.44    0.18
   5  -5  -4    3.79    0.18
   5  -5  -4    3.41    0.19
   5   5  -3    3.62    0.19
  -5   5   3    3.81    0.19
   5   5  -3    4.09    0.18
   5   5  -3    3.78    0.19
  -5  -5   3    3.72    0.18
   5  -5  -3    4.19    0.20
   5  -5  -3    4.02    0.19
  -5   5   2    1.50    0.11
   5   5  -2    1.29    0.12
   5   5  -2    1.31    0.12
   5   5  -2    1.62    0.10
   5  -5  -2    1.43    0.11
   5  -5  -2    1.53    0.11
  -5  -5   2    1.45    0.10
   5   5  -1   53.01    1.28
   5   5  -1   53.40    1.28
   5   5  -1   53.40    1.28
  -5  -5   1   53.57    1.30
   5  -5  -1   54.85    1.31
   5  -5  -1   51.77    1.28
   5   5   0   19.01    0.52
   5   5   0   18.73    0.52
   5   5   0   19.42    0.52
   5  -5   0   19.26    0.53
  -5  -5   0   18.84    0.52
   5  -5   0   19.51    0.52
   5   5   1    3.44    0.15
   5   5   1    3.17    0.15
   5   5   1    3.48    0.15
   5  -5   1    3.56    0.15
   5  -5   1    3.55    0.17
   5  -5   1    3.68    0.14
  -5  -5  -1    3.43    0.15
   5   5   2    0.48    0.07
  -5   5  -2    0.68    0.04
   5   5   2    0.66    0.07
  -5  -5  -2    0.63    0.08
   5  -5   2    0.69    0.07
   5  -5   2    0.63    0.08
   5   5   3    1.50    0.12
   5  -5   3    1.39    0.13
   5  -5   3    1.57    0.09
  -5  -5  -3    1.24    0.10
   5   5   4    6.72    0.27
   5  -5   4    6.34    0.22
  -5  -5  -4    6.27    0.25
   5  -5   4    6.17    0.25
  -5   5  -5    0.06    0.05
   5   5   5   -0.03    0.04
   5  -5   5    0.10    0.06
  -5  -5  -5    0.08    0.04
  -5   5  -6    0.02    0.05
   5   5   6    0.01    0.05
   5  -5   6    0.04    0.06
   5   5   7    0.19    0.08
  -5   5  -7    0.30    0.09
   5   5   8    0.01    0.07
   5   5   9    0.24    0.10
   5   5  10    0.04    0.09
   5   5  11    0.16    0.11
  -5   6  12   -0.01    0.11
  -5   6  11    0.03    0.10
  -5   6  11    0.22    0.11
  -5   6  10   -0.05    0.06
   5   6 -10    0.05    0.08
   5   6 -10    0.01    0.08
  -5   6  10    0.02    0.08
  -5  -6  10    0.04    0.08
  -5   6   9    0.92    0.16
   5   6  -9    1.21    0.17
   5   6  -9    1.15    0.16
  -5   6   9    1.25    0.18
  -5  -6   9    1.50    0.19
   5  -6  -9    0.81    0.15
  -5   6   8    0.12    0.08
  -5   6   8   -0.03    0.06
   5   6  -8    0.07    0.07
   5   6  -8   -0.05    0.06
  -5  -6   8    0.01    0.07
  -5  -6   8    0.06    0.06
   5  -6  -8    0.02    0.06
   5   6  -7    0.46    0.10
   5   6  -7    0.32    0.09
  -5   6   7    0.49    0.11
  -5   6   7    0.36    0.09
  -5  -6   7    0.30    0.09
  -5  -6   7    0.35    0.08
   5  -6  -7    0.39    0.10
   5   6  -6    1.89    0.18
  -5   6   6    2.14    0.18
   5   6  -6    2.21    0.17
   5  -6  -6    2.10    0.15
   5  -6  -6    2.11    0.20
  -5  -6   6    2.34    0.16
  -5  -6   6    2.15    0.17
   5   6  -5   -0.07    0.04
  -5   6   5   -0.03    0.03
   5   6  -5   -0.06    0.03
   5  -6  -5   -0.02    0.03
  -5  -6   5   -0.03    0.04
  -5  -6   5   -0.01    0.04
   5  -6  -5   -0.02    0.03
  -5   6   4    0.05    0.04
   5   6  -4    0.01    0.04
   5   6  -4    0.08    0.05
   5  -6  -4   -0.02    0.03
   5  -6  -4    0.06    0.04
  -5  -6   4   -0.02    0.03
   5   6  -3   13.16    0.42
   5   6  -3   12.21    0.41
  -5   6   3   12.91    0.43
   5  -6  -3   12.25    0.42
   5  -6  -3   12.23    0.39
  -5  -6   3   12.43    0.40
   5   6  -2   20.60    0.54
   5   6  -2   19.83    0.57
  -5   6   2   19.40    0.58
   5   6  -2   20.19    0.57
   5  -6  -2   19.23    0.58
   5  -6  -2   19.88    0.56
  -5  -6   2   20.33    0.56
   5   6  -1    2.70    0.15
   5   6  -1    2.56    0.15
   5   6  -1    2.93    0.14
   5  -6  -1    3.05    0.16
  -5  -6   1    3.01    0.15
   5  -6  -1    2.86    0.15
   5   6   0    0.08    0.04
  -5   6   0    0.06    0.03
   5   6   0    0.04    0.04
   5   6   0    0.08    0.04
   5  -6   0    0.05    0.03
   5  -6   0    0.04    0.04
  -5  -6   0    0.05    0.03
   5   6   1    1.28    0.10
   5   6   1    1.38    0.09
   5   6   1    1.65    0.10
   5  -6   1    1.16    0.12
   5  -6   1    1.59    0.09
  -5  -6  -1    1.54    0.10
   5  -6   1    1.63    0.09
   5   6   2    0.01    0.02
   5   6   2    0.00    0.03
   5  -6   2   -0.05    0.03
  -5  -6  -2    0.02    0.03
   5  -6   2    0.00    0.03
   5   6   3    4.32    0.21
   5  -6   3    4.89    0.18
  -5  -6  -3    4.74    0.21
   5  -6   3    4.70    0.22
   5   6   4    0.10    0.06
  -5  -6  -4    0.10    0.04
   5  -6   4    0.01    0.04
   5   6   5    0.19    0.07
  -5   6  -5    0.17    0.06
   5  -6   5    0.12    0.07
  -5  -6  -5    0.19    0.06
   5   6   6    1.05    0.14
  -5   6  -6    1.46    0.16
  -5  -6  -6    1.04    0.12
   5  -6   6    1.18    0.14
  -5   6  -7    0.37    0.10
   5   6   7    0.19    0.08
   5   6   8    0.00    0.06
   5   6   9    0.39    0.11
   5   6  10    0.01    0.09
   5   6  11    0.13    0.10
  -5   7  12   -0.01    0.10
  -5   7  11   -0.04    0.07
  -5   7  11   -0.01    0.10
   5   7 -11   -0.04    0.08
   5   7 -11    0.02    0.08
   5   7 -10    0.06    0.09
  -5   7  10    0.07    0.08
   5   7 -10    0.03    0.08
  -5   7  10   -0.01    0.07
  -5  -7  10    0.00    0.08
   5   7  -9    0.15    0.09
  -5   7   9    0.11    0.10
   5   7  -9    0.00    0.07
  -5   7   9    0.15    0.09
  -5  -7   9    0.04    0.08
   5   7  -8    0.07    0.07
   5   7  -8    0.06    0.07
  -5   7   8    0.08    0.08
  -5   7   8    0.16    0.08
   5  -7  -8    0.12    0.08
  -5  -7   8    0.09    0.07
  -5  -7   8    0.09    0.06
   5   7  -7    0.36    0.10
  -5   7   7    0.74    0.13
  -5   7   7    0.36    0.10
   5   7  -7    0.63    0.11
  -5  -7   7    0.46    0.11
  -5  -7   7    0.64    0.10
   5  -7  -7    0.75    0.13
  -5   7   6    1.15    0.15
   5   7  -6    1.60    0.17
   5   7  -6    1.15    0.15
  -5  -7   6    1.38    0.16
   5  -7  -6    1.27    0.15
   5  -7  -6    1.31    0.14
  -5  -7   6    1.38    0.14
   5   7  -5    0.01    0.04
   5   7  -5    0.04    0.05
  -5   7   5    0.05    0.05
   5  -7  -5    0.07    0.05
   5  -7  -5    0.00    0.04
  -5  -7   5   -0.01    0.03
  -5  -7   5    0.08    0.06
   5   7  -4    0.04    0.05
   5   7  -4    0.00    0.04
  -5   7   4    0.02    0.04
  -5  -7   4    0.04    0.04
  -5  -7   4    0.02    0.04
   5  -7  -4    0.00    0.03
   5  -7  -4    0.02    0.03
   5   7  -3    1.36    0.10
   5   7  -3    1.20    0.13
   5   7  -3    1.21    0.13
  -5   7   3    1.39    0.13
   5  -7  -3    1.28    0.13
  -5  -7   3    1.42    0.11
  -5  -7   3    1.24    0.13
   5  -7  -3    1.51    0.13
  -5   7   2    2.64    0.16
   5   7  -2    3.18    0.17
   5   7  -2    3.07    0.17
   5  -7  -2    3.08    0.17
  -5  -7   2    2.80    0.15
   5  -7  -2    2.79    0.16
  -5  -7   2    2.75    0.16
   5   7  -1   14.30    0.43
  -5   7   1   11.97    0.41
   5   7  -1   13.91    0.42
   5   7  -1   13.83    0.40
   5  -7  -1   14.06    0.43
  -5  -7   1   14.32    0.42
   5  -7  -1   13.69    0.43
   5   7   0    2.72    0.14
   5   7   0    2.41    0.14
  -5   7   0    2.58    0.13
   5   7   0    2.43    0.13
   5  -7   0    2.69    0.14
  -5  -7   0    2.61    0.14
   5  -7   0    2.37    0.15
   5   7   1    0.78    0.09
   5   7   1    0.82    0.09
   5   7   1    0.73    0.08
  -5   7  -1    0.77    0.06
   5  -7   1    0.83    0.08
   5  -7   1    0.77    0.10
  -5  -7  -1    0.70    0.08
   5   7   2    2.18    0.13
   5   7   2    2.38    0.11
   5  -7   2    2.11    0.11
  -5  -7  -2    2.04    0.13
   5  -7   2    1.82    0.14
   5   7   3    3.29    0.18
  -5  -7  -3    3.13    0.17
   5  -7   3    3.41    0.19
   5   7   4    1.65    0.13
  -5   7  -4    1.55    0.16
  -5  -7  -4    1.85    0.14
   5  -7   4    1.71    0.16
   5   7   5    3.66    0.21
  -5   7  -5    3.96    0.22
   5  -7   5    3.98    0.21
  -5  -7  -5    3.42    0.20
   5   7   6    0.53    0.10
  -5   7  -6    0.50    0.10
  -5  -7  -6    0.61    0.10
   5  -7   6    0.65    0.11
   5   7   7    1.15    0.15
  -5   7  -7    0.82    0.13
   5  -7   7    1.09    0.14
   5   7   8    0.27    0.09
  -5   7  -8    0.14    0.09
   5   7   9    0.18    0.10
   5   7  10   -0.04    0.08
  -5   8  12    0.19    0.13
   5   8 -11    0.07    0.10
  -5   8  11    0.03    0.08
  -5   8  11    0.06    0.10
   5   8 -11    0.16    0.10
  -5  -8  11   -0.01    0.10
   5   8 -10    0.14    0.09
  -5   8  10   -0.04    0.07
   5   8 -10    0.09    0.09
  -5   8  10   -0.13    0.08
  -5  -8  10   -0.11    0.07
   5   8  -9    0.14    0.09
  -5   8   9    0.06    0.08
   5   8  -9    0.13    0.09
  -5   8   9    0.37    0.11
  -5  -8   9    0.32    0.10
  -5   8   8    0.18    0.09
   5   8  -8    0.32    0.10
  -5   8   8    0.23    0.10
   5   8  -8    0.13    0.08
   5  -8  -8    0.39    0.11
  -5  -8   8    0.26    0.10
   5   8  -7    0.00    0.06
  -5   8   7   -0.08    0.05
  -5   8   7   -0.06    0.05
   5   8  -7    0.00    0.06
  -5  -8   7    0.04    0.05
  -5  -8   7   -0.05    0.06
   5  -8  -7   -0.01    0.05
   5   8  -6    1.21    0.16
  -5   8   6    0.85    0.13
  -5   8   6    0.81    0.13
   5   8  -6    1.15    0.15
   5  -8  -6    0.88    0.14
  -5  -8   6    0.70    0.12
   5  -8  -6    0.99    0.12
  -5  -8   6    0.90    0.11
  -5   8   5    1.16    0.14
   5   8  -5    0.76    0.12
   5   8  -5    1.23    0.14
  -5  -8   5    0.96    0.11
   5  -8  -5    0.87    0.13
  -5  -8   5    1.13    0.14
   5  -8  -5    1.08    0.12
  -5   8   4    0.99    0.13
   5   8  -4    1.01    0.13
   5   8  -4    0.94    0.12
  -5  -8   4    0.86    0.10
   5  -8  -4    0.73    0.11
  -5  -8   4    1.08    0.13
   5  -8  -4    0.92    0.11
   5   8  -3    0.55    0.08
   5   8  -3    0.52    0.09
  -5   8   3    0.57    0.09
   5   8  -3    0.68    0.10
  -5  -8   3    0.53    0.08
   5  -8  -3    0.56    0.09
  -5  -8   3    0.53    0.09
   5  -8  -3    0.54    0.09
   5   8  -2   10.94    0.34
   5   8  -2   10.56    0.37
  -5   8   2   11.49    0.38
   5   8  -2   11.04    0.39
  -5  -8   2   11.11    0.37
   5  -8  -2   11.36    0.38
   5  -8  -2   10.79    0.39
  -5  -8   2   11.41    0.38
   5   8  -1   11.55    0.38
   5   8  -1   11.68    0.37
  -5   8   1   11.07    0.37
   5   8  -1   11.75    0.35
   5  -8  -1   11.05    0.38
  -5  -8   1   11.22    0.37
  -5  -8   1   11.11    0.37
   5  -8  -1   11.20    0.38
   5   8   0    6.78    0.26
   5   8   0    6.89    0.24
   5   8   0    7.32    0.26
  -5   8   0    6.54    0.24
  -5  -8   0    6.45    0.26
  -5  -8   0    6.69    0.25
   5  -8   0    7.39    0.26
   5  -8   0    6.99    0.28
   5   8   1    1.03    0.10
   5   8   1    1.15    0.10
   5   8   1    1.14    0.11
   5  -8   1    1.09    0.12
   5  -8   1    1.16    0.08
  -5  -8  -1    0.95    0.10
  -5  -8  -1    1.08    0.08
   5   8   2    0.28    0.07
  -5  -8  -2    0.41    0.08
   5  -8   2    0.37    0.08
   5   8   3   14.13    0.44
   5  -8   3   12.78    0.44
  -5  -8  -3   12.16    0.43
  -5   8  -4    1.06    0.14
   5   8   4    1.00    0.12
  -5  -8  -4    0.90    0.12
   5  -8   4    1.21    0.14
  -5   8  -5    0.11    0.07
   5   8   5    0.11    0.07
   5  -8   5    0.10    0.06
  -5  -8  -5    0.10    0.05
  -5   8  -6    3.99    0.24
   5   8   6    4.14    0.24
  -5  -8  -6    3.39    0.21
   5  -8   6    3.83    0.24
   5   8   7    0.01    0.06
  -5   8  -7    0.10    0.08
   5  -8   7   -0.01    0.07
  -5   8  -8    0.04    0.07
   5   8   8    0.10    0.08
   5   8   9   -0.01    0.08
   5   8  10    0.00    0.09
   5   9 -11    0.02    0.09
   5   9 -11    0.10    0.10
  -5   9  11    0.01    0.10
  -5  -9  11   -0.08    0.09
  -5   9  10   -0.02    0.07
   5   9 -10   -0.03    0.08
  -5   9  10   -0.05    0.08
   5   9 -10    0.03    0.09
  -5  -9  10    0.05    0.09
  -5   9   9   -0.03    0.06
   5   9  -9   -0.03    0.06
   5   9  -9    0.04    0.08
  -5   9   9    0.07    0.09
  -5  -9   9   -0.14    0.06
  -5   9   8    1.88    0.22
   5   9  -8    2.04    0.23
   5   9  -8    1.86    0.20
  -5   9   8    1.98    0.22
   5  -9  -8    1.95    0.23
  -5  -9   8    2.22    0.23
   5   9  -7    0.09    0.07
   5   9  -7    0.04    0.07
  -5   9   7   -0.02    0.06
  -5   9   7    0.06    0.07
  -5  -9   7    0.01    0.05
   5  -9  -7   -0.05    0.04
  -5  -9   7    0.15    0.09
  -5   9   6    0.86    0.14
   5   9  -6    0.86    0.14
  -5   9   6    1.13    0.16
   5   9  -6    1.05    0.15
  -5  -9   6    0.94    0.11
  -5  -9   6    1.33    0.17
   5  -9  -6    0.91    0.14
  -5   9   5    7.55    0.35
   5   9  -5    8.68    0.35
   5   9  -5    8.00    0.36
   5  -9  -5    8.04    0.32
  -5  -9   5    7.99    0.31
   5  -9  -5    7.51    0.36
  -5  -9   5    8.60    0.36
   5   9  -4    6.45    0.30
  -5   9   4    6.21    0.29
   5   9  -4    5.82    0.28
  -5  -9   4    6.18    0.28
   5  -9  -4    6.02    0.30
  -5  -9   4    5.79    0.25
   5  -9  -4    6.29    0.27
   5   9  -3    9.90    0.33
   5   9  -3   10.18    0.37
   5   9  -3   10.45    0.39
  -5   9   3   10.24    0.38
  -5  -9   3   10.20    0.37
   5  -9  -3    9.94    0.36
   5  -9  -3   10.21    0.39
  -5  -9   3    9.63    0.35
   5   9  -2    0.63    0.10
  -5   9   2    0.34    0.07
   5   9  -2    0.49    0.07
   5   9  -2    0.37    0.08
   5  -9  -2    0.59    0.10
   5  -9  -2    0.54    0.09
  -5  -9   2    0.65    0.09
  -5  -9   2    0.51    0.08
   5   9  -1    0.08    0.05
   5   9  -1    0.00    0.02
  -5   9   1    0.14    0.05
   5   9  -1    0.20    0.06
   5  -9  -1    0.18    0.06
   5  -9  -1    0.13    0.06
  -5  -9   1    0.21    0.06
  -5  -9   1    0.10    0.05
   5   9   0   10.64    0.36
   5   9   0   10.40    0.33
  -5   9   0   10.34    0.33
   5   9   0   10.59    0.35
  -5  -9   0   10.84    0.35
   5  -9   0   10.64    0.38
  -5  -9   0   10.58    0.36
   5  -9   0   11.27    0.36
   5   9   1    2.61    0.14
   5   9   1    2.62    0.14
   5   9   1    2.76    0.15
  -5  -9  -1    2.76    0.14
  -5  -9  -1    2.90    0.16
   5  -9   1    2.48    0.14
   5  -9   1    2.81    0.18
   5   9   2    0.10    0.05
   5  -9   2   -0.04    0.05
  -5  -9  -2    0.15    0.05
   5   9   3    1.82    0.14
   5  -9   3    2.02    0.15
  -5  -9  -3    1.61    0.15
   5   9   4    2.92    0.18
  -5   9  -4    2.76    0.19
   5  -9   4    2.24    0.18
  -5  -9  -4    2.36    0.17
  -5   9  -5    0.03    0.06
   5   9   5    0.01    0.05
   5  -9   5    0.09    0.07
  -5  -9  -5   -0.01    0.04
   5   9   6    0.59    0.12
  -5   9  -6    0.77    0.14
   5  -9   6    0.66    0.13
  -5  -9  -6    0.54    0.10
  -5   9  -7    0.04    0.07
   5   9   7    0.13    0.08
   5  -9   7    0.10    0.08
   5   9   8   -0.03    0.07
  -5   9  -8   -0.01    0.07
   5   9   9    0.06    0.09
  -5   9  -9    0.23    0.11
   5   9  10   -0.09    0.08
   5  10 -11    0.16    0.12
  -5  10  11   -0.02    0.08
   5  10 -11    0.02    0.09
  -5 -10  11    0.06    0.10
   5  10 -10    0.16    0.11
   5  10 -10   -0.03    0.09
  -5  10  10   -0.02    0.09
  -5  10  10    0.09    0.09
  -5 -10  10    0.14    0.10
  -5  10   9    0.37    0.12
   5  10  -9    0.50    0.13
  -5  10   9    0.57    0.14
   5  10  -9    0.45    0.12
  -5 -10   9    0.78    0.15
   5  10  -8   -0.03    0.07
   5  10  -8   -0.04    0.06
  -5  10   8    0.03    0.07
  -5  10   8    0.01    0.08
  -5 -10   8   -0.04    0.07
   5  10  -7    0.01    0.07
   5  10  -7    0.04    0.07
  -5  10   7   -0.02    0.06
  -5  10   7    0.00    0.06
  -5 -10   7    0.06    0.06
   5 -10  -7    0.06    0.07
  -5 -10   7    0.09    0.08
   5  10  -6    2.52    0.24
   5  10  -6    1.46    0.17
  -5  10   6    1.88    0.20
  -5  10   6    1.93    0.20
   5 -10  -6    1.90    0.21
  -5 -10   6    1.89    0.20
  -5 -10   6    1.79    0.14
  -5  10   5    0.35    0.09
  -5  10   5    0.48    0.10
   5  10  -5    0.28    0.09
   5  10  -5    0.32    0.09
   5 -10  -5    0.37    0.08
  -5 -10   5    0.39    0.10
   5 -10  -5    0.40    0.10
  -5 -10   5    0.39    0.08
  -5  10   4    8.58    0.36
   5  10  -4    9.09    0.36
   5  10  -4    8.56    0.37
   5 -10  -4    8.52    0.38
  -5 -10   4    8.27    0.36
   5 -10  -4    9.68    0.35
  -5 -10   4    8.70    0.33
   5  10  -3    9.81    0.39
  -5  10   3    9.78    0.37
   5  10  -3    9.71    0.37
   5 -10  -3    9.35    0.35
  -5 -10   3    9.51    0.37
  -5 -10   3    9.92    0.35
   5 -10  -3    9.69    0.39
   5  10  -2    2.80    0.15
   5  10  -2    3.03    0.19
   5  10  -2    3.37    0.19
  -5  10   2    2.68    0.17
  -5 -10   2    2.70    0.16
   5 -10  -2    3.10    0.19
  -5 -10   2    2.84    0.18
   5 -10  -2    3.48    0.19
   5  10  -1    3.74    0.20
   5  10  -1    3.48    0.17
   5  10  -1    3.66    0.20
  -5  10   1    3.60    0.18
   5 -10  -1    3.81    0.20
  -5 -10   1    3.59    0.19
  -5 -10   1    3.67    0.19
   5 -10  -1    3.65    0.21
   5  10   0    0.03    0.04
   5  10   0    0.06    0.04
   5  10   0    0.00    0.04
  -5 -10   0    0.08    0.05
  -5 -10   0    0.03    0.04
   5 -10   0    0.04    0.04
   5 -10   0    0.00    0.05
   5  10   1    0.46    0.08
   5  10   1    0.48    0.08
   5  10   1    0.41    0.08
   5 -10   1    0.43    0.09
  -5 -10  -1    0.47    0.07
  -5 -10  -1    0.48    0.08
   5  10   2    0.06    0.05
  -5 -10  -2    0.00    0.04
   5 -10   2    0.01    0.06
   5  10   3    0.20    0.07
  -5  10  -3    0.20    0.07
  -5 -10  -3    0.29    0.07
   5 -10   3    0.26    0.08
  -5  10  -4    0.19    0.07
   5  10   4    0.02    0.05
   5 -10   4    0.15    0.07
  -5 -10  -4    0.15    0.06
   5  10   5    0.12    0.06
  -5  10  -5    0.07    0.07
  -5 -10  -5    0.09    0.05
   5 -10   5    0.20    0.09
   5  10   6    0.81    0.13
  -5  10  -6    0.81    0.14
   5 -10   6    0.77    0.14
  -5 -10  -6    0.75    0.12
   5  10   7    0.05    0.07
  -5  10  -7    0.02    0.07
   5 -10   7    0.01    0.08
  -5 -10  -7    0.07    0.07
  -5  10  -8    0.04    0.08
   5  10   8    0.29    0.10
   5  10   9    0.14    0.10
  -5  10  -9    0.09    0.09
   5  10  10    0.14    0.10
   5  11 -11    0.05    0.11
  -5  11  11    0.23    0.12
   5  11 -11   -0.04    0.08
  -5 -11  11    0.11    0.10
  -5  11  10    0.06    0.10
  -5  11  10    0.19    0.10
   5  11 -10    0.08    0.10
   5  11 -10    0.12    0.09
  -5 -11  10    0.21    0.11
  -5  11   9   -0.07    0.07
   5  11  -9    0.23    0.11
   5  11  -9    0.11    0.09
  -5  11   9    0.13    0.10
  -5 -11   9   -0.11    0.08
   5  11  -8    0.01    0.07
  -5  11   8    0.05    0.07
  -5  11   8    0.14    0.10
   5  11  -8    0.04    0.08
  -5 -11   8    0.14    0.09
   5  11  -7    0.21    0.09
   5  11  -7    0.30    0.11
  -5  11   7    0.24    0.10
  -5  11   7    0.53    0.12
   5 -11  -7    0.32    0.10
  -5 -11   7    0.23    0.09
   5  11  -6    0.35    0.10
  -5  11   6    0.36    0.11
  -5  11   6    0.29    0.09
   5  11  -6    0.47    0.11
  -5 -11   6    0.61    0.13
  -5 -11   6    0.41    0.09
   5 -11  -6    0.20    0.09
   5  11  -5    0.33    0.10
  -5  11   5    0.45    0.10
  -5  11   5    0.39    0.10
   5  11  -5    0.33    0.10
  -5 -11   5    0.32    0.10
   5 -11  -5    0.61    0.12
   5 -11  -5    0.44    0.09
  -5 -11   5    0.53    0.09
   5  11  -4    0.08    0.08
  -5  11   4    0.23    0.08
   5  11  -4    0.22    0.08
  -5  11   4    0.16    0.07
  -5 -11   4    0.14    0.07
   5 -11  -4    0.11    0.06
   5 -11  -4    0.16    0.07
  -5 -11   4    0.08    0.06
   5  11  -3    0.06    0.07
  -5  11   3    0.03    0.05
   5  11  -3   -0.02    0.05
   5 -11  -3    0.12    0.06
  -5 -11   3   -0.01    0.06
   5 -11  -3    0.16    0.07
  -5 -11   3    0.05    0.05
   5  11  -2   10.25    0.38
   5  11  -2    9.42    0.38
   5 -11  -2    9.97    0.39
  -5 -11   2    9.71    0.36
  -5 -11   2    9.23    0.36
   5 -11  -2    9.85    0.37
   5  11  -1    3.73    0.17
  -5  11   1    3.96    0.20
   5  11  -1    3.80    0.20
   5  11  -1    3.55    0.21
  -5 -11   1    3.65    0.20
   5 -11  -1    3.81    0.22
   5 -11  -1    3.61    0.21
  -5 -11   1    3.59    0.20
   5  11   0    0.18    0.07
   5  11   0    0.13    0.06
   5  11   0    0.08    0.05
  -5 -11   0    0.04    0.05
   5 -11   0    0.07    0.05
   5 -11   0    0.10    0.07
  -5 -11   0    0.00    0.05
   5  11   1   27.68    0.74
  -5 -11  -1   26.30    0.77
   5 -11   1   26.62    0.78
  -5  11  -2   14.48    0.50
   5  11   2   14.51    0.46
  -5 -11  -2   13.69    0.48
   5 -11   2   13.85    0.49
   5  11   3   -0.04    0.04
  -5  11  -3    0.26    0.08
  -5 -11  -3    0.02    0.04
   5 -11   3    0.07    0.06
  -5  11  -4    0.18    0.08
   5  11   4    0.10    0.06
   5 -11   4    0.01    0.06
  -5 -11  -4    0.19    0.07
   5  11   5    0.51    0.10
  -5  11  -5    0.75    0.13
   5 -11   5    0.52    0.12
  -5 -11  -5    0.71    0.12
  -5  11  -6    0.33    0.10
   5  11   6    0.38    0.11
  -5 -11  -6    0.27    0.09
   5 -11   6    0.33    0.11
  -5  11  -7    0.08    0.08
   5  11   7    0.10    0.08
   5 -11   7    0.00    0.09
  -5 -11  -7    0.00    0.05
   5  11   8   -0.06    0.07
  -5  11  -8    0.04    0.09
   5 -11   8    0.00    0.08
  -5  11  -9    0.17    0.11
   5  11   9    0.04    0.09
   5  12 -10    0.13    0.09
   5  12 -10    0.09    0.10
  -5  12  10    0.01    0.09
  -5 -12  10   -0.03    0.09
  -5  12   9    0.10    0.10
  -5  12   9    0.30    0.11
   5  12  -9    0.16    0.10
   5  12  -9    0.24    0.12
  -5 -12   9    0.15    0.10
  -5  12   8    0.19    0.09
   5  12  -8    0.02    0.07
  -5  12   8   -0.01    0.08
   5  12  -8    0.07    0.09
  -5 -12   8    0.06    0.09
  -5  12   7    0.45    0.12
   5  12  -7    0.22    0.10
  -5  12   7    0.33    0.10
   5  12  -7    0.16    0.10
  -5 -12   7    0.29    0.10
   5  12  -6    0.88    0.15
  -5  12   6    0.93    0.15
  -5  12   6    1.11    0.16
   5  12  -6    0.83    0.15
  -5 -12   6    0.79    0.11
   5 -12  -6    0.81    0.15
  -5 -12   6    0.87    0.15
   5  12  -5   -0.01    0.06
   5  12  -5   -0.06    0.05
  -5  12   5    0.00    0.06
  -5  12   5   -0.02    0.06
  -5 -12   5    0.09    0.07
  -5 -12   5    0.01    0.05
   5 -12  -5   -0.02    0.05
  -5  12   4    2.25    0.17
   5  12  -4    2.30    0.22
   5  12  -4    2.57    0.20
  -5  12   4    2.41    0.18
   5 -12  -4    2.55    0.18
  -5 -12   4    2.33    0.21
  -5 -12   4    2.41    0.17
   5 -12  -4    1.92    0.20
  -5  12   3   12.32    0.44
   5  12  -3   12.04    0.44
  -5  12   3   10.75    0.41
   5  12  -3   10.59    0.44
  -5 -12   3   11.53    0.41
  -5 -12   3   11.10    0.43
   5 -12  -3   12.15    0.47
   5 -12  -3   11.86    0.42
   5  12  -2    0.23    0.08
   5  12  -2    0.22    0.08
  -5  12   2    0.03    0.04
  -5 -12   2    0.16    0.07
   5 -12  -2    0.19    0.07
   5 -12  -2    0.20    0.08
  -5 -12   2    0.24    0.07
   5  12  -1    2.11    0.19
   5  12  -1    2.17    0.18
   5 -12  -1    2.26    0.20
  -5 -12   1    1.54    0.16
  -5 -12   1    1.80    0.17
   5 -12  -1    1.77    0.17
   5  12   0    0.06    0.06
   5  12   0    0.09    0.06
   5  12   0   -0.01    0.04
   5 -12   0   -0.05    0.04
  -5 -12   0    0.03    0.05
  -5 -12   0    0.00    0.05
   5 -12   0    0.11    0.07
   5  12   1    4.76    0.22
  -5 -12  -1    4.69    0.24
   5 -12   1    4.35    0.25
   5  12   2    3.07    0.18
  -5  12  -2    2.75    0.20
   5 -12   2    3.03    0.21
  -5 -12  -2    2.85    0.19
   5  12   3    1.92    0.17
  -5  12  -3    1.79    0.19
   5 -12   3    1.62    0.17
  -5 -12  -3    1.72    0.18
  -5  12  -4    0.06    0.06
   5  12   4    0.08    0.07
  -5 -12  -4    0.08    0.06
   5 -12   4    0.15    0.08
   5  12   5    0.61    0.12
  -5  12  -5    0.64    0.13
  -5 -12  -5    0.52    0.11
   5 -12   5    0.48    0.12
  -5  12  -6    0.65    0.14
   5  12   6    0.44    0.11
  -5 -12  -6    0.18    0.08
   5 -12   6    0.52    0.12
   5  12   7   -0.03    0.07
  -5  12  -7    0.09    0.09
   5 -12   7    0.00    0.09
  -5  12  -8    0.29    0.12
   5  12   8    0.22    0.10
   5 -12   8    0.28    0.12
   5  12   9    0.00    0.09
  -5  12  -9    0.12    0.10
  -5  13  10   -0.03    0.10
   5  13 -10    0.11    0.10
   5  13 -10    0.03    0.10
  -5 -13  10    0.08    0.10
   5  13  -9    0.03    0.10
  -5  13   9    0.08    0.10
  -5  13   9   -0.11    0.07
   5  13  -9    0.03    0.08
  -5 -13   9    0.04    0.10
  -5  13   8    0.25    0.11
   5  13  -8    0.30    0.12
   5  13  -8    0.20    0.11
  -5  13   8    0.09    0.10
  -5 -13   8    0.26    0.11
   5  13  -7    0.04    0.09
  -5  13   7    0.08    0.08
  -5  13   7    0.04    0.08
   5  13  -7   -0.01    0.07
  -5 -13   7    0.17    0.09
  -5  13   6    0.49    0.12
   5  13  -6    0.23    0.10
  -5  13   6    0.27    0.09
   5  13  -6    0.42    0.11
  -5 -13   6    0.30    0.08
   5 -13  -6    0.36    0.11
  -5 -13   6    0.32    0.11
  -5  13   5    0.11    0.07
  -5  13   5   -0.04    0.06
   5  13  -5   -0.04    0.06
   5  13  -5    0.01    0.06
  -5 -13   5    0.03    0.08
  -5 -13   5   -0.02    0.05
   5 -13  -5   -0.03    0.05
  -5  13   4    0.46    0.10
   5  13  -4    0.47    0.12
  -5  13   4    0.43    0.10
   5  13  -4    0.49    0.12
  -5 -13   4    0.41    0.11
   5 -13  -4    0.36    0.10
   5 -13  -4    0.53    0.11
  -5 -13   4    0.45    0.09
  -5  13   3    4.24    0.24
   5  13  -3    3.81    0.24
   5  13  -3    4.17    0.26
  -5 -13   3    4.42    0.25
  -5 -13   3    3.86    0.22
   5 -13  -3    4.00    0.25
   5 -13  -3    4.23    0.24
   5  13  -2   -0.10    0.05
  -5  13   2   -0.01    0.05
   5  13  -2    0.05    0.06
   5 -13  -2    0.03    0.06
  -5 -13   2   -0.04    0.05
   5 -13  -2    0.02    0.06
  -5 -13   2   -0.01    0.06
   5  13  -1   -0.05    0.06
   5  13  -1    0.09    0.07
  -5 -13   1    0.08    0.06
   5 -13  -1    0.10    0.07
   5 -13  -1    0.04    0.05
  -5 -13   1   -0.03    0.05
   5  13   0    1.92    0.15
   5 -13   0    1.60    0.17
  -5 -13   0    2.04    0.15
  -5 -13   0    1.59    0.16
  -5  13  -1    2.13    0.20
   5  13   1    1.70    0.13
   5 -13   1    1.71    0.18
  -5 -13  -1    1.94    0.18
   5  13   2    0.05    0.05
  -5  13  -2    0.04    0.05
   5 -13   2    0.08    0.07
  -5 -13  -2   -0.02    0.05
  -5  13  -3    0.02    0.06
   5  13   3    0.06    0.06
  -5 -13  -3    0.06    0.07
   5 -13   3    0.00    0.06
   5  13   4    1.64    0.17
  -5  13  -4    1.95    0.21
  -5 -13  -4    2.39    0.22
   5 -13   4    1.95    0.20
  -5  13  -5    0.02    0.07
   5  13   5    0.04    0.07
  -5 -13  -5    0.05    0.06
   5 -13   5    0.20    0.09
  -5  13  -6    0.16    0.10
   5  13   6    0.18    0.09
   5 -13   6    0.40    0.12
   5  13   7    0.54    0.12
  -5  13  -7    0.48    0.13
   5 -13   7    0.68    0.16
  -5  13  -8    0.08    0.09
   5  13   8    0.11    0.09
   5 -13   8   -0.16    0.08
   5  13   9    0.15    0.11
  -5  13  -9    0.33    0.14
   5  14 -10    0.10    0.12
   5  14 -10    0.00    0.10
  -5  14  10    0.13    0.11
  -5 -14  10    0.27    0.13
   5  14  -9    0.13    0.11
   5  14  -9    0.10    0.10
  -5  14   9    0.15    0.11
  -5 -14   9    0.13    0.11
   5  14  -8    0.04    0.09
  -5  14   8   -0.01    0.08
   5  14  -8    0.00    0.09
  -5  14   8    0.22    0.09
  -5 -14   8    0.06    0.10
  -5  14   7   -0.02    0.07
  -5  14   7    0.18    0.10
   5  14  -7    0.02    0.08
   5  14  -7    0.10    0.10
  -5 -14   7    0.19    0.10
   5  14  -6    0.32    0.11
   5  14  -6    0.28    0.11
  -5  14   6    0.21    0.09
  -5  14   6    0.35    0.11
  -5 -14   6    0.28    0.11
  -5  14   5    1.50    0.18
   5  14  -5    1.57    0.19
  -5  14   5    1.25    0.16
   5  14  -5    1.30    0.19
  -5 -14   5    1.15    0.17
  -5 -14   5    1.08    0.14
   5 -14  -5    1.40    0.19
  -5  14   4    0.03    0.06
  -5  14   4    0.02    0.05
   5  14  -4    0.09    0.08
   5  14  -4    0.11    0.07
  -5 -14   4    0.07    0.07
  -5 -14   4    0.05    0.06
   5 -14  -4    0.07    0.07
   5 -14  -4    0.04    0.06
   5  14  -3    0.05    0.07
  -5  14   3   -0.01    0.05
   5  14  -3   -0.09    0.05
  -5 -14   3   -0.02    0.05
  -5 -14   3    0.03    0.06
   5 -14  -3    0.03    0.07
   5 -14  -3   -0.01    0.05
   5  14  -2    2.88    0.20
   5  14  -2    2.76    0.21
  -5 -14   2    3.37    0.21
   5 -14  -2    2.72    0.20
   5 -14  -2    2.93    0.21
  -5 -14   2    2.84    0.19
   5  14  -1    0.23    0.08
   5  14  -1    0.16    0.07
  -5 -14   1    0.12    0.07
  -5 -14   1    0.21    0.07
   5 -14  -1    0.14    0.06
   5 -14  -1    0.08    0.07
  -5  14   0    0.12    0.06
   5 -14   0    0.05    0.07
  -5 -14   0    0.00    0.05
  -5  14  -1    3.46    0.23
  -5 -14  -1    3.20    0.21
   5 -14   1    3.42    0.23
   5  14   2    1.18    0.14
  -5  14  -2    1.06    0.16
  -5 -14  -2    0.93    0.13
   5 -14   2    1.09    0.15
   5  14   3    0.13    0.07
  -5  14  -3   -0.03    0.06
   5 -14   3    0.03    0.06
  -5 -14  -3    0.02    0.05
  -5  14  -4    0.13    0.08
  -5 -14  -4    0.22    0.08
   5 -14   4    0.27    0.10
   5  14   5   -0.05    0.06
  -5  14  -5    0.02    0.07
   5 -14   5    0.24    0.10
   5  14   6    0.20    0.09
  -5  14  -6    0.42    0.12
   5 -14   6    0.51    0.13
   5  14   7    0.00    0.07
  -5  14  -7    0.04    0.09
   5 -14   7    0.30    0.12
  -5  14  -8    0.02    0.09
   5  14   8    0.06    0.09
   5 -14   8   -0.02    0.09
   5  15  -9    0.08    0.11
   5  15  -9    0.03    0.10
  -5  15   9    0.08    0.10
  -5 -15   9    0.08    0.11
  -5  15   8    0.26    0.11
   5  15  -8    0.22    0.12
  -5  15   8    0.36    0.12
   5  15  -8    0.24    0.11
  -5 -15   8    0.41    0.14
  -5  15   7    0.04    0.09
  -5  15   7    0.04    0.08
   5  15  -7   -0.01    0.08
   5  15  -7    0.22    0.11
  -5 -15   7    0.08    0.09
   5  15  -6    1.00    0.18
  -5  15   6    1.38    0.19
   5  15  -6    1.32    0.19
  -5  15   6    1.20    0.18
  -5 -15   6    0.96    0.16
   5  15  -5    0.08    0.09
  -5  15   5    0.08    0.08
   5  15  -5    0.07    0.09
  -5  15   5    0.12    0.08
  -5 -15   5    0.13    0.09
  -5 -15   5    0.14    0.07
   5  15  -4    0.28    0.10
  -5  15   4    0.54    0.11
   5  15  -4    0.62    0.14
  -5 -15   4    0.54    0.12
   5 -15  -4    0.40    0.11
  -5 -15   4    0.58    0.11
   5  15  -3    0.05    0.07
   5  15  -3   -0.02    0.06
   5 -15  -3   -0.06    0.06
   5 -15  -3    0.02    0.06
  -5 -15   3    0.07    0.07
  -5 -15   3    0.00    0.05
  -5  15   2   -0.04    0.05
   5  15  -2    0.00    0.06
   5  15  -2    0.09    0.07
  -5 -15   2   -0.04    0.05
   5 -15  -2    0.02    0.06
   5 -15  -2    0.03    0.07
  -5 -15   2   -0.03    0.05
   5  15  -1   -0.01    0.06
   5  15  -1   -0.13    0.05
  -5  15   1    0.00    0.06
  -5 -15   1    0.02    0.05
  -5 -15   1    0.04    0.06
   5 -15  -1    0.06    0.07
  -5  15   0    0.13    0.07
  -5 -15   0    0.22    0.07
   5 -15   0    0.13    0.08
  -5  15  -1    1.14    0.16
  -5 -15  -1    1.14    0.15
   5 -15   1    1.09    0.16
  -5  15  -2    0.30    0.09
   5 -15   2    0.53    0.12
  -5 -15  -2    0.28    0.08
   5  15   3    0.06    0.07
  -5  15  -3    0.10    0.08
   5 -15   3    0.03    0.07
   5  15   4    0.08    0.07
  -5  15  -4   -0.11    0.06
   5 -15   4   -0.03    0.07
  -5  15  -5    0.52    0.13
   5  15   5    0.75    0.13
   5 -15   5    0.72    0.14
   5  15   6    0.00    0.07
  -5  15  -6    0.08    0.09
   5 -15   6    0.06    0.09
  -5  15  -7    0.56    0.15
   5  15   7    0.43    0.13
   5 -15   7    0.65    0.15
   5  15   8   -0.03    0.08
  -5  15  -8    0.00    0.09
   5 -15   8   -0.05    0.09
   5  16  -9    0.03    0.11
   5  16  -8    0.01    0.09
  -5  16   8    0.06    0.09
   5  16  -8    0.07    0.11
  -5 -16   8    0.01    0.10
   5  16  -7    0.09    0.09
   5  16  -7    0.17    0.11
  -5  16   7    0.07    0.09
  -5  16   7    0.10    0.10
  -5 -16   7    0.09    0.09
   5  16  -6    0.21    0.11
  -5  16   6    0.09    0.09
  -5  16   6    0.15    0.09
   5  16  -6    0.04    0.09
  -5 -16   6    0.16    0.10
   5  16  -5    0.48    0.13
  -5  16   5    0.39    0.11
   5  16  -5    0.33    0.12
  -5 -16   5    0.52    0.13
  -5  16   4    1.99    0.21
   5  16  -4    1.47    0.19
   5  16  -4    1.69    0.22
  -5 -16   4    1.36    0.18
  -5 -16   4    1.45    0.17
   5  16  -3    0.02    0.06
   5  16  -3    0.07    0.08
  -5 -16   3    0.06    0.07
  -5 -16   3    0.03    0.06
   5 -16  -3    0.24    0.09
   5 -16  -3   -0.01    0.06
   5  16  -2    0.04    0.08
   5  16  -2    0.02    0.08
  -5 -16   2    0.07    0.07
  -5 -16   2    0.12    0.08
   5 -16  -2    0.09    0.07
   5 -16  -2    0.12    0.09
  -5  16   1    0.75    0.13
   5  16  -1    0.90    0.14
   5 -16  -1    1.07    0.16
  -5 -16   1    0.90    0.14
  -5 -16   1    0.84    0.13
  -5  16   0    0.57    0.12
   5 -16   0    0.70    0.14
  -5 -16   0    0.63    0.12
  -5  16  -1    0.21    0.09
   5 -16   1    0.29    0.10
  -5  16  -2    0.04    0.08
   5 -16   2   -0.02    0.07
  -5  16  -3   -0.12    0.06
   5 -16   3    0.09    0.08
  -5  16  -4    0.34    0.12
   5  16   4    0.55    0.12
   5 -16   4    0.12    0.09
  -5  16  -5    0.10    0.10
   5  16   5    0.27    0.10
   5 -16   5    0.11    0.10
   5  16   6   -0.01    0.08
  -5  16  -6    0.24    0.10
   5 -16   6    0.06    0.10
  -5  16  -7   -0.02    0.09
   5  16   7   -0.07    0.07
   5 -16   7   -0.05    0.09
   5  17  -8    0.03    0.10
  -5  17   8    0.10    0.10
   5  17  -8   -0.03    0.10
  -5 -17   8   -0.01    0.10
   5  17  -7    0.06    0.11
  -5  17   7   -0.01    0.09
  -5  17   7    0.12    0.10
   5  17  -7    0.03    0.09
  -5 -17   7    0.10    0.11
   5  17  -6   -0.02    0.09
  -5  17   6    0.02    0.08
   5  17  -6    0.03    0.09
  -5 -17   6    0.10    0.09
   5  17  -5    0.08    0.09
  -5  17   5    0.21    0.10
   5  17  -5   -0.08    0.07
  -5 -17   5    0.12    0.09
   5  17  -4    0.40    0.12
   5  17  -4    0.42    0.13
  -5 -17   4    0.27    0.10
   5  17  -3    1.38    0.20
   5  17  -3    1.73    0.20
   5 -17  -3    1.67    0.21
   5 -17  -3    1.94    0.21
  -5 -17   3    1.97    0.21
   5  17  -2    0.48    0.13
   5  17  -2    0.56    0.12
   5 -17  -2    0.51    0.13
  -5 -17   2    0.40    0.10
  -5  17   1    0.18    0.09
   5 -17  -1    0.37    0.11
  -5  17   0   -0.04    0.06
   5 -17   0   -0.09    0.07
  -5  17  -1    0.18    0.09
   5 -17   1    0.25    0.11
  -5  17  -2    1.53    0.20
   5 -17   2    1.99    0.22
  -5  17  -3    0.03    0.07
   5 -17   3    0.04    0.09
  -5  17  -4    0.47    0.13
   5 -17   4    0.56    0.14
  -5  17  -5    0.61    0.16
   5  17   5    0.79    0.14
   5 -17   5    0.88    0.17
   5  17   6    0.08    0.09
  -5  17  -6    0.00    0.08
   5 -17   6    0.10    0.11
  -5  17  -7   -0.03    0.09
   5  17   7    0.01    0.08
   5 -17   7    0.03    0.10
   5  18  -7   -0.02    0.10
   5  18  -7    0.08    0.11
  -5 -18   7    0.11    0.11
   5  18  -6    0.93    0.18
   5  18  -6    0.76    0.18
  -5 -18   6    0.64    0.15
   5  18  -5    0.13    0.11
   5  18  -5    0.04    0.09
  -5 -18   5    0.07    0.10
   5  18  -4    0.02    0.09
   5  18  -4    0.01    0.09
  -5 -18   4    0.03    0.08
   5  18  -3    0.09    0.08
   5  18  -3    0.18    0.10
  -5 -18   3    0.06    0.09
   5 -18  -2    0.36    0.11
  -5 -18   2    0.62    0.13
  -5  18   1    0.08    0.08
   5 -18  -1    0.02    0.08
  -5  18   0    0.40    0.12
   5 -18   0    0.33    0.12
  -5  18  -1    1.87    0.22
   5 -18   1    2.28    0.24
  -5  18  -2    0.11    0.09
   5 -18   2    0.06    0.09
  -5  18  -3    0.47    0.13
   5 -18   3    0.36    0.13
  -5  18  -4   -0.02    0.08
   5 -18   4    0.07    0.10
  -5  18  -5    0.13    0.10
   5 -18   5   -0.12    0.09
   5  18   6    0.08    0.09
  -5  18  -6   -0.02    0.10
   5 -18   6    0.10    0.10
   5  19  -6    0.00    0.10
   5  19  -6    0.16    0.13
  -5 -19   6    0.23    0.12
   5  19  -5    0.19    0.11
   5  19  -5    0.21    0.12
  -5 -19   5    0.05    0.09
   5  19  -4    0.07    0.10
  -5 -19   4   -0.01    0.09
   5  19  -3    0.90    0.17
  -5 -19   3    1.17    0.17
   5 -19  -2    0.02    0.08
  -5 -19   2    0.01    0.08
   5 -19  -1    0.40    0.13
  -5  19   0    0.00    0.08
   5 -19   0    0.12    0.11
  -5  19  -1    0.68    0.15
   5 -19   1    0.71    0.15
  -5  19  -2    1.66    0.22
   5 -19   2    1.81    0.22
  -5  19  -3    0.03    0.09
   5 -19   3    0.00    0.09
  -5  19  -4    0.25    0.12
   5 -19   4    0.33    0.12
  -5  19  -5   -0.01    0.09
   5 -19   5   -0.05    0.09
   5  20  -5    0.30    0.13
  -5 -20   5    0.26    0.12
   5  20  -4    1.20    0.21
  -5 -20   4    0.99    0.17
  -5 -20   3    0.22    0.11
   5 -20  -1    0.06    0.09
  -5  20   0    0.23    0.11
   5 -20   0    0.14    0.10
  -5  20  -1   -0.11    0.07
   5 -20   1    0.05    0.09
  -5  20  -2    0.03    0.08
   5 -20   2    0.13    0.11
  -5  20  -3    0.52    0.14
   5 -20   3    0.55    0.14
  -5  20  -4    0.11    0.10
   5 -20   4    0.01    0.10
   5  21  -4    0.04    0.11
  -5 -21   4   -0.04    0.09
  -5 -21   3    0.34    0.13
   5 -21  -1   -0.06    0.09
   5 -21   0    0.24    0.13
  -5  21  -1   -0.09    0.08
   5 -21   1    0.06    0.11
  -5  21  -2    0.72    0.16
   5 -21   2    0.78    0.17
  -6   0  12   -0.02    0.11
  -6   0  11   -0.13    0.08
  -6   0  11    0.15    0.08
  -6   0  10    0.03    0.08
  -6   0  10   -0.06    0.08
   6   0  -9    0.04    0.07
  -6   0   9    0.07    0.08
  -6   0   9    0.01    0.09
  -6   0   8    0.61    0.13
   6   0  -8    0.82    0.12
  -6   0   7   -0.03    0.05
   6   0  -7    0.03    0.06
   6   0  -7   -0.02    0.05
   6   0  -6    1.55    0.16
   6   0  -6    1.72    0.16
   6   0  -5    0.01    0.04
   6   0  -5    0.10    0.05
   6   0  -4    0.72    0.10
   6   0  -4    0.76    0.10
   6   0  -3   -0.01    0.02
   6   0  -3   -0.04    0.02
  -6   0   2    6.20    0.24
   6   0  -2    6.03    0.24
   6   0  -2    6.03    0.24
   6   0  -2    6.16    0.24
   6   0  -1    0.01    0.03
  -6   0   1    0.04    0.03
   6   0  -1   -0.02    0.02
  -6   0   0    0.72    0.07
   6   0   0    0.53    0.07
   6   0   0    0.41    0.06
   6   0   1   -0.01    0.03
   6   0   1   -0.03    0.02
  -6   0  -1    0.01    0.02
  -6   0  -2   52.40    1.23
   6   0   2   50.69    1.26
   6   0   2   52.95    1.25
  -6   0  -3   -0.02    0.02
   6   0   3   -0.03    0.04
   6   0   3    0.04    0.04
   6   0   4   10.38    0.35
   6   0   4   10.58    0.33
   6   0   5    0.05    0.05
   6   0   6    3.68    0.20
   6   0   7    0.06    0.06
   6   0   8    2.16    0.17
   6   0   9    0.04    0.09
  -6   1  12    0.09    0.10
  -6   1  12   -0.01    0.11
  -6   1  11    0.09    0.09
  -6   1  11    0.01    0.10
  -6  -1  11    0.00    0.10
  -6  -1  11   -0.04    0.07
  -6   1  10    0.16    0.11
  -6   1  10    0.02    0.08
  -6  -1  10    0.08    0.10
  -6  -1  10    0.12    0.09
  -6   1   9    1.71    0.21
   6   1  -9    1.70    0.18
   6   1  -9    1.86    0.19
  -6   1   9    1.65    0.21
   6  -1  -9    1.59    0.20
  -6  -1   9    1.81    0.21
  -6  -1   9    1.91    0.21
   6   1  -8    1.61    0.17
  -6   1   8    1.99    0.21
   6   1  -8    1.59    0.18
  -6  -1   8    2.28    0.22
   6  -1  -8    1.98    0.19
   6  -1  -8    1.81    0.18
   6  -1  -8    1.55    0.18
  -6   1   7    2.83    0.21
   6   1  -7    2.87    0.19
   6   1  -7    2.58    0.19
  -6  -1   7    3.07    0.21
   6  -1  -7    2.40    0.19
   6  -1  -7    2.68    0.18
   6  -1  -7    3.05    0.20
   6   1  -6    4.39    0.23
   6   1  -6    4.49    0.23
  -6   1   6    4.87    0.26
   6  -1  -6    4.82    0.26
   6  -1  -6    4.68    0.24
   6  -1  -6    4.74    0.23
   6   1  -5    1.65    0.15
   6   1  -5    1.78    0.14
   6  -1  -5    1.55    0.15
   6  -1  -5    1.60    0.15
   6  -1  -5    1.73    0.13
   6   1  -4    0.33    0.07
   6   1  -4    0.24    0.06
   6  -1  -4    0.35    0.07
   6  -1  -4    0.26    0.07
   6  -1  -4    0.13    0.05
   6   1  -3    1.79    0.13
   6   1  -3    1.79    0.13
   6  -1  -3    1.90    0.13
   6  -1  -3    1.86    0.12
  -6  -1   3    1.99    0.13
   6   1  -2   15.87    0.47
   6   1  -2   16.05    0.47
   6   1  -2   16.48    0.48
  -6  -1   2   16.10    0.48
   6  -1  -2   16.01    0.48
  -6   1   1    3.47    0.16
   6   1  -1    3.51    0.16
   6   1  -1    3.45    0.17
  -6  -1   1    3.40    0.16
   6  -1  -1    3.35    0.16
   6  -1  -1    3.14    0.16
   6   1   0    0.03    0.03
   6   1   0    0.05    0.03
  -6   1   0    0.01    0.02
  -6  -1   0    0.01    0.02
   6  -1   0    0.08    0.04
   6  -1   0    0.07    0.04
  -6   1  -1    0.28    0.04
   6   1   1    0.33    0.06
   6   1   1    0.39    0.06
   6  -1   1    0.38    0.06
  -6  -1  -1    0.33    0.05
   6  -1   1    0.39    0.06
   6   1   2   11.51    0.35
   6   1   2   11.36    0.36
  -6   1  -2   11.67    0.31
   6  -1   2   11.41    0.35
  -6  -1  -2   11.36    0.33
   6  -1   2   11.84    0.36
   6   1   3    7.46    0.27
  -6   1  -3    7.17    0.21
   6   1   3    7.70    0.25
  -6  -1  -3    7.09    0.23
   6  -1   3    7.23    0.26
   6  -1   3    7.42    0.26
   6   1   4   16.01    0.48
   6  -1   4   16.07    0.47
   6  -1   4   16.10    0.46
   6   1   5    0.78    0.10
   6  -1   5    0.85    0.10
   6   1   6    0.03    0.06
   6  -1   6    0.01    0.05
   6   1   7    0.77    0.12
   6  -1   7    0.75    0.11
   6   1   8   -0.06    0.07
   6  -1   8    0.22    0.09
   6   1   9   -0.05    0.08
   6   1  10    0.10    0.10
  -6   2  12    0.08    0.11
  -6   2  12   -0.04    0.11
  -6   2  11    0.22    0.11
  -6   2  11    0.30    0.13
  -6   2  10    0.10    0.10
  -6   2  10    0.12    0.09
  -6  -2  10    0.25    0.11
  -6  -2  10    0.43    0.12
  -6  -2  10    0.30    0.10
  -6   2   9    1.42    0.20
   6   2  -9    1.45    0.17
  -6   2   9    1.18    0.18
   6   2  -9    1.04    0.15
   6  -2  -9    1.09    0.16
  -6  -2   9    1.34    0.17
  -6  -2   9    1.39    0.18
  -6   2   8   -0.03    0.07
   6   2  -8    0.23    0.08
   6   2  -8    0.08    0.07
  -6  -2   8    0.12    0.07
   6  -2  -8    0.09    0.07
   6  -2  -8    0.10    0.05
   6  -2  -8    0.04    0.06
  -6   2   7    8.14    0.38
   6   2  -7    8.68    0.36
   6   2  -7    9.14    0.36
   6  -2  -7    8.54    0.34
   6  -2  -7    8.60    0.39
   6  -2  -7    8.84    0.35
   6   2  -6    6.95    0.30
   6   2  -6    6.71    0.30
  -6   2   6    6.70    0.32
   6  -2  -6    6.53    0.31
   6  -2  -6    6.64    0.28
   6  -2  -6    6.38    0.28
   6   2  -5    0.14    0.06
   6   2  -5    0.16    0.06
  -6  -2   5    0.15    0.06
   6  -2  -5    0.22    0.06
   6  -2  -5    0.18    0.06
   6  -2  -5    0.20    0.06
   6   2  -4    1.00    0.12
   6   2  -4    0.95    0.11
   6  -2  -4    0.80    0.10
   6  -2  -4    1.12    0.13
  -6  -2   4    0.87    0.11
   6   2  -3   35.59    0.93
   6   2  -3   34.93    0.92
  -6  -2   3   35.81    0.94
   6  -2  -3   35.65    0.95
   6  -2  -3   36.67    0.93
   6   2  -2    4.09    0.19
   6   2  -2    3.98    0.18
   6   2  -2    3.98    0.19
   6  -2  -2    4.31    0.20
   6  -2  -2    3.89    0.19
  -6  -2   2    4.16    0.19
   6   2  -1    9.89    0.32
   6   2  -1    9.83    0.33
   6   2  -1   10.23    0.33
   6  -2  -1   10.05    0.33
  -6  -2   1    9.91    0.32
   6  -2  -1   10.05    0.33
   6   2   0    0.71    0.08
  -6   2   0    0.66    0.07
   6   2   0    0.69    0.08
   6  -2   0    0.66    0.08
  -6  -2   0    0.70    0.07
   6  -2   0    0.60    0.08
  -6   2  -1   14.42    0.38
   6   2   1   14.10    0.41
   6   2   1   14.22    0.42
  -6  -2  -1   14.78    0.40
   6  -2   1   14.14    0.41
   6  -2   1   13.41    0.42
  -6   2  -2    3.89    0.13
   6   2   2    3.87    0.17
   6   2   2    4.36    0.18
  -6  -2  -2    4.20    0.16
   6  -2   2    4.01    0.18
   6  -2   2    4.00    0.17
   6   2   3    2.27    0.14
   6   2   3    2.28    0.12
   6  -2   3    2.32    0.14
  -6  -2  -3    2.31    0.12
   6  -2   3    2.70    0.14
   6   2   4    0.15    0.06
  -6  -2  -4    0.17    0.04
   6  -2   4    0.12    0.05
   6  -2   4    0.25    0.06
   6   2   5    4.19    0.21
   6  -2   5    4.23    0.19
   6   2   6    0.09    0.06
   6  -2   6   -0.01    0.05
   6   2   7    0.63    0.12
   6  -2   7    0.71    0.11
   6   2   8    1.94    0.20
   6   2   9    0.21    0.10
   6   2  10    0.15    0.13
  -6   3  12    0.11    0.10
  -6   3  12    0.10    0.12
  -6   3  11    0.10    0.10
  -6   3  11    0.21    0.12
  -6   3  10    0.15    0.09
   6   3 -10    0.14    0.08
   6   3 -10    0.22    0.09
  -6   3  10    0.26    0.11
  -6  -3  10    0.16    0.09
  -6  -3  10    0.12    0.10
  -6   3   9    0.05    0.08
   6   3  -9    0.01    0.06
  -6   3   9    0.00    0.08
   6   3  -9    0.00    0.07
  -6  -3   9    0.12    0.08
   6  -3  -9    0.15    0.08
  -6  -3   9    0.01    0.07
  -6  -3   9    0.02    0.07
   6   3  -8   -0.01    0.06
   6   3  -8    0.14    0.07
  -6   3   8    0.06    0.07
  -6  -3   8   -0.04    0.06
   6  -3  -8    0.03    0.06
   6  -3  -8    0.15    0.07
  -6  -3   8    0.04    0.06
   6   3  -7    0.95    0.13
  -6   3   7    1.00    0.15
   6   3  -7    0.81    0.13
   6  -3  -7    0.62    0.10
   6  -3  -7    0.63    0.12
   6  -3  -7    0.72    0.10
  -6  -3   7    0.86    0.12
   6   3  -6   -0.05    0.04
  -6   3   6    0.03    0.06
   6   3  -6    0.01    0.05
  -6  -3   6   -0.04    0.04
   6  -3  -6    0.06    0.05
   6  -3  -6    0.02    0.05
   6   3  -5    3.33    0.20
   6   3  -5    3.40    0.19
  -6   3   5    3.37    0.21
   6  -3  -5    3.32    0.21
  -6  -3   5    3.49    0.20
   6  -3  -5    3.60    0.20
   6   3  -4    0.18    0.06
   6   3  -4    0.30    0.07
   6  -3  -4    0.20    0.06
  -6  -3   4    0.18    0.05
   6  -3  -4    0.32    0.07
   6   3  -3    1.11    0.12
   6   3  -3    1.15    0.12
   6   3  -3    0.93    0.11
   6  -3  -3    1.17    0.12
  -6  -3   3    0.98    0.10
   6  -3  -3    1.04    0.11
   6   3  -2   15.70    0.47
   6   3  -2   16.15    0.48
   6   3  -2   16.46    0.49
   6  -3  -2   16.27    0.49
   6  -3  -2   16.06    0.48
  -6  -3   2   16.17    0.48
   6   3  -1    2.87    0.14
   6   3  -1    2.73    0.15
   6   3  -1    2.79    0.15
   6  -3  -1    2.83    0.14
   6  -3  -1    2.61    0.14
   6  -3  -1    3.12    0.16
  -6  -3   1    2.94    0.15
   6   3   0   13.61    0.40
   6   3   0   13.50    0.40
   6   3   0   13.00    0.40
   6  -3   0   13.39    0.40
  -6  -3   0   13.50    0.39
   6  -3   0   13.40    0.41
   6   3   1    2.66    0.14
   6   3   1    3.34    0.15
  -6   3  -1    3.16    0.13
   6  -3   1    3.03    0.16
   6  -3   1    3.17    0.15
  -6  -3  -1    3.00    0.14
  -6   3  -2    0.03    0.02
   6   3   2    0.00    0.03
   6   3   2   -0.03    0.03
   6  -3   2   -0.01    0.03
   6  -3   2    0.01    0.03
  -6  -3  -2    0.02    0.03
   6   3   3    7.59    0.27
   6  -3   3    7.18    0.27
  -6  -3  -3    7.01    0.25
   6  -3   3    7.37    0.26
   6   3   4    0.23    0.06
   6  -3   4    0.31    0.06
  -6  -3  -4    0.28    0.06
   6  -3   4    0.29    0.07
   6   3   5    0.09    0.06
   6  -3   5    0.08    0.05
   6  -3   5    0.17    0.06
  -6   3  -6    0.76    0.11
   6   3   6    0.90    0.13
   6  -3   6    0.97    0.11
   6   3   7    0.04    0.07
   6   3   8   -0.03    0.07
   6   3   9    0.10    0.09
   6   3  10    0.11    0.10
   6   3  11    0.08    0.10
  -6   4  12    0.11    0.12
  -6   4  11   -0.06    0.08
  -6   4  11    0.00    0.10
  -6   4  10   -0.09    0.08
   6   4 -10    0.09    0.08
   6   4 -10    0.04    0.07
  -6   4  10   -0.05    0.07
  -6  -4  10    0.04    0.08
   6   4  -9    0.21    0.09
  -6   4   9    0.32    0.12
  -6   4   9    0.16    0.09
   6   4  -9    0.19    0.09
   6  -4  -9    0.21    0.09
  -6  -4   9    0.45    0.12
  -6  -4   9    0.22    0.09
  -6  -4   9    0.22    0.08
  -6   4   8   -0.07    0.05
   6   4  -8    0.02    0.06
   6   4  -8   -0.06    0.05
  -6  -4   8   -0.01    0.05
  -6  -4   8    0.01    0.07
   6  -4  -8    0.01    0.06
  -6   4   7    0.32    0.10
   6   4  -7    0.16    0.08
   6   4  -7    0.13    0.07
   6  -4  -7    0.37    0.09
   6  -4  -7    0.25    0.08
  -6  -4   7    0.22    0.07
   6   4  -6   -0.06    0.04
   6   4  -6   -0.02    0.04
  -6   4   6   -0.03    0.04
   6  -4  -6    0.04    0.05
   6  -4  -6   -0.06    0.04
  -6  -4   6   -0.01    0.04
  -6   4   5    1.30    0.15
   6   4  -5    1.43    0.15
   6   4  -5    1.12    0.14
   6  -4  -5    0.94    0.12
  -6  -4   5    0.96    0.11
   6  -4  -5    1.28    0.14
   6   4  -4   10.84    0.39
  -6   4   4   11.13    0.41
   6   4  -4   11.13    0.39
   6  -4  -4   10.79    0.40
  -6  -4   4   10.66    0.38
   6  -4  -4   11.27    0.38
   6   4  -3   -0.01    0.04
   6   4  -3   -0.03    0.03
   6   4  -3   -0.01    0.03
   6  -4  -3    0.00    0.03
   6  -4  -3    0.04    0.04
  -6  -4   3   -0.01    0.03
   6   4  -2   20.82    0.58
   6   4  -2   19.98    0.58
   6   4  -2   20.22    0.56
   6  -4  -2   19.52    0.58
  -6  -4   2   20.20    0.57
   6  -4  -2   19.22    0.57
   6   4  -1    4.04    0.18
   6   4  -1    3.97    0.19
   6   4  -1    4.19    0.19
  -6  -4   1    4.14    0.18
   6  -4  -1    3.95    0.19
   6  -4  -1    4.03    0.18
   6   4   0    0.02    0.03
   6   4   0    0.06    0.04
   6   4   0   -0.02    0.03
  -6  -4   0    0.06    0.03
   6  -4   0    0.02    0.04
   6  -4   0   -0.01    0.02
   6  -4   0    0.04    0.04
   6   4   1   43.57    1.07
  -6   4  -1   43.60    1.03
   6   4   1   42.38    1.04
  -6  -4  -1   42.58    1.06
   6  -4   1   43.18    1.07
   6  -4   1   42.36    1.06
   6   4   2    6.11    0.22
  -6   4  -2    6.20    0.18
   6   4   2    6.39    0.24
   6  -4   2    6.19    0.23
  -6  -4  -2    6.97    0.24
   6  -4   2    6.81    0.26
   6   4   3    0.08    0.05
   6  -4   3    0.09    0.04
  -6  -4  -3    0.04    0.03
   6  -4   3    0.04    0.05
   6   4   4    5.69    0.25
   6  -4   4    5.94    0.25
   6  -4   4    6.04    0.23
  -6  -4  -4    6.02    0.24
   6   4   5    0.70    0.11
   6  -4   5    0.56    0.08
   6  -4   5    0.58    0.10
   6   4   6    0.19    0.07
  -6   4  -6    0.30    0.08
   6   4   7    0.13    0.07
   6   4   8    0.25    0.10
   6   4   9    0.01    0.08
   6   4  10    0.09    0.09
  -6   5  12    0.06    0.11
  -6   5  11    0.12    0.10
  -6   5  11    0.05    0.10
   6   5 -10    0.87    0.15
  -6   5  10    1.08    0.18
   6   5 -10    1.18    0.17
  -6   5  10    0.96    0.18
  -6  -5  10    1.06    0.17
   6   5  -9    0.24    0.10
   6   5  -9    0.21    0.09
  -6   5   9    0.35    0.11
  -6   5   9    0.43    0.12
  -6  -5   9    0.13    0.08
   6  -5  -9    0.31    0.11
  -6  -5   9    0.33    0.10
   6   5  -8    0.45    0.11
  -6   5   8    0.47    0.11
  -6   5   8    0.41    0.12
   6   5  -8    0.56    0.11
  -6  -5   8    0.41    0.11
   6  -5  -8    0.58    0.12
  -6  -5   8    0.50    0.11
   6   5  -7    0.00    0.06
  -6   5   7    0.09    0.07
   6   5  -7   -0.03    0.06
   6  -5  -7    0.02    0.04
  -6  -5   7   -0.01    0.05
  -6  -5   7   -0.07    0.05
   6  -5  -7   -0.02    0.05
   6   5  -6    0.12    0.07
   6   5  -6    0.18    0.07
  -6   5   6    0.29    0.08
  -6  -5   6    0.24    0.07
   6  -5  -6    0.28    0.08
   6  -5  -6    0.38    0.09
   6   5  -5    1.71    0.17
   6   5  -5    1.40    0.15
  -6   5   5    1.75    0.17
   6  -5  -5    1.78    0.18
   6  -5  -5    1.95    0.17
  -6  -5   5    1.87    0.14
   6   5  -4    2.71    0.17
  -6   5   4    2.73    0.18
   6   5  -4    2.52    0.17
   6  -5  -4    2.90    0.17
  -6  -5   4    2.72    0.16
   6  -5  -4    2.73    0.18
   6   5  -3    1.23    0.13
   6   5  -3    1.25    0.12
  -6   5   3    1.16    0.13
   6   5  -3    1.09    0.12
  -6  -5   3    1.46    0.11
   6  -5  -3    1.19    0.12
   6  -5  -3    1.21    0.13
   6   5  -2   12.57    0.41
   6   5  -2   12.13    0.41
   6   5  -2   12.42    0.39
  -6  -5   2   12.76    0.40
   6  -5  -2   12.80    0.41
   6  -5  -2   12.15    0.41
   6   5  -1    3.28    0.16
   6   5  -1    3.09    0.16
   6   5  -1    2.86    0.16
  -6  -5   1    3.52    0.16
   6  -5  -1    3.33    0.16
   6  -5  -1    2.84    0.16
   6   5   0    3.73    0.18
   6   5   0    3.61    0.17
   6   5   0    3.93    0.17
   6  -5   0    3.71    0.16
   6  -5   0    4.20    0.19
   6  -5   0    3.25    0.16
  -6  -5   0    3.83    0.17
   6   5   1    0.21    0.05
   6   5   1    0.24    0.06
   6   5   1    0.19    0.05
   6  -5   1    0.16    0.05
  -6  -5  -1    0.20    0.05
   6  -5   1    0.29    0.06
   6   5   2   12.90    0.41
   6   5   2   12.94    0.37
   6  -5   2   13.20    0.39
   6  -5   2   12.27    0.41
  -6  -5  -2   13.12    0.40
   6   5   3    1.41    0.13
  -6  -5  -3    1.37    0.12
   6  -5   3    1.29    0.13
   6  -5   3    1.16    0.10
   6   5   4    2.55    0.16
  -6  -5  -4    2.48    0.15
   6  -5   4    2.37    0.16
   6  -5   4    2.59    0.14
   6   5   5    1.70    0.16
  -6   5  -5    1.67    0.16
   6  -5   5    1.59    0.15
  -6  -5  -5    1.59    0.12
   6   5   6    0.01    0.06
  -6   5  -6    0.00    0.05
  -6   5  -7    0.81    0.13
   6   5   7    0.91    0.14
   6   5   8    0.32    0.11
   6   5   9    0.02    0.08
   6   5  10    0.07    0.09
  -6   6  12    0.02    0.11
   6   6 -11    0.31    0.11
  -6   6  11    0.28    0.12
  -6   6  11    0.26    0.12
   6   6 -11    0.22    0.11
  -6  -6  11    0.50    0.13
   6   6 -10    0.48    0.12
  -6   6  10    0.54    0.13
  -6   6  10    0.42    0.13
   6   6 -10    0.43    0.12
  -6  -6  10    0.42    0.12
  -6   6   9    0.11    0.10
  -6   6   9    0.08    0.08
   6   6  -9   -0.06    0.07
   6   6  -9   -0.05    0.06
  -6  -6   9   -0.09    0.06
  -6  -6   9    0.16    0.08
  -6   6   8    1.13    0.17
  -6   6   8    1.12    0.17
   6   6  -8    0.82    0.14
   6   6  -8    1.13    0.16
  -6  -6   8    0.88    0.13
  -6  -6   8    1.16    0.16
   6  -6  -8    0.94    0.15
  -6   6   7    0.61    0.12
   6   6  -7    0.94    0.14
   6   6  -7    0.73    0.13
  -6  -6   7    0.82    0.14
  -6  -6   7    0.74    0.11
   6  -6  -7    0.76    0.11
   6  -6  -7    0.60    0.12
   6   6  -6    0.12    0.06
  -6   6   6   -0.06    0.04
   6   6  -6   -0.06    0.05
   6  -6  -6    0.01    0.05
   6  -6  -6    0.04    0.06
  -6  -6   6   -0.10    0.05
  -6  -6   6   -0.01    0.04
   6   6  -5    2.82    0.19
   6   6  -5    3.20    0.20
  -6   6   5    2.65    0.19
  -6  -6   5    2.79    0.17
   6  -6  -5    3.21    0.19
   6  -6  -5    2.61    0.19
   6   6  -4    0.18    0.07
   6   6  -4    0.18    0.07
  -6   6   4    0.23    0.07
  -6  -6   4    0.13    0.05
   6  -6  -4    0.19    0.06
   6  -6  -4    0.12    0.06
   6   6  -3   13.32    0.44
   6   6  -3   13.07    0.44
   6   6  -3   12.88    0.41
  -6   6   3   13.13    0.45
   6  -6  -3   13.43    0.43
   6  -6  -3   13.04    0.45
  -6  -6   3   13.77    0.43
   6   6  -2    0.12    0.05
   6   6  -2    0.11    0.05
   6   6  -2    0.13    0.05
  -6   6   2    0.17    0.05
   6  -6  -2    0.23    0.06
   6  -6  -2    0.18    0.05
  -6  -6   2    0.20    0.05
   6   6  -1    1.66    0.12
   6   6  -1    1.58    0.11
   6   6  -1    1.53    0.12
   6  -6  -1    1.56    0.11
   6  -6  -1    1.42    0.13
  -6  -6   1    1.48    0.11
   6   6   0   11.33    0.36
   6   6   0   11.85    0.37
   6   6   0   10.88    0.36
  -6  -6   0   12.14    0.37
   6  -6   0   11.57    0.36
   6  -6   0   11.26    0.38
   6   6   1    2.07    0.12
   6   6   1    2.05    0.12
   6   6   1    1.71    0.11
   6  -6   1    1.97    0.14
   6  -6   1    1.95    0.10
   6  -6   1    1.99    0.12
  -6  -6  -1    1.93    0.12
   6   6   2    0.69    0.09
   6  -6   2    0.49    0.09
  -6  -6  -2    0.63    0.08
   6  -6   2    0.68    0.08
   6   6   3    0.43    0.08
   6  -6   3    0.52    0.08
  -6  -6  -3    0.44    0.08
   6  -6   3    0.40    0.08
   6   6   4    1.05    0.12
   6  -6   4    1.00    0.12
  -6  -6  -4    1.10    0.12
   6   6   5    1.13    0.14
  -6   6  -5    1.22    0.15
   6  -6   5    1.26    0.14
  -6  -6  -5    1.39    0.14
   6   6   6    0.11    0.07
  -6   6  -6    0.08    0.06
   6  -6   6    0.15    0.07
   6   6   7    0.19    0.09
  -6   6  -7    0.43    0.11
   6   6   8   -0.04    0.07
   6   6   9    0.11    0.09
   6   6  10   -0.10    0.09
  -6   7  12    0.02    0.11
   6   7 -11   -0.09    0.08
  -6   7  11    0.10    0.08
   6   7 -11    0.10    0.09
  -6   7  11   -0.03    0.08
  -6  -7  11   -0.12    0.08
   6   7 -10    0.01    0.08
  -6   7  10    0.00    0.08
  -6   7  10   -0.10    0.06
   6   7 -10    0.08    0.09
  -6  -7  10    0.04    0.09
  -6   7   9    0.45    0.12
   6   7  -9    0.23    0.10
  -6   7   9    0.41    0.12
   6   7  -9    0.31    0.10
  -6  -7   9    0.29    0.10
  -6   7   8    0.60    0.13
  -6   7   8    0.77    0.14
   6   7  -8    0.84    0.14
   6   7  -8    0.78    0.14
  -6  -7   8    0.73    0.12
   6  -7  -8    0.58    0.13
  -6  -7   8    0.92    0.15
   6   7  -7    0.31    0.10
   6   7  -7    0.21    0.09
  -6   7   7    0.27    0.09
  -6  -7   7    0.41    0.10
   6  -7  -7    0.28    0.09
  -6  -7   7    0.26    0.08
   6   7  -6    0.44    0.10
   6   7  -6    0.75    0.12
  -6   7   6    0.82    0.13
   6  -7  -6    0.55    0.11
  -6  -7   6    0.47    0.09
   6  -7  -6    0.49    0.10
  -6  -7   6    0.65    0.12
   6   7  -5    3.47    0.22
  -6   7   5    3.92    0.23
   6   7  -5    3.24    0.21
   6  -7  -5    3.67    0.23
  -6  -7   5    4.06    0.21
   6  -7  -5    3.46    0.20
  -6  -7   5    3.66    0.22
   6   7  -4    1.72    0.16
   6   7  -4    1.46    0.15
  -6   7   4    1.45    0.15
   6  -7  -4    1.27    0.15
  -6  -7   4    1.33    0.13
   6  -7  -4    1.51    0.15
   6   7  -3    0.37    0.08
   6   7  -3    0.37    0.08
  -6   7   3    0.41    0.08
   6   7  -3    0.49    0.08
   6  -7  -3    0.34    0.07
  -6  -7   3    0.41    0.07
   6  -7  -3    0.45    0.09
  -6   7   2    5.58    0.24
   6   7  -2    5.68    0.24
   6   7  -2    5.32    0.24
   6   7  -2    4.95    0.21
   6  -7  -2    5.04    0.23
  -6  -7   2    4.97    0.22
   6  -7  -2    5.05    0.24
   6   7  -1    0.72    0.10
   6   7  -1    0.69    0.09
  -6   7   1    0.41    0.07
   6   7  -1    0.46    0.08
  -6  -7   1    0.73    0.09
   6  -7  -1    0.67    0.10
   6  -7  -1    0.71    0.09
  -6   7   0    7.19    0.27
   6   7   0    8.24    0.29
   6   7   0    7.60    0.27
   6   7   0    7.32    0.28
   6  -7   0    7.61    0.30
  -6  -7   0    7.51    0.28
   6  -7   0    7.65    0.27
   6   7   1    0.13    0.05
   6   7   1    0.23    0.05
   6   7   1    0.13    0.05
   6  -7   1    0.17    0.04
   6  -7   1    0.09    0.06
  -6  -7  -1    0.25    0.06
   6   7   2    1.30    0.13
   6  -7   2    1.08    0.12
   6  -7   2    1.20    0.09
  -6  -7  -2    1.44    0.13
   6   7   3   10.99    0.38
  -6  -7  -3   10.21    0.37
   6  -7   3   11.69    0.40
   6   7   4    0.32    0.08
  -6  -7  -4    0.32    0.07
   6  -7   4    0.28    0.08
  -6   7  -5   -0.02    0.05
   6   7   5    0.30    0.08
   6  -7   5    0.01    0.06
  -6  -7  -5   -0.02    0.03
   6   7   6    0.03    0.07
  -6   7  -6   -0.02    0.06
   6  -7   6    0.06    0.07
  -6   7  -7    0.92    0.15
   6   7   7    1.08    0.16
   6   7   8    0.39    0.11
  -6   7  -8    0.25    0.10
   6   7   9    0.23    0.11
   6   7  10    0.13    0.10
   6   8 -11   -0.01    0.09
  -6   8  11    0.07    0.09
   6   8 -11    0.08    0.10
  -6  -8  11   -0.10    0.09
   6   8 -10    0.13    0.09
   6   8 -10    0.04    0.08
  -6   8  10    0.14    0.09
  -6   8  10   -0.11    0.07
  -6  -8  10    0.14    0.10
   6   8  -9    0.06    0.08
   6   8  -9    0.00    0.07
  -6   8   9   -0.01    0.07
  -6   8   9    0.00    0.07
  -6  -8   9   -0.08    0.07
  -6   8   8   -0.03    0.07
   6   8  -8    0.16    0.09
  -6   8   8    0.05    0.08
   6   8  -8    0.07    0.08
  -6  -8   8    0.04    0.08
  -6  -8   8   -0.01    0.05
   6  -8  -8    0.10    0.08
   6   8  -7    0.59    0.13
  -6   8   7    0.48    0.11
   6   8  -7    0.26    0.09
  -6   8   7    0.51    0.12
   6  -8  -7    0.69    0.13
  -6  -8   7    0.59    0.12
  -6  -8   7    0.56    0.10
   6   8  -6    0.01    0.05
  -6   8   6    0.04    0.06
   6   8  -6    0.04    0.06
   6  -8  -6    0.03    0.05
  -6  -8   6    0.06    0.05
  -6  -8   6   -0.01    0.06
   6  -8  -6   -0.03    0.05
  -6   8   5    0.06    0.05
   6   8  -5    0.10    0.07
   6   8  -5    0.02    0.06
  -6  -8   5    0.03    0.06
   6  -8  -5    0.17    0.07
  -6  -8   5    0.11    0.05
   6  -8  -5    0.10    0.06
   6   8  -4    0.71    0.12
  -6   8   4    0.83    0.12
   6   8  -4    0.97    0.13
   6  -8  -4    0.89    0.13
  -6  -8   4    0.93    0.13
  -6  -8   4    0.84    0.11
   6  -8  -4    0.93    0.12
  -6   8   3    6.68    0.29
   6   8  -3    7.37    0.30
   6   8  -3    6.79    0.30
   6  -8  -3    6.71    0.29
  -6  -8   3    6.92    0.28
   6  -8  -3    6.76    0.30
  -6  -8   3    6.82    0.29
   6   8  -2    9.25    0.36
  -6   8   2   10.10    0.36
   6   8  -2   10.08    0.36
   6   8  -2    9.52    0.33
  -6  -8   2    9.80    0.35
   6  -8  -2    9.56    0.35
  -6  -8   2    9.25    0.35
   6  -8  -2    9.65    0.36
   6   8  -1   -0.02    0.03
  -6   8   1   -0.02    0.03
   6   8  -1    0.06    0.05
   6   8  -1    0.02    0.04
  -6  -8   1    0.02    0.03
   6  -8  -1   -0.02    0.03
   6  -8  -1    0.00    0.03
   6   8   0    1.39    0.13
   6   8   0    1.13    0.11
   6   8   0    1.10    0.11
  -6   8   0    1.12    0.10
   6  -8   0    1.18    0.11
  -6  -8   0    1.09    0.11
   6  -8   0    0.87    0.11
   6   8   1    1.79    0.12
   6   8   1    1.57    0.12
   6   8   1    1.44    0.11
  -6  -8  -1    1.74    0.12
  -6  -8  -1    1.51    0.11
   6  -8   1    1.86    0.14
   6   8   2    0.02    0.04
   6  -8   2    0.05    0.05
  -6  -8  -2    0.11    0.05
   6   8   3    0.19    0.07
  -6  -8  -3    0.25    0.07
   6  -8   3    0.09    0.06
   6   8   4    4.07    0.22
   6  -8   4    3.34    0.21
  -6  -8  -4    3.48    0.20
  -6   8  -5    2.51    0.22
   6   8   5    2.36    0.18
   6  -8   5    2.40    0.19
  -6  -8  -5    2.31    0.17
   6   8   6    0.30    0.10
  -6   8  -6    0.33    0.10
   6  -8   6    0.25    0.09
   6   8   7    0.27    0.10
  -6   8  -7    0.11    0.08
  -6   8  -8    0.22    0.10
   6   8   8    0.02    0.09
   6   8   9    0.02    0.09
   6   8  10    0.23    0.12
  -6   9  11   -0.05    0.09
   6   9 -11   -0.01    0.09
   6   9 -11    0.08    0.10
  -6  -9  11    0.08    0.09
  -6   9  10    0.21    0.12
   6   9 -10   -0.04    0.08
   6   9 -10   -0.12    0.07
  -6   9  10   -0.05    0.07
  -6  -9  10    0.12    0.09
  -6   9   9    0.05    0.09
   6   9  -9   -0.07    0.07
   6   9  -9   -0.06    0.06
  -6   9   9    0.00    0.08
  -6  -9   9    0.15    0.09
   6   9  -8    0.36    0.11
  -6   9   8    0.52    0.13
   6   9  -8    0.53    0.12
  -6   9   8    0.35    0.12
  -6  -9   8    0.43    0.10
  -6  -9   8    0.62    0.13
  -6   9   7    2.74    0.22
   6   9  -7    2.39    0.23
   6   9  -7    2.51    0.24
  -6   9   7    2.33    0.24
  -6  -9   7    2.29    0.22
  -6  -9   7    2.28    0.17
   6  -9  -7    1.99    0.22
   6   9  -6    0.54    0.11
   6   9  -6    0.48    0.11
  -6   9   6    0.39    0.10
  -6  -9   6    0.27    0.09
   6  -9  -6    0.28    0.09
   6  -9  -6    0.33    0.09
  -6  -9   6    0.34    0.08
  -6   9   5    1.03    0.14
   6   9  -5    1.17    0.16
   6   9  -5    0.98    0.14
  -6  -9   5    0.80    0.11
  -6  -9   5    1.09    0.14
   6  -9  -5    0.69    0.12
   6  -9  -5    0.83    0.12
   6   9  -4    0.59    0.11
   6   9  -4    0.73    0.12
  -6   9   4    0.72    0.12
   6  -9  -4    0.57    0.10
  -6  -9   4    0.64    0.10
  -6  -9   4    0.89    0.13
   6  -9  -4    0.87    0.13
  -6   9   3    4.56    0.23
   6   9  -3    4.68    0.24
   6   9  -3    4.72    0.25
   6   9  -3    4.39    0.20
   6  -9  -3    4.29    0.24
  -6  -9   3    4.19    0.21
   6  -9  -3    4.56    0.24
  -6  -9   3    4.59    0.23
   6   9  -2    3.75    0.21
   6   9  -2    3.83    0.21
  -6   9   2    4.31    0.21
  -6  -9   2    4.08    0.21
   6  -9  -2    3.57    0.21
   6  -9  -2    3.93    0.22
  -6  -9   2    3.86    0.20
   6   9  -1    0.09    0.05
   6   9  -1    0.05    0.05
  -6   9   1    0.01    0.04
   6   9  -1    0.07    0.04
  -6  -9   1    0.14    0.05
   6  -9  -1   -0.02    0.04
  -6  -9   1    0.04    0.05
   6  -9  -1    0.11    0.05
   6   9   0    0.06    0.05
   6   9   0    0.02    0.04
   6   9   0    0.03    0.04
  -6  -9   0   -0.02    0.03
   6  -9   0    0.01    0.03
  -6  -9   0    0.10    0.05
   6  -9   0   -0.04    0.04
   6   9   1    3.74    0.18
   6   9   1    3.48    0.17
   6   9   1    3.62    0.18
  -6  -9  -1    3.53    0.19
  -6  -9  -1    3.51    0.17
   6  -9   1    3.23    0.20
   6   9   2    1.90    0.14
  -6  -9  -2    2.10    0.15
   6  -9   2    2.25    0.17
   6   9   3    0.33    0.07
  -6  -9  -3    0.28    0.07
   6  -9   3    0.29    0.09
   6   9   4    2.02    0.16
  -6   9  -4    1.66    0.18
   6  -9   4    1.66    0.17
  -6  -9  -4    2.03    0.18
  -6   9  -5    0.10    0.07
   6   9   5    0.21    0.08
   6  -9   5    0.16    0.08
  -6  -9  -5    0.08    0.05
   6   9   6    0.20    0.09
  -6   9  -6    0.38    0.11
  -6  -9  -6    0.41    0.09
   6  -9   6    0.42    0.11
  -6   9  -7    0.02    0.08
   6   9   7   -0.04    0.06
   6  -9   7   -0.06    0.08
  -6   9  -8    0.04    0.08
   6   9   8   -0.01    0.08
   6   9   9   -0.13    0.08
   6   9  10    0.00    0.09
  -6  10  11    0.06    0.10
   6  10 -11   -0.05    0.09
   6  10 -11    0.00    0.10
  -6 -10  11    0.15    0.10
  -6  10  10   -0.03    0.07
   6  10 -10    0.02    0.10
   6  10 -10    0.09    0.10
  -6  10  10    0.08    0.10
  -6 -10  10    0.06    0.09
   6  10  -9    0.08    0.09
  -6  10   9   -0.01    0.08
   6  10  -9    0.15    0.09
  -6  10   9    0.01    0.07
  -6 -10   9    0.00    0.08
  -6  10   8    0.25    0.10
   6  10  -8    0.47    0.12
  -6  10   8    0.24    0.11
   6  10  -8    0.20    0.10
  -6 -10   8    0.38    0.12
  -6  10   7    0.89    0.15
   6  10  -7    0.92    0.16
  -6  10   7    1.19    0.17
   6  10  -7    0.94    0.15
  -6 -10   7    0.54    0.13
  -6 -10   7    0.96    0.13
   6 -10  -7    0.65    0.13
   6  10  -6    0.82    0.14
   6  10  -6    0.71    0.13
  -6  10   6    0.74    0.13
  -6  10   6    1.01    0.16
   6 -10  -6    0.72    0.14
  -6 -10   6    0.88    0.12
  -6 -10   6    0.65    0.13
   6  10  -5    3.98    0.25
  -6  10   5    4.93    0.27
   6  10  -5    4.69    0.27
   6 -10  -5    4.14    0.27
   6 -10  -5    4.64    0.24
  -6 -10   5    3.85    0.24
  -6 -10   5    4.22    0.22
   6  10  -4    4.87    0.27
   6  10  -4    4.97    0.26
  -6  10   4    4.18    0.24
   6 -10  -4    4.49    0.26
  -6 -10   4    4.11    0.22
   6 -10  -4    4.31    0.24
  -6 -10   4    4.87    0.26
  -6  10   3   13.31    0.48
   6  10  -3   14.86    0.49
   6  10  -3   14.61    0.50
  -6 -10   3   13.85    0.48
  -6 -10   3   13.38    0.46
   6 -10  -3   14.21    0.48
   6 -10  -3   14.19    0.51
   6  10  -2    8.92    0.32
   6  10  -2    9.04    0.35
   6  10  -2    8.70    0.36
   6 -10  -2    8.82    0.36
  -6 -10   2    9.36    0.35
  -6 -10   2    9.38    0.35
   6 -10  -2    9.41    0.36
   6  10  -1    3.00    0.16
  -6  10   1    3.52    0.18
   6  10  -1    3.30    0.19
   6  10  -1    3.15    0.19
   6 -10  -1    3.29    0.19
  -6 -10   1    3.27    0.18
  -6 -10   1    3.23    0.19
   6 -10  -1    3.54    0.21
   6  10   0    4.52    0.20
   6  10   0    4.50    0.21
   6  10   0    4.52    0.22
  -6 -10   0    3.93    0.21
  -6 -10   0    4.48    0.21
   6 -10   0    4.02    0.23
   6 -10   0    4.24    0.21
   6  10   1    0.11    0.06
  -6 -10  -1    0.15    0.06
   6 -10   1    0.06    0.06
   6  10   2    4.83    0.23
  -6 -10  -2    4.14    0.23
   6 -10   2    4.81    0.25
   6  10   3    2.22    0.16
   6 -10   3    2.00    0.19
  -6 -10  -3    2.16    0.16
  -6  10  -4    0.43    0.10
   6  10   4    0.64    0.11
   6 -10   4    0.59    0.12
  -6 -10  -4    0.61    0.11
  -6  10  -5    0.10    0.07
   6  10   5    0.13    0.07
  -6 -10  -5    0.12    0.06
   6 -10   5    0.09    0.08
   6  10   6    0.30    0.10
  -6  10  -6    0.39    0.11
   6 -10   6    0.56    0.12
  -6 -10  -6    0.28    0.09
   6  10   7    0.39    0.11
  -6  10  -7    0.31    0.11
   6 -10   7    0.40    0.12
   6  10   8    0.08    0.09
  -6  10  -8    0.23    0.10
   6  10   9   -0.08    0.08
  -6  10  -9    0.07    0.09
  -6  11  11    0.04    0.10
   6  11 -11    0.00    0.10
   6  11 -11    0.17    0.12
  -6 -11  11    0.02    0.09
  -6  11  10    0.03    0.09
   6  11 -10    0.01    0.08
   6  11 -10    0.00    0.09
  -6 -11  10   -0.06    0.09
   6  11  -9    0.11    0.09
  -6  11   9    0.17    0.11
   6  11  -9    0.21    0.10
  -6  11   9   -0.04    0.07
  -6 -11   9    0.10    0.10
  -6  11   8   -0.06    0.06
   6  11  -8    0.15    0.09
  -6  11   8    0.00    0.07
   6  11  -8   -0.03    0.07
  -6 -11   8    0.02    0.08
  -6  11   7    0.71    0.14
  -6  11   7    0.68    0.14
   6  11  -7    0.58    0.13
   6  11  -7    0.66    0.14
  -6 -11   7    0.64    0.14
  -6 -11   7    0.55    0.10
   6  11  -6    0.10    0.08
  -6  11   6    0.10    0.09
   6  11  -6    0.01    0.07
  -6  11   6    0.06    0.07
   6 -11  -6    0.12    0.08
  -6 -11   6   -0.03    0.05
  -6 -11   6    0.15    0.09
  -6  11   5    0.57    0.11
  -6  11   5    0.48    0.11
   6  11  -5    0.71    0.13
   6  11  -5    0.33    0.10
  -6 -11   5    0.45    0.11
   6 -11  -5    0.64    0.11
   6 -11  -5    0.63    0.12
  -6 -11   5    0.29    0.08
  -6  11   4    0.25    0.08
   6  11  -4    0.15    0.08
   6  11  -4    0.11    0.08
   6 -11  -4    0.17    0.07
   6 -11  -4    0.14    0.07
  -6 -11   4    0.08    0.06
  -6 -11   4    0.04    0.07
   6  11  -3    1.72    0.18
  -6  11   3    1.81    0.17
   6  11  -3    1.41    0.17
   6 -11  -3    1.67    0.17
  -6 -11   3    1.62    0.15
  -6 -11   3    1.68    0.17
   6 -11  -3    1.61    0.18
  -6  11   2    0.04    0.04
   6  11  -2   -0.04    0.06
   6  11  -2   -0.02    0.06
   6 -11  -2   -0.06    0.05
   6 -11  -2    0.04    0.06
  -6 -11   2   -0.02    0.04
  -6 -11   2    0.12    0.07
   6  11  -1   17.90    0.57
   6  11  -1   17.56    0.55
  -6 -11   1   18.75    0.56
   6 -11  -1   17.62    0.57
   6 -11  -1   18.52    0.59
  -6 -11   1   17.79    0.57
   6  11   0   17.17    0.52
   6  11   0   17.23    0.53
   6  11   0   16.89    0.53
  -6 -11   0   18.57    0.53
   6 -11   0   17.35    0.57
  -6 -11   0   15.93    0.54
   6  11   1    0.39    0.08
   6 -11   1    0.39    0.10
  -6 -11  -1    0.32    0.08
   6  11   2    1.18    0.14
   6 -11   2    1.20    0.15
  -6 -11  -2    1.48    0.15
   6  11   3    1.33    0.15
  -6  11  -3    1.03    0.15
  -6 -11  -3    1.19    0.14
   6 -11   3    0.80    0.13
   6  11   4    0.44    0.10
  -6  11  -4    0.55    0.12
  -6 -11  -4    0.59    0.11
   6 -11   4    0.55    0.11
  -6  11  -5    0.65    0.13
   6  11   5    0.53    0.12
  -6 -11  -5    0.49    0.10
   6 -11   5    0.60    0.13
   6  11   6   -0.08    0.06
  -6  11  -6    0.02    0.07
   6 -11   6    0.05    0.08
  -6 -11  -6    0.08    0.06
   6  11   7    0.32    0.11
  -6  11  -7    0.34    0.12
   6 -11   7    0.43    0.13
  -6  11  -8    0.37    0.12
   6  11   8    0.28    0.11
   6  11   9    0.08    0.09
  -6  11  -9    0.11    0.10
   6  12 -10   -0.08    0.09
   6  12 -10    0.03    0.10
  -6  12  10   -0.11    0.08
  -6 -12  10    0.00    0.10
   6  12  -9   -0.02    0.08
  -6  12   9    0.24    0.11
  -6  12   9    0.07    0.09
   6  12  -9    0.13    0.10
  -6 -12   9    0.27    0.12
   6  12  -8   -0.01    0.08
  -6  12   8   -0.09    0.06
   6  12  -8    0.09    0.09
  -6  12   8    0.03    0.08
  -6 -12   8   -0.07    0.08
   6  12  -7    0.28    0.11
  -6  12   7    0.46    0.12
   6  12  -7    0.19    0.09
  -6  12   7    0.14    0.10
  -6 -12   7    0.33    0.11
  -6 -12   7    0.34    0.09
  -6  12   6    0.10    0.08
   6  12  -6    0.21    0.10
   6  12  -6    0.21    0.10
  -6  12   6    0.14    0.09
  -6 -12   6   -0.01    0.07
   6 -12  -6    0.11    0.07
  -6 -12   6    0.21    0.07
  -6  12   5    0.22    0.08
   6  12  -5    0.15    0.09
  -6  12   5    0.31    0.10
   6  12  -5    0.16    0.09
   6 -12  -5    0.27    0.09
  -6 -12   5    0.26    0.09
   6 -12  -5    0.18    0.08
  -6 -12   5    0.24    0.08
   6  12  -4    0.17    0.08
  -6  12   4    0.20    0.08
   6  12  -4    0.10    0.08
   6 -12  -4    0.17    0.07
   6 -12  -4    0.23    0.09
  -6 -12   4    0.21    0.07
  -6 -12   4    0.06    0.07
  -6  12   3    3.34    0.21
   6  12  -3    3.38    0.22
   6  12  -3    2.68    0.20
  -6 -12   3    3.18    0.19
  -6 -12   3    2.90    0.21
   6 -12  -3    3.25    0.22
   6 -12  -3    3.59    0.22
   6  12  -2    3.58    0.22
   6  12  -2    4.13    0.24
  -6  12   2    3.88    0.21
  -6 -12   2    3.38    0.21
  -6 -12   2    3.76    0.22
   6 -12  -2    3.65    0.22
   6 -12  -2    4.01    0.24
   6  12  -1    3.25    0.21
   6  12  -1    3.75    0.22
  -6 -12   1    3.61    0.21
   6 -12  -1    3.68    0.22
   6 -12  -1    3.90    0.23
  -6 -12   1    4.30    0.22
   6  12   0    3.08    0.19
   6  12   0    3.18    0.19
   6  12   0    3.02    0.17
   6 -12   0    3.10    0.21
  -6 -12   0    2.84    0.19
  -6 -12   0    3.18    0.18
   6  12   1    4.69    0.22
  -6 -12  -1    4.98    0.26
   6 -12   1    4.39    0.26
   6  12   2    4.27    0.22
   6 -12   2    4.15    0.25
  -6 -12  -2    4.15    0.24
   6  12   3    1.36    0.15
  -6  12  -3    1.42    0.18
  -6 -12  -3    1.37    0.16
   6 -12   3    1.26    0.16
  -6  12  -4    0.10    0.07
   6  12   4    0.12    0.08
   6 -12   4    0.11    0.09
  -6 -12  -4    0.05    0.06
   6  12   5    0.38    0.11
  -6  12  -5    0.54    0.13
  -6 -12  -5    0.31    0.09
   6 -12   5    0.36    0.11
  -6  12  -6    0.27    0.11
   6  12   6    0.34    0.11
   6 -12   6    0.27    0.12
   6  12   7    0.37    0.12
  -6  12  -7    0.30    0.11
   6 -12   7    0.47    0.14
  -6  12  -8    0.14    0.11
   6  12   8    0.04    0.09
   6 -12   8    0.03    0.11
  -6  12  -9    0.23    0.12
   6  12   9    0.21    0.11
  -6  13  10    0.06    0.11
   6  13 -10    0.03    0.11
   6  13 -10    0.05    0.10
  -6 -13  10   -0.04    0.09
  -6  13   9    0.05    0.09
   6  13  -9    0.01    0.08
  -6  13   9   -0.06    0.09
   6  13  -9   -0.09    0.08
  -6 -13   9   -0.03    0.09
  -6  13   8    0.81    0.16
   6  13  -8    0.54    0.15
  -6  13   8    0.60    0.14
   6  13  -8    0.59    0.14
  -6 -13   8    0.57    0.15
   6  13  -7    0.17    0.10
   6  13  -7    0.30    0.11
  -6  13   7    0.07    0.09
  -6  13   7    0.46    0.12
  -6 -13   7    0.37    0.12
   6  13  -6    0.01    0.07
   6  13  -6    0.02    0.07
  -6  13   6    0.05    0.07
  -6  13   6    0.04    0.08
  -6 -13   6    0.09    0.06
  -6 -13   6    0.01    0.07
  -6  13   5   -0.02    0.07
  -6  13   5    0.03    0.06
   6  13  -5    0.03    0.07
   6  13  -5    0.00    0.06
   6 -13  -5    0.11    0.08
  -6 -13   5    0.04    0.06
  -6 -13   5    0.01    0.06
   6  13  -4    0.29    0.09
  -6  13   4    0.29    0.09
   6  13  -4    0.27    0.10
  -6  13   4    0.21    0.08
   6 -13  -4    0.26    0.09
   6 -13  -4    0.18    0.08
  -6 -13   4    0.32    0.08
  -6 -13   4    0.09    0.07
  -6  13   3    0.52    0.10
   6  13  -3    0.40    0.10
   6  13  -3    0.53    0.11
   6 -13  -3    0.56    0.11
  -6 -13   3    0.56    0.11
  -6 -13   3    0.22    0.09
   6 -13  -3    0.36    0.10
   6  13  -2    0.75    0.13
   6  13  -2    0.99    0.14
   6 -13  -2    1.03    0.14
  -6 -13   2    0.83    0.13
   6 -13  -2    0.64    0.11
   6  13  -1    6.65    0.32
   6  13  -1    6.75    0.30
  -6 -13   1    7.31    0.31
  -6 -13   1    6.80    0.31
   6 -13  -1    7.25    0.33
   6 -13   0    0.47    0.11
  -6 -13   0    0.67    0.11
   6  13   1    0.50    0.09
   6 -13   1    0.64    0.12
  -6 -13  -1    0.73    0.12
  -6  13  -2    4.41    0.27
   6  13   2    5.20    0.25
   6 -13   2    5.29    0.29
  -6 -13  -2    4.71    0.26
  -6  13  -3   -0.01    0.05
   6  13   3   -0.07    0.05
   6 -13   3   -0.05    0.06
  -6 -13  -3    0.08    0.06
   6  13   4    0.28    0.10
  -6  13  -4    0.33    0.10
   6 -13   4    0.25    0.10
  -6 -13  -4    0.27    0.09
   6  13   5    1.07    0.16
  -6  13  -5    1.41    0.19
   6 -13   5    0.69    0.14
  -6  13  -6    0.07    0.09
   6  13   6    0.06    0.08
   6 -13   6   -0.01    0.09
   6  13   7    0.14    0.10
  -6  13  -7    0.09    0.10
   6 -13   7    0.35    0.13
  -6  13  -8    0.03    0.09
   6  13   8    0.03    0.10
   6 -13   8    0.13    0.11
   6  14  -9   -0.02    0.10
  -6  14   9    0.06    0.10
   6  14  -9    0.10    0.09
  -6 -14   9    0.01    0.10
  -6  14   8    0.27    0.11
  -6  14   8    0.50    0.13
   6  14  -8    0.33    0.12
   6  14  -8    0.14    0.10
  -6 -14   8    0.28    0.11
  -6  14   7   -0.01    0.08
  -6  14   7    0.07    0.09
   6  14  -7    0.25    0.11
   6  14  -7   -0.09    0.07
  -6 -14   7    0.10    0.09
  -6  14   6    0.31    0.11
  -6  14   6    0.23    0.09
   6  14  -6    0.24    0.11
   6  14  -6    0.27    0.11
  -6 -14   6    0.29    0.08
  -6 -14   6    0.26    0.11
  -6  14   5   -0.06    0.07
   6  14  -5    0.00    0.07
  -6  14   5    0.00    0.07
   6  14  -5    0.01    0.07
   6 -14  -5    0.01    0.06
  -6 -14   5    0.02    0.05
  -6 -14   5   -0.04    0.06
   6  14  -4    1.24    0.17
   6  14  -4    1.50    0.20
  -6  14   4    1.11    0.15
  -6  14   4    0.89    0.14
   6 -14  -4    1.41    0.19
  -6 -14   4    1.12    0.14
  -6 -14   4    1.17    0.17
   6 -14  -4    1.13    0.16
   6  14  -3    0.47    0.11
  -6 -14   3    0.44    0.11
   6 -14  -3    0.29    0.09
   6 -14  -3    0.22    0.09
   6  14  -2    0.16    0.07
   6  14  -2    0.17    0.08
   6 -14  -2    0.10    0.08
   6 -14  -2    0.21    0.09
  -6 -14   2   -0.01    0.05
  -6 -14   2    0.13    0.07
   6  14  -1    2.03    0.19
   6  14  -1    2.12    0.20
  -6 -14   1    1.77    0.18
   6 -14  -1    1.95    0.20
  -6 -14   1    1.63    0.17
   6 -14   0    0.17    0.08
  -6 -14   0    0.09    0.06
  -6  14  -1    0.06    0.07
   6  14   1    0.25    0.08
   6 -14   1    0.19    0.09
  -6 -14  -1    0.08    0.06
  -6  14  -2    2.13    0.22
   6  14   2    2.38    0.17
   6 -14   2    2.10    0.21
  -6 -14  -2    2.27    0.21
   6  14   3    0.09    0.07
  -6  14  -3    0.21    0.09
   6 -14   3    0.03    0.07
  -6 -14  -3    0.20    0.08
   6  14   4    1.09    0.15
  -6  14  -4    0.92    0.15
   6 -14   4    1.01    0.16
   6  14   5   -0.05    0.07
  -6  14  -5    0.08    0.08
   6 -14   5    0.07    0.09
   6  14   6    0.08    0.09
  -6  14  -6    0.31    0.11
   6 -14   6    0.13    0.10
   6  14   7    0.30    0.11
  -6  14  -7    0.48    0.14
   6 -14   7    0.40    0.14
   6  14   8    0.05    0.10
  -6  14  -8    0.00    0.09
   6 -14   8    0.13    0.12
  -6  15   9    0.00    0.09
   6  15  -9    0.19    0.11
   6  15  -9    0.00    0.10
  -6 -15   9   -0.14    0.09
  -6  15   8   -0.01    0.08
   6  15  -8    0.17    0.12
   6  15  -8   -0.05    0.08
  -6  15   8    0.07    0.09
  -6 -15   8   -0.09    0.09
   6  15  -7    0.04    0.09
   6  15  -7    0.02    0.09
  -6  15   7    0.05    0.09
  -6  15   7   -0.04    0.07
  -6 -15   7   -0.01    0.08
   6  15  -6    0.07    0.10
   6  15  -6   -0.01    0.07
  -6  15   6   -0.04    0.08
  -6  15   6    0.16    0.09
  -6 -15   6   -0.01    0.08
  -6  15   5    0.24    0.10
  -6  15   5    0.07    0.08
   6  15  -5    0.05    0.08
   6  15  -5    0.07    0.08
  -6 -15   5    0.02    0.08
  -6 -15   5    0.05    0.07
  -6  15   4    1.77    0.20
   6  15  -4    2.04    0.23
   6  15  -4    1.52    0.20
   6 -15  -4    2.49    0.24
   6 -15  -4    2.38    0.25
  -6 -15   4    1.66    0.18
  -6 -15   4    2.38    0.24
   6  15  -3    0.28    0.10
   6  15  -3    0.19    0.09
  -6 -15   3    0.08    0.08
   6 -15  -3    0.14    0.09
   6 -15  -3    0.15    0.08
  -6 -15   3    0.12    0.07
   6  15  -2    1.47    0.18
   6  15  -2    1.31    0.17
  -6 -15   2    1.17    0.15
   6 -15  -2    1.55    0.19
  -6 -15   2    1.24    0.16
   6 -15  -2    1.40    0.18
   6  15  -1    0.23    0.08
  -6 -15   1    0.09    0.07
   6 -15  -1    0.17    0.09
  -6 -15   1    0.08    0.07
  -6  15   0    2.88    0.21
  -6 -15   0    2.64    0.20
   6 -15   0    2.69    0.25
  -6  15  -1    0.44    0.11
  -6 -15  -1    0.38    0.09
   6 -15   1    0.30    0.11
   6  15   2    0.02    0.06
  -6  15  -2    0.07    0.08
   6 -15   2    0.01    0.06
   6  15   3    0.62    0.12
  -6  15  -3    0.33    0.10
   6 -15   3    0.70    0.14
   6  15   4    0.08    0.08
  -6  15  -4    0.04    0.08
   6 -15   4    0.17    0.10
   6  15   5    0.78    0.14
  -6  15  -5    0.77    0.15
   6 -15   5    0.61    0.14
   6  15   6    0.10    0.09
  -6  15  -6    0.00    0.07
   6 -15   6   -0.06    0.09
  -6  15  -7    0.10    0.10
   6  15   7    0.02    0.09
   6 -15   7   -0.07    0.09
  -6  16   8   -0.01    0.09
   6  16  -8    0.11    0.12
   6  16  -8   -0.05    0.08
  -6 -16   8    0.03    0.10
   6  16  -7   -0.07    0.08
   6  16  -7   -0.08    0.08
  -6  16   7    0.04    0.09
  -6  16   7   -0.06    0.08
  -6 -16   7    0.01    0.09
  -6  16   6    0.29    0.11
   6  16  -6    0.45    0.13
   6  16  -6    0.42    0.14
  -6 -16   6    0.32    0.12
   6  16  -5   -0.06    0.07
  -6  16   5    0.12    0.08
   6  16  -5    0.11    0.10
  -6 -16   5    0.04    0.09
   6  16  -4   -0.06    0.07
   6  16  -4    0.14    0.09
  -6 -16   4    0.10    0.08
   6  16  -3    2.65    0.24
   6  16  -3    2.05    0.23
  -6 -16   3    2.66    0.24
   6 -16  -3    2.15    0.23
   6 -16  -3    2.12    0.23
  -6  16   2    0.05    0.07
   6  16  -2    0.11    0.09
   6  16  -2   -0.04    0.08
  -6 -16   2    0.05    0.08
   6 -16  -2   -0.06    0.06
  -6  16   1    0.07    0.08
   6 -16  -1    0.03    0.08
  -6  16   0    0.95    0.15
   6 -16   0    0.57    0.13
  -6  16  -1    0.45    0.11
   6 -16   1    0.57    0.13
  -6  16  -2    0.26    0.10
   6 -16   2    0.27    0.10
   6  16   3    0.51    0.11
  -6  16  -3    0.53    0.13
   6 -16   3    0.43    0.13
  -6  16  -4    0.34    0.12
   6  16   4    0.12    0.09
   6 -16   4    0.08    0.09
  -6  16  -5    0.03    0.08
   6  16   5   -0.02    0.08
   6 -16   5    0.08    0.10
  -6  16  -6    0.62    0.15
   6  16   6    0.51    0.13
   6 -16   6    0.91    0.17
  -6  16  -7    0.11    0.10
   6  16   7   -0.09    0.08
   6 -16   7   -0.09    0.11
   6  17  -8   -0.12    0.10
  -6  17   8    0.14    0.11
   6  17  -7   -0.08    0.08
  -6  17   7   -0.12    0.07
   6  17  -7   -0.11    0.09
  -6 -17   7   -0.11    0.09
   6  17  -6    0.82    0.18
  -6  17   6    0.80    0.16
   6  17  -6    0.42    0.12
  -6 -17   6    0.69    0.16
   6  17  -5    0.13    0.10
   6  17  -5    0.25    0.11
  -6 -17   5    0.20    0.10
   6  17  -4    0.34    0.11
   6  17  -4    0.70    0.15
  -6 -17   4    0.48    0.12
   6  17  -3    0.24    0.10
   6  17  -3    0.00    0.08
   6 -17  -3    0.06    0.08
  -6 -17   3    0.18    0.09
   6  17  -2    0.01    0.08
   6  17  -2    0.03    0.08
   6 -17  -2    0.14    0.09
  -6 -17   2    0.22    0.09
  -6  17   1    0.61    0.12
   6 -17  -1    0.60    0.14
  -6  17   0    0.44    0.12
   6 -17   0    0.52    0.13
  -6  17  -1    0.60    0.13
   6 -17   1    0.78    0.15
  -6  17  -2    0.24    0.11
   6 -17   2    0.51    0.14
  -6  17  -3    1.14    0.19
   6 -17   3    1.33    0.20
   6  17   4    0.02    0.08
  -6  17  -4    0.03    0.07
   6 -17   4   -0.02    0.08
   6  17   5    0.14    0.09
  -6  17  -5    0.03    0.09
   6 -17   5    0.08    0.10
   6  17   6    0.24    0.11
  -6  17  -6    0.12    0.09
   6 -17   6   -0.02    0.10
   6  18  -7   -0.03    0.09
   6  18  -7    0.22    0.13
  -6 -18   7    0.00    0.09
   6  18  -6    0.00    0.10
   6  18  -6    0.07    0.10
  -6 -18   6    0.01    0.10
   6  18  -5    2.04    0.24
   6  18  -5    1.39    0.22
  -6 -18   5    1.52    0.21
   6  18  -4   -0.09    0.08
   6  18  -4   -0.10    0.08
  -6 -18   4    0.04    0.09
   6  18  -3    0.00    0.08
   6  18  -3   -0.08    0.07
  -6 -18   3    0.03    0.08
   6 -18  -3    0.05    0.09
   6 -18  -2    0.43    0.12
  -6 -18   2    0.27    0.11
  -6  18   1    0.61    0.13
   6 -18  -1    0.98    0.17
  -6  18   0    0.08    0.09
   6 -18   0    0.09    0.09
  -6  18  -1    0.14    0.09
   6 -18   1    0.14    0.11
  -6  18  -2    0.15    0.10
   6 -18   2    0.09    0.10
  -6  18  -3    0.45    0.14
   6 -18   3    0.54    0.14
  -6  18  -4    0.13    0.10
   6 -18   4   -0.02    0.09
  -6  18  -5   -0.06    0.08
   6 -18   5   -0.01    0.09
   6  19  -6    0.08    0.10
   6  19  -6    0.09    0.11
  -6 -19   6    0.21    0.12
   6  19  -5    0.06    0.11
   6  19  -5    0.10    0.10
  -6 -19   5    0.14    0.11
   6  19  -4    0.26    0.13
   6  19  -4    0.09    0.10
  -6 -19   4    0.00    0.09
   6  19  -3    0.92    0.18
   6  19  -3    0.95    0.19
  -6 -19   3    0.60    0.14
   6 -19  -2   -0.06    0.08
   6 -19  -1    0.03    0.09
  -6  19   0    0.43    0.13
   6 -19   0    0.45    0.13
  -6  19  -1    0.24    0.10
   6 -19   1    0.31    0.13
  -6  19  -2    0.11    0.10
   6 -19   2    0.10    0.11
  -6  19  -3   -0.05    0.08
   6 -19   3   -0.04    0.09
  -6  19  -4    0.25    0.12
   6 -19   4    0.16    0.11
   6  20  -5   -0.01    0.09
   6  20  -5    0.03    0.09
  -6 -20   5   -0.12    0.08
   6  20  -4   -0.11    0.09
  -6 -20   4    0.01    0.09
  -6 -20   3    0.02    0.09
   6 -20  -2    0.02    0.09
   6 -20  -1    0.06    0.10
  -6  20   0    0.26    0.12
   6 -20   0    0.22    0.12
  -6  20  -1    0.26    0.12
   6 -20   1    0.21    0.11
  -6  20  -2    0.23    0.12
   6 -20   2    0.06    0.10
  -6  20  -3   -0.03    0.08
   6 -20   3    0.11    0.11
   6 -21  -1    0.24    0.13
   6 -21   0    0.50    0.15
  -6  21  -1    0.24    0.12
   6 -21   1    0.05    0.11
  -7   0  12   -0.01    0.11
  -7   0  11    0.02    0.09
  -7   0  11   -0.06    0.09
  -7   0  10    0.01    0.07
  -7   0  10    0.00    0.09
   7   0  -9   -0.10    0.06
   7   0  -9    0.09    0.08
  -7   0   9   -0.11    0.06
   7   0  -8    0.02    0.07
  -7   0   8    0.12    0.08
   7   0  -8    0.15    0.08
   7   0  -7   -0.01    0.06
  -7   0   7   -0.07    0.05
   7   0  -7    0.09    0.07
   7   0  -6    5.23    0.26
   7   0  -6    4.97    0.26
   7   0  -5    0.00    0.04
   7   0  -5    0.00    0.04
   7   0  -4    4.94    0.24
   7   0  -4    4.90    0.23
   7   0  -3   -0.03    0.03
   7   0  -3   -0.03    0.03
   7   0  -2    1.15    0.12
   7   0  -2    0.98    0.12
  -7   0   1   -0.01    0.02
   7   0  -1   -0.03    0.03
   7   0  -1    0.00    0.03
   7   0   0   24.07    0.67
   7   0   0   24.67    0.67
  -7   0   0   24.52    0.65
   7   0   1    0.02    0.04
   7   0   1    0.04    0.04
  -7   0  -1    0.02    0.03
  -7   0  -2    0.03    0.03
   7   0   2    0.00    0.04
   7   0   2    0.08    0.05
   7   0   3    0.02    0.04
   7   0   3   -0.01    0.05
   7   0   4   10.15    0.35
   7   0   5    0.04    0.05
   7   0   6    2.58    0.17
   7   0   7    0.11    0.08
   7   0   8    5.44    0.28
  -7   1  12    0.04    0.11
  -7   1  12    0.03    0.10
  -7   1  11    0.01    0.11
  -7   1  11    0.24    0.11
  -7  -1  11    0.16    0.12
  -7  -1  11    0.00    0.09
  -7   1  10   -0.01    0.09
  -7   1  10    0.07    0.09
  -7  -1  10    0.08    0.09
  -7  -1  10    0.01    0.10
   7   1  -9    0.04    0.07
   7   1  -9   -0.01    0.07
  -7   1   9    0.17    0.09
   7  -1  -9    0.15    0.08
  -7  -1   9    0.03    0.08
   7   1  -8    1.37    0.16
   7   1  -8    1.22    0.16
  -7   1   8    1.25    0.18
  -7  -1   8    1.82    0.21
   7  -1  -8    1.19    0.16
   7  -1  -8    1.23    0.16
   7  -1  -8    0.96    0.14
   7   1  -7    1.60    0.18
  -7   1   7    1.69    0.20
   7   1  -7    1.42    0.16
   7  -1  -7    1.65    0.17
   7  -1  -7    1.11    0.15
   7   1  -6    1.87    0.19
   7   1  -6    2.05    0.19
   7  -1  -6    1.57    0.17
   7  -1  -6    1.81    0.18
   7  -1  -6    1.93    0.18
   7   1  -5    1.31    0.15
   7   1  -5    1.36    0.14
   7  -1  -5    1.21    0.14
   7  -1  -5    1.38    0.14
   7   1  -4    5.13    0.24
   7   1  -4    5.19    0.24
   7  -1  -4    5.06    0.23
   7  -1  -4    4.91    0.24
  -7  -1   4    4.87    0.24
   7   1  -3    2.43    0.16
   7   1  -3    2.64    0.16
  -7  -1   3    2.86    0.17
   7  -1  -3    2.66    0.16
   7   1  -2    1.77    0.13
   7   1  -2    1.58    0.12
   7   1  -2    1.89    0.13
  -7  -1   2    1.93    0.13
   7  -1  -2    1.69    0.15
   7  -1  -2    1.39    0.11
   7   1  -1    3.01    0.17
   7   1  -1    2.99    0.16
  -7   1   1    3.20    0.16
   7  -1  -1    3.19    0.17
   7  -1  -1    2.84    0.16
  -7  -1   1    2.91    0.15
   7   1   0   -0.01    0.03
   7   1   0    0.03    0.04
  -7   1   0    0.01    0.02
  -7  -1   0    0.00    0.02
   7  -1   0    0.00    0.03
   7  -1   0   -0.03    0.03
   7   1   1    3.85    0.19
   7   1   1    4.23    0.19
  -7   1  -1    4.00    0.16
   7  -1   1    3.70    0.18
  -7  -1  -1    4.07    0.16
   7  -1   1    4.15    0.20
  -7   1  -2   25.25    0.63
   7   1   2   24.80    0.68
   7   1   2   24.36    0.67
   7  -1   2   24.55    0.68
   7  -1   2   25.35    0.68
  -7  -1  -2   26.19    0.65
   7   1   3    0.05    0.05
   7   1   3    0.04    0.05
   7  -1   3    0.14    0.05
   7  -1   3    0.17    0.06
  -7  -1  -3   -0.01    0.03
   7   1   4    1.87    0.13
   7  -1   4    2.36    0.14
   7  -1   4    2.11    0.15
   7   1   5    0.05    0.06
   7  -1   5   -0.02    0.05
   7   1   6    0.12    0.07
   7  -1   6    0.08    0.06
   7   1   7    0.50    0.11
   7  -1   7    0.58    0.11
   7   1   8    0.38    0.11
   7  -1   8    0.62    0.12
   7   1   9    0.78    0.14
  -7   2  12    0.04    0.12
  -7   2  11    0.05    0.09
  -7   2  11   -0.06    0.10
  -7  -2  11   -0.06    0.08
   7   2 -10    0.11    0.08
   7   2 -10   -0.01    0.06
  -7   2  10    0.08    0.09
  -7   2  10   -0.03    0.09
  -7  -2  10    0.02    0.08
  -7  -2  10    0.03    0.10
  -7  -2  10   -0.08    0.07
  -7   2   9    1.74    0.21
   7   2  -9    1.43    0.18
   7   2  -9    1.67    0.19
   7  -2  -9    1.81    0.19
  -7  -2   9    1.53    0.20
   7  -2  -9    2.00    0.23
  -7  -2   9    1.25    0.17
   7   2  -8    1.38    0.17
  -7   2   8    1.33    0.18
   7   2  -8    1.46    0.17
   7  -2  -8    1.39    0.16
  -7  -2   8    1.27    0.17
  -7  -2   8    1.34    0.18
   7  -2  -8    1.06    0.15
   7  -2  -8    1.18    0.17
   7   2  -7    3.65    0.23
  -7   2   7    3.71    0.25
   7   2  -7    3.70    0.23
  -7  -2   7    3.95    0.24
   7  -2  -7    3.59    0.21
   7  -2  -7    3.97    0.26
   7  -2  -7    3.84    0.23
  -7   2   6    1.55    0.18
   7   2  -6    1.88    0.18
   7   2  -6    1.72    0.18
   7  -2  -6    1.81    0.17
   7  -2  -6    1.76    0.18
  -7  -2   6    1.98    0.19
   7  -2  -6    2.20    0.17
   7   2  -5    8.02    0.34
   7   2  -5    8.66    0.34
   7  -2  -5    8.18    0.35
  -7  -2   5    8.20    0.34
   7  -2  -5    8.19    0.34
   7   2  -4    0.16    0.06
   7   2  -4    0.08    0.05
   7  -2  -4    0.12    0.06
  -7  -2   4    0.08    0.05
   7  -2  -4    0.27    0.07
   7   2  -3    1.78    0.14
   7   2  -3    2.11    0.15
   7  -2  -3    1.95    0.14
  -7  -2   3    1.80    0.13
   7  -2  -3    1.73    0.13
   7   2  -2    2.17    0.14
   7   2  -2    2.29    0.15
   7   2  -2    2.18    0.15
   7  -2  -2    2.09    0.14
  -7  -2   2    2.37    0.14
   7   2  -1    6.21    0.24
   7   2  -1    5.84    0.25
   7  -2  -1    6.06    0.25
   7  -2  -1    5.93    0.24
  -7  -2   1    5.79    0.23
  -7   2   0    0.74    0.08
   7   2   0    0.68    0.09
   7   2   0    0.67    0.09
   7  -2   0    0.75    0.09
   7  -2   0    0.56    0.09
  -7  -2   0    0.60    0.07
   7   2   1    7.50    0.27
  -7   2  -1    7.32    0.24
   7   2   1    7.14    0.27
   7  -2   1    7.53    0.28
  -7  -2  -1    7.27    0.25
   7  -2   1    7.31    0.27
   7   2   2    0.28    0.07
   7   2   2    0.34    0.07
  -7   2  -2    0.40    0.05
   7  -2   2    0.26    0.07
   7  -2   2    0.42    0.07
  -7  -2  -2    0.39    0.06
   7   2   3    3.83    0.19
  -7  -2  -3    3.97    0.17
   7  -2   3    4.15    0.19
   7  -2   3    4.14    0.20
   7   2   4    0.55    0.09
   7  -2   4    0.53    0.08
   7  -2   4    0.65    0.09
   7   2   5    0.71    0.11
   7  -2   5    0.59    0.09
   7   2   6    1.21    0.14
   7  -2   6    1.04    0.12
   7   2   7    0.20    0.08
   7  -2   7    0.47    0.10
   7   2   8    0.05    0.08
   7   2   9    0.12    0.09
   7   2  10   -0.04    0.09
  -7   3  12   -0.01    0.11
  -7   3  11    0.34    0.14
  -7   3  11    0.36    0.13
   7   3 -10    0.07    0.08
   7   3 -10   -0.02    0.08
  -7   3  10    0.03    0.07
  -7   3  10    0.02    0.09
  -7  -3  10    0.15    0.10
  -7  -3  10    0.09    0.09
  -7   3   9    0.26    0.10
   7   3  -9    0.24    0.10
   7   3  -9    0.27    0.09
  -7  -3   9    0.26    0.09
  -7  -3   9    0.17    0.09
  -7  -3   9    0.24    0.10
   7  -3  -9    0.13    0.10
  -7   3   8    0.28    0.10
   7   3  -8    0.38    0.10
   7   3  -8    0.37    0.10
   7  -3  -8    0.72    0.13
   7  -3  -8    0.31    0.10
  -7  -3   8    0.62    0.12
   7   3  -7    4.56    0.26
   7   3  -7    4.05    0.25
  -7   3   7    4.55    0.27
   7  -3  -7    4.55    0.28
  -7  -3   7    4.34    0.25
   7  -3  -7    4.21    0.25
   7   3  -6    3.18    0.21
  -7   3   6    3.15    0.22
   7   3  -6    3.32    0.21
  -7  -3   6    3.03    0.20
   7  -3  -6    3.29    0.22
   7  -3  -6    3.47    0.21
   7   3  -5    0.69    0.11
   7   3  -5    0.56    0.11
  -7  -3   5    0.78    0.11
   7  -3  -5    0.68    0.11
   7  -3  -5    0.81    0.12
   7   3  -4    0.04    0.05
   7   3  -4   -0.03    0.03
  -7  -3   4    0.10    0.05
   7  -3  -4    0.04    0.05
   7  -3  -4    0.00    0.04
   7   3  -3    4.38    0.22
   7   3  -3    4.49    0.23
   7   3  -3    4.49    0.21
   7  -3  -3    4.12    0.22
   7  -3  -3    4.56    0.22
  -7  -3   3    4.58    0.21
   7   3  -2    1.14    0.12
   7   3  -2    1.31    0.13
   7   3  -2    1.52    0.14
   7  -3  -2    1.21    0.13
  -7  -3   2    1.18    0.11
   7  -3  -2    1.13    0.12
   7   3  -1    0.54    0.08
   7   3  -1    0.54    0.08
   7   3  -1    0.41    0.08
  -7  -3   1    0.51    0.07
   7  -3  -1    0.56    0.09
   7  -3  -1    0.58    0.09
  -7   3   0    4.08    0.17
   7   3   0    4.09    0.19
   7   3   0    3.94    0.19
  -7  -3   0    4.07    0.18
   7  -3   0    4.09    0.20
   7  -3   0    3.78    0.18
   7   3   1    2.79    0.16
   7   3   1    3.03    0.16
  -7   3  -1    3.07    0.13
   7  -3   1    2.92    0.17
  -7  -3  -1    2.92    0.14
   7  -3   1    2.84    0.15
   7   3   2    4.24    0.19
   7   3   2    4.13    0.20
   7  -3   2    3.89    0.19
  -7  -3  -2    4.33    0.18
   7  -3   2    4.36    0.21
   7   3   3    4.56    0.21
   7  -3   3    4.05    0.21
   7  -3   3    4.07    0.19
  -7  -3  -3    4.54    0.19
   7   3   4    0.09    0.06
   7  -3   4    0.12    0.06
   7  -3   4   -0.02    0.04
   7   3   5    0.18    0.07
   7  -3   5    0.29    0.07
   7   3   6    0.03    0.05
  -7   3  -6   -0.07    0.04
   7  -3   6    0.05    0.06
   7   3   7   -0.02    0.06
   7   3   8    0.00    0.07
   7   3   9    0.32    0.12
   7   3  10    0.00    0.09
  -7   4  12    0.09    0.12
  -7   4  11    0.04    0.09
  -7   4  11    0.19    0.11
   7   4 -10   -0.03    0.07
   7   4 -10    0.22    0.10
  -7   4  10   -0.09    0.07
  -7   4  10    0.07    0.07
  -7  -4  10    0.14    0.09
   7   4  -9    0.24    0.09
   7   4  -9    0.35    0.10
  -7   4   9    0.21    0.11
  -7   4   9    0.35    0.11
  -7  -4   9    0.37    0.10
  -7  -4   9    0.38    0.11
  -7  -4   9    0.46    0.12
   7   4  -8    0.46    0.11
   7   4  -8    0.38    0.10
  -7   4   8    0.38    0.11
   7  -4  -8    0.38    0.10
   7  -4  -8    0.41    0.10
  -7  -4   8    0.55    0.11
   7   4  -7    0.40    0.10
  -7   4   7    0.41    0.10
   7   4  -7    0.07    0.07
   7  -4  -7    0.21    0.08
   7  -4  -7    0.36    0.10
  -7  -4   7    0.41    0.09
   7   4  -6    2.53    0.19
  -7   4   6    2.40    0.19
   7   4  -6    2.45    0.18
  -7  -4   6    2.23    0.17
   7  -4  -6    2.37    0.18
   7  -4  -6    2.48    0.20
   7   4  -5    1.67    0.17
  -7   4   5    1.59    0.17
   7   4  -5    1.66    0.17
   7  -4  -5    1.90    0.18
   7  -4  -5    1.63    0.17
  -7  -4   5    2.05    0.15
   7   4  -4    9.97    0.38
   7   4  -4    9.72    0.37
   7  -4  -4    9.72    0.37
  -7  -4   4    9.75    0.36
   7  -4  -4    9.30    0.38
   7   4  -3   -0.01    0.04
   7   4  -3    0.00    0.05
   7   4  -3   -0.03    0.03
   7  -4  -3   -0.04    0.03
   7  -4  -3   -0.03    0.03
  -7  -4   3    0.00    0.03
   7   4  -2    0.69    0.09
   7   4  -2    0.71    0.10
   7   4  -2    0.87    0.11
   7  -4  -2    0.70    0.10
   7  -4  -2    0.70    0.09
  -7  -4   2    0.84    0.10
   7   4  -1   10.12    0.35
   7   4  -1    9.56    0.33
   7   4  -1   10.02    0.35
  -7  -4   1    9.61    0.33
   7  -4  -1    9.13    0.34
   7  -4  -1    9.81    0.34
   7   4   0    0.79    0.10
   7   4   0    0.73    0.09
   7   4   0    0.84    0.10
   7  -4   0    0.78    0.10
  -7  -4   0    0.76    0.09
   7  -4   0    0.73    0.09
  -7   4  -1    0.41    0.06
   7   4   1    0.40    0.07
   7   4   1    0.41    0.07
   7  -4   1    0.44    0.08
  -7  -4  -1    0.33    0.06
   7  -4   1    0.37    0.07
   7   4   2    4.13    0.18
   7   4   2    4.31    0.20
   7  -4   2    4.09    0.19
   7  -4   2    4.11    0.21
  -7  -4  -2    4.39    0.19
   7   4   3    5.11    0.23
   7  -4   3    4.87    0.23
  -7  -4  -3    4.99    0.21
   7  -4   3    4.97    0.21
   7   4   4    4.29    0.22
   7  -4   4    4.44    0.20
  -7  -4  -4    4.12    0.20
   7  -4   4    4.49    0.22
   7   4   5    0.30    0.08
   7  -4   5    0.32    0.08
   7  -4   5    0.35    0.07
  -7   4  -6    0.05    0.06
   7   4   6    0.02    0.06
   7   4   7   -0.11    0.05
   7   4   8    0.51    0.12
   7   4   9    0.01    0.07
   7   4  10    0.06    0.10
  -7   5  12    0.07    0.11
  -7   5  11   -0.07    0.08
   7   5 -11   -0.05    0.08
   7   5 -11    0.12    0.10
  -7   5  11    0.08    0.10
  -7  -5  11   -0.03    0.08
   7   5 -10    0.21    0.10
  -7   5  10    0.18    0.10
   7   5 -10    0.28    0.11
  -7   5  10    0.20    0.11
  -7  -5  10    0.17    0.10
   7   5  -9    1.17    0.18
  -7   5   9    0.78    0.16
  -7   5   9    1.51    0.20
   7   5  -9    0.99    0.16
  -7  -5   9    1.22    0.18
  -7  -5   9    1.03    0.16
  -7  -5   9    1.13    0.16
   7   5  -8    0.80    0.14
   7   5  -8    0.43    0.11
  -7   5   8    0.68    0.14
   7  -5  -8    0.50    0.12
  -7  -5   8    0.79    0.14
   7  -5  -8    0.78    0.13
  -7  -5   8    0.80    0.13
   7   5  -7    2.96    0.22
  -7   5   7    2.88    0.22
   7   5  -7    3.07    0.21
   7  -5  -7    3.18    0.21
  -7  -5   7    3.09    0.21
   7  -5  -7    3.07    0.23
   7   5  -6    0.88    0.13
  -7   5   6    0.77    0.13
   7   5  -6    0.71    0.12
   7  -5  -6    0.72    0.12
   7  -5  -6    0.69    0.12
  -7  -5   6    0.75    0.11
   7   5  -5    0.00    0.04
   7   5  -5   -0.01    0.04
  -7   5   5    0.04    0.05
   7  -5  -5    0.03    0.04
   7  -5  -5   -0.04    0.04
  -7  -5   5   -0.03    0.04
   7   5  -4    3.94    0.22
  -7   5   4    3.24    0.21
   7   5  -4    3.69    0.21
  -7  -5   4    3.65    0.20
   7  -5  -4    3.43    0.21
   7  -5  -4    4.46    0.22
   7   5  -3    5.78    0.27
   7   5  -3    6.10    0.27
   7   5  -3    5.90    0.25
  -7  -5   3    5.98    0.26
   7  -5  -3    5.92    0.27
   7  -5  -3    6.19    0.27
   7   5  -2    0.52    0.09
   7   5  -2    0.41    0.08
   7   5  -2    0.38    0.07
   7  -5  -2    0.48    0.08
  -7  -5   2    0.48    0.08
   7  -5  -2    0.30    0.07
   7   5  -1    5.10    0.23
   7   5  -1    4.74    0.22
   7   5  -1    4.72    0.21
   7  -5  -1    4.76    0.23
  -7  -5   1    4.35    0.20
   7  -5  -1    4.59    0.21
   7   5   0    2.79    0.16
   7   5   0    2.76    0.16
   7   5   0    2.66    0.15
  -7  -5   0    2.78    0.15
   7  -5   0    2.73    0.16
   7  -5   0    2.92    0.17
   7   5   1   11.59    0.37
   7   5   1   11.80    0.39
  -7  -5  -1   11.91    0.38
   7  -5   1   11.97    0.40
   7  -5   1   11.79    0.38
   7   5   2    5.62    0.24
   7  -5   2    6.03    0.26
   7  -5   2    6.16    0.24
  -7  -5  -2    5.97    0.24
   7   5   3    0.13    0.06
   7  -5   3    0.01    0.05
  -7  -5  -3    0.13    0.05
   7  -5   3    0.07    0.05
   7   5   4    0.27    0.08
  -7  -5  -4    0.28    0.06
   7  -5   4    0.18    0.07
   7  -5   4    0.33    0.07
   7   5   5    0.65    0.11
   7  -5   5    0.62    0.11
  -7   5  -6    0.98    0.14
   7   5   6    0.86    0.13
   7   5   7   -0.01    0.07
   7   5   8    0.09    0.09
   7   5   9    0.05    0.09
   7   5  10   -0.04    0.09
  -7   6  12    0.34    0.14
  -7   6  11    0.54    0.14
  -7   6  11    0.30    0.14
   7   6 -11    0.52    0.14
   7   6 -11    0.40    0.13
  -7  -6  11    0.35    0.13
   7   6 -10    0.13    0.09
   7   6 -10    0.13    0.10
  -7   6  10    0.28    0.13
  -7   6  10    0.13    0.09
  -7  -6  10    0.32    0.12
  -7   6   9    0.09    0.08
   7   6  -9    0.10    0.08
   7   6  -9   -0.09    0.07
  -7   6   9   -0.01    0.08
  -7  -6   9    0.03    0.07
  -7  -6   9    0.05    0.08
   7   6  -8    0.44    0.11
   7   6  -8    0.44    0.12
  -7   6   8    0.59    0.14
  -7  -6   8    0.51    0.12
  -7  -6   8    0.43    0.10
   7  -6  -8    0.46    0.12
  -7   6   7    1.42    0.19
   7   6  -7    0.85    0.14
   7   6  -7    0.85    0.14
   7  -6  -7    0.82    0.14
  -7  -6   7    0.89    0.13
   7  -6  -7    1.07    0.15
  -7  -6   7    1.03    0.16
   7   6  -6    0.23    0.08
  -7   6   6    0.33    0.10
   7   6  -6    0.46    0.11
  -7  -6   6    0.30    0.08
   7  -6  -6    0.39    0.10
   7  -6  -6    0.39    0.09
  -7   6   5    7.57    0.35
   7   6  -5    6.78    0.32
   7   6  -5    7.06    0.33
   7  -6  -5    7.55    0.32
   7  -6  -5    7.24    0.34
  -7  -6   5    7.63    0.32
   7   6  -4    1.36    0.15
  -7   6   4    1.50    0.16
   7   6  -4    1.32    0.15
   7  -6  -4    1.19    0.14
   7  -6  -4    1.33    0.15
  -7  -6   4    1.09    0.12
   7   6  -3    0.05    0.05
  -7   6   3    0.05    0.04
   7   6  -3    0.01    0.05
   7   6  -3    0.06    0.05
   7  -6  -3    0.02    0.04
   7  -6  -3    0.00    0.04
  -7  -6   3    0.01    0.03
   7   6  -2    2.31    0.14
   7   6  -2    2.69    0.17
   7   6  -2    2.27    0.16
   7  -6  -2    2.05    0.15
  -7  -6   2    1.92    0.13
   7  -6  -2    2.41    0.16
   7   6  -1    0.83    0.11
   7   6  -1    1.12    0.11
   7   6  -1    1.09    0.12
   7  -6  -1    0.81    0.10
  -7  -6   1    0.91    0.10
   7  -6  -1    0.80    0.11
   7   6   0    4.38    0.20
   7   6   0    4.28    0.20
   7   6   0    4.16    0.20
  -7  -6   0    4.24    0.20
   7  -6   0    4.32    0.22
   7  -6   0    4.34    0.19
   7   6   1    3.15    0.17
   7   6   1    3.33    0.17
   7  -6   1    3.39    0.20
   7  -6   1    3.24    0.17
  -7  -6  -1    3.27    0.17
   7   6   2    0.17    0.06
   7  -6   2    0.16    0.05
   7  -6   2    0.12    0.07
  -7  -6  -2    0.15    0.05
   7   6   3    0.37    0.08
   7  -6   3    0.36    0.07
   7  -6   3    0.54    0.10
  -7  -6  -3    0.49    0.08
   7   6   4    0.02    0.05
   7  -6   4    0.02    0.05
  -7  -6  -4   -0.02    0.03
   7   6   5   -0.01    0.05
   7  -6   5    0.02    0.06
   7   6   6   -0.03    0.06
  -7   6  -6    0.00    0.07
  -7   6  -7    0.53    0.11
   7   6   7    0.84    0.14
   7   6   8    0.50    0.12
   7   6   9    0.31    0.11
   7   6  10   -0.01    0.09
   7   7 -11    0.20    0.11
   7   7 -11    0.27    0.11
  -7   7  11    0.23    0.13
  -7  -7  11    0.20    0.11
   7   7 -10    0.06    0.09
   7   7 -10   -0.06    0.07
  -7   7  10   -0.08    0.08
  -7   7  10    0.03    0.08
  -7  -7  10    0.03    0.09
  -7   7   9    0.12    0.09
   7   7  -9    0.02    0.08
  -7   7   9    0.01    0.09
   7   7  -9    0.11    0.08
  -7  -7   9    0.06    0.07
  -7  -7   9    0.28    0.11
  -7   7   8   -0.02    0.06
   7   7  -8    0.02    0.07
  -7   7   8    0.00    0.07
   7   7  -8   -0.07    0.06
   7  -7  -8   -0.05    0.05
  -7  -7   8   -0.07    0.07
  -7  -7   8   -0.09    0.05
  -7   7   7    0.30    0.10
   7   7  -7    0.65    0.14
   7   7  -7    0.46    0.12
  -7  -7   7    0.39    0.10
   7  -7  -7    0.54    0.12
  -7  -7   7    0.21    0.08
   7  -7  -7    0.26    0.09
  -7   7   6   -0.02    0.06
   7   7  -6   -0.01    0.06
   7   7  -6    0.06    0.07
   7  -7  -6   -0.01    0.05
   7  -7  -6    0.04    0.06
  -7  -7   6   -0.02    0.06
  -7  -7   6    0.02    0.05
   7   7  -5    0.05    0.06
   7   7  -5    0.03    0.06
  -7   7   5    0.07    0.06
   7  -7  -5   -0.03    0.05
  -7  -7   5    0.06    0.05
   7  -7  -5    0.07    0.07
   7   7  -4    2.56    0.18
  -7   7   4    2.29    0.18
   7   7  -4    2.46    0.18
   7  -7  -4    2.13    0.17
   7  -7  -4    2.36    0.17
  -7  -7   4    2.24    0.16
   7   7  -3    7.44    0.32
   7   7  -3    7.42    0.29
   7   7  -3    7.72    0.32
  -7   7   3    7.40    0.32
  -7  -7   3    7.31    0.30
   7  -7  -3    7.67    0.32
   7  -7  -3    7.15    0.32
  -7   7   2    1.84    0.14
   7   7  -2    1.78    0.13
   7   7  -2    1.90    0.15
   7   7  -2    1.83    0.17
   7  -7  -2    1.77    0.16
  -7  -7   2    1.66    0.12
   7  -7  -2    1.76    0.14
  -7   7   1    0.10    0.05
   7   7  -1    0.10    0.05
   7   7  -1    0.13    0.06
   7   7  -1    0.11    0.05
   7  -7  -1    0.06    0.04
   7  -7  -1    0.07    0.05
  -7  -7   1    0.12    0.05
   7   7   0    5.13    0.22
   7   7   0    4.85    0.22
   7   7   0    4.91    0.22
   7  -7   0    5.06    0.21
  -7  -7   0    4.61    0.21
   7  -7   0    4.78    0.24
   7   7   1   12.02    0.39
   7   7   1   12.11    0.38
   7   7   1   11.76    0.40
   7  -7   1   11.83    0.39
  -7  -7  -1   12.13    0.40
   7  -7   1   11.92    0.42
   7   7   2    0.28    0.07
  -7  -7  -2    0.18    0.06
   7  -7   2    0.16    0.06
   7  -7   2    0.24    0.07
   7   7   3    1.35    0.14
   7  -7   3    1.04    0.13
  -7  -7  -3    1.23    0.13
   7   7   4    0.09    0.06
  -7  -7  -4    0.02    0.04
   7  -7   4    0.11    0.07
  -7   7  -5    0.05    0.06
   7   7   5    0.23    0.09
   7  -7   5    0.18    0.08
  -7   7  -6    0.73    0.13
   7   7   6    0.79    0.13
   7  -7   6    0.75    0.13
   7   7   7    0.67    0.13
  -7   7  -7    0.49    0.12
   7   7   8    0.22    0.11
   7   7   9    0.35    0.13
   7   7  10    0.09    0.11
   7   8 -11   -0.06    0.08
  -7   8  11   -0.03    0.09
   7   8 -11   -0.02    0.09
  -7  -8  11    0.02    0.09
   7   8 -10    0.01    0.08
  -7   8  10   -0.07    0.08
  -7   8  10    0.02    0.08
   7   8 -10    0.01    0.08
  -7  -8  10    0.01    0.08
   7   8  -9    0.05    0.08
  -7   8   9    0.21    0.10
  -7   8   9    0.14    0.11
   7   8  -9    0.30    0.11
  -7  -8   9    0.13    0.09
   7   8  -8    0.15    0.08
  -7   8   8    0.04    0.08
  -7   8   8    0.08    0.09
   7   8  -8    0.10    0.09
  -7  -8   8    0.18    0.09
  -7  -8   8   -0.03    0.06
  -7   8   7    1.01    0.16
   7   8  -7    0.72    0.14
   7   8  -7    0.43    0.11
  -7  -8   7    0.71    0.12
  -7  -8   7    0.75    0.13
   7  -8  -7    0.70    0.13
   7   8  -6    1.06    0.16
  -7   8   6    1.48    0.18
   7   8  -6    1.36    0.17
  -7  -8   6    1.25    0.16
  -7  -8   6    1.44    0.16
   7  -8  -6    1.39    0.16
   7  -8  -6    1.35    0.18
  -7   8   5    0.00    0.05
   7   8  -5    0.16    0.08
   7   8  -5   -0.01    0.06
  -7  -8   5    0.03    0.05
   7  -8  -5    0.15    0.07
  -7  -8   5    0.01    0.07
   7  -8  -5    0.03    0.06
  -7   8   4    4.73    0.26
   7   8  -4    4.75    0.26
   7   8  -4    5.12    0.27
  -7  -8   4    4.99    0.27
   7  -8  -4    4.43    0.26
  -7  -8   4    5.06    0.24
   7  -8  -4    4.79    0.25
   7   8  -3    0.39    0.08
   7   8  -3    0.30    0.08
   7   8  -3    0.33    0.08
  -7   8   3    0.30    0.08
   7  -8  -3    0.42    0.09
   7  -8  -3    0.25    0.07
  -7  -8   3    0.19    0.05
   7   8  -2    7.94    0.30
   7   8  -2    7.68    0.32
  -7   8   2    7.75    0.32
   7   8  -2    8.38    0.33
  -7  -8   2    8.20    0.32
   7  -8  -2    7.99    0.33
   7  -8  -2    7.67    0.32
   7   8  -1    0.21    0.06
   7   8  -1    0.00    0.05
  -7   8   1    0.11    0.05
   7   8  -1    0.20    0.06
  -7  -8   1    0.12    0.05
   7  -8  -1    0.08    0.06
   7   8   0    1.49    0.12
   7   8   0    1.94    0.14
   7   8   0    1.94    0.14
   7  -8   0    1.84    0.12
  -7  -8   0    1.67    0.13
   7  -8   0    1.93    0.17
   7   8   1    6.29    0.27
   7   8   1    6.58    0.26
  -7  -8  -1    6.32    0.27
   7  -8   1    6.80    0.30
   7   8   2    0.24    0.07
  -7  -8  -2    0.15    0.06
   7  -8   2    0.26    0.08
   7   8   3    1.62    0.16
   7  -8   3    1.58    0.17
  -7  -8  -3    1.85    0.17
   7   8   4    0.25    0.08
  -7  -8  -4    0.22    0.06
   7  -8   4    0.26    0.09
   7   8   5    0.73    0.12
  -7   8  -5    0.78    0.13
  -7  -8  -5    0.76    0.11
   7  -8   5    0.90    0.14
  -7   8  -6    0.07    0.08
   7   8   6    0.15    0.08
   7  -8   6    0.07    0.08
   7   8   7   -0.02    0.07
  -7   8  -7    0.13    0.09
  -7   8  -8    0.91    0.17
   7   8   8    0.74    0.15
   7   8   9    0.08    0.10
  -7   9  11    0.11    0.11
   7   9 -11   -0.08    0.08
   7   9 -11   -0.07    0.09
  -7  -9  11   -0.13    0.09
   7   9 -10    0.18    0.10
  -7   9  10    0.18    0.11
   7   9 -10    0.14    0.10
  -7   9  10    0.29    0.12
  -7   9   9    0.25    0.10
   7   9  -9    0.12    0.09
   7   9  -9    0.23    0.11
  -7   9   9    0.03    0.09
  -7  -9   9    0.25    0.11
   7   9  -8    0.06    0.08
  -7   9   8    0.01    0.07
  -7   9   8    0.06    0.08
   7   9  -8    0.07    0.09
  -7  -9   8    0.13    0.07
  -7  -9   8    0.10    0.08
   7   9  -7    0.05    0.08
   7   9  -7    0.07    0.08
  -7   9   7    0.00    0.06
  -7   9   7    0.09    0.08
  -7  -9   7   -0.02    0.05
  -7  -9   7    0.28    0.10
   7  -9  -7    0.19    0.09
  -7   9   6    3.91    0.25
   7   9  -6    3.17    0.23
   7   9  -6    4.29    0.27
   7  -9  -6    3.95    0.24
   7  -9  -6    3.84    0.27
  -7  -9   6    4.20    0.26
  -7  -9   6    3.95    0.23
  -7   9   5    2.73    0.21
   7   9  -5    2.75    0.21
   7   9  -5    2.29    0.22
   7  -9  -5    2.56    0.19
  -7  -9   5    2.96    0.19
   7  -9  -5    2.65    0.24
  -7  -9   5    2.53    0.23
  -7   9   4    1.26    0.16
   7   9  -4    1.49    0.17
   7   9  -4    1.33    0.17
  -7  -9   4    1.57    0.15
  -7  -9   4    1.37    0.16
   7  -9  -4    1.45    0.16
   7  -9  -4    1.09    0.15
   7   9  -3    0.01    0.04
   7   9  -3    0.13    0.07
   7   9  -3    0.36    0.09
  -7   9   3    0.08    0.06
  -7  -9   3    0.06    0.07
   7  -9  -3    0.13    0.07
  -7  -9   3    0.20    0.07
   7  -9  -3    0.10    0.07
  -7   9   2   -0.08    0.04
   7   9  -2    0.04    0.05
   7   9  -2    0.01    0.05
   7   9  -2    0.00    0.06
   7  -9  -2   -0.09    0.04
   7  -9  -2   -0.01    0.05
  -7  -9   2   -0.06    0.05
  -7  -9   2   -0.05    0.03
   7   9  -1    3.28    0.18
  -7   9   1    3.36    0.19
   7   9  -1    3.30    0.19
   7   9  -1    3.21    0.19
  -7  -9   1    3.19    0.18
  -7  -9   1    3.40    0.20
   7  -9  -1    3.19    0.19
   7  -9  -1    3.43    0.21
   7   9   0    0.36    0.08
   7   9   0    0.52    0.09
   7   9   0    0.34    0.08
  -7  -9   0    0.41    0.09
  -7  -9   0    0.32    0.07
   7  -9   0    0.71    0.11
   7   9   1    0.58    0.10
   7  -9   1    0.60    0.11
  -7  -9  -1    0.70    0.10
   7   9   2    6.25    0.27
   7  -9   2    6.19    0.30
  -7  -9  -2    6.47    0.28
   7   9   3    0.05    0.06
   7  -9   3    0.17    0.08
  -7  -9  -3    0.05    0.05
   7   9   4    0.11    0.07
  -7  -9  -4    0.14    0.07
   7  -9   4    0.21    0.09
   7   9   5    0.30    0.09
  -7   9  -5    0.45    0.11
  -7  -9  -5    0.34    0.08
   7  -9   5    0.36    0.10
   7   9   6    0.26    0.10
  -7   9  -6    0.24    0.09
   7  -9   6    0.42    0.11
   7   9   7    0.08    0.08
  -7   9  -7   -0.04    0.07
  -7   9  -8    0.22    0.11
   7   9   8    0.15    0.10
   7   9   9    0.15    0.11
  -7  10  11    0.09    0.11
   7  10 -11    0.15    0.12
   7  10 -11    0.08    0.11
  -7 -10  11    0.22    0.12
   7  10 -10   -0.06    0.08
  -7  10  10   -0.06    0.08
   7  10 -10   -0.02    0.08
  -7 -10  10    0.05    0.09
   7  10  -9    0.03    0.09
  -7  10   9   -0.09    0.06
   7  10  -9    0.06    0.09
  -7  10   9   -0.01    0.07
  -7 -10   9   -0.09    0.07
   7  10  -8    0.13    0.08
   7  10  -8    0.06    0.08
  -7  10   8    0.13    0.10
  -7  10   8    0.00    0.07
  -7 -10   8    0.14    0.08
  -7 -10   8    0.11    0.09
  -7  10   7    0.03    0.07
   7  10  -7   -0.08    0.05
   7  10  -7    0.06    0.08
  -7  10   7   -0.03    0.07
  -7 -10   7   -0.01    0.05
  -7 -10   7   -0.01    0.07
  -7  10   6    0.31    0.10
   7  10  -6    0.42    0.12
   7  10  -6    0.15    0.08
   7 -10  -6    0.19    0.08
  -7 -10   6    0.26    0.09
  -7 -10   6    0.34    0.09
   7 -10  -6    0.15    0.08
   7  10  -5    2.68    0.25
  -7  10   5    1.93    0.20
   7  10  -5    2.68    0.21
   7 -10  -5    2.26    0.22
  -7 -10   5    2.49    0.17
  -7 -10   5    2.80    0.21
   7 -10  -5    2.57    0.23
  -7  10   4    5.52    0.29
   7  10  -4    5.17    0.29
   7  10  -4    5.73    0.29
  -7 -10   4    5.82    0.27
   7 -10  -4    5.77    0.31
   7 -10  -4    5.38    0.28
  -7 -10   4    5.70    0.29
  -7  10   3    1.98    0.16
   7  10  -3    1.95    0.19
   7  10  -3    1.81    0.19
   7  10  -3    1.80    0.16
  -7 -10   3    1.94    0.19
  -7 -10   3    1.69    0.16
   7 -10  -3    1.69    0.18
   7 -10  -3    2.16    0.20
   7  10  -2   10.86    0.40
   7  10  -2   10.32    0.41
   7  10  -2    9.76    0.36
   7 -10  -2   10.85    0.42
  -7 -10   2   10.40    0.39
  -7 -10   2   11.01    0.40
   7 -10  -2   11.67    0.43
   7  10  -1    0.24    0.07
   7  10  -1    0.14    0.07
   7  10  -1    0.19    0.07
  -7 -10   1    0.22    0.07
   7 -10  -1    0.20    0.08
   7 -10  -1    0.20    0.07
  -7 -10   1    0.26    0.08
   7  10   0    1.82    0.16
   7  10   0    2.14    0.15
   7  10   0    2.31    0.16
  -7 -10   0    2.10    0.15
  -7 -10   0    1.97    0.15
   7 -10   0    2.21    0.20
   7  10   1    0.05    0.05
  -7 -10  -1    0.03    0.05
   7 -10   1    0.08    0.06
   7  10   2    0.62    0.10
   7 -10   2    0.65    0.12
  -7 -10  -2    0.82    0.12
   7  10   3    0.10    0.06
  -7 -10  -3    0.07    0.05
   7 -10   3    0.09    0.07
  -7  10  -4    0.35    0.10
   7  10   4    0.65    0.12
  -7 -10  -4    0.55    0.11
   7 -10   4    0.35    0.10
  -7  10  -5    0.11    0.08
   7  10   5    0.11    0.07
  -7 -10  -5    0.07    0.06
   7 -10   5   -0.05    0.07
   7  10   6    0.05    0.07
  -7  10  -6    0.04    0.07
   7 -10   6    0.07    0.08
   7  10   7    0.10    0.09
  -7  10  -7    0.03    0.08
   7 -10   7    0.21    0.10
   7  10   8    0.40    0.13
  -7  10  -8    0.42    0.13
   7  10   9    0.07    0.10
   7  11 -10    0.26    0.12
  -7  11  10    0.19    0.12
   7  11 -10    0.25    0.12
  -7 -11  10   -0.01    0.09
   7  11  -9    0.04    0.10
   7  11  -9    0.16    0.10
  -7  11   9    0.05    0.10
  -7  11   9    0.18    0.10
  -7 -11   9    0.40    0.13
   7  11  -8    0.22    0.11
   7  11  -8    0.23    0.10
  -7  11   8    0.28    0.11
  -7  11   8    0.35    0.12
  -7 -11   8    0.26    0.11
   7  11  -7    0.02    0.08
  -7  11   7    0.29    0.11
   7  11  -7    0.10    0.09
  -7  11   7    0.30    0.11
  -7 -11   7    0.38    0.09
  -7 -11   7    0.28    0.11
   7  11  -6    0.31    0.10
  -7  11   6    0.31    0.11
  -7  11   6    0.12    0.08
   7  11  -6    0.14    0.09
  -7 -11   6    0.10    0.07
  -7 -11   6    0.12    0.07
   7 -11  -6    0.19    0.08
   7  11  -5    0.08    0.07
  -7  11   5    0.12    0.08
   7  11  -5    0.13    0.09
   7 -11  -5    0.24    0.08
  -7 -11   5    0.06    0.07
   7 -11  -5    0.22    0.09
  -7 -11   5    0.07    0.06
   7  11  -4    2.66    0.25
  -7  11   4    2.95    0.21
   7  11  -4    3.51    0.23
  -7 -11   4    2.82    0.21
   7 -11  -4    2.55    0.21
  -7 -11   4    2.74    0.19
   7 -11  -4    2.77    0.20
   7  11  -3    7.35    0.33
  -7  11   3    7.76    0.33
   7  11  -3    7.00    0.34
  -7 -11   3    7.23    0.31
   7 -11  -3    7.33    0.34
   7 -11  -3    7.00    0.34
  -7 -11   3    6.93    0.33
  -7  11   2   -0.01    0.05
   7  11  -2    0.18    0.07
   7  11  -2   -0.02    0.03
   7  11  -2    0.12    0.07
   7 -11  -2    0.00    0.05
  -7 -11   2    0.05    0.05
   7 -11  -2    0.02    0.06
  -7 -11   2    0.09    0.07
   7  11  -1    3.62    0.22
   7  11  -1    3.27    0.20
   7  11  -1    3.40    0.19
  -7 -11   1    3.59    0.21
  -7 -11   1    3.63    0.21
   7 -11  -1    4.04    0.24
   7  11   0    0.66    0.11
   7  11   0    0.77    0.11
   7  11   0    0.53    0.10
   7 -11   0    0.79    0.13
  -7 -11   0    0.60    0.10
  -7 -11   0    0.71    0.11
   7  11   1    0.08    0.06
   7 -11   1   -0.01    0.06
  -7 -11  -1    0.02    0.05
   7  11   2    0.30    0.09
   7 -11   2    0.19    0.09
  -7 -11  -2    0.36    0.09
   7  11   3    5.20    0.27
  -7 -11  -3    5.76    0.29
   7 -11   3    5.42    0.30
  -7  11  -4    4.38    0.28
   7  11   4    4.94    0.26
  -7 -11  -4    5.08    0.28
   7 -11   4    4.57    0.28
   7  11   5    0.10    0.08
  -7  11  -5    0.15    0.09
  -7 -11  -5    0.04    0.06
   7 -11   5    0.01    0.08
  -7  11  -6    0.28    0.11
   7  11   6    0.26    0.10
   7 -11   6    0.30    0.11
  -7  11  -7    0.41    0.13
   7  11   7    0.45    0.13
   7 -11   7    0.12    0.11
  -7  11  -8    0.12    0.10
   7  11   8    0.02    0.08
  -7  12  10    0.07    0.11
   7  12 -10    0.23    0.12
   7  12 -10    0.05    0.11
  -7 -12  10    0.07    0.10
   7  12  -9    0.39    0.12
  -7  12   9    0.17    0.11
   7  12  -9    0.31    0.12
  -7  12   9    0.09    0.10
  -7 -12   9    0.05    0.11
   7  12  -8    0.20    0.11
   7  12  -8    0.11    0.09
  -7  12   8    0.00    0.09
  -7  12   8    0.08    0.09
  -7 -12   8    0.11    0.09
  -7  12   7   -0.09    0.05
  -7  12   7   -0.04    0.07
   7  12  -7    0.01    0.08
   7  12  -7    0.15    0.09
  -7 -12   7    0.06    0.08
   7  12  -6    0.26    0.11
   7  12  -6    0.49    0.13
  -7  12   6    0.36    0.11
  -7  12   6    0.38    0.11
  -7 -12   6    0.46    0.13
  -7 -12   6    0.41    0.10
  -7  12   5    1.37    0.18
   7  12  -5    1.46    0.18
   7  12  -5    1.16    0.17
  -7 -12   5    1.47    0.16
  -7 -12   5    1.45    0.18
   7 -12  -5    1.45    0.18
   7 -12  -5    1.41    0.18
  -7  12   4    1.33    0.17
   7  12  -4    1.23    0.17
   7  12  -4    1.20    0.17
   7 -12  -4    1.22    0.16
   7 -12  -4    1.01    0.15
  -7 -12   4    0.98    0.13
  -7 -12   4    1.02    0.15
   7  12  -3    0.21    0.08
  -7  12   3    0.04    0.06
   7  12  -3    0.02    0.06
   7 -12  -3   -0.02    0.05
   7 -12  -3    0.19    0.08
  -7 -12   3    0.14    0.07
  -7 -12   3   -0.02    0.06
   7  12  -2    4.24    0.24
   7  12  -2    4.54    0.26
   7 -12  -2    4.23    0.25
  -7 -12   2    4.41    0.25
   7 -12  -2    4.29    0.26
  -7 -12   2    4.65    0.24
   7  12  -1    1.08    0.14
   7  12  -1    0.94    0.12
   7  12  -1    1.12    0.14
  -7 -12   1    1.11    0.14
   7 -12  -1    1.43    0.17
  -7 -12   1    1.20    0.15
   7  12   0    0.35    0.08
  -7 -12   0    0.24    0.08
   7 -12   0    0.20    0.09
   7  12   1    0.23    0.08
   7 -12   1    0.23    0.09
  -7 -12  -1    0.30    0.08
   7  12   2    1.46    0.16
  -7 -12  -2    1.26    0.15
   7 -12   2    1.32    0.17
   7  12   3    1.95    0.19
  -7  12  -3    2.02    0.21
  -7 -12  -3    2.03    0.20
   7 -12   3    1.62    0.19
   7  12   4    3.33    0.22
  -7  12  -4    3.20    0.24
  -7 -12  -4    2.93    0.22
   7 -12   4    2.59    0.25
   7  12   5    1.61    0.19
  -7  12  -5    1.89    0.22
   7 -12   5    1.73    0.21
  -7  12  -6    0.03    0.08
   7  12   6    0.01    0.08
   7 -12   6    0.08    0.09
   7  12   7    0.03    0.09
  -7  12  -7   -0.03    0.08
   7 -12   7    0.16    0.11
   7  12   8    0.06    0.10
  -7  12  -8    0.03    0.10
  -7  13   9   -0.08    0.08
   7  13  -9    0.00    0.09
   7  13  -9    0.07    0.11
  -7 -13   9   -0.03    0.09
  -7  13   8    0.11    0.10
   7  13  -8    0.14    0.10
   7  13  -8    0.02    0.09
  -7  13   8    0.13    0.10
  -7 -13   8    0.11    0.10
   7  13  -7    0.22    0.11
   7  13  -7    0.21    0.11
  -7  13   7    0.18    0.10
  -7  13   7    0.18    0.10
  -7 -13   7    0.12    0.10
  -7  13   6    0.10    0.08
  -7  13   6    0.16    0.10
   7  13  -6    0.10    0.08
   7  13  -6    0.04    0.08
  -7 -13   6    0.36    0.12
  -7  13   5   -0.02    0.07
  -7  13   5    0.09    0.07
   7  13  -5    0.01    0.07
   7  13  -5    0.00    0.07
  -7 -13   5    0.02    0.06
  -7 -13   5    0.09    0.08
   7 -13  -5   -0.03    0.07
   7 -13  -5   -0.05    0.06
   7  13  -4    0.19    0.09
   7  13  -4    0.13    0.08
  -7  13   4    0.09    0.07
   7 -13  -4    0.02    0.06
  -7 -13   4    0.03    0.07
   7 -13  -4    0.07    0.08
  -7 -13   4   -0.03    0.05
   7  13  -3    0.45    0.11
   7  13  -3    0.56    0.12
  -7 -13   3    0.39    0.11
   7 -13  -3    0.46    0.11
   7 -13  -3    0.50    0.11
  -7 -13   3    0.40    0.09
   7  13  -2    0.00    0.06
   7  13  -2    0.03    0.06
   7 -13  -2    0.02    0.06
  -7 -13   2   -0.03    0.04
  -7 -13   2    0.09    0.07
   7 -13  -2    0.04    0.07
   7  13  -1    2.10    0.20
   7  13  -1    1.54    0.17
  -7 -13   1    1.54    0.16
   7 -13  -1    1.90    0.20
  -7 -13   1    1.50    0.16
   7  13   0    0.51    0.10
  -7 -13   0    0.36    0.09
   7 -13   0    0.31    0.10
   7  13   1    0.78    0.12
  -7 -13  -1    0.75    0.13
   7 -13   1    0.70    0.14
   7  13   2    0.37    0.10
  -7 -13  -2    0.35    0.10
   7 -13   2    0.44    0.12
  -7  13  -3    0.02    0.06
   7  13   3    0.08    0.07
  -7 -13  -3    0.05    0.06
   7 -13   3    0.16    0.09
   7  13   4   -0.01    0.06
  -7  13  -4   -0.04    0.06
   7 -13   4    0.00    0.08
  -7  13  -5   -0.06    0.06
   7  13   5   -0.04    0.07
   7 -13   5   -0.08    0.08
   7  13   6    0.11    0.09
  -7  13  -6    0.12    0.10
   7 -13   6    0.11    0.10
   7  13   7    0.55    0.14
  -7  13  -7    0.34    0.13
   7 -13   7    0.30    0.13
  -7  13  -8    0.04    0.09
   7  13   8   -0.08    0.08
   7  14  -9    0.08    0.11
   7  14  -9   -0.01    0.10
  -7  14   9    0.16    0.12
  -7 -14   9    0.10    0.11
  -7  14   8    0.19    0.10
   7  14  -8   -0.01    0.08
  -7  14   8    0.11    0.10
   7  14  -8    0.16    0.10
  -7 -14   8    0.05    0.10
  -7  14   7    0.43    0.13
   7  14  -7    0.17    0.11
  -7  14   7    0.07    0.09
   7  14  -7    0.17    0.11
  -7 -14   7    0.23    0.11
  -7  14   6    0.16    0.09
   7  14  -6    0.51    0.13
  -7  14   6    0.15    0.09
   7  14  -6    0.16    0.10
  -7 -14   6    0.59    0.14
   7  14  -5    0.04    0.08
   7  14  -5    0.02    0.07
  -7  14   5   -0.06    0.07
  -7  14   5    0.01    0.06
  -7 -14   5   -0.05    0.07
  -7  14   4    1.36    0.17
   7  14  -4    1.64    0.20
   7  14  -4    1.60    0.21
   7 -14  -4    2.08    0.23
  -7 -14   4    1.80    0.18
  -7 -14   4    1.63    0.19
   7 -14  -4    1.86    0.21
   7  14  -3    2.43    0.24
   7  14  -3    2.38    0.23
  -7 -14   3    2.58    0.19
   7 -14  -3    2.91    0.26
   7 -14  -3    2.80    0.22
  -7 -14   3    2.15    0.21
   7  14  -2    0.15    0.08
   7  14  -2    0.11    0.08
  -7 -14   2    0.02    0.06
  -7 -14   2   -0.03    0.05
   7 -14  -2    0.10    0.08
   7  14  -1    1.28    0.16
  -7 -14   1    1.36    0.16
   7 -14  -1    1.08    0.16
  -7 -14   1    1.02    0.14
  -7 -14   0    2.25    0.21
   7 -14   0    2.12    0.23
   7  14   1    0.07    0.06
   7 -14   1    0.08    0.08
  -7 -14  -1    0.07    0.06
  -7  14  -2    0.03    0.07
   7  14   2    0.02    0.06
   7 -14   2   -0.10    0.06
  -7  14  -3    0.32    0.11
   7  14   3    0.57    0.12
   7 -14   3    0.37    0.12
  -7  14  -4   -0.03    0.07
   7  14   4    0.13    0.08
   7 -14   4   -0.03    0.08
   7  14   5    0.45    0.12
  -7  14  -5    0.72    0.15
   7 -14   5    0.68    0.15
   7  14   6    0.12    0.09
  -7  14  -6    0.23    0.11
   7 -14   6    0.07    0.10
  -7  14  -7    0.29    0.12
   7  14   7    0.40    0.12
   7 -14   7    0.36    0.14
   7  15  -8    0.24    0.12
   7  15  -8    0.27    0.13
  -7  15   8    0.10    0.10
  -7 -15   8    0.17    0.12
  -7  15   7   -0.07    0.08
   7  15  -7   -0.05    0.08
  -7  15   7    0.00    0.07
   7  15  -7    0.01    0.09
  -7 -15   7    0.02    0.10
   7  15  -6    1.26    0.21
  -7  15   6    1.23    0.18
   7  15  -6    1.27    0.20
  -7  15   6    1.08    0.18
  -7 -15   6    0.93    0.17
  -7  15   5    0.36    0.11
   7  15  -5    0.24    0.11
   7  15  -5    0.43    0.12
  -7 -15   5    0.29    0.11
   7  15  -4    0.60    0.13
   7  15  -4    0.65    0.15
   7 -15  -4    0.94    0.16
  -7 -15   4    0.55    0.13
   7 -15  -4    0.48    0.12
   7  15  -3    0.50    0.13
   7  15  -3    0.31    0.10
  -7 -15   3    0.31    0.10
   7 -15  -3    0.36    0.11
   7 -15  -3    0.59    0.13
   7  15  -2    0.10    0.08
   7  15  -2    0.03    0.07
   7 -15  -2    0.30    0.10
  -7 -15   2    0.14    0.08
   7 -15  -1    0.71    0.14
   7 -15   0    0.35    0.12
  -7  15  -1    0.43    0.12
   7 -15   1    0.54    0.13
   7  15   2    0.09    0.07
  -7  15  -2    0.11    0.09
   7 -15   2    0.07    0.08
   7  15   3    1.35    0.17
  -7  15  -3    1.06    0.18
   7 -15   3    0.77    0.15
  -7  15  -4    0.41    0.12
   7  15   4    0.32    0.10
   7 -15   4    0.13    0.10
   7  15   5    0.12    0.09
  -7  15  -5    0.19    0.10
   7 -15   5    0.16    0.11
  -7  15  -6    0.15    0.10
   7  15   6    0.12    0.09
   7 -15   6    0.08    0.11
  -7  15  -7   -0.02    0.09
   7  15   7    0.02    0.09
   7 -15   7   -0.07    0.10
   7  16  -8    0.03    0.09
  -7  16   8    0.10    0.10
   7  16  -8    0.03    0.11
  -7 -16   8    0.03    0.11
   7  16  -7    0.06    0.11
  -7  16   7   -0.04    0.08
   7  16  -7   -0.04    0.09
  -7  16   7    0.09    0.10
  -7 -16   7    0.17    0.11
   7  16  -6   -0.02    0.08
   7  16  -6   -0.10    0.07
  -7  16   6    0.03    0.09
  -7 -16   6   -0.05    0.09
   7  16  -5    0.12    0.10
   7  16  -5    0.17    0.11
  -7 -16   5    0.28    0.12
   7  16  -4   -0.05    0.08
   7  16  -4    0.07    0.09
  -7 -16   4    0.03    0.08
   7 -16  -4    0.01    0.08
   7  16  -3    0.27    0.11
   7  16  -3    0.11    0.09
   7 -16  -3    0.22    0.10
  -7 -16   3    0.08    0.08
   7  16  -2    0.47    0.13
   7  16  -2    0.45    0.12
   7 -16  -2    0.68    0.15
  -7 -16   2    0.44    0.12
   7 -16  -1   -0.07    0.07
  -7  16   0   -0.09    0.06
   7 -16   0    0.06    0.09
  -7  16  -1    0.65    0.14
   7 -16   1    0.79    0.16
  -7  16  -2    0.00    0.07
   7 -16   2   -0.06    0.07
   7  16   3    0.11    0.08
  -7  16  -3    0.20    0.10
   7 -16   3    0.06    0.09
  -7  16  -4    0.26    0.11
   7  16   4    0.27    0.11
   7 -16   4    0.37    0.12
   7  16   5    0.22    0.10
  -7  16  -5    0.01    0.09
   7 -16   5    0.13    0.11
  -7  16  -6    0.24    0.11
   7  16   6    0.30    0.11
   7 -16   6    0.19    0.12
   7  17  -7   -0.11    0.09
   7  17  -7    0.11    0.10
  -7 -17   7   -0.09    0.09
   7  17  -6    0.08    0.11
   7  17  -6   -0.02    0.09
  -7 -17   6   -0.05    0.09
   7  17  -5   -0.04    0.08
   7  17  -5    0.05    0.09
  -7 -17   5    0.06    0.10
   7  17  -4    0.12    0.10
   7  17  -4    0.01    0.08
  -7 -17   4    0.12    0.09
   7  17  -3   -0.13    0.07
   7  17  -3    0.05    0.09
   7 -17  -3    0.14    0.09
  -7 -17   3    0.06    0.08
  -7  17   2    0.12    0.09
   7 -17  -2    0.49    0.13
  -7 -17   2    0.26    0.11
  -7  17   1    1.57    0.20
   7 -17  -1    1.80    0.22
  -7  17   0    0.22    0.10
   7 -17   0    0.41    0.12
  -7  17  -1    0.10    0.08
   7 -17   1    0.07    0.09
  -7  17  -2    0.24    0.10
   7 -17   2    0.24    0.12
  -7  17  -3    0.40    0.12
   7 -17   3    0.31    0.12
  -7  17  -4    0.49    0.14
   7  17   4    0.76    0.14
   7 -17   4    0.74    0.16
  -7  17  -5    0.06    0.08
   7  17   5    0.05    0.08
   7 -17   5    0.08    0.11
   7  18  -6    0.16    0.11
   7  18  -6    0.00    0.09
  -7 -18   6    0.34    0.13
   7  18  -5    0.22    0.11
   7  18  -5    0.30    0.13
  -7 -18   5    0.30    0.13
   7  18  -4    0.81    0.17
  -7 -18   4    0.53    0.14
   7  18  -3    0.22    0.11
   7  18  -3    0.07    0.10
   7 -18  -3    0.25    0.11
  -7 -18   3    0.39    0.12
   7 -18  -2   -0.08    0.09
  -7  18   1    0.73    0.15
   7 -18  -1    0.30    0.12
  -7  18   0    0.43    0.12
   7 -18   0    0.26    0.11
  -7  18  -1    0.35    0.12
   7 -18   1    0.33    0.12
  -7  18  -2    0.05    0.09
   7 -18   2    0.00    0.09
  -7  18  -3    0.31    0.13
   7 -18   3    0.33    0.13
  -7  18  -4    0.04    0.09
   7 -18   4    0.15    0.11
   7  19  -5    0.04    0.10
   7  19  -5   -0.01    0.09
  -7 -19   5    0.03    0.09
   7  19  -4    0.11    0.11
   7  19  -4    0.02    0.09
  -7 -19   4    0.06    0.09
   7  19  -3    0.13    0.11
  -7 -19   3    0.07    0.10
   7 -19  -2   -0.09    0.08
  -7  19   1    1.41    0.21
   7 -19  -1    1.58    0.22
  -7  19   0   -0.10    0.07
   7 -19   0    0.11    0.10
  -7  19  -1   -0.04    0.07
   7 -19   1   -0.02    0.10
  -7  19  -2    0.01    0.07
   7 -19   2    0.13    0.11
  -7  19  -3    0.34    0.13
   7 -19   3    0.24    0.13
   7  20  -4   -0.02    0.10
   7  20  -4    0.00    0.10
  -7 -20   4    0.01    0.10
   7 -20  -2    0.55    0.16
   7 -20  -1    0.06    0.11
  -7  20   0    0.17    0.11
   7 -20   0    0.21    0.12
  -7  20  -1    0.07    0.10
   7 -20   1    0.01    0.10
  -7  20  -2    0.04    0.11
   7 -20   2    0.01    0.10
  -8   0  12   -0.04    0.12
  -8   0  11    0.01    0.11
  -8   0  11   -0.01    0.09
   8   0 -10    0.04    0.08
  -8   0  10    0.20    0.09
  -8   0   9    0.01    0.07
   8   0  -9    0.10    0.08
   8   0  -9    0.02    0.07
   8   0  -8    0.12    0.07
   8   0  -8    0.07    0.07
  -8   0   8   -0.01    0.06
   8   0  -7    0.01    0.06
   8   0  -7    0.02    0.06
   8   0  -6    0.43    0.10
   8   0  -6    0.20    0.08
   8   0  -5   -0.08    0.04
   8   0  -5   -0.02    0.06
   8   0  -4   -0.02    0.05
   8   0  -4   -0.09    0.04
   8   0  -3    0.04    0.04
  -8   0   3   -0.04    0.03
  -8   0   2   11.76    0.40
   8   0  -2   11.85    0.41
   8   0  -2   11.76    0.42
   8   0  -1   -0.05    0.04
   8   0  -1   -0.06    0.04
  -8   0   1   -0.03    0.02
   8   0   0   14.27    0.46
   8   0   0   15.05    0.48
  -8   0   0   14.76    0.44
  -8   0  -1    0.03    0.03
   8   0   1    0.02    0.05
   8   0   1    0.01    0.05
   8   0   2   11.51    0.39
  -8   0  -2   11.40    0.34
   8   0   2   12.26    0.40
   8   0   3    0.00    0.05
   8   0   3    0.02    0.05
   8   0   4    0.32    0.08
   8   0   5    0.01    0.05
   8   0   6    4.74    0.24
   8   0   7   -0.02    0.07
   8   0   8    0.48    0.12
  -8   1  12   -0.05    0.11
  -8   1  11    0.25    0.14
  -8   1  11    0.01    0.09
  -8  -1  11    0.30    0.14
  -8  -1  11    0.07    0.10
  -8   1  10    0.02    0.08
   8   1 -10    0.02    0.08
  -8  -1  10    0.03    0.09
   8   1  -9   -0.04    0.07
  -8   1   9    0.02    0.07
   8   1  -9   -0.04    0.06
   8  -1  -9   -0.02    0.07
   8  -1  -9   -0.04    0.07
  -8  -1   9    0.11    0.09
   8   1  -8    0.09    0.08
  -8   1   8    0.06    0.07
   8   1  -8    0.06    0.07
   8  -1  -8    0.01    0.07
  -8  -1   8    0.07    0.08
   8  -1  -8   -0.03    0.06
   8   1  -7    1.72    0.19
   8   1  -7    2.43    0.22
  -8   1   7    2.20    0.23
   8  -1  -7    2.13    0.21
   8  -1  -7    2.01    0.19
   8   1  -6    4.88    0.27
   8   1  -6    4.02    0.24
   8  -1  -6    4.76    0.26
  -8  -1   6    4.47    0.26
   8  -1  -6    4.57    0.25
   8   1  -5    6.77    0.31
   8   1  -5    6.47    0.31
   8  -1  -5    6.81    0.30
  -8  -1   5    5.66    0.29
   8  -1  -5    6.97    0.31
   8   1  -4    7.85    0.33
   8   1  -4    8.32    0.33
  -8  -1   4    7.32    0.32
   8  -1  -4    8.02    0.34
   8   1  -3    0.20    0.07
   8   1  -3    0.15    0.07
  -8  -1   3    0.32    0.07
   8  -1  -3    0.35    0.08
   8   1  -2    0.05    0.05
   8   1  -2    0.04    0.05
  -8   1   2    0.04    0.05
   8  -1  -2    0.10    0.06
  -8  -1   2    0.05    0.04
   8  -1  -2    0.00    0.05
  -8   1   1    0.25    0.06
   8   1  -1    0.20    0.06
   8   1  -1    0.24    0.07
  -8  -1   1    0.34    0.07
   8  -1  -1    0.33    0.07
   8  -1  -1    0.24    0.07
   8   1   0   30.47    0.83
   8   1   0   31.60    0.83
  -8   1   0   29.90    0.79
   8  -1   0   31.03    0.83
  -8  -1   0   30.50    0.80
   8  -1   0   29.59    0.83
   8   1   1    1.55    0.14
  -8   1  -1    1.26    0.09
   8   1   1    1.45    0.14
   8  -1   1    1.40    0.14
  -8  -1  -1    1.37    0.10
   8  -1   1    1.65    0.12
   8   1   2    8.59    0.31
   8   1   2    8.17    0.31
   8  -1   2    8.42    0.31
   8  -1   2    7.92    0.31
  -8  -1  -2    8.61    0.28
   8   1   3    0.30    0.08
   8  -1   3    0.23    0.07
   8  -1   3    0.33    0.08
   8   1   4    0.52    0.09
   8  -1   4    0.51    0.09
   8   1   5    1.64    0.16
   8  -1   5    1.86    0.14
   8   1   6    0.07    0.07
   8  -1   6    0.00    0.06
   8   1   7    0.37    0.10
   8  -1   7    0.44    0.10
   8   1   8    0.65    0.13
   8   1   9    0.10    0.09
  -8   2  12    0.03    0.11
  -8   2  11   -0.01    0.10
  -8   2  11    0.16    0.10
  -8  -2  11    0.12    0.11
   8   2 -10    0.11    0.08
   8   2 -10    0.12    0.08
  -8   2  10    0.00    0.08
  -8   2  10    0.14    0.10
  -8  -2  10    0.06    0.09
  -8  -2  10    0.00    0.08
  -8   2   9    0.05    0.09
   8   2  -9    0.08    0.08
   8   2  -9    0.00    0.07
   8  -2  -9   -0.07    0.06
  -8  -2   9    0.12    0.09
  -8   2   8    0.04    0.07
   8   2  -8   -0.01    0.06
   8   2  -8    0.00    0.06
   8  -2  -8   -0.06    0.05
   8  -2  -8    0.09    0.07
  -8  -2   8   -0.01    0.05
   8  -2  -8   -0.10    0.06
   8   2  -7    1.56    0.18
   8   2  -7    1.46    0.18
  -8   2   7    1.01    0.16
   8  -2  -7    1.36    0.17
   8  -2  -7    1.04    0.15
   8   2  -6    0.00    0.06
   8   2  -6    0.18    0.08
   8  -2  -6   -0.01    0.05
  -8  -2   6    0.07    0.06
   8  -2  -6    0.08    0.07
   8   2  -5   18.41    0.59
   8   2  -5   17.31    0.58
   8  -2  -5   17.80    0.58
  -8  -2   5   16.72    0.58
   8   2  -4    4.42    0.25
   8   2  -4    5.73    0.27
  -8  -2   4    5.43    0.26
   8  -2  -4    5.82    0.28
   8   2  -3    0.57    0.10
   8   2  -3    0.69    0.11
   8   2  -3    0.65    0.11
  -8  -2   3    0.61    0.09
   8   2  -2    5.70    0.26
   8   2  -2    6.24    0.27
   8   2  -2    5.83    0.26
  -8  -2   2    5.95    0.25
   8  -2  -2    5.97    0.27
  -8   2   1   16.19    0.49
   8   2  -1   15.73    0.50
   8   2  -1   15.96    0.51
  -8  -2   1   15.84    0.48
   8  -2  -1   15.94    0.51
   8  -2  -1   15.78    0.50
  -8   2   0    2.46    0.14
   8   2   0    2.59    0.16
   8   2   0    2.56    0.17
   8  -2   0    2.54    0.16
   8  -2   0    2.52    0.17
  -8  -2   0    2.62    0.15
   8   2   1   12.26    0.41
   8   2   1   12.84    0.42
  -8   2  -1   12.94    0.37
   8  -2   1   12.78    0.43
   8  -2   1   12.65    0.41
  -8  -2  -1   12.39    0.39
   8   2   2    1.66    0.15
   8   2   2    1.19    0.12
   8  -2   2    1.33    0.13
   8  -2   2    1.29    0.14
  -8  -2  -2    1.43    0.10
   8   2   3    0.64    0.10
   8  -2   3    0.50    0.09
   8  -2   3    0.55    0.09
   8   2   4    0.17    0.06
   8  -2   4    0.25    0.07
   8  -2   4    0.31    0.08
   8   2   5    0.70    0.11
   8  -2   5    0.50    0.09
   8   2   6    0.22    0.08
   8  -2   6    0.25    0.08
   8   2   7    1.35    0.17
   8   2   8    0.24    0.10
   8   2   9   -0.03    0.08
   8   2  10    0.01    0.10
  -8   3  12   -0.14    0.10
  -8   3  11    0.02    0.11
  -8   3  11    0.03    0.09
   8   3 -10    0.05    0.07
  -8   3  10    0.10    0.11
  -8   3  10    0.02    0.08
   8   3 -10    0.09    0.08
  -8  -3  10    0.08    0.09
  -8  -3  10    0.00    0.07
  -8   3   9   -0.01    0.08
   8   3  -9    0.01    0.07
   8   3  -9    0.10    0.08
   8  -3  -9    0.14    0.09
  -8  -3   9    0.04    0.08
  -8   3   8    0.08    0.07
   8   3  -8    0.05    0.07
   8   3  -8    0.15    0.08
   8  -3  -8    0.11    0.08
  -8  -3   8    0.06    0.07
   8  -3  -8    0.02    0.07
   8   3  -7    0.02    0.06
  -8   3   7    0.00    0.06
   8   3  -7    0.02    0.06
   8  -3  -7   -0.07    0.04
   8  -3  -7    0.00    0.06
  -8  -3   7    0.04    0.05
   8   3  -6    1.03    0.15
   8   3  -6    1.02    0.14
  -8   3   6    1.06    0.16
   8  -3  -6    0.80    0.13
  -8  -3   6    0.83    0.12
   8  -3  -6    1.15    0.15
   8   3  -5    2.78    0.19
   8   3  -5    2.85    0.21
  -8  -3   5    3.04    0.20
   8  -3  -5    3.03    0.21
   8  -3  -5    2.66    0.20
   8   3  -4    3.45    0.21
   8   3  -4    3.53    0.22
   8  -3  -4    3.73    0.22
   8  -3  -4    3.40    0.21
  -8  -3   4    3.28    0.20
   8   3  -3    0.38    0.08
   8   3  -3    0.36    0.09
   8   3  -3    0.36    0.08
  -8  -3   3    0.35    0.07
   8  -3  -3    0.44    0.09
   8   3  -2    0.03    0.04
   8   3  -2    0.11    0.05
   8   3  -2    0.10    0.05
  -8  -3   2    0.09    0.05
   8  -3  -2   -0.02    0.04
   8   3  -1    0.10    0.05
   8   3  -1    0.19    0.07
   8  -3  -1    0.14    0.06
  -8  -3   1    0.14    0.05
   8  -3  -1    0.14    0.06
  -8   3   0    3.17    0.16
   8   3   0    3.30    0.18
   8   3   0    3.25    0.18
   8  -3   0    2.96    0.19
  -8  -3   0    3.16    0.16
   8  -3   0    2.97    0.17
   8   3   1    9.58    0.34
   8   3   1    9.51    0.35
  -8   3  -1    9.49    0.30
   8  -3   1    9.62    0.36
  -8  -3  -1    9.96    0.33
   8  -3   1    9.65    0.34
   8   3   2    3.52    0.19
   8   3   2    3.45    0.18
   8  -3   2    3.33    0.20
   8  -3   2    3.70    0.19
  -8  -3  -2    3.59    0.17
   8   3   3    1.31    0.14
  -8  -3  -3    1.30    0.12
   8  -3   3    1.26    0.14
   8  -3   3    1.10    0.12
   8   3   4    0.79    0.11
   8  -3   4    0.62    0.10
   8  -3   4    0.53    0.09
   8   3   5    0.52    0.10
   8  -3   5    0.54    0.09
   8   3   6    0.02    0.07
   8   3   7    0.06    0.08
   8   3   8    0.02    0.08
   8   3   9   -0.02    0.09
   8   3  10    0.00    0.10
  -8   4  12    0.19    0.13
  -8   4  11    0.19    0.12
  -8   4  11    0.13    0.10
   8   4 -11    0.07    0.10
  -8  -4  11    0.11    0.10
  -8   4  10    0.04    0.10
   8   4 -10    0.03    0.08
  -8   4  10   -0.07    0.06
   8   4 -10   -0.01    0.08
  -8  -4  10    0.03    0.08
  -8  -4  10    0.07    0.09
  -8   4   9    0.07    0.08
   8   4  -9    0.12    0.08
   8   4  -9    0.02    0.07
  -8  -4   9    0.08    0.09
  -8  -4   9   -0.04    0.08
  -8   4   8   -0.11    0.05
   8   4  -8    0.00    0.06
   8   4  -8   -0.05    0.06
   8  -4  -8    0.01    0.06
  -8  -4   8    0.07    0.07
   8  -4  -8    0.01    0.07
   8   4  -7   -0.02    0.06
  -8   4   7    0.11    0.07
   8   4  -7    0.02    0.06
  -8  -4   7    0.04    0.06
   8  -4  -7    0.01    0.05
   8  -4  -7   -0.03    0.05
   8   4  -6    0.24    0.09
  -8   4   6    0.24    0.09
   8   4  -6    0.50    0.11
  -8  -4   6    0.18    0.07
   8  -4  -6    0.31    0.09
   8  -4  -6    0.08    0.06
   8   4  -5    0.56    0.11
   8   4  -5    0.32    0.10
  -8   4   5    0.55    0.11
  -8  -4   5    0.58    0.10
   8  -4  -5    0.44    0.10
   8  -4  -5    0.37    0.09
   8   4  -4    0.08    0.06
   8   4  -4    0.01    0.05
  -8  -4   4    0.14    0.06
   8  -4  -4    0.11    0.06
   8  -4  -4    0.13    0.06
   8   4  -3    1.01    0.13
   8   4  -3    0.80    0.12
   8   4  -3    0.74    0.11
   8  -4  -3    0.78    0.11
   8  -4  -3    0.60    0.10
  -8  -4   3    0.80    0.11
   8   4  -2    2.05    0.16
   8   4  -2    1.99    0.14
   8   4  -2    1.82    0.14
   8  -4  -2    1.92    0.18
  -8  -4   2    2.03    0.14
   8  -4  -2    2.04    0.15
   8   4  -1    2.71    0.17
   8   4  -1    2.94    0.17
   8   4  -1    2.66    0.17
   8  -4  -1    2.59    0.18
  -8  -4   1    2.71    0.16
  -8   4   0    4.89    0.21
   8   4   0    4.69    0.22
   8   4   0    4.84    0.22
  -8  -4   0    4.80    0.21
   8  -4   0    4.70    0.22
   8  -4   0    4.46    0.23
   8   4   1    0.86    0.11
   8   4   1    1.00    0.12
   8  -4   1    1.03    0.12
   8  -4   1    0.93    0.12
  -8  -4  -1    0.83    0.09
   8   4   2    1.50    0.14
  -8  -4  -2    1.66    0.12
   8  -4   2    1.60    0.12
   8  -4   2    1.54    0.15
   8   4   3    5.72    0.26
  -8  -4  -3    5.86    0.24
   8  -4   3    6.42    0.26
   8  -4   3    6.41    0.28
   8   4   4    0.58    0.10
   8  -4   4    0.44    0.09
   8  -4   4    0.52    0.09
   8   4   5    0.02    0.06
  -8   4  -6    1.03    0.14
   8   4   6    0.80    0.13
   8   4   7    0.05    0.08
   8   4   8    0.14    0.09
   8   4   9   -0.03    0.08
   8   5 -11    0.07    0.09
   8   5 -11    0.05    0.09
  -8   5  11    0.04    0.10
  -8  -5  11   -0.01    0.09
   8   5 -10    0.01    0.08
   8   5 -10   -0.04    0.07
  -8   5  10    0.06    0.09
  -8   5  10   -0.05    0.07
  -8  -5  10   -0.01    0.08
   8   5  -9    0.12    0.09
  -8   5   9    0.18    0.10
   8   5  -9    0.04    0.08
  -8  -5   9   -0.07    0.08
   8   5  -8    0.56    0.13
   8   5  -8    0.47    0.12
  -8   5   8    0.42    0.12
   8  -5  -8    0.52    0.13
   8  -5  -8    0.62    0.12
  -8  -5   8    0.48    0.11
   8   5  -7    0.27    0.10
  -8   5   7    0.69    0.14
   8   5  -7    0.40    0.10
   8  -5  -7    0.53    0.11
   8  -5  -7    0.43    0.11
  -8  -5   7    0.64    0.12
  -8   5   6    0.15    0.07
   8   5  -6    0.24    0.09
   8   5  -6    0.14    0.07
   8  -5  -6    0.33    0.09
   8  -5  -6    0.23    0.09
  -8  -5   6    0.31    0.08
  -8   5   5    2.44    0.19
   8   5  -5    1.79    0.18
   8   5  -5    1.32    0.16
  -8  -5   5    1.74    0.17
   8  -5  -5    1.83    0.19
   8  -5  -5    1.34    0.16
   8   5  -4    0.14    0.06
   8   5  -4    0.18    0.08
   8  -5  -4    0.10    0.06
   8  -5  -4    0.20    0.07
  -8  -5   4    0.14    0.06
   8   5  -3    0.03    0.05
   8   5  -3    0.07    0.05
   8   5  -3    0.03    0.05
   8  -5  -3    0.04    0.05
  -8  -5   3    0.08    0.05
   8  -5  -3    0.08    0.05
   8   5  -2    1.11    0.13
   8   5  -2    1.20    0.13
   8   5  -2    1.05    0.13
   8  -5  -2    1.11    0.13
   8  -5  -2    1.27    0.14
  -8  -5   2    1.01    0.11
   8   5  -1    0.55    0.09
   8   5  -1    0.71    0.10
   8   5  -1    0.50    0.09
   8  -5  -1    0.66    0.11
  -8  -5   1    0.60    0.09
   8   5   0    8.77    0.32
   8   5   0    8.15    0.32
  -8  -5   0    8.57    0.31
   8  -5   0    8.56    0.34
   8  -5   0    8.44    0.32
   8   5   1    0.49    0.08
   8  -5   1    0.47    0.09
  -8  -5  -1    0.35    0.07
   8  -5   1    0.42    0.08
   8   5   2    0.15    0.06
   8  -5   2    0.10    0.06
   8  -5   2    0.22    0.07
  -8  -5  -2    0.13    0.05
   8   5   3    0.55    0.10
   8  -5   3    0.56    0.09
   8  -5   3    0.55    0.10
  -8  -5  -3    0.46    0.08
   8   5   4    1.67    0.16
   8  -5   4    1.53    0.16
   8   5   5    0.97    0.14
   8  -5   5    1.09    0.14
   8   5   6    0.69    0.13
  -8   5  -6    0.68    0.12
   8   5   7   -0.09    0.06
   8   5   8    0.04    0.08
   8   5   9    0.12    0.11
  -8   6  11    0.01    0.10
   8   6 -11    0.10    0.10
   8   6 -11    0.02    0.09
  -8  -6  11   -0.03    0.09
   8   6 -10    0.29    0.12
   8   6 -10    0.32    0.12
  -8   6  10    0.30    0.12
  -8   6  10    0.28    0.13
  -8  -6  10    0.33    0.12
   8   6  -9   -0.03    0.07
   8   6  -9   -0.01    0.07
  -8   6   9    0.07    0.08
  -8   6   9    0.06    0.09
  -8  -6   9    0.05    0.08
  -8   6   8    0.64    0.13
   8   6  -8    0.53    0.13
   8   6  -8    0.59    0.13
   8  -6  -8    0.60    0.12
  -8  -6   8    0.53    0.13
  -8  -6   8    0.38    0.11
   8   6  -7    3.02    0.23
  -8   6   7    3.06    0.24
   8   6  -7    3.12    0.23
  -8  -6   7    3.00    0.21
   8  -6  -7    3.40    0.23
   8  -6  -7    3.08    0.24
   8   6  -6    0.35    0.10
   8   6  -6    0.53    0.11
  -8   6   6    0.35    0.10
  -8  -6   6    0.60    0.11
   8  -6  -6    0.59    0.12
   8  -6  -6    0.37    0.10
  -8   6   5    8.14    0.37
   8   6  -5    7.96    0.36
   8   6  -5    7.86    0.35
  -8  -6   5    7.53    0.33
   8  -6  -5    7.87    0.35
   8  -6  -5    7.61    0.36
  -8   6   4    0.87    0.13
   8   6  -4    0.44    0.10
   8   6  -4    0.75    0.12
   8  -6  -4    0.69    0.11
   8  -6  -4    0.68    0.12
  -8  -6   4    0.98    0.12
   8   6  -3   -0.02    0.05
   8   6  -3    0.02    0.05
   8   6  -3    0.07    0.06
   8  -6  -3   -0.03    0.04
   8  -6  -3   -0.09    0.04
  -8  -6   3   -0.06    0.03
   8   6  -2   -0.03    0.03
   8   6  -2    0.01    0.04
   8   6  -2   -0.05    0.05
  -8  -6   2    0.01    0.03
   8  -6  -2   -0.02    0.04
   8  -6  -2   -0.02    0.04
   8   6  -1    3.97    0.21
   8   6  -1    4.02    0.21
   8   6  -1    4.35    0.22
  -8  -6   1    3.71    0.19
   8  -6  -1    4.21    0.21
   8  -6  -1    3.82    0.22
   8   6   0    0.54    0.09
   8   6   0    0.60    0.10
   8   6   0    0.49    0.09
   8  -6   0    0.38    0.09
  -8  -6   0    0.52    0.08
   8   6   1    2.22    0.15
   8   6   1    1.99    0.14
   8  -6   1    2.04    0.14
   8  -6   1    1.89    0.18
  -8  -6  -1    2.18    0.14
   8   6   2    3.28    0.19
   8  -6   2    3.16    0.18
   8  -6   2    2.91    0.19
  -8  -6  -2    3.02    0.17
   8   6   3    0.43    0.09
  -8  -6  -3    0.49    0.09
   8  -6   3    0.60    0.11
   8   6   4    0.21    0.08
   8  -6   4    0.24    0.09
   8   6   5    1.24    0.16
   8  -6   5    1.17    0.15
  -8   6  -6    0.52    0.12
   8   6   6    0.56    0.12
   8   6   7    0.55    0.12
  -8   6  -7    0.58    0.12
   8   6   8    0.05    0.08
   8   6   9    0.19    0.11
   8   7 -11    0.00    0.09
  -8   7  11   -0.02    0.10
   8   7 -11    0.01    0.09
  -8  -7  11    0.08    0.10
   8   7 -10    0.16    0.10
   8   7 -10    0.00    0.08
  -8   7  10    0.05    0.10
  -8   7  10    0.11    0.10
  -8  -7  10    0.37    0.12
   8   7  -9   -0.04    0.07
  -8   7   9    0.00    0.09
   8   7  -9   -0.07    0.06
  -8  -7   9    0.22    0.10
  -8   7   8    0.40    0.11
   8   7  -8    0.25    0.10
   8   7  -8    0.59    0.13
  -8  -7   8    0.49    0.11
  -8  -7   8    0.46    0.13
   8   7  -7    1.47    0.18
  -8   7   7    1.73    0.21
   8   7  -7    1.06    0.17
   8  -7  -7    2.01    0.21
   8  -7  -7    1.58    0.20
  -8  -7   7    1.38    0.18
  -8  -7   7    1.51    0.17
   8   7  -6    1.93    0.20
   8   7  -6    1.68    0.19
  -8   7   6    1.94    0.21
   8  -7  -6    1.64    0.19
  -8  -7   6    1.70    0.17
   8  -7  -6    1.79    0.20
   8   7  -5    0.13    0.08
   8   7  -5    0.07    0.07
  -8   7   5   -0.01    0.05
   8  -7  -5    0.02    0.06
  -8  -7   5   -0.01    0.05
   8  -7  -5    0.04    0.06
  -8   7   4    0.07    0.06
   8   7  -4    0.00    0.06
   8   7  -4    0.07    0.07
   8  -7  -4    0.08    0.06
   8  -7  -4    0.05    0.05
  -8  -7   4    0.06    0.06
   8   7  -3    0.34    0.08
   8   7  -3    0.30    0.09
   8   7  -3    0.32    0.09
  -8   7   3    0.42    0.09
   8  -7  -3    0.33    0.09
   8  -7  -3    0.38    0.09
  -8  -7   3    0.38    0.08
   8   7  -2    2.41    0.16
   8   7  -2    2.26    0.17
  -8   7   2    2.45    0.17
   8   7  -2    2.38    0.17
   8  -7  -2    2.19    0.17
  -8  -7   2    2.33    0.15
   8  -7  -2    2.43    0.17
   8   7  -1    0.35    0.08
   8   7  -1    0.46    0.09
   8   7  -1    0.40    0.09
   8  -7  -1    0.46    0.09
  -8  -7   1    0.36    0.07
   8  -7  -1    0.49    0.09
   8   7   0    0.09    0.05
   8   7   0    0.21    0.07
   8   7   0    0.16    0.07
   8  -7   0    0.20    0.07
  -8  -7   0    0.14    0.05
   8   7   1    3.98    0.21
   8  -7   1    4.45    0.21
   8  -7   1    4.05    0.23
  -8  -7  -1    4.37    0.21
   8   7   2    0.40    0.08
  -8  -7  -2    0.41    0.08
   8  -7   2    0.34    0.09
   8   7   3   -0.07    0.04
   8  -7   3   -0.07    0.05
  -8  -7  -3    0.00    0.03
   8   7   4    0.00    0.06
  -8  -7  -4    0.00    0.04
   8  -7   4    0.04    0.07
   8   7   5    1.65    0.18
   8  -7   5    1.65    0.18
  -8   7  -6    0.11    0.08
   8   7   6    0.00    0.07
   8   7   7    0.21    0.09
  -8   7  -7    0.21    0.10
   8   7   8    0.08    0.08
   8   7   9   -0.06    0.09
   8   8 -11    0.04    0.09
   8   8 -11    0.15    0.11
  -8   8  11    0.09    0.11
  -8  -8  11    0.00    0.09
   8   8 -10   -0.04    0.08
  -8   8  10   -0.08    0.09
  -8   8  10    0.13    0.10
   8   8 -10   -0.05    0.08
  -8  -8  10    0.06    0.11
  -8   8   9    0.08    0.09
   8   8  -9    0.11    0.09
   8   8  -9   -0.06    0.07
  -8   8   9    0.14    0.10
  -8  -8   9    0.02    0.09
  -8   8   8    0.09    0.08
   8   8  -8   -0.01    0.07
   8   8  -8    0.05    0.08
  -8  -8   8    0.04    0.08
   8   8  -7    0.04    0.08
  -8   8   7    0.04    0.07
   8   8  -7    0.04    0.07
  -8  -8   7   -0.05    0.07
  -8  -8   7   -0.01    0.05
   8  -8  -7    0.03    0.06
   8  -8  -7   -0.11    0.05
  -8   8   6    0.46    0.11
   8   8  -6    0.19    0.09
   8   8  -6    0.35    0.10
  -8  -8   6    0.42    0.10
   8  -8  -6    0.35    0.11
  -8  -8   6    0.37    0.11
   8  -8  -6    0.35    0.10
   8   8  -5    2.23    0.21
   8   8  -5    2.32    0.22
  -8   8   5    2.71    0.21
  -8  -8   5    2.54    0.18
   8  -8  -5    2.31    0.22
   8  -8  -5    2.12    0.21
  -8   8   4    3.24    0.22
   8   8  -4    2.98    0.21
   8   8  -4    2.90    0.21
  -8  -8   4    2.83    0.18
   8  -8  -4    2.56    0.20
   8  -8  -4    2.77    0.20
   8   8  -3    0.20    0.08
   8   8  -3    0.13    0.07
   8   8  -3    0.10    0.06
  -8   8   3    0.25    0.08
  -8  -8   3    0.15    0.06
   8  -8  -3    0.08    0.06
   8  -8  -3    0.10    0.07
   8   8  -2    2.62    0.19
   8   8  -2    3.05    0.18
   8   8  -2    2.95    0.19
  -8   8   2    2.93    0.19
   8  -8  -2    2.76    0.19
   8  -8  -2    2.73    0.20
  -8  -8   2    2.60    0.17
   8   8  -1    4.19    0.23
   8   8  -1    4.54    0.22
  -8   8   1    4.18    0.22
   8   8  -1    4.46    0.23
  -8  -8   1    4.05    0.21
   8  -8  -1    4.34    0.24
   8  -8  -1    4.41    0.22
   8   8   0    0.06    0.05
   8   8   0    0.02    0.05
   8   8   0    0.02    0.04
   8  -8   0    0.06    0.07
  -8  -8   0   -0.02    0.04
   8   8   1    0.73    0.10
   8   8   1    0.77    0.11
   8  -8   1    0.68    0.12
  -8  -8  -1    0.83    0.11
   8   8   2    0.71    0.11
   8  -8   2    0.93    0.14
  -8  -8  -2    0.83    0.11
   8   8   3    0.29    0.08
  -8  -8  -3    0.15    0.06
   8  -8   3    0.18    0.08
   8   8   4   -0.08    0.05
   8  -8   4    0.03    0.06
  -8  -8  -4    0.01    0.05
  -8   8  -5   -0.02    0.06
   8   8   5    0.11    0.07
   8  -8   5    0.06    0.08
  -8   8  -6    0.98    0.15
   8   8   6    0.95    0.15
   8  -8   6    0.74    0.14
   8   8   7    0.56    0.14
  -8   8  -7    0.67    0.14
   8   8   8    0.15    0.10
   8   8   9    0.07    0.10
  -8   9  11    0.04    0.11
   8   9 -11    0.09    0.10
   8   9 -11   -0.03    0.09
  -8  -9  11    0.05    0.10
   8   9 -10    0.10    0.11
   8   9 -10    0.14    0.11
  -8   9  10    0.16    0.12
  -8  -9  10    0.14    0.12
  -8   9   9    0.05    0.08
   8   9  -9    0.06    0.08
   8   9  -9    0.00    0.09
  -8   9   9    0.01    0.08
  -8  -9   9    0.02    0.09
   8   9  -8    0.06    0.08
  -8   9   8    0.18    0.10
   8   9  -8    0.18    0.09
  -8   9   8    0.28    0.11
  -8  -9   8    0.07    0.09
   8   9  -7   -0.14    0.05
   8   9  -7    0.00    0.07
  -8   9   7   -0.07    0.06
   8  -9  -7    0.02    0.07
  -8  -9   7    0.14    0.08
  -8  -9   7    0.11    0.09
   8   9  -6    0.46    0.12
  -8   9   6    0.34    0.10
   8   9  -6    0.28    0.10
   8  -9  -6    0.28    0.10
  -8  -9   6    0.35    0.09
   8  -9  -6    0.43    0.11
  -8  -9   6    0.62    0.13
  -8   9   5   -0.02    0.06
   8   9  -5   -0.01    0.06
   8   9  -5    0.07    0.08
   8  -9  -5    0.03    0.06
  -8  -9   5    0.03    0.08
   8  -9  -5    0.05    0.07
  -8  -9   5    0.09    0.06
   8   9  -4    5.01    0.25
   8   9  -4    4.19    0.27
   8   9  -4    4.82    0.27
  -8   9   4    4.80    0.27
   8  -9  -4    5.20    0.28
  -8  -9   4    5.39    0.29
  -8  -9   4    4.86    0.25
   8  -9  -4    5.08    0.29
   8   9  -3    0.94    0.13
   8   9  -3    1.12    0.13
  -8   9   3    0.93    0.13
   8   9  -3    0.96    0.14
  -8  -9   3    0.86    0.12
   8  -9  -3    0.92    0.13
   8  -9  -3    0.89    0.13
   8   9  -2    0.93    0.12
  -8   9   2    0.60    0.10
   8   9  -2    0.67    0.11
   8   9  -2    0.76    0.12
  -8  -9   2    0.85    0.11
   8  -9  -2    0.75    0.12
   8  -9  -2    0.78    0.13
   8   9  -1    0.09    0.06
   8   9  -1    0.05    0.06
   8   9  -1    0.10    0.06
  -8  -9   1    0.07    0.05
   8  -9  -1    0.04    0.06
   8   9   0    6.22    0.27
   8   9   0    5.85    0.27
   8   9   0    6.24    0.28
   8  -9   0    5.68    0.29
  -8  -9   0    6.24    0.28
   8   9   1    0.25    0.08
  -8  -9  -1    0.25    0.07
   8  -9   1    0.41    0.10
   8   9   2    0.03    0.05
   8  -9   2    0.00    0.06
  -8  -9  -2    0.07    0.05
   8   9   3    1.48    0.16
   8  -9   3    1.51    0.18
  -8  -9  -3    1.47    0.16
   8   9   4    0.27    0.09
  -8  -9  -4    0.30    0.08
   8  -9   4    0.26    0.10
  -8   9  -5    0.05    0.07
   8   9   5    0.01    0.07
   8  -9   5    0.03    0.08
  -8   9  -6    0.48    0.12
   8   9   6    0.45    0.12
   8  -9   6    0.47    0.12
   8   9   7   -0.06    0.07
  -8   9  -7   -0.09    0.07
  -8   9  -8    0.16    0.11
   8   9   8    0.14    0.10
  -8  10  10   -0.09    0.08
   8  10 -10    0.06    0.11
   8  10 -10   -0.08    0.08
  -8 -10  10    0.11    0.11
  -8  10   9    0.10    0.09
   8  10  -9    0.07    0.09
   8  10  -9    0.15    0.10
  -8  10   9    0.04    0.09
  -8 -10   9    0.18    0.11
   8  10  -8    0.01    0.07
  -8  10   8    0.01    0.08
  -8  10   8   -0.07    0.06
   8  10  -8   -0.01    0.08
  -8 -10   8    0.00    0.07
  -8  10   7    0.58    0.13
   8  10  -7    0.49    0.13
   8  10  -7    0.69    0.14
  -8 -10   7    0.55    0.14
  -8 -10   7    0.41    0.10
   8  10  -6    3.48    0.26
  -8  10   6    3.16    0.24
   8  10  -6    2.93    0.22
  -8 -10   6    2.36    0.24
   8 -10  -6    2.49    0.25
  -8 -10   6    2.82    0.20
   8 -10  -6    3.39    0.23
   8  10  -5    1.38    0.18
   8  10  -5    1.71    0.20
  -8  10   5    2.20    0.22
   8 -10  -5    1.63    0.20
  -8 -10   5    1.29    0.17
   8 -10  -5    1.58    0.18
   8  10  -4    0.20    0.09
  -8  10   4    0.35    0.09
   8  10  -4    0.50    0.11
  -8 -10   4    0.57    0.12
  -8 -10   4    0.46    0.10
   8 -10  -4    0.40    0.10
   8 -10  -4    0.37    0.10
  -8  10   3    0.02    0.06
   8  10  -3    0.22    0.09
   8  10  -3    0.13    0.08
   8  10  -3    0.14    0.07
   8 -10  -3    0.04    0.06
  -8 -10   3    0.22    0.07
   8 -10  -3    0.18    0.08
  -8 -10   3    0.23    0.09
   8  10  -2    0.36    0.09
   8  10  -2    0.33    0.09
   8  10  -2    0.34    0.09
  -8  10   2    0.17    0.06
  -8 -10   2    0.46    0.09
   8 -10  -2    0.49    0.10
   8 -10  -2    0.39    0.10
  -8 -10   2    0.49    0.11
   8  10  -1    2.16    0.19
   8  10  -1    1.85    0.17
   8  10  -1    1.88    0.18
  -8 -10   1    2.07    0.19
  -8 -10   1    2.10    0.16
   8 -10  -1    2.13    0.21
   8  10   0    7.93    0.33
   8  10   0    7.93    0.33
   8 -10   0    7.90    0.36
  -8 -10   0    7.75    0.33
  -8 -10   0    8.50    0.33
   8  10   1    1.16    0.14
  -8 -10  -1    1.43    0.15
   8 -10   1    1.32    0.16
   8  10   2    3.32    0.20
  -8 -10  -2    2.96    0.20
   8 -10   2    3.33    0.23
   8  10   3    0.13    0.08
  -8 -10  -3    0.04    0.05
   8 -10   3   -0.13    0.06
   8  10   4    0.74    0.13
  -8 -10  -4    0.96    0.14
   8 -10   4    0.62    0.13
  -8  10  -5    0.97    0.15
   8  10   5    1.32    0.17
   8 -10   5    1.02    0.16
  -8  10  -6    0.00    0.07
   8  10   6   -0.02    0.07
   8 -10   6   -0.05    0.07
  -8  10  -7    0.14    0.10
   8  10   7   -0.04    0.08
   8  10   8    0.01    0.09
  -8  10  -8    0.03    0.09
   8  11 -10    0.07    0.11
  -8  11  10    0.09    0.11
   8  11 -10    0.15    0.12
  -8 -11  10    0.10    0.11
  -8  11   9    0.01    0.10
   8  11  -9    0.11    0.10
  -8  11   9    0.02    0.08
   8  11  -9    0.10    0.10
  -8 -11   9    0.02    0.10
   8  11  -8    0.08    0.08
  -8  11   8    0.13    0.10
  -8  11   8    0.06    0.09
   8  11  -8    0.00    0.09
  -8 -11   8    0.04    0.09
   8  11  -7    0.13    0.09
   8  11  -7    0.00    0.07
  -8  11   7   -0.05    0.06
  -8  11   7    0.04    0.08
  -8 -11   7    0.04    0.09
   8  11  -6    0.06    0.08
   8  11  -6    0.13    0.08
  -8  11   6   -0.01    0.06
  -8 -11   6    0.08    0.06
  -8 -11   6    0.00    0.07
   8 -11  -6    0.07    0.08
   8  11  -5    0.09    0.08
   8  11  -5   -0.04    0.07
  -8  11   5    0.03    0.07
  -8 -11   5    0.18    0.09
  -8 -11   5    0.06    0.06
   8 -11  -5    0.06    0.06
   8 -11  -5    0.14    0.08
  -8  11   4    0.18    0.08
   8  11  -4    0.38    0.10
   8  11  -4    0.21    0.09
  -8 -11   4    0.29    0.08
   8 -11  -4    0.15    0.08
   8 -11  -4    0.18    0.08
  -8 -11   4    0.29    0.10
   8  11  -3    0.32    0.10
  -8  11   3    0.37    0.09
   8  11  -3    0.33    0.10
   8 -11  -3    0.22    0.08
  -8 -11   3    0.20    0.07
   8 -11  -3    0.21    0.09
  -8 -11   3    0.33    0.10
   8  11  -2    3.17    0.19
   8  11  -2    3.13    0.21
   8  11  -2    2.98    0.21
  -8 -11   2    3.19    0.20
  -8 -11   2    3.42    0.22
   8 -11  -2    3.29    0.23
   8 -11  -2    3.73    0.23
   8  11  -1    1.94    0.19
   8  11  -1    2.29    0.17
   8  11  -1    2.37    0.16
   8 -11  -1    2.32    0.23
  -8 -11   1    2.19    0.16
  -8 -11   1    1.93    0.18
   8  11   0    0.80    0.12
   8 -11   0    0.77    0.13
  -8 -11   0    1.00    0.13
   8  11   1    5.52    0.26
  -8 -11  -1    4.71    0.26
   8 -11   1    4.00    0.26
   8  11   2    5.70    0.27
   8 -11   2    4.93    0.29
  -8 -11  -2    4.58    0.26
   8  11   3    0.03    0.07
  -8 -11  -3    0.28    0.09
   8 -11   3    0.05    0.08
  -8  11  -4    1.26    0.18
   8  11   4    1.03    0.15
   8 -11   4    0.96    0.16
  -8 -11  -4    1.04    0.15
  -8  11  -5    0.61    0.13
   8  11   5    0.47    0.12
   8 -11   5    0.26    0.11
  -8 -11  -5    0.30    0.09
  -8  11  -6    0.97    0.18
   8  11   6    0.75    0.15
   8 -11   6    0.66    0.15
   8  11   7    0.30    0.12
  -8  11  -7    0.67    0.15
   8  11   8   -0.01    0.08
  -8  11  -8   -0.09    0.08
   8  12 -10    0.07    0.11
   8  12 -10    0.10    0.11
  -8  12  10    0.11    0.11
  -8 -12  10    0.11    0.12
  -8  12   9    0.08    0.11
   8  12  -9    0.00    0.09
   8  12  -9    0.22    0.12
  -8 -12   9    0.05    0.10
   8  12  -8    0.18    0.10
   8  12  -8   -0.14    0.07
  -8  12   8   -0.04    0.08
  -8  12   8    0.05    0.09
  -8 -12   8    0.11    0.11
   8  12  -7    0.10    0.09
   8  12  -7   -0.06    0.07
  -8  12   7    0.07    0.08
  -8  12   7   -0.05    0.06
  -8 -12   7   -0.06    0.07
  -8  12   6   -0.09    0.06
   8  12  -6   -0.07    0.07
   8  12  -6    0.06    0.09
  -8  12   6   -0.05    0.07
   8 -12  -6    0.05    0.07
  -8 -12   6    0.03    0.08
   8  12  -5    0.34    0.11
  -8  12   5    0.66    0.14
  -8 -12   5    0.47    0.10
  -8 -12   5    0.62    0.13
   8 -12  -5    0.56    0.13
   8 -12  -5    0.64    0.14
   8  12  -4    1.00    0.16
  -8  12   4    1.15    0.16
   8  12  -4    0.95    0.15
   8 -12  -4    1.29    0.17
  -8 -12   4    0.90    0.13
   8 -12  -4    1.27    0.18
  -8 -12   4    0.69    0.13
   8  12  -3    1.23    0.17
   8  12  -3    1.44    0.18
   8 -12  -3    1.41    0.18
   8 -12  -3    1.27    0.17
  -8 -12   3    1.33    0.15
  -8 -12   3    1.33    0.16
   8  12  -2    0.01    0.06
   8  12  -2   -0.01    0.06
   8 -12  -2    0.10    0.07
  -8 -12   2    0.00    0.05
  -8 -12   2    0.02    0.06
   8  12  -1    0.48    0.10
   8  12  -1    0.39    0.09
   8  12  -1    0.32    0.09
   8 -12  -1    0.29    0.10
  -8 -12   1    0.28    0.08
  -8 -12   1    0.27    0.09
   8  12   0    0.74    0.12
  -8 -12   0    0.53    0.10
   8 -12   0    0.62    0.13
   8  12   1    2.46    0.18
   8 -12   1    2.51    0.24
  -8 -12  -1    2.59    0.19
   8  12   2    0.14    0.08
   8 -12   2    0.21    0.09
  -8 -12  -2    0.25    0.09
   8  12   3    3.08    0.21
  -8 -12  -3    3.01    0.22
   8 -12   3    2.93    0.27
   8  12   4    0.05    0.08
  -8  12  -4    0.06    0.08
   8 -12   4    0.05    0.08
   8  12   5    0.12    0.09
  -8  12  -5    0.09    0.08
   8 -12   5    0.25    0.10
  -8  12  -6    0.02    0.08
   8  12   6   -0.04    0.08
   8 -12   6    0.10    0.10
   8  12   7    0.74    0.16
  -8  12  -7    0.26    0.12
   8 -12   7    0.34    0.13
   8  13  -9    0.07    0.10
   8  13  -9   -0.10    0.09
  -8  13   9    0.21    0.12
  -8 -13   9   -0.04    0.09
  -8  13   8    0.03    0.08
  -8  13   8    0.01    0.08
   8  13  -8    0.01    0.09
   8  13  -8    0.01    0.09
  -8 -13   8    0.17    0.11
   8  13  -7   -0.02    0.07
  -8  13   7    0.20    0.10
  -8  13   7    0.05    0.09
   8  13  -7   -0.03    0.08
  -8 -13   7    0.11    0.10
  -8  13   6    0.62    0.15
   8  13  -6    1.02    0.18
   8  13  -6    0.49    0.13
  -8  13   6    0.89    0.16
  -8 -13   6    0.63    0.15
  -8  13   5    1.35    0.19
   8  13  -5    1.25    0.18
   8  13  -5    1.21    0.19
   8 -13  -5    1.60    0.20
  -8 -13   5    1.11    0.17
   8  13  -4    0.81    0.15
   8  13  -4    0.68    0.14
  -8  13   4    0.69    0.13
  -8 -13   4    0.51    0.12
   8 -13  -4    0.69    0.14
   8 -13  -4    0.61    0.13
   8  13  -3    0.04    0.07
   8  13  -3    0.05    0.07
   8 -13  -3    0.04    0.07
  -8 -13   3    0.20    0.09
  -8 -13   3    0.08    0.06
   8 -13  -3   -0.02    0.07
   8  13  -2    0.16    0.08
   8  13  -2    0.08    0.07
  -8 -13   2    0.19    0.08
  -8 -13   2    0.05    0.06
   8 -13  -2    0.08    0.07
   8  13  -1    0.07    0.07
  -8 -13   1    0.03    0.06
  -8 -13   1    0.12    0.08
   8 -13  -1    0.03    0.07
   8  13   0    1.87    0.18
  -8 -13   0    1.75    0.18
   8 -13   0    1.52    0.19
   8  13   1    1.13    0.15
   8 -13   1    1.13    0.17
  -8 -13  -1    1.55    0.18
   8  13   2    0.29    0.09
   8 -13   2    0.19    0.10
  -8  13  -3    0.61    0.14
   8  13   3    0.53    0.12
   8 -13   3    0.72    0.15
  -8  13  -4    0.32    0.11
   8  13   4    0.48    0.12
   8 -13   4    0.29    0.11
   8  13   5    0.02    0.08
  -8  13  -5    0.02    0.08
   8 -13   5    0.05    0.09
  -8  13  -6   -0.02    0.09
   8  13   6    0.04    0.09
   8 -13   6   -0.12    0.08
  -8  13  -7   -0.10    0.08
   8  13   7   -0.01    0.09
   8 -13   7    0.11    0.10
  -8  14   9    0.58    0.16
   8  14  -9    0.53    0.15
  -8 -14   9    0.49    0.15
   8  14  -8    0.06    0.10
  -8  14   8    0.20    0.12
   8  14  -8    0.23    0.12
  -8 -14   8    0.31    0.13
   8  14  -7    0.01    0.08
  -8  14   7   -0.02    0.07
   8  14  -7    0.08    0.10
  -8  14   7    0.09    0.10
  -8 -14   7    0.08    0.09
   8  14  -6    2.17    0.25
  -8  14   6    1.85    0.22
   8  14  -6    1.97    0.22
  -8  14   6    1.66    0.22
  -8 -14   6    1.80    0.23
  -8  14   5    0.10    0.08
   8  14  -5    0.02    0.08
   8  14  -5    0.01    0.07
  -8  14   5   -0.04    0.08
   8 -14  -5    0.06    0.08
  -8 -14   5    0.07    0.08
   8  14  -4   -0.04    0.07
   8  14  -4    0.11    0.08
  -8 -14   4    0.00    0.08
   8 -14  -4    0.07    0.08
   8 -14  -4    0.07    0.07
   8  14  -3    1.45    0.19
   8  14  -3    1.35    0.18
   8 -14  -3    1.29    0.19
   8  14  -2    0.14    0.09
   8  14  -2    0.30    0.10
   8 -14  -2    0.31    0.11
  -8 -14   2    0.19    0.09
   8 -14  -1    0.12    0.09
   8 -14   0    0.17    0.09
   8  14   1   -0.03    0.06
   8 -14   1    0.11    0.08
  -8  14  -2    0.35    0.10
   8  14   2    0.32    0.10
   8 -14   2    0.31    0.11
  -8  14  -3    1.08    0.18
   8  14   3    0.90    0.14
   8 -14   3    0.81    0.15
  -8  14  -4    0.93    0.17
   8  14   4    0.92    0.15
   8 -14   4    1.01    0.17
  -8  14  -5    0.83    0.16
   8  14   5    0.45    0.12
   8 -14   5    0.66    0.15
   8  14   6    0.26    0.11
  -8  14  -6    0.38    0.13
   8 -14   6    0.34    0.13
  -8  14  -7   -0.01    0.09
   8  14   7    0.12    0.10
   8 -14   7   -0.01    0.10
   8  15  -8    0.29    0.12
  -8  15   8    0.14    0.11
   8  15  -8    0.34    0.15
  -8 -15   8    0.12    0.12
  -8  15   7    0.06    0.10
   8  15  -7    0.23    0.13
   8  15  -7    0.09    0.10
  -8  15   7    0.13    0.10
  -8 -15   7    0.24    0.12
  -8  15   6    0.21    0.11
   8  15  -6    0.35    0.12
  -8  15   6    0.19    0.11
   8  15  -6    0.06    0.10
  -8 -15   6    0.07    0.10
   8  15  -5    0.20    0.10
   8  15  -5    0.13    0.10
  -8 -15   5    0.27    0.11
   8  15  -4    0.86    0.17
   8  15  -4    0.94    0.16
  -8 -15   4    0.81    0.16
   8 -15  -4    0.99    0.16
   8  15  -3    0.34    0.11
   8  15  -3    0.50    0.13
   8 -15  -3    0.43    0.13
  -8 -15   3    0.50    0.12
   8  15  -2    1.55    0.20
   8  15  -2    1.66    0.20
   8 -15  -2    1.55    0.20
  -8 -15   2    1.65    0.20
   8 -15  -1    0.80    0.16
   8 -15   0    0.78    0.15
   8 -15   1    0.42    0.12
   8  15   2    1.43    0.17
  -8  15  -2    1.42    0.20
   8 -15   2    1.35    0.20
  -8  15  -3    0.63    0.14
   8  15   3    0.65    0.13
   8 -15   3    0.40    0.13
   8  15   4   -0.02    0.08
  -8  15  -4    0.13    0.09
   8 -15   4    0.00    0.09
  -8  15  -5    0.10    0.09
   8  15   5    0.03    0.08
   8 -15   5   -0.04    0.09
  -8  15  -6    0.01    0.09
   8  15   6    0.16    0.10
   8 -15   6    0.07    0.10
  -8  16   7   -0.01    0.07
  -8  16   7   -0.08    0.08
   8  16  -7   -0.02    0.09
   8  16  -7    0.02    0.09
  -8 -16   7    0.15    0.12
   8  16  -6    0.42    0.13
   8  16  -6    0.05    0.09
  -8 -16   6    0.01    0.09
   8  16  -5    0.07    0.08
   8  16  -5   -0.11    0.07
  -8 -16   5   -0.11    0.08
   8  16  -4    0.00    0.08
   8  16  -4    0.21    0.11
  -8 -16   4    0.07    0.09
   8 -16  -4    0.05    0.09
   8  16  -3    0.02    0.08
   8  16  -3    0.01    0.08
  -8 -16   3    0.04    0.08
   8 -16  -3    0.19    0.10
   8 -16  -2    0.15    0.10
   8 -16  -1    3.41    0.26
   8 -16   0    0.09    0.09
  -8  16  -1    0.08    0.08
   8 -16   1   -0.06    0.08
  -8  16  -2    0.06    0.09
   8 -16   2    0.19    0.10
   8  16   3    0.12    0.09
  -8  16  -3    0.09    0.09
   8 -16   3    0.07    0.10
   8  16   4    1.03    0.16
  -8  16  -4    0.54    0.14
   8 -16   4    0.70    0.16
   8  16   5    0.24    0.10
  -8  16  -5    0.00    0.08
   8 -16   5    0.01    0.10
   8  17  -7    0.15    0.11
   8  17  -6   -0.11    0.07
   8  17  -6    0.00    0.09
  -8 -17   6    0.01    0.09
   8  17  -5    0.10    0.11
   8  17  -5    0.17    0.11
  -8 -17   5    0.07    0.09
   8  17  -4    0.26    0.12
   8  17  -4    0.35    0.13
   8 -17  -4    0.32    0.12
  -8 -17   4    0.19    0.10
   8  17  -3    0.07    0.10
   8  17  -3    0.06    0.09
   8 -17  -3    0.03    0.09
  -8 -17   3    0.09    0.10
   8 -17  -2    0.45    0.14
  -8  17   1    0.03    0.08
   8 -17  -1    0.06    0.10
  -8  17   0    0.73    0.15
   8 -17   0    0.70    0.16
  -8  17  -1    1.53    0.21
   8 -17   1    1.33    0.20
  -8  17  -2    0.51    0.13
   8 -17   2    0.47    0.14
  -8  17  -3    0.09    0.09
   8 -17   3    0.14    0.10
  -8  17  -4    0.01    0.09
   8  17   4    0.19    0.10
   8 -17   4    0.24    0.12
  -8  17  -5   -0.02    0.09
   8 -17   5    0.13    0.12
   8  18  -6    0.07    0.11
   8  18  -6    0.01    0.10
  -8 -18   6    0.06    0.11
   8  18  -5   -0.03    0.10
   8  18  -5   -0.09    0.08
  -8 -18   5    0.06    0.10
   8  18  -4   -0.08    0.08
   8  18  -4    0.02    0.10
  -8 -18   4    0.09    0.10
   8  18  -3    1.73    0.22
  -8 -18   3    2.45    0.25
   8 -18  -3    2.55    0.28
   8 -18  -2    0.07    0.09
  -8  18   1   -0.04    0.08
   8 -18  -1    0.07    0.10
  -8  18   0    0.12    0.09
   8 -18   0    0.11    0.10
  -8  18  -1   -0.02    0.07
   8 -18   1    0.00    0.09
  -8  18  -2    0.00    0.09
   8 -18   2    0.03    0.10
  -8  18  -3   -0.07    0.09
   8 -18   3    0.01    0.10
  -8  18  -4    0.09    0.10
   8  19  -4    0.03    0.10
   8  19  -4    0.07    0.10
  -8 -19   4    0.14    0.12
   8 -19  -3    0.06    0.10
   8 -19  -2    0.15    0.11
  -8  19   1   -0.01    0.08
   8 -19  -1    0.23    0.12
  -8  19   0   -0.01    0.09
   8 -19   0    0.01    0.10
  -8  19  -1    0.06    0.10
   8 -19   1    0.05    0.10
  -8  19  -2    0.23    0.13
   8 -19   2    0.30    0.14
   8 -20  -2   -0.01    0.10
   8 -20  -1   -0.09    0.09
  -8  20   0    0.04    0.10
   8 -20   0    0.20    0.13
  -9   0  11    0.08    0.12
  -9   0  11   -0.05    0.08
   9   0 -10    0.06    0.09
  -9   0  10    0.06    0.10
   9   0  -9    0.04    0.08
  -9   0   9   -0.02    0.07
   9   0  -9    0.06    0.08
   9   0  -8    0.16    0.09
   9   0  -8   -0.02    0.06
  -9   0   8    0.07    0.08
   9   0  -7    0.05    0.06
   9   0  -7   -0.06    0.05
   9   0  -6    0.92    0.14
   9   0  -6    0.80    0.13
   9   0  -5    0.03    0.06
   9   0  -5   -0.10    0.05
  -9   0   5    0.00    0.05
  -9   0   4   11.94    0.45
   9   0  -4   13.08    0.48
  -9   0   3   -0.02    0.04
   9   0  -3   -0.03    0.05
   9   0  -2    4.21    0.23
   9   0  -2    4.43    0.24
  -9   0   2    4.44    0.22
   9   0  -1   -0.01    0.05
   9   0  -1   -0.03    0.05
  -9   0   1   -0.01    0.04
  -9   0   0    2.88    0.16
   9   0   0    2.59    0.17
   9   0   0    2.73    0.19
   9   0   1   -0.04    0.05
   9   0   1   -0.09    0.04
  -9   0  -1    0.06    0.04
   9   0   2    6.77    0.28
   9   0   2    7.08    0.30
   9   0   3   -0.05    0.04
   9   0   4    3.96    0.22
   9   0   5    0.03    0.07
   9   0   6    1.13    0.15
   9   0   7   -0.04    0.06
   9   0   8    0.01    0.08
  -9   1  11   -0.05    0.07
  -9   1  11   -0.10    0.10
  -9  -1  11   -0.07    0.11
  -9  -1  11   -0.04    0.08
   9   1 -10   -0.03    0.08
   9   1 -10    0.06    0.09
  -9   1  10   -0.01    0.08
   9  -1 -10    0.04    0.08
  -9  -1  10    0.05    0.09
   9   1  -9    0.04    0.07
  -9   1   9    0.02    0.08
   9   1  -9    0.06    0.08
   9  -1  -9    0.07    0.08
  -9  -1   9   -0.01    0.07
   9  -1  -9    0.01    0.07
   9   1  -8    0.33    0.11
  -9   1   8    0.30    0.12
   9   1  -8    0.41    0.10
   9  -1  -8    0.41    0.10
  -9  -1   8    0.28    0.09
   9  -1  -8    0.27    0.10
   9   1  -7    0.05    0.06
   9   1  -7    0.13    0.08
   9  -1  -7    0.14    0.07
  -9  -1   7    0.02    0.06
   9  -1  -7    0.02    0.06
   9   1  -6    0.50    0.11
   9   1  -6    0.60    0.11
  -9  -1   6    0.48    0.10
   9  -1  -6    0.59    0.12
   9   1  -5    4.41    0.25
   9   1  -5    4.74    0.27
   9  -1  -5    3.97    0.25
  -9  -1   5    4.37    0.25
   9   1  -4    1.68    0.17
   9   1  -4    1.74    0.18
  -9  -1   4    1.71    0.17
   9  -1  -4    1.84    0.19
  -9   1   3    8.07    0.33
   9   1  -3    7.77    0.34
  -9  -1   3    7.36    0.32
   9  -1  -3    7.66    0.34
   9   1  -2    0.12    0.07
   9   1  -2    0.11    0.06
  -9   1   2    0.12    0.06
   9  -1  -2    0.07    0.06
  -9  -1   2    0.15    0.06
   9  -1  -2    0.15    0.07
   9   1  -1    4.42    0.25
  -9   1   1    5.04    0.23
   9   1  -1    5.62    0.26
  -9  -1   1    4.97    0.23
   9  -1  -1    5.31    0.25
   9  -1  -1    5.56    0.27
   9   1   0   10.69    0.39
  -9   1   0   10.88    0.36
   9   1   0   11.61    0.41
   9  -1   0    9.87    0.39
  -9  -1   0   10.76    0.36
   9  -1   0   11.36    0.40
   9   1   1    0.07    0.06
   9   1   1    0.02    0.06
  -9   1  -1    0.20    0.05
  -9  -1  -1    0.02    0.03
   9  -1   1    0.02    0.05
   9  -1   1    0.03    0.05
   9   1   2    0.10    0.06
   9   1   2    0.21    0.07
   9  -1   2    0.24    0.07
   9  -1   2    0.04    0.06
   9   1   3    0.72    0.11
   9  -1   3    0.62    0.11
   9  -1   3    0.76    0.11
   9   1   4    0.20    0.08
   9  -1   4    0.32    0.08
   9   1   5    0.25    0.09
   9  -1   5    0.20    0.08
   9   1   6    0.33    0.09
   9  -1   6    0.34    0.09
   9   1   7    0.00    0.07
   9  -1   7    0.17    0.08
   9   1   8    0.04    0.08
   9   1   9    0.05    0.09
  -9   2  11    0.12    0.11
  -9  -2  11   -0.01    0.09
   9   2 -10    0.29    0.10
  -9   2  10    0.15    0.10
   9   2 -10    0.00    0.08
  -9  -2  10    0.16    0.11
   9   2  -9    0.06    0.09
   9   2  -9    0.09    0.09
  -9   2   9    0.03    0.08
   9  -2  -9   -0.06    0.07
  -9  -2   9   -0.03    0.08
   9   2  -8   -0.03    0.06
  -9   2   8   -0.02    0.06
   9   2  -8   -0.03    0.07
  -9  -2   8   -0.04    0.06
   9  -2  -8    0.07    0.07
   9   2  -7    3.97    0.26
   9   2  -7    3.93    0.26
  -9   2   7    4.01    0.28
  -9  -2   7    3.84    0.25
   9  -2  -7    4.14    0.26
   9   2  -6    0.84    0.14
   9   2  -6    0.74    0.13
  -9  -2   6    0.52    0.11
   9  -2  -6    0.92    0.14
   9   2  -5    1.10    0.15
   9   2  -5    0.73    0.12
  -9  -2   5    1.16    0.15
   9  -2  -5    1.41    0.17
   9   2  -4    7.92    0.34
   9   2  -4    8.45    0.36
   9  -2  -4    7.59    0.35
  -9  -2   4    7.74    0.34
   9   2  -3    6.78    0.31
   9   2  -3    7.22    0.33
   9   2  -3    7.58    0.32
   9  -2  -3    7.47    0.33
  -9  -2   3    6.99    0.31
  -9   2   2    3.05    0.19
   9   2  -2    2.90    0.20
   9   2  -2    3.30    0.20
   9  -2  -2    3.42    0.22
  -9  -2   2    3.17    0.18
   9   2  -1    0.72    0.12
   9   2  -1    0.62    0.10
  -9   2   1    0.62    0.09
   9  -2  -1    0.67    0.11
  -9  -2   1    0.63    0.09
   9  -2  -1    0.47    0.10
  -9   2   0    4.52    0.20
   9   2   0    5.55    0.26
   9   2   0    4.50    0.23
   9  -2   0    4.69    0.23
  -9  -2   0    5.12    0.22
   9  -2   0    4.49    0.24
   9   2   1    0.15    0.07
   9   2   1    0.17    0.07
  -9  -2  -1    0.20    0.05
   9  -2   1    0.21    0.07
   9  -2   1    0.13    0.06
   9   2   2    0.86    0.12
   9   2   2    0.84    0.12
  -9  -2  -2    0.85    0.10
   9  -2   2    0.83    0.12
   9  -2   2    0.96    0.12
   9   2   3    2.89    0.18
   9  -2   3    2.69    0.17
   9  -2   3    3.05    0.19
   9   2   4    0.05    0.06
   9  -2   4    0.04    0.06
   9   2   5    2.27    0.17
   9  -2   5    2.10    0.16
   9   2   6    0.12    0.07
   9  -2   6    0.00    0.06
   9   2   7   -0.01    0.07
   9   2   8    0.08    0.09
   9   2   9    0.05    0.09
  -9   3  11    0.02    0.10
   9   3 -11    0.20    0.11
  -9  -3  11   -0.12    0.09
  -9  -3  11    0.06    0.11
   9   3 -10    0.08    0.08
  -9   3  10    0.02    0.09
   9   3 -10    0.00    0.08
  -9  -3  10    0.21    0.11
  -9  -3  10    0.11    0.10
  -9   3   9    1.12    0.19
   9   3  -9    0.80    0.15
   9   3  -9    0.75    0.15
  -9  -3   9    1.11    0.19
   9  -3  -9    0.91    0.15
   9   3  -8   -0.01    0.07
   9   3  -8    0.10    0.08
  -9   3   8    0.05    0.08
   9  -3  -8    0.04    0.07
  -9  -3   8    0.03    0.07
   9   3  -7    0.40    0.11
   9   3  -7    0.58    0.13
  -9   3   7    0.46    0.12
  -9  -3   7    0.53    0.11
   9  -3  -7    0.38    0.10
   9  -3  -7    0.32    0.11
   9   3  -6    0.02    0.06
   9   3  -6   -0.08    0.05
   9  -3  -6   -0.01    0.06
  -9  -3   6    0.02    0.05
   9  -3  -6   -0.05    0.05
   9   3  -5    1.81    0.20
   9   3  -5    1.62    0.18
   9  -3  -5    1.63    0.18
  -9  -3   5    1.31    0.15
   9   3  -4    1.84    0.19
   9   3  -4    1.48    0.17
  -9  -3   4    1.64    0.17
   9  -3  -4    1.55    0.18
   9   3  -3    0.03    0.06
   9   3  -3    0.11    0.06
   9   3  -3    0.07    0.06
   9  -3  -3    0.12    0.07
  -9  -3   3   -0.02    0.04
   9   3  -2    0.49    0.11
   9   3  -2    0.75    0.11
   9   3  -2    0.58    0.10
  -9  -3   2    0.44    0.08
   9  -3  -2    0.54    0.11
   9   3  -1    7.58    0.31
   9   3  -1    7.78    0.32
  -9   3   1    7.34    0.29
  -9  -3   1    7.43    0.29
   9  -3  -1    7.35    0.31
   9  -3  -1    6.79    0.32
  -9   3   0    0.72    0.09
   9   3   0    0.84    0.12
   9   3   0    0.90    0.12
  -9  -3   0    0.73    0.09
   9  -3   0    0.90    0.12
   9  -3   0    0.80    0.12
   9   3   1   -0.04    0.04
   9   3   1    0.02    0.05
   9  -3   1   -0.01    0.05
   9  -3   1    0.05    0.06
  -9  -3  -1    0.00    0.03
   9   3   2    0.13    0.07
  -9  -3  -2    0.14    0.05
   9  -3   2    0.14    0.07
   9  -3   2    0.17    0.07
   9   3   3    0.25    0.08
   9  -3   3    0.08    0.06
   9  -3   3    0.24    0.08
   9   3   4    0.60    0.11
   9  -3   4    0.76    0.12
   9  -3   4    0.52    0.10
   9   3   5    1.00    0.14
   9  -3   5    1.22    0.14
   9   3   6    0.16    0.08
   9   3   7    0.26    0.09
   9   3   8   -0.01    0.08
   9   3   9   -0.08    0.08
   9   4 -11   -0.05    0.08
  -9   4  11    0.10    0.11
   9   4 -11   -0.01    0.09
  -9  -4  11   -0.02    0.10
  -9   4  10   -0.05    0.08
   9   4 -10    0.00    0.08
   9   4 -10    0.04    0.08
  -9  -4  10    0.03    0.10
  -9  -4  10   -0.03    0.08
   9   4  -9    0.05    0.08
  -9   4   9   -0.01    0.07
   9   4  -9    0.08    0.09
   9  -4  -9    0.05    0.08
   9   4  -8    0.39    0.12
   9   4  -8    0.24    0.09
  -9   4   8    0.49    0.13
   9  -4  -8    0.50    0.12
   9   4  -7    0.24    0.09
  -9   4   7    0.55    0.13
   9   4  -7    0.45    0.11
  -9  -4   7    0.59    0.12
   9  -4  -7    0.72    0.14
   9  -4  -7    0.46    0.12
   9   4  -6    0.82    0.14
  -9   4   6    0.86    0.15
   9   4  -6    0.91    0.15
   9  -4  -6    0.90    0.14
   9  -4  -6    0.63    0.13
  -9  -4   6    0.64    0.12
   9   4  -5    0.23    0.09
   9   4  -5    0.17    0.08
   9  -4  -5    0.19    0.08
   9  -4  -5    0.34    0.10
  -9  -4   5    0.28    0.08
   9   4  -4    1.49    0.17
   9   4  -4    1.45    0.17
   9  -4  -4    1.83    0.18
   9  -4  -4    1.71    0.19
  -9  -4   4    1.60    0.16
   9   4  -3    1.54    0.16
   9   4  -3    2.14    0.16
   9   4  -3    2.06    0.19
   9  -4  -3    1.48    0.17
  -9  -4   3    1.77    0.16
   9   4  -2    7.73    0.33
   9   4  -2    8.56    0.34
   9   4  -2    8.16    0.34
   9  -4  -2    7.74    0.34
  -9  -4   2    7.83    0.32
   9   4  -1    0.07    0.06
   9   4  -1    0.17    0.07
  -9  -4   1    0.29    0.07
   9  -4  -1    0.25    0.08
   9  -4  -1    0.24    0.08
   9   4   0    0.82    0.12
   9   4   0    0.79    0.11
  -9   4   0    0.67    0.09
   9  -4   0    0.87    0.13
  -9  -4   0    0.77    0.10
   9  -4   0    0.80    0.12
   9   4   1    1.60    0.15
   9   4   1    1.28    0.14
   9  -4   1    1.32    0.15
   9  -4   1    1.12    0.13
  -9  -4  -1    1.22    0.12
   9   4   2    0.09    0.06
   9  -4   2    0.14    0.07
   9  -4   2    0.08    0.06
  -9  -4  -2    0.16    0.05
   9   4   3    0.11    0.07
   9  -4   3    0.19    0.08
   9  -4   3    0.09    0.06
   9   4   4    1.15    0.15
   9  -4   4    1.12    0.13
   9  -4   4    1.30    0.15
   9   4   5    1.00    0.14
   9   4   6    1.57    0.18
   9   4   7    0.21    0.10
   9   4   8   -0.09    0.07
   9   4   9   -0.06    0.08
   9   5 -11    0.22    0.11
  -9   5  11    0.53    0.16
   9   5 -11    0.09    0.10
  -9  -5  11    0.32    0.13
  -9   5  10    0.22    0.11
   9   5 -10    0.09    0.10
   9   5 -10    0.08    0.09
  -9   5  10    0.10    0.11
  -9  -5  10    0.17    0.11
  -9  -5  10    0.04    0.09
  -9   5   9    0.24    0.11
   9   5  -9    0.02    0.08
   9   5  -9    0.03    0.08
  -9  -5   9    0.16    0.11
  -9   5   8   -0.01    0.06
   9   5  -8   -0.03    0.07
   9   5  -8   -0.01    0.07
   9  -5  -8   -0.10    0.06
   9   5  -7    0.47    0.11
  -9   5   7    0.42    0.12
   9   5  -7    0.15    0.08
  -9  -5   7    0.60    0.12
   9  -5  -7    0.44    0.11
   9  -5  -7    0.21    0.09
  -9   5   6    0.93    0.16
   9   5  -6    0.80    0.14
   9   5  -6    0.86    0.14
   9  -5  -6    1.28    0.17
  -9  -5   6    1.02    0.14
   9  -5  -6    0.67    0.13
   9   5  -5    0.24    0.09
  -9   5   5    0.30    0.09
   9   5  -5    0.21    0.09
   9  -5  -5    0.26    0.09
   9  -5  -5    0.21    0.08
  -9  -5   5    0.31    0.08
   9   5  -4    1.76    0.19
   9   5  -4    1.41    0.17
  -9  -5   4    1.46    0.16
   9  -5  -4    1.44    0.16
   9  -5  -4    1.45    0.17
   9   5  -3    0.45    0.10
   9   5  -3    0.47    0.10
   9   5  -3    0.38    0.10
   9  -5  -3    0.42    0.09
   9  -5  -3    0.42    0.10
  -9  -5   3    0.52    0.10
   9   5  -2    4.07    0.24
   9   5  -2    3.99    0.22
   9   5  -2    4.63    0.24
  -9  -5   2    4.25    0.22
   9  -5  -2    4.31    0.24
   9   5  -1    4.02    0.22
   9   5  -1    3.76    0.22
   9   5  -1    3.74    0.21
   9  -5  -1    3.76    0.23
  -9  -5   1    3.54    0.19
   9   5   0    2.83    0.18
   9   5   0    2.93    0.18
  -9  -5   0    2.72    0.16
   9  -5   0    2.64    0.19
   9  -5   0    2.94    0.18
   9   5   1    0.59    0.10
   9   5   1    0.74    0.11
  -9  -5  -1    0.51    0.08
   9  -5   1    0.59    0.10
   9  -5   1    0.58    0.11
   9   5   2    0.50    0.10
  -9  -5  -2    0.37    0.08
   9  -5   2    0.51    0.10
   9  -5   2    0.50    0.11
   9   5   3    1.84    0.18
   9  -5   3    1.99    0.15
   9  -5   3    2.03    0.19
   9   5   4    2.52    0.19
   9  -5   4    2.64    0.19
   9   5   5    0.04    0.07
   9   5   6    0.27    0.11
   9   5   7    0.07    0.08
   9   5   8   -0.03    0.09
   9   5   9    0.10    0.11
   9   6 -11    0.03    0.09
  -9   6  11    0.07    0.11
   9   6 -11    0.03    0.10
  -9  -6  11    0.12    0.11
   9   6 -10    0.24    0.11
  -9   6  10    0.38    0.14
   9   6 -10    0.29    0.12
  -9   6  10    0.01    0.09
  -9  -6  10    0.31    0.12
   9   6  -9    0.25    0.11
   9   6  -9    0.34    0.13
  -9   6   9    0.45    0.13
  -9  -6   9    0.29    0.12
   9   6  -8    0.11    0.09
  -9   6   8   -0.05    0.06
   9   6  -8    0.05    0.08
  -9  -6   8    0.09    0.09
   9  -6  -8   -0.03    0.07
   9   6  -7    2.04    0.23
  -9   6   7    2.10    0.24
   9   6  -7    2.13    0.22
   9  -6  -7    2.41    0.25
   9  -6  -7    2.71    0.25
  -9  -6   7    2.59    0.20
   9   6  -6   -0.13    0.05
  -9   6   6   -0.02    0.06
   9   6  -6   -0.02    0.06
  -9  -6   6    0.00    0.05
   9  -6  -6    0.20    0.08
   9  -6  -6    0.04    0.07
  -9   6   5    1.74    0.20
   9   6  -5    2.05    0.20
   9   6  -5    1.66    0.19
   9  -6  -5    1.88    0.20
   9  -6  -5    1.83    0.20
  -9  -6   5    1.62    0.16
   9   6  -4    0.63    0.12
   9   6  -4    0.58    0.12
  -9   6   4    0.57    0.12
   9  -6  -4    0.58    0.11
   9  -6  -4    0.89    0.14
  -9  -6   4    0.57    0.10
   9   6  -3    1.04    0.15
   9   6  -3    1.46    0.16
   9   6  -3    1.06    0.15
   9  -6  -3    1.21    0.15
  -9  -6   3    1.23    0.13
   9  -6  -3    1.41    0.17
   9   6  -2    2.75    0.18
   9   6  -2    2.82    0.20
   9   6  -2    2.76    0.19
   9  -6  -2    2.78    0.20
   9  -6  -2    2.74    0.19
  -9  -6   2    2.63    0.17
   9   6  -1   -0.06    0.04
   9   6  -1    0.06    0.05
   9   6  -1    0.03    0.05
   9  -6  -1   -0.07    0.05
  -9  -6   1    0.02    0.04
   9   6   0    1.53    0.16
   9   6   0    1.26    0.14
  -9  -6   0    1.55    0.12
   9  -6   0    1.48    0.16
   9   6   1    0.67    0.11
   9  -6   1    0.58    0.11
   9  -6   1    0.33    0.08
  -9  -6  -1    0.39    0.08
   9   6   2    0.57    0.11
   9  -6   2    0.48    0.10
   9  -6   2    0.45    0.09
  -9  -6  -2    0.57    0.09
   9   6   3    0.08    0.07
   9  -6   3   -0.01    0.06
  -9  -6  -3    0.05    0.05
   9   6   4   -0.04    0.06
   9  -6   4    0.03    0.07
   9   6   5    1.19    0.16
   9  -6   5    1.17    0.16
  -9   6  -6    0.11    0.08
   9   6   6    0.16    0.08
   9   6   7   -0.06    0.07
   9   6   8   -0.02    0.08
   9   6   9   -0.02    0.09
   9   7 -11    0.00    0.09
   9   7 -11   -0.02    0.08
  -9   7  11    0.14    0.12
  -9  -7  11    0.10    0.10
   9   7 -10    0.12    0.09
  -9   7  10    0.05    0.10
   9   7 -10    0.00    0.09
  -9  -7  10    0.04    0.10
   9   7  -9    1.17    0.19
  -9   7   9    1.59    0.22
   9   7  -9    1.36    0.20
  -9  -7   9    1.11    0.19
   9   7  -8   -0.08    0.07
  -9   7   8    0.07    0.08
   9   7  -8   -0.05    0.07
   9  -7  -8    0.02    0.08
  -9  -7   8    0.01    0.08
   9   7  -7    0.10    0.08
   9   7  -7    0.12    0.08
  -9   7   7    0.03    0.08
  -9  -7   7    0.04    0.06
   9  -7  -7    0.11    0.09
  -9   7   6    0.05    0.08
   9   7  -6    0.11    0.09
   9   7  -6    0.28    0.10
  -9  -7   6    0.17    0.07
   9  -7  -6    0.11    0.08
   9  -7  -6    0.22    0.09
   9   7  -5    1.23    0.17
  -9   7   5    1.44    0.19
   9   7  -5    1.41    0.18
   9  -7  -5    1.48    0.18
   9  -7  -5    1.48    0.18
  -9  -7   5    1.62    0.17
  -9   7   4    1.76    0.20
   9   7  -4    1.15    0.16
   9   7  -4    1.39    0.17
   9  -7  -4    1.31    0.17
  -9  -7   4    1.32    0.15
   9  -7  -4    1.35    0.17
   9   7  -3    0.65    0.11
   9   7  -3    0.64    0.12
  -9   7   3    0.91    0.14
   9   7  -3    0.76    0.12
  -9  -7   3    0.50    0.09
   9  -7  -3    0.50    0.10
   9  -7  -3    0.78    0.13
   9   7  -2    0.09    0.06
   9   7  -2    0.18    0.08
   9   7  -2    0.18    0.08
   9  -7  -2    0.09    0.07
  -9  -7   2    0.08    0.05
   9  -7  -2    0.16    0.07
   9   7  -1    9.40    0.37
   9   7  -1    9.87    0.37
   9   7  -1    8.89    0.36
   9  -7  -1    8.77    0.38
  -9  -7   1    9.40    0.36
   9   7   0    0.15    0.07
   9   7   0    0.36    0.09
   9   7   0    0.39    0.09
   9  -7   0    0.46    0.10
  -9  -7   0    0.45    0.08
   9   7   1    0.21    0.07
   9  -7   1    0.05    0.06
  -9  -7  -1    0.31    0.08
   9  -7   1    0.11    0.07
   9   7   2    1.20    0.14
  -9  -7  -2    1.09    0.13
   9  -7   2    1.00    0.14
   9   7   3    1.73    0.18
  -9  -7  -3    1.78    0.17
   9  -7   3    1.71    0.18
   9   7   4   -0.02    0.06
   9  -7   4   -0.04    0.07
   9   7   5    0.04    0.07
   9  -7   5   -0.07    0.07
   9   7   6    0.02    0.07
  -9   7  -6   -0.04    0.07
  -9   7  -7    0.04    0.08
   9   7   7    0.07    0.09
   9   7   8    0.48    0.14
  -9   8  10   -0.10    0.09
   9   8 -10   -0.08    0.08
   9   8 -10    0.07    0.09
  -9  -8  10   -0.06    0.09
  -9   8   9   -0.16    0.07
  -9   8   9    0.01    0.08
   9   8  -9    0.00    0.08
   9   8  -9    0.08    0.09
  -9  -8   9    0.03    0.09
  -9   8   8    0.91    0.17
   9   8  -8    0.63    0.14
   9   8  -8    1.16    0.18
  -9  -8   8    0.93    0.17
   9   8  -7    0.90    0.16
  -9   8   7    0.93    0.17
   9   8  -7    1.22    0.18
   9  -8  -7    0.91    0.15
  -9  -8   7    0.99    0.17
   9   8  -6    1.54    0.19
  -9   8   6    1.16    0.18
   9   8  -6    1.04    0.16
  -9  -8   6    1.31    0.16
   9  -8  -6    1.34    0.18
  -9  -8   6    1.28    0.18
   9  -8  -6    1.06    0.17
  -9   8   5    0.19    0.08
   9   8  -5    0.02    0.07
   9   8  -5    0.07    0.08
   9  -8  -5    0.12    0.07
  -9  -8   5    0.04    0.06
   9  -8  -5    0.03    0.06
   9   8  -4    3.15    0.21
   9   8  -4    2.99    0.22
  -9   8   4    3.60    0.24
   9   8  -4    3.25    0.23
  -9  -8   4    3.31    0.21
   9  -8  -4    3.48    0.24
   9  -8  -4    3.23    0.23
   9   8  -3    0.26    0.09
   9   8  -3    0.54    0.12
  -9   8   3    0.49    0.11
   9   8  -3    0.50    0.10
  -9  -8   3    0.33    0.08
   9  -8  -3    0.43    0.10
   9  -8  -3    0.32    0.09
   9   8  -2    0.16    0.07
   9   8  -2    0.11    0.07
  -9   8   2    0.19    0.07
   9   8  -2    0.15    0.07
   9  -8  -2    0.17    0.08
  -9  -8   2    0.12    0.06
   9  -8  -2    0.17    0.07
   9   8  -1    0.28    0.08
   9   8  -1    0.17    0.08
   9   8  -1    0.18    0.07
  -9  -8   1    0.24    0.07
   9  -8  -1    0.23    0.08
   9   8   0    0.03    0.06
   9   8   0   -0.03    0.05
   9   8   0    0.01    0.05
   9  -8   0    0.00    0.06
  -9  -8   0   -0.05    0.04
   9   8   1    0.30    0.08
   9  -8   1    0.17    0.08
  -9  -8  -1    0.37    0.08
   9   8   2   -0.01    0.05
  -9  -8  -2    0.08    0.05
   9  -8   2    0.17    0.08
   9   8   3    1.45    0.16
  -9  -8  -3    1.08    0.14
   9  -8   3    1.17    0.16
   9   8   4    0.20    0.09
   9  -8   4    0.09    0.07
   9   8   5    0.59    0.12
   9  -8   5    0.53    0.12
  -9   8  -6    0.47    0.13
   9   8   6    0.47    0.12
  -9   8  -7    0.05    0.08
   9   8   7    0.05    0.08
   9   8   8    0.03    0.09
  -9   9  10    0.13    0.11
   9   9 -10    0.19    0.12
   9   9 -10    0.33    0.13
  -9  -9  10    0.19    0.13
   9   9  -9   -0.07    0.07
  -9   9   9   -0.01    0.09
   9   9  -9    0.02    0.09
  -9   9   9   -0.06    0.06
  -9  -9   9   -0.06    0.08
   9   9  -8    0.43    0.13
  -9   9   8    0.40    0.13
   9   9  -8    0.58    0.13
  -9  -9   8    0.37    0.13
   9   9  -7    0.00    0.07
  -9   9   7    0.03    0.07
   9   9  -7    0.00    0.07
  -9  -9   7    0.01    0.08
   9  -9  -7   -0.04    0.07
   9   9  -6    0.26    0.10
   9   9  -6    0.15    0.09
  -9   9   6    0.21    0.09
  -9  -9   6    0.17    0.08
   9  -9  -6    0.11    0.08
  -9  -9   6    0.12    0.09
   9  -9  -6    0.16    0.08
   9   9  -5    0.19    0.09
  -9   9   5    0.19    0.09
   9   9  -5    0.24    0.10
  -9  -9   5    0.19    0.07
   9  -9  -5    0.38    0.10
   9  -9  -5    0.28    0.09
  -9  -9   5    0.25    0.10
   9   9  -4    0.18    0.09
   9   9  -4    0.40    0.10
  -9   9   4    0.27    0.09
   9   9  -4    0.33    0.10
   9  -9  -4    0.23    0.09
  -9  -9   4    0.28    0.08
   9  -9  -4    0.38    0.10
   9   9  -3    1.03    0.14
   9   9  -3    0.84    0.14
  -9   9   3    0.76    0.13
   9   9  -3    0.84    0.14
  -9  -9   3    0.65    0.11
   9  -9  -3    1.14    0.16
   9  -9  -3    1.04    0.15
  -9   9   2    0.11    0.06
   9   9  -2    0.06    0.07
   9   9  -2    0.11    0.07
   9   9  -2    0.11    0.07
   9  -9  -2    0.02    0.07
  -9  -9   2    0.15    0.07
   9  -9  -2    0.12    0.07
   9   9  -1    1.89    0.18
   9   9  -1    1.62    0.17
   9   9  -1    1.66    0.17
  -9  -9   1    1.43    0.15
   9  -9  -1    1.35    0.17
   9   9   0    0.66    0.11
   9   9   0    0.48    0.10
   9  -9   0    0.67    0.13
  -9  -9   0    0.95    0.12
   9   9   1    2.09    0.19
   9  -9   1    1.68    0.19
  -9  -9  -1    1.40    0.15
   9   9   2    0.00    0.06
  -9  -9  -2    0.03    0.05
   9  -9   2   -0.08    0.06
   9   9   3   -0.01    0.06
   9  -9   3    0.00    0.07
  -9  -9  -3   -0.05    0.04
   9   9   4    1.77    0.19
  -9  -9  -4    1.90    0.19
   9  -9   4    1.72    0.20
  -9   9  -5   -0.04    0.06
   9   9   5    0.10    0.08
   9  -9   5   -0.02    0.07
   9   9   6    0.02    0.07
  -9   9  -6    0.07    0.09
   9   9   7    0.05    0.09
  -9   9  -7    0.08    0.08
   9   9   8    0.12    0.10
  -9  10  10    0.22    0.13
   9  10 -10    0.02    0.09
   9  10 -10   -0.05    0.09
  -9 -10  10   -0.04    0.10
  -9  10   9    0.14    0.11
   9  10  -9    0.02    0.09
  -9  10   9   -0.02    0.08
   9  10  -9    0.05    0.10
  -9 -10   9    0.02    0.09
  -9  10   8    0.25    0.12
   9  10  -8    0.47    0.14
  -9  10   8    0.41    0.13
   9  10  -8    0.17    0.10
  -9 -10   8    0.44    0.14
   9  10  -7    0.28    0.11
  -9  10   7    0.25    0.11
   9  10  -7    0.15    0.09
   9 -10  -7    0.36    0.11
  -9 -10   7    0.00    0.08
   9  10  -6    0.10    0.09
   9  10  -6   -0.01    0.08
  -9  10   6    0.10    0.08
  -9 -10   6    0.13    0.09
   9 -10  -6    0.22    0.10
   9  10  -5    0.02    0.07
  -9  10   5    0.05    0.07
   9  10  -5    0.08    0.07
   9 -10  -5    0.16    0.08
  -9 -10   5   -0.03    0.05
  -9 -10   5    0.17    0.09
   9 -10  -5    0.08    0.07
   9  10  -4    0.38    0.11
   9  10  -4    0.09    0.08
  -9  10   4    0.11    0.08
  -9 -10   4    0.29    0.10
   9 -10  -4    0.22    0.09
  -9 -10   4    0.20    0.07
   9 -10  -4    0.34    0.10
   9  10  -3    0.05    0.07
  -9  10   3    0.17    0.08
   9  10  -3    0.06    0.08
   9  10  -3    0.08    0.06
   9 -10  -3    0.20    0.08
  -9 -10   3    0.06    0.07
  -9 -10   3    0.08    0.06
   9 -10  -3    0.38    0.10
   9  10  -2    3.37    0.21
   9  10  -2    3.91    0.24
   9  10  -2    3.01    0.22
  -9 -10   2    3.57    0.23
  -9 -10   2    3.08    0.20
   9 -10  -2    3.08    0.23
   9  10  -1    0.15    0.08
   9  10  -1    0.13    0.08
   9  10  -1    0.18    0.08
  -9 -10   1    0.32    0.09
  -9 -10   1    0.09    0.06
   9 -10  -1    0.30    0.10
   9  10   0    3.58    0.21
  -9 -10   0    3.42    0.21
   9 -10   0    3.26    0.24
   9  10   1    0.01    0.05
  -9 -10  -1    0.09    0.06
   9 -10   1    0.04    0.07
   9  10   2    0.50    0.11
   9 -10   2    0.23    0.10
  -9 -10  -2    0.29    0.09
   9  10   3    0.02    0.07
   9 -10   3    0.06    0.08
  -9 -10  -3    0.08    0.07
   9  10   4    0.65    0.13
  -9 -10  -4    0.59    0.11
   9 -10   4    0.24    0.10
  -9  10  -5    0.07    0.08
   9  10   5    0.17    0.09
   9 -10   5    0.04    0.10
  -9  10  -6    0.66    0.14
   9  10   6    0.77    0.15
   9 -10   6    0.56    0.14
  -9  10  -7    0.23    0.11
   9  10   7    0.17    0.10
   9  10   8    0.00    0.10
   9  11 -10   -0.15    0.07
  -9 -11  10    0.01    0.11
  -9  11   9    0.10    0.10
   9  11  -9    0.05    0.10
   9  11  -9    0.05    0.09
  -9 -11   9   -0.07    0.10
   9  11  -8    0.28    0.11
  -9  11   8    0.22    0.12
   9  11  -8    0.36    0.13
  -9 -11   8    0.36    0.13
   9  11  -7   -0.04    0.07
   9  11  -7    0.00    0.08
  -9  11   7   -0.06    0.07
  -9 -11   7    0.09    0.09
  -9  11   6    2.10    0.24
   9  11  -6    1.41    0.21
   9  11  -6    1.58    0.20
   9 -11  -6    1.60    0.21
  -9 -11   6    1.72    0.21
   9  11  -5    0.02    0.07
  -9  11   5   -0.10    0.05
   9  11  -5    0.05    0.08
  -9 -11   5   -0.01    0.08
   9 -11  -5   -0.04    0.05
   9 -11  -5    0.03    0.07
   9  11  -4    0.11    0.08
  -9  11   4    0.01    0.06
   9  11  -4    0.07    0.08
   9 -11  -4    0.02    0.07
   9 -11  -4    0.11    0.08
  -9 -11   4    0.03    0.05
  -9 -11   4    0.00    0.07
   9  11  -3    0.03    0.07
   9  11  -3    0.06    0.08
  -9 -11   3    0.18    0.09
   9 -11  -3    0.20    0.09
   9 -11  -3    0.21    0.09
  -9 -11   3    0.07    0.06
   9  11  -2    0.10    0.06
   9  11  -2    0.16    0.08
   9  11  -2    0.01    0.06
  -9 -11   2    0.05    0.07
   9 -11  -2    0.06    0.07
  -9 -11   2    0.08    0.06
   9  11  -1    2.63    0.19
   9  11  -1    2.66    0.20
   9  11  -1    2.42    0.18
  -9 -11   1    2.78    0.19
   9 -11  -1    2.71    0.25
  -9 -11   1    2.82    0.20
   9  11   0    0.08    0.06
   9 -11   0    0.04    0.07
  -9 -11   0    0.07    0.06
   9  11   1    1.39    0.16
   9 -11   1    1.31    0.18
  -9 -11  -1    1.34    0.16
   9  11   2    0.23    0.09
  -9 -11  -2    0.18    0.08
   9 -11   2    0.20    0.09
   9  11   3    0.09    0.08
   9 -11   3    0.12    0.09
  -9 -11  -3   -0.08    0.04
   9  11   4    0.48    0.12
   9 -11   4    0.33    0.12
   9  11   5    2.66    0.25
  -9  11  -5    2.27    0.25
   9 -11   5    2.34    0.24
  -9  11  -6    0.66    0.15
   9  11   6    0.86    0.16
   9 -11   6    0.85    0.16
  -9  11  -7    0.06    0.10
   9  11   7   -0.01    0.09
  -9  12   9   -0.05    0.10
   9  12  -9   -0.06    0.10
   9  12  -9    0.11    0.10
  -9 -12   9    0.03    0.11
   9  12  -8    0.11    0.09
  -9  12   8    0.22    0.12
   9  12  -8    0.16    0.12
  -9  12   8    0.32    0.12
  -9 -12   8    0.26    0.12
  -9  12   7    0.11    0.09
   9  12  -7    0.10    0.09
  -9  12   7    0.05    0.09
   9  12  -7    0.00    0.08
  -9 -12   7   -0.05    0.07
   9  12  -6    0.51    0.15
   9  12  -6    0.54    0.14
  -9  12   6    0.47    0.12
   9 -12  -6    0.40    0.12
  -9 -12   6    0.61    0.14
   9  12  -5    0.68    0.15
  -9  12   5    0.41    0.11
   9  12  -5    0.33    0.11
  -9 -12   5    0.26    0.11
   9 -12  -5    0.62    0.14
   9  12  -4    1.00    0.16
   9  12  -4    0.81    0.15
  -9  12   4    1.43    0.19
  -9 -12   4    1.13    0.17
   9 -12  -4    1.35    0.19
   9 -12  -4    1.02    0.16
   9  12  -3    0.46    0.12
   9  12  -3    0.34    0.11
   9 -12  -3    0.39    0.12
  -9 -12   3    0.35    0.10
   9  12  -2    0.26    0.10
   9  12  -2    0.07    0.07
   9 -12  -2    0.24    0.10
  -9 -12   2    0.32    0.09
  -9 -12   2    0.07    0.08
   9  12  -1    0.07    0.07
   9  12  -1   -0.02    0.06
  -9 -12   1    0.05    0.05
  -9 -12   1   -0.07    0.06
   9 -12  -1    0.15    0.09
   9  12   0    0.91    0.13
   9 -12   0    0.63    0.13
  -9 -12   0    0.59    0.11
   9  12   1    0.29    0.09
   9 -12   1    0.63    0.13
  -9 -12  -1    0.63    0.12
   9  12   2    1.21    0.16
   9 -12   2    1.49    0.20
   9  12   3    0.00    0.07
   9 -12   3    0.04    0.08
  -9  12  -4    0.92    0.17
   9  12   4    0.55    0.13
   9 -12   4    1.05    0.17
  -9  12  -5    0.79    0.16
   9  12   5    1.20    0.18
   9 -12   5    1.13    0.19
   9  12   6    0.46    0.13
  -9  12  -6    0.35    0.12
   9 -12   6    0.72    0.16
  -9  12  -7    0.04    0.10
   9  12   7    0.03    0.10
  -9  13   9    0.02    0.10
   9  13  -9   -0.02    0.10
   9  13  -8    0.01    0.10
   9  13  -8    0.12    0.11
  -9 -13   8    0.23    0.12
   9  13  -7    0.04    0.10
  -9  13   7    0.14    0.09
  -9  13   7    0.15    0.10
   9  13  -7    0.06    0.10
  -9 -13   7   -0.06    0.08
  -9  13   6   -0.07    0.08
   9  13  -6    0.09    0.10
   9  13  -6    0.03    0.08
  -9 -13   6    0.09    0.10
  -9  13   5    0.26    0.10
   9  13  -5    0.29    0.10
   9  13  -5    0.25    0.11
  -9 -13   5    0.14    0.10
   9 -13  -5    0.24    0.10
   9  13  -4    0.45    0.12
   9  13  -4    0.23    0.10
  -9 -13   4    0.37    0.11
   9 -13  -4    0.56    0.13
   9 -13  -4    0.29    0.10
   9  13  -3    0.69    0.14
   9  13  -3    0.70    0.14
   9 -13  -3    1.11    0.17
  -9 -13   3    1.23    0.17
   9  13  -2    0.09    0.08
   9  13  -2   -0.03    0.06
   9 -13  -2    0.02    0.07
  -9 -13   2    0.02    0.07
   9 -13  -1    0.05    0.08
   9  13   0    0.31    0.09
   9 -13   0    0.29    0.10
   9  13   1    1.26    0.16
   9 -13   1    1.22    0.18
   9  13   2    0.23    0.09
   9 -13   2    0.24    0.11
   9  13   3    0.11    0.08
   9 -13   3   -0.11    0.07
   9  13   4    0.27    0.10
  -9  13  -4    0.04    0.09
   9 -13   4    0.07    0.09
  -9  13  -5    0.66    0.15
   9  13   5    0.77    0.15
   9 -13   5    1.11    0.19
   9  13   6    0.02    0.09
  -9  13  -6   -0.04    0.07
   9 -13   6   -0.10    0.09
   9  14  -8    0.76    0.18
  -9  14   8    0.79    0.18
   9  14  -8    1.07    0.19
  -9 -14   8    0.65    0.17
  -9  14   7    0.16    0.11
   9  14  -7    0.24    0.13
  -9  14   7    0.08    0.10
   9  14  -7    0.09    0.10
  -9 -14   7   -0.01    0.09
   9  14  -6    0.32    0.12
  -9  14   6    0.37    0.12
   9  14  -6    0.17    0.10
  -9  14   6    0.33    0.11
  -9 -14   6    0.34    0.12
   9  14  -5    2.21    0.24
   9  14  -5    2.00    0.24
   9 -14  -5    2.19    0.24
  -9 -14   5    1.72    0.22
   9  14  -4    0.01    0.08
   9  14  -4    0.10    0.09
  -9 -14   4    0.12    0.10
   9 -14  -4    0.18    0.11
   9  14  -3    0.39    0.12
   9  14  -3    0.19    0.10
  -9 -14   3    0.19    0.10
   9 -14  -3    0.37    0.12
   9  14  -2    0.53    0.12
   9  14  -2    0.91    0.15
  -9 -14   2    0.71    0.14
   9 -14  -2    0.50    0.13
   9 -14  -1    0.02    0.08
   9 -14   0   -0.01    0.08
   9  14   1    0.07    0.07
   9 -14   1   -0.01    0.09
   9  14   2    0.85    0.14
   9 -14   2    0.68    0.15
   9  14   3    0.51    0.12
  -9  14  -3    0.58    0.14
   9 -14   3    0.76    0.16
  -9  14  -4   -0.04    0.08
   9  14   4   -0.03    0.08
   9 -14   4    0.03    0.10
   9  14   5    0.05    0.09
  -9  14  -5   -0.01    0.07
   9 -14   5    0.08    0.10
  -9  14  -6    0.05    0.09
   9  14   6    0.22    0.10
   9 -14   6    0.21    0.12
   9  15  -7    0.06    0.11
  -9  15   7    0.08    0.10
  -9  15   7    0.01    0.09
   9  15  -7    0.02    0.09
  -9 -15   7    0.08    0.11
  -9  15   6    0.65    0.15
   9  15  -6    0.84    0.17
   9  15  -6    0.75    0.18
  -9 -15   6    1.11    0.20
   9  15  -5   -0.01    0.09
   9  15  -5    0.10    0.10
   9 -15  -5    0.04    0.09
  -9 -15   5    0.02    0.09
   9  15  -4    0.05    0.09
   9  15  -4    0.28    0.12
   9 -15  -4    0.29    0.11
  -9 -15   4    0.16    0.10
   9  15  -3    0.09    0.09
   9  15  -3    0.00    0.08
   9 -15  -3    0.11    0.09
  -9 -15   3   -0.04    0.08
   9 -15  -2    0.24    0.12
   9 -15  -1    0.51    0.14
   9 -15   0    0.07    0.09
   9 -15   1    0.83    0.16
  -9  15  -2    0.54    0.14
   9  15   2    0.91    0.15
   9 -15   2    0.40    0.13
   9  15   3    0.01    0.07
  -9  15  -3    0.04    0.09
   9 -15   3    0.03    0.10
  -9  15  -4    0.52    0.14
   9  15   4    0.49    0.13
   9 -15   4    0.57    0.15
   9  15   5   -0.04    0.08
  -9  15  -5   -0.08    0.08
   9 -15   5   -0.04    0.09
   9  16  -7    0.14    0.10
   9  16  -7   -0.19    0.09
  -9 -16   7    0.11    0.12
   9  16  -6    0.00    0.10
   9  16  -6   -0.02    0.09
  -9 -16   6    0.01    0.10
   9  16  -5   -0.09    0.09
   9  16  -5    0.07    0.10
  -9 -16   5   -0.05    0.09
   9  16  -4    0.01    0.10
   9  16  -4   -0.05    0.08
   9 -16  -4    0.12    0.10
  -9 -16   4    0.08    0.10
   9  16  -3    0.74    0.16
   9  16  -3    1.16    0.19
   9 -16  -3    1.16    0.20
  -9 -16   3    1.09    0.18
   9 -16  -2    0.08    0.09
   9 -16  -1   -0.04    0.09
   9 -16   0    0.26    0.12
  -9  16  -1    0.65    0.15
   9 -16   1    0.75    0.16
  -9  16  -2    0.77    0.16
   9 -16   2    0.80    0.17
  -9  16  -3    0.02    0.07
   9  16   3    0.13    0.08
   9 -16   3    0.11    0.09
  -9  16  -4    0.20    0.11
   9  16   4    0.08    0.09
   9 -16   4    0.08    0.10
   9  17  -6   -0.06    0.10
   9  17  -6   -0.12    0.09
  -9 -17   6    0.12    0.11
   9  17  -5   -0.09    0.08
   9  17  -5    0.05    0.10
  -9 -17   5    0.11    0.11
   9  17  -4    0.04    0.09
   9  17  -4    0.06    0.10
  -9 -17   4    0.22    0.11
   9 -17  -4    0.09    0.11
   9 -17  -3    0.27    0.13
  -9 -17   3    0.07    0.10
   9 -17  -2    0.24    0.12
   9 -17  -1    0.23    0.12
  -9  17   0   -0.01    0.08
   9 -17   0    0.04    0.09
  -9  17  -1   -0.02    0.08
   9 -17   1    0.08    0.10
  -9  17  -2    0.32    0.12
   9 -17   2    0.24    0.12
  -9  17  -3    0.12    0.10
   9 -17   3    0.09    0.11
   9  18  -5    0.02    0.09
   9  18  -5    0.04    0.10
  -9 -18   5    0.05    0.11
   9  18  -4    0.03    0.10
   9  18  -4   -0.06    0.09
  -9 -18   4   -0.05    0.09
   9 -18  -4    0.07    0.11
   9 -18  -3    0.24    0.13
   9 -18  -2    0.41    0.14
  -9  18   1    0.46    0.13
   9 -18  -1    0.83    0.18
  -9  18   0   -0.06    0.09
   9 -18   0   -0.04    0.10
  -9  18  -1    0.11    0.11
   9 -18   1    0.31    0.13
  -9  18  -2    0.03    0.10
   9 -18   2    0.00    0.10
   9 -19  -3    0.28    0.14
   9 -19  -2    0.08    0.12
  -9  19   1   -0.11    0.08
   9 -19  -1   -0.02    0.10
  -9  19   0    0.00    0.08
   9 -19   0    0.02    0.10
  10   0 -10    0.08    0.09
 -10   0  10    0.05    0.08
  10   0 -10    0.12    0.09
 -10   0   9    0.02    0.08
  10   0  -9    0.05    0.08
  10   0  -9    0.01    0.07
  10   0  -8    0.41    0.11
  10   0  -8    0.36    0.12
 -10   0   7   -0.06    0.05
  10   0  -7    0.02    0.08
  10   0  -7    0.02    0.06
 -10   0   6    0.30    0.10
  10   0  -6    0.32    0.10
  10   0  -5   -0.04    0.05
 -10   0   5    0.05    0.06
 -10   0   4    0.44    0.10
  10   0  -4    0.51    0.12
  10   0  -3   -0.02    0.06
 -10   0   3   -0.04    0.05
  10   0  -2    0.01    0.07
  10   0  -2    0.03    0.06
 -10   0   2   -0.09    0.05
 -10   0   1    0.00    0.04
  10   0  -1    0.02    0.06
  10   0  -1   -0.05    0.05
  10   0   0    0.02    0.06
  10   0   0   -0.01    0.05
 -10   0   0   -0.01    0.03
  10   0   1    0.05    0.06
  10   0   1    0.03    0.06
  10   0   2    0.60    0.11
  10   0   2    0.69    0.12
  10   0   3    0.00    0.06
  10   0   4    2.41    0.18
  10   0   5   -0.05    0.05
  10   0   6    0.10    0.08
  10   0   7    0.01    0.08
  10   1 -10    0.02    0.08
 -10   1  10    0.14    0.11
  10   1 -10   -0.03    0.08
 -10  -1  10    0.12    0.11
  10  -1 -10   -0.05    0.08
  10   1  -9    0.54    0.13
  10   1  -9    0.36    0.12
 -10   1   9    0.66    0.15
 -10  -1   9    0.27    0.11
  10  -1  -9    0.41    0.13
  10   1  -8    0.40    0.12
  10   1  -8    0.42    0.11
 -10   1   8    0.59    0.15
  10  -1  -8    0.36    0.12
  10   1  -7   -0.04    0.06
  10   1  -7    0.01    0.07
  10  -1  -7    0.00    0.06
 -10  -1   7   -0.06    0.05
  10   1  -6    0.20    0.08
  10   1  -6    0.04    0.07
 -10  -1   6    0.17    0.08
  10  -1  -6    0.09    0.08
 -10   1   5    0.45    0.10
  10   1  -5    0.75    0.14
  10   1  -5    0.46    0.11
 -10  -1   5    0.73    0.12
  10  -1  -5    0.54    0.12
  10   1  -4    0.83    0.14
 -10   1   4    0.75    0.12
 -10  -1   4    0.71    0.12
  10  -1  -4    1.05    0.15
 -10   1   3    1.73    0.18
  10   1  -3    1.39    0.17
  10  -1  -3    1.30    0.17
 -10  -1   3    1.41    0.16
  10   1  -2   27.14    0.83
  10   1  -2   28.27    0.83
 -10   1   2   27.42    0.81
  10  -1  -2   28.53    0.84
 -10  -1   2   28.46    0.81
  10  -1  -2   28.98    0.83
  10   1  -1    0.00    0.06
  10   1  -1   -0.04    0.05
 -10   1   1    0.06    0.05
  10  -1  -1    0.01    0.06
 -10  -1   1    0.04    0.04
  10  -1  -1    0.10    0.07
 -10   1   0    1.40    0.13
  10   1   0    1.30    0.15
  10   1   0    1.42    0.17
  10  -1   0    1.21    0.15
  10  -1   0    1.41    0.16
 -10  -1   0    1.31    0.13
  10   1   1   -0.03    0.05
  10   1   1   -0.03    0.06
  10  -1   1    0.10    0.06
 -10  -1  -1    0.00    0.04
  10  -1   1    0.04    0.06
  10   1   2    0.66    0.11
  10   1   2    0.86    0.13
  10  -1   2    0.55    0.11
  10  -1   2    0.69    0.12
  10   1   3    1.34    0.15
  10  -1   3    1.06    0.14
  10   1   4    0.11    0.07
  10  -1   4    0.05    0.07
  10   1   5    0.18    0.08
  10  -1   5    0.05    0.07
  10   1   6    0.00    0.07
  10  -1   6    0.01    0.07
  10   1   7    0.13    0.09
  10  -1   7    0.03    0.08
  10   1   8    0.09    0.09
  10   2 -11   -0.01    0.09
 -10   2  11    0.06    0.11
 -10  -2  11    0.02    0.10
 -10   2  10    0.05    0.09
  10   2 -10   -0.04    0.08
  10   2 -10   -0.03    0.09
  10  -2 -10    0.08    0.10
 -10  -2  10    0.01    0.09
 -10   2   9    0.42    0.13
  10   2  -9    0.46    0.12
  10   2  -9    0.26    0.11
 -10  -2   9    0.25    0.11
  10  -2  -9    0.54    0.14
 -10   2   8    0.00    0.07
  10   2  -8    0.07    0.08
  10   2  -8    0.00    0.07
  10  -2  -8   -0.06    0.07
  10   2  -7    0.50    0.13
  10   2  -7    0.50    0.12
  10  -2  -7    0.44    0.12
 -10  -2   7    0.54    0.12
  10   2  -6   -0.01    0.06
  10   2  -6    0.12    0.08
 -10  -2   6    0.08    0.06
  10  -2  -6    0.00    0.07
  10   2  -5    1.43    0.18
  10   2  -5    2.10    0.21
 -10  -2   5    1.64    0.18
  10  -2  -5    1.33    0.18
  10   2  -4    0.74    0.14
  10   2  -4    0.43    0.10
 -10  -2   4    0.72    0.12
  10  -2  -4    0.74    0.13
  10   2  -3   13.70    0.49
 -10   2   3   13.78    0.49
  10   2  -3   13.67    0.50
 -10  -2   3   13.51    0.48
  10  -2  -3   12.45    0.49
 -10   2   2    9.07    0.36
  10   2  -2    9.54    0.40
  10   2  -2    9.10    0.37
  10  -2  -2    8.92    0.39
 -10  -2   2    9.33    0.36
  10   2  -1    7.79    0.34
  10   2  -1    6.59    0.31
 -10   2   1    7.09    0.29
  10  -2  -1    6.90    0.33
  10  -2  -1    7.39    0.32
 -10  -2   1    7.52    0.30
 -10   2   0    0.50    0.08
  10   2   0    0.47    0.10
  10   2   0    0.29    0.09
 -10  -2   0    0.39    0.07
  10  -2   0    0.37    0.09
  10  -2   0    0.35    0.10
  10   2   1    3.29    0.20
  10   2   1    2.60    0.18
 -10  -2  -1    2.80    0.16
  10  -2   1    3.04    0.19
  10  -2   1    3.13    0.21
  10   2   2    0.09    0.07
  10  -2   2   -0.02    0.07
  10  -2   2    0.06    0.07
  10   2   3    2.81    0.20
  10  -2   3    3.04    0.21
  10  -2   3    3.22    0.20
  10   2   4    0.14    0.08
  10  -2   4    0.23    0.08
  10   2   5    0.25    0.09
  10  -2   5    0.15    0.08
  10   2   6    0.00    0.07
  10  -2   6   -0.01    0.07
  10   2   7    0.06    0.09
  10   2   8    0.11    0.09
  10   3 -11   -0.11    0.09
 -10   3  11    0.02    0.12
  10   3 -11    0.05    0.09
 -10  -3  11   -0.05    0.10
  10   3 -10   -0.01    0.08
 -10   3  10   -0.04    0.08
  10   3 -10   -0.03    0.08
 -10  -3  10    0.06    0.10
  10   3  -9    0.29    0.11
 -10   3   9    0.22    0.11
  10   3  -9    0.21    0.10
  10  -3  -9    0.42    0.13
  10   3  -8    0.05    0.08
  10   3  -8    0.12    0.09
 -10   3   8   -0.09    0.06
  10  -3  -8    0.10    0.09
  10   3  -7    0.58    0.13
  10   3  -7    0.80    0.15
 -10   3   7    0.41    0.12
 -10  -3   7    0.55    0.12
  10  -3  -7    0.47    0.12
  10   3  -6    0.07    0.08
  10   3  -6   -0.03    0.05
 -10  -3   6    0.04    0.06
  10  -3  -6   -0.01    0.06
  10   3  -5    0.01    0.07
  10   3  -5    0.17    0.07
  10  -3  -5    0.08    0.07
 -10  -3   5    0.06    0.06
  10   3  -4    0.33    0.09
  10   3  -4    0.17    0.09
  10  -3  -4    0.33    0.10
 -10  -3   4    0.52    0.10
  10   3  -3    5.84    0.29
  10   3  -3    5.97    0.30
  10   3  -3    5.39    0.30
 -10  -3   3    6.24    0.29
  10  -3  -3    5.76    0.31
  10   3  -2    1.13    0.15
  10   3  -2    0.80    0.13
 -10   3   2    0.85    0.12
 -10  -3   2    0.85    0.12
  10  -3  -2    0.88    0.14
  10   3  -1    0.45    0.10
  10   3  -1    0.61    0.12
 -10   3   1    0.44    0.08
  10  -3  -1    0.53    0.10
  10  -3  -1    0.46    0.10
 -10  -3   1    0.45    0.09
  10   3   0    1.25    0.15
  10   3   0    1.38    0.16
  10  -3   0    1.04    0.13
 -10  -3   0    1.34    0.13
  10  -3   0    1.24    0.15
  10   3   1    0.15    0.08
  10   3   1    0.14    0.07
  10  -3   1    0.19    0.08
 -10  -3  -1    0.24    0.06
  10  -3   1    0.28    0.08
  10   3   2    2.27    0.17
  10  -3   2    2.18    0.20
  10  -3   2    2.21    0.17
  10   3   3    4.52    0.25
  10  -3   3    4.43    0.25
  10  -3   3    3.86    0.23
  10   3   4    1.00    0.14
  10  -3   4    1.07    0.14
  10   3   5    0.53    0.11
  10  -3   5    0.66    0.12
  10   3   6    0.25    0.10
  10   3   7   -0.06    0.07
  10   3   8   -0.02    0.09
  10   4 -11    0.08    0.09
  10   4 -11    0.06    0.11
 -10   4  11    0.04    0.12
 -10  -4  11    0.03    0.10
 -10   4  10    0.04    0.08
  10   4 -10   -0.01    0.08
  10   4 -10    0.07    0.09
 -10  -4  10    0.06    0.11
 -10  -4  10    0.07    0.10
  10   4  -9   -0.05    0.08
  10   4  -9   -0.01    0.08
 -10   4   9    0.16    0.10
  10  -4  -9   -0.04    0.09
  10   4  -8    0.08    0.09
  10   4  -8    0.05    0.08
 -10   4   8   -0.04    0.06
  10  -4  -8    0.07    0.09
  10   4  -7   -0.03    0.06
  10   4  -7   -0.03    0.07
 -10   4   7    0.07    0.08
  10  -4  -7   -0.08    0.06
  10   4  -6    0.05    0.07
  10   4  -6   -0.04    0.06
 -10   4   6    0.12    0.09
  10  -4  -6    0.12    0.09
 -10  -4   6    0.02    0.05
  10   4  -5    0.09    0.08
  10   4  -5   -0.02    0.05
 -10  -4   5    0.00    0.05
  10  -4  -5    0.00    0.07
  10   4  -4    0.92    0.14
  10   4  -4    1.09    0.15
 -10  -4   4    0.79    0.12
  10  -4  -4    0.84    0.14
  10   4  -3    1.54    0.18
  10   4  -3    2.02    0.20
  10   4  -3    2.12    0.20
 -10  -4   3    1.74    0.17
  10  -4  -3    1.99    0.21
  10   4  -2   -0.08    0.05
  10   4  -2   -0.01    0.05
 -10  -4   2   -0.02    0.04
  10  -4  -2    0.03    0.06
  10   4  -1   -0.01    0.05
 -10   4   1   -0.02    0.03
  10   4  -1   -0.06    0.04
  10  -4  -1    0.01    0.06
  10  -4  -1    0.02    0.06
 -10  -4   1   -0.08    0.03
  10   4   0    0.08    0.06
  10   4   0   -0.02    0.06
  10  -4   0    0.03    0.06
 -10  -4   0   -0.01    0.04
  10  -4   0   -0.04    0.05
  10   4   1    1.09    0.14
  10   4   1    1.03    0.13
  10  -4   1    0.85    0.12
  10  -4   1    1.12    0.15
 -10  -4  -1    0.97    0.11
  10   4   2    0.06    0.06
  10  -4   2    0.03    0.06
  10  -4   2    0.13    0.07
  10   4   3    0.46    0.11
  10  -4   3    0.28    0.09
  10  -4   3    0.37    0.10
  10   4   4    2.06    0.20
  10  -4   4    2.22    0.17
  10   4   5    1.10    0.15
  10   4   6    0.10    0.08
  10   4   7   -0.03    0.08
  10   4   8    0.20    0.10
  10   5 -11    0.22    0.11
  10   5 -11   -0.03    0.10
 -10   5  11    0.04    0.11
 -10  -5  11    0.03    0.10
  10   5 -10    0.21    0.11
  10   5 -10    0.08    0.10
 -10  -5  10    0.25    0.12
 -10  -5  10    0.41    0.14
  10   5  -9   -0.02    0.08
  10   5  -9    0.12    0.10
 -10   5   9   -0.03    0.08
  10  -5  -9    0.18    0.10
  10   5  -8    0.12    0.09
 -10   5   8    0.06    0.08
  10   5  -8    0.00    0.08
  10  -5  -8    0.03    0.08
 -10   5   7    0.07    0.08
  10   5  -7   -0.06    0.07
  10   5  -7    0.01    0.07
  10  -5  -7    0.03    0.07
 -10   5   6    1.31    0.19
  10   5  -6    1.18    0.17
  10   5  -6    1.36    0.19
 -10  -5   6    1.22    0.16
  10  -5  -6    1.30    0.18
  10  -5  -6    1.02    0.16
  10   5  -5    1.38    0.18
 -10   5   5    1.48    0.19
  10   5  -5    1.39    0.18
  10  -5  -5    1.78    0.20
 -10  -5   5    1.61    0.17
  10  -5  -5    1.23    0.17
  10   5  -4    0.24    0.10
  10   5  -4    0.23    0.10
 -10  -5   4    0.18    0.07
  10  -5  -4    0.12    0.07
  10   5  -3    2.13    0.20
  10   5  -3    1.65    0.19
  10   5  -3    1.98    0.20
 -10  -5   3    1.77    0.17
  10  -5  -3    2.04    0.20
  10   5  -2    4.45    0.26
  10   5  -2    4.01    0.24
  10   5  -2    4.11    0.24
  10  -5  -2    4.24    0.26
 -10  -5   2    4.30    0.23
  10   5  -1   -0.03    0.05
  10   5  -1   -0.06    0.05
 -10   5   1   -0.07    0.04
 -10  -5   1   -0.03    0.04
  10  -5  -1   -0.02    0.05
  10   5   0    0.21    0.08
  10   5   0    0.20    0.08
 -10  -5   0    0.15    0.06
  10  -5   0    0.14    0.08
  10  -5   0    0.09    0.07
  10   5   1    0.00    0.05
  10  -5   1    0.07    0.06
  10  -5   1   -0.02    0.05
 -10  -5  -1    0.03    0.04
  10   5   2    3.06    0.21
 -10  -5  -2    2.69    0.18
  10  -5   2    3.19    0.22
  10  -5   2    3.21    0.20
  10   5   3    0.05    0.07
  10  -5   3    0.10    0.07
  10  -5   3    0.16    0.09
  10   5   4    0.05    0.07
  10  -5   4    0.05    0.08
  10   5   5   -0.05    0.06
  10   5   6    0.03    0.08
  10   5   7   -0.05    0.07
  10   5   8   -0.06    0.09
  10   6 -10    0.14    0.10
  10   6 -10    0.03    0.09
 -10  -6  10   -0.05    0.09
 -10  -6  10    0.05    0.10
  10   6  -9    0.54    0.14
 -10   6   9    1.00    0.18
  10   6  -9    0.80    0.16
 -10  -6   9    0.76    0.16
  10   6  -8    0.07    0.09
 -10   6   8    0.10    0.09
  10   6  -8    0.50    0.13
  10  -6  -8    0.20    0.10
  10   6  -7    0.99    0.17
 -10   6   7    1.14    0.18
  10   6  -7    1.05    0.17
  10  -6  -7    0.93    0.16
 -10   6   6    0.56    0.13
  10   6  -6    0.77    0.14
  10   6  -6    0.61    0.13
  10  -6  -6    0.75    0.14
  10  -6  -6    0.65    0.13
 -10  -6   6    0.65    0.13
  10   6  -5    1.43    0.18
  10   6  -5    1.32    0.18
 -10   6   5    1.79    0.21
  10  -6  -5    1.60    0.19
 -10  -6   5    1.31    0.16
  10  -6  -5    1.37    0.18
  10   6  -4    2.31    0.23
  10   6  -4    2.59    0.24
  10  -6  -4    2.36    0.23
  10  -6  -4    2.30    0.22
 -10  -6   4    2.50    0.19
  10   6  -3    4.99    0.28
  10   6  -3    5.29    0.27
  10   6  -3    4.53    0.27
  10  -6  -3    5.31    0.29
  10  -6  -3    5.16    0.28
 -10  -6   3    5.03    0.26
  10   6  -2   -0.10    0.04
  10   6  -2   -0.04    0.05
  10   6  -2   -0.02    0.07
 -10  -6   2   -0.05    0.04
  10  -6  -2   -0.03    0.05
  10   6  -1    1.61    0.17
  10   6  -1    1.79    0.18
 -10  -6   1    1.33    0.14
  10  -6  -1    1.33    0.17
  10   6   0    0.41    0.10
  10   6   0    0.34    0.09
  10  -6   0    0.33    0.10
 -10  -6   0    0.37    0.08
  10   6   1    0.07    0.07
  10  -6   1    0.06    0.06
  10  -6   1    0.19    0.08
 -10  -6  -1    0.13    0.06
  10   6   2    0.44    0.10
  10  -6   2    0.49    0.10
 -10  -6  -2    0.60    0.10
  10  -6   2    0.45    0.11
  10   6   3    1.71    0.19
  10  -6   3    1.68    0.19
  10   6   4    0.75    0.14
  10  -6   4    1.03    0.15
  10   6   5    0.39    0.11
  10   6   6   -0.05    0.07
  10   6   7    0.05    0.09
  10   6   8    0.21    0.11
  10   7 -10    0.18    0.12
  10   7 -10    0.18    0.11
 -10   7  10    0.40    0.15
 -10  -7  10    0.38    0.13
 -10   7   9   -0.01    0.08
  10   7  -9   -0.02    0.08
  10   7  -9   -0.03    0.08
 -10  -7   9    0.10    0.11
 -10   7   8    0.05    0.09
  10   7  -8   -0.01    0.08
  10   7  -8    0.06    0.09
 -10  -7   8   -0.02    0.08
  10  -7  -8   -0.02    0.07
  10   7  -7    0.43    0.11
  10   7  -7    0.57    0.14
 -10   7   7    0.47    0.13
  10  -7  -7    0.39    0.12
 -10   7   6   -0.03    0.07
  10   7  -6   -0.04    0.07
  10   7  -6    0.09    0.08
  10  -7  -6    0.02    0.07
  10  -7  -6    0.13    0.09
 -10   7   5   -0.02    0.07
  10   7  -5    0.11    0.08
  10   7  -5    0.20    0.09
 -10  -7   5    0.28    0.09
  10  -7  -5    0.12    0.08
  10  -7  -5    0.15    0.08
  10   7  -4   -0.08    0.05
 -10   7   4    0.12    0.07
  10   7  -4    0.08    0.08
  10  -7  -4    0.00    0.07
  10  -7  -4    0.12    0.08
 -10  -7   4    0.05    0.05
  10   7  -3    0.11    0.07
 -10   7   3    0.21    0.08
  10   7  -3    0.19    0.09
  10   7  -3    0.25    0.09
  10  -7  -3    0.11    0.07
 -10  -7   3   -0.02    0.05
  10  -7  -3    0.09    0.07
  10   7  -2    0.02    0.05
  10   7  -2   -0.05    0.05
  10   7  -2    0.00    0.06
 -10  -7   2    0.06    0.05
  10  -7  -2   -0.03    0.06
  10   7  -1   -0.02    0.05
  10   7  -1    0.03    0.06
  10   7  -1   -0.09    0.05
  10  -7  -1    0.07    0.07
 -10  -7   1    0.02    0.04
  10   7   0    1.07    0.14
  10   7   0    1.03    0.14
 -10  -7   0    0.87    0.12
  10  -7   0    0.73    0.13
  10   7   1    0.08    0.06
  10  -7   1    0.17    0.08
  10  -7   1    0.08    0.07
 -10  -7  -1    0.07    0.05
  10   7   2   -0.05    0.06
  10  -7   2   -0.04    0.06
 -10  -7  -2   -0.07    0.04
  10   7   3    0.93    0.14
  10  -7   3    1.01    0.15
  10   7   4    0.00    0.06
  10  -7   4    0.08    0.08
  10   7   5    0.09    0.08
  10   7   6    0.22    0.10
 -10   7  -6    0.11    0.09
  10   7   7    0.02    0.09
  10   7   8    0.03    0.10
 -10   8  10    0.18    0.12
  10   8 -10   -0.04    0.08
  10   8 -10   -0.03    0.09
 -10  -8  10   -0.14    0.08
  10   8  -9   -0.01    0.08
  10   8  -9    0.04    0.09
 -10   8   9    0.08    0.10
 -10  -8   9    0.00    0.10
 -10   8   8    0.21    0.11
  10   8  -8   -0.04    0.08
  10   8  -8    0.23    0.10
 -10  -8   8    0.12    0.11
  10  -8  -8    0.22    0.11
  10   8  -7    0.02    0.08
 -10   8   7    0.10    0.08
  10   8  -7    0.09    0.08
  10  -8  -7   -0.08    0.07
 -10  -8   7    0.01    0.09
  10   8  -6    0.10    0.08
  10   8  -6   -0.04    0.06
 -10   8   6    0.11    0.09
  10  -8  -6   -0.02    0.08
  10   8  -5   -0.07    0.06
 -10   8   5    0.12    0.08
  10   8  -5   -0.04    0.07
 -10  -8   5    0.04    0.06
  10  -8  -5   -0.01    0.06
  10  -8  -5    0.05    0.07
 -10   8   4    0.13    0.07
  10   8  -4    0.22    0.09
  10   8  -4    0.02    0.07
  10   8  -4    0.24    0.10
  10  -8  -4    0.21    0.09
  10  -8  -4    0.00    0.06
 -10  -8   4    0.15    0.06
 -10   8   3    1.62    0.19
  10   8  -3    1.49    0.18
  10   8  -3    1.53    0.18
  10   8  -3    1.57    0.18
  10  -8  -3    1.51    0.18
 -10  -8   3    1.69    0.17
  10  -8  -3    0.98    0.16
  10   8  -2    0.21    0.08
 -10   8   2    0.29    0.09
  10   8  -2    0.15    0.08
  10   8  -2    0.27    0.09
  10  -8  -2    0.18    0.09
 -10  -8   2    0.32    0.09
  10   8  -1    0.16    0.08
  10   8  -1    0.41    0.10
  10   8  -1    0.62    0.12
  10  -8  -1    0.26    0.10
 -10  -8   1    0.17    0.07
  10   8   0    1.04    0.14
  10  -8   0    0.98    0.15
 -10  -8   0    1.21    0.14
  10   8   1    0.29    0.09
  10  -8   1    0.30    0.10
 -10  -8  -1    0.35    0.09
  10   8   2    0.08    0.07
 -10  -8  -2    0.00    0.05
  10  -8   2    0.07    0.08
  10   8   3    0.32    0.10
 -10  -8  -3    0.37    0.09
  10  -8   3    0.51    0.12
  10   8   4    1.35    0.18
  10  -8   4    1.18    0.17
  10   8   5    0.15    0.09
  10  -8   5    0.23    0.10
  10   8   6    0.02    0.08
 -10   8  -6    0.10    0.09
  10   8   7    0.15    0.10
  10   9 -10    0.04    0.10
 -10   9  10    0.11    0.12
  10   9 -10   -0.01    0.09
 -10  -9  10    0.06    0.11
  10   9  -9    0.01    0.09
 -10   9   9    0.09    0.10
  10   9  -9    0.27    0.12
 -10  -9   9   -0.04    0.09
 -10   9   8    0.04    0.09
  10   9  -8   -0.02    0.08
  10   9  -8    0.02    0.09
 -10  -9   8   -0.06    0.09
  10   9  -7    0.01    0.08
  10   9  -7   -0.15    0.07
 -10   9   7   -0.05    0.07
 -10  -9   7    0.04    0.09
  10  -9  -7    0.11    0.09
 -10   9   6    0.48    0.12
  10   9  -6    0.48    0.13
  10   9  -6    0.27    0.11
 -10  -9   6    0.30    0.11
  10  -9  -6    0.32    0.11
  10   9  -5    0.02    0.07
  10   9  -5   -0.02    0.06
 -10   9   5    0.06    0.08
  10  -9  -5    0.08    0.08
  10  -9  -5    0.07    0.07
  10   9  -4    0.09    0.07
  10   9  -4   -0.04    0.07
  10   9  -4    0.04    0.07
 -10   9   4    0.05    0.07
  10  -9  -4    0.08    0.08
  10  -9  -4    0.12    0.08
 -10  -9   4    0.03    0.05
 -10   9   3    0.64    0.12
  10   9  -3    0.41    0.11
  10   9  -3    0.47    0.12
  10   9  -3    0.78    0.13
  10  -9  -3    0.62    0.13
  10  -9  -3    0.56    0.11
 -10  -9   3    0.45    0.10
  10   9  -2    4.73    0.28
  10   9  -2    5.10    0.27
  10   9  -2    5.16    0.28
 -10  -9   2    5.07    0.27
  10  -9  -2    5.53    0.31
  10   9  -1    0.47    0.11
  10   9  -1    0.31    0.09
  10   9  -1    0.36    0.10
  10  -9  -1    0.20    0.09
 -10  -9   1    0.26    0.08
  10   9   0    0.26    0.09
  10   9   0    0.23    0.08
  10  -9   0    0.27    0.10
 -10  -9   0    0.39    0.09
  10   9   1    0.28    0.09
 -10  -9  -1    0.40    0.09
  10  -9   1    0.12    0.09
  10   9   2    2.25    0.22
  10  -9   2    2.23    0.23
 -10  -9  -2    2.06    0.20
  10   9   3    0.28    0.10
  10  -9   3    0.23    0.10
 -10  -9  -3    0.31    0.09
  10   9   4    0.07    0.08
  10  -9   4    0.20    0.10
  10   9   5    0.23    0.10
  10  -9   5    0.33    0.11
  10   9   6    0.02    0.08
 -10   9  -6    0.14    0.10
 -10   9  -7    0.09    0.10
  10   9   7   -0.07    0.08
  10  10  -9    0.09    0.10
 -10  10   9    0.18    0.12
  10  10  -9    0.02    0.09
 -10 -10   9   -0.05    0.09
 -10  10   8    0.51    0.14
  10  10  -8    0.36    0.12
  10  10  -8    0.53    0.14
 -10 -10   8    0.54    0.14
  10  10  -7   -0.01    0.08
 -10  10   7    0.08    0.08
  10  10  -7    0.13    0.10
  10 -10  -7    0.26    0.11
 -10 -10   7    0.04    0.09
  10  10  -6    0.09    0.09
 -10  10   6   -0.08    0.07
  10  10  -6    0.03    0.09
  10 -10  -6    0.00    0.08
 -10 -10   6    0.09    0.09
  10  10  -5   -0.02    0.07
  10  10  -5   -0.03    0.07
 -10  10   5    0.01    0.07
 -10 -10   5    0.07    0.08
  10 -10  -5    0.19    0.09
  10 -10  -5    0.05    0.07
 -10  10   4    0.64    0.13
  10  10  -4    0.76    0.15
  10  10  -4    1.11    0.17
  10  10  -4    0.98    0.15
 -10 -10   4    0.99    0.17
  10 -10  -4    0.83    0.15
  10 -10  -4    0.95    0.16
  10  10  -3    0.80    0.14
  10  10  -3    0.73    0.13
  10  10  -3    0.77    0.14
  10 -10  -3    1.05    0.16
 -10 -10   3    0.51    0.12
 -10 -10   3    0.91    0.13
  10  10  -2    0.08    0.07
  10  10  -2    0.19    0.08
  10  10  -2   -0.01    0.06
 -10 -10   2    0.12    0.06
  10 -10  -2    0.09    0.08
  10  10  -1    0.28    0.09
  10  10  -1    0.13    0.07
  10  10  -1    0.20    0.09
 -10 -10   1    0.12    0.06
  10 -10  -1    0.27    0.10
  10  10   0    0.07    0.07
  10 -10   0    0.00    0.08
 -10 -10   0    0.05    0.06
  10  10   1    0.24    0.09
 -10 -10  -1    0.19    0.08
  10 -10   1    0.12    0.09
  10  10   2    3.12    0.22
 -10 -10  -2    2.65    0.20
  10 -10   2    2.68    0.26
  10  10   3    0.83    0.14
  10 -10   3    0.73    0.14
 -10 -10  -3    0.85    0.14
  10  10   4    1.98    0.22
  10 -10   4    1.74    0.22
 -10  10  -5    0.13    0.10
  10  10   5    0.54    0.13
  10 -10   5    0.22    0.11
 -10  10  -6    0.04    0.08
  10  10   6    0.00    0.09
  10  10   7    0.41    0.13
 -10  10  -7    0.54    0.14
  10  11  -9    0.27    0.12
  10  11  -9    0.12    0.11
 -10  11   9    0.18    0.12
 -10 -11   9    0.21    0.12
  10  11  -8    0.21    0.11
 -10  11   8    0.14    0.10
 -10  11   8    0.21    0.12
  10  11  -8    0.20    0.11
 -10 -11   8    0.19    0.12
  10  11  -7    0.01    0.09
  10  11  -7   -0.15    0.06
 -10  11   7   -0.01    0.08
  10 -11  -7   -0.11    0.08
 -10 -11   7    0.01    0.08
  10  11  -6    0.03    0.09
  10  11  -6   -0.04    0.08
 -10  11   6   -0.05    0.07
  10 -11  -6    0.07    0.09
 -10 -11   6   -0.07    0.07
  10  11  -5    0.09    0.09
 -10  11   5    0.02    0.07
  10  11  -5   -0.04    0.06
  10 -11  -5    0.09    0.08
 -10 -11   5   -0.02    0.07
  10  11  -4    0.66    0.14
 -10  11   4    0.70    0.14
  10  11  -4    1.00    0.16
  10 -11  -4    0.62    0.13
 -10 -11   4    0.71    0.15
  10 -11  -4    1.21    0.18
  10  11  -3    0.27    0.09
  10  11  -3    0.12    0.08
  10  11  -3    0.08    0.08
  10 -11  -3    0.21    0.10
 -10 -11   3    0.01    0.08
  10  11  -2    0.06    0.07
  10  11  -2   -0.03    0.06
  10  11  -2    0.06    0.08
  10 -11  -2   -0.07    0.05
 -10 -11   2   -0.03    0.06
  10  11  -1    0.35    0.10
  10  11  -1    0.54    0.11
  10 -11  -1    0.29    0.11
 -10 -11   1    0.42    0.10
  10  11   0    1.70    0.19
 -10 -11   0    1.80    0.19
  10 -11   0    1.92    0.22
  10  11   1    0.47    0.12
  10 -11   1    0.50    0.13
  10  11   2    0.00    0.06
  10 -11   2    0.18    0.10
  10  11   3    3.05    0.22
  10 -11   3    2.50    0.25
  10  11   4    0.40    0.13
  10 -11   4    0.55    0.13
  10  11   5    0.08    0.09
 -10  11  -5    0.06    0.09
  10 -11   5    0.13    0.10
 -10  11  -6    0.27    0.12
  10  11   6    0.43    0.12
 -10  12   9    0.00    0.11
  10  12  -9    0.04    0.09
  10  12  -8    0.15    0.11
 -10  12   8    0.12    0.11
  10  12  -8    0.04    0.10
 -10 -12   8    0.06    0.11
  10  12  -7   -0.09    0.08
  10  12  -7   -0.06    0.09
 -10 -12   7    0.00    0.09
  10  12  -6    0.12    0.10
 -10  12   6    0.05    0.09
  10  12  -6    0.15    0.11
  10 -12  -6    0.10    0.09
 -10 -12   6    0.02    0.09
  10  12  -5   -0.04    0.07
 -10  12   5   -0.02    0.07
  10  12  -5    0.01    0.08
 -10 -12   5   -0.11    0.07
  10 -12  -5   -0.01    0.07
  10  12  -4   -0.03    0.07
  10  12  -4    0.04    0.08
 -10 -12   4    0.04    0.07
  10 -12  -4   -0.09    0.06
  10 -12  -4   -0.09    0.07
  10  12  -3    1.67    0.20
  10  12  -3    1.53    0.19
  10 -12  -3    1.80    0.22
 -10 -12   3    1.53    0.19
  10  12  -2    0.86    0.14
  10  12  -2    0.52    0.12
  10  12  -2    0.52    0.12
  10 -12  -2    0.67    0.15
 -10 -12   2    0.69    0.13
  10  12  -1    0.42    0.11
  10 -12  -1    0.61    0.13
  10  12   0   -0.03    0.06
  10 -12   0    0.02    0.07
  10  12   1    0.58    0.13
  10 -12   1    0.98    0.17
  10  12   2   -0.04    0.07
  10 -12   2   -0.04    0.08
  10  12   3    0.63    0.14
  10 -12   3    0.86    0.16
 -10  12  -4    0.10    0.09
  10  12   4    0.01    0.08
  10 -12   4    0.08    0.09
  10  12   5    0.12    0.10
 -10  12  -5    0.02    0.08
  10 -12   5    0.08    0.10
  10  12   6    0.06    0.10
 -10  12  -6    0.18    0.11
  10 -12   6    0.12    0.10
  10  13  -8    0.25    0.13
 -10  13   8    0.55    0.16
  10  13  -8    0.59    0.16
 -10 -13   8    0.46    0.16
  10  13  -7    0.30    0.12
 -10  13   7    0.57    0.16
 -10  13   7    0.87    0.18
  10  13  -7    0.36    0.13
 -10 -13   7    0.57    0.16
  10  13  -6    0.78    0.17
 -10  13   6    0.83    0.17
  10  13  -6    0.49    0.13
  10 -13  -6    0.71    0.15
 -10 -13   6    1.02    0.18
  10  13  -5    0.21    0.11
  10  13  -5    0.31    0.11
  10 -13  -5    0.18    0.11
 -10 -13   5    0.19    0.11
  10  13  -4    0.26    0.11
  10  13  -4    0.19    0.10
  10 -13  -4   -0.03    0.08
 -10 -13   4    0.03    0.09
  10  13  -3   -0.02    0.07
  10  13  -3    0.16    0.10
 -10 -13   3    0.20    0.10
  10 -13  -3    0.14    0.10
  10  13  -2    0.74    0.14
  10  13  -2    0.41    0.11
 -10 -13   2    0.69    0.14
  10 -13  -2    0.42    0.12
  10  13  -1    0.14    0.08
  10 -13  -1    0.09    0.09
  10  13   0    0.51    0.12
  10 -13   0    0.72    0.15
  10  13   1    0.02    0.06
  10 -13   1    0.03    0.09
  10  13   2    0.90    0.16
  10 -13   2    1.05    0.18
  10  13   3    1.97    0.22
  10 -13   3    1.92    0.24
 -10  13  -4   -0.04    0.08
  10  13   4    0.09    0.09
  10 -13   4   -0.03    0.08
  10  13   5    0.05    0.09
 -10  13  -5   -0.09    0.06
  10 -13   5    0.16    0.11
  10  14  -7    1.47    0.22
  10  14  -7    1.58    0.24
 -10  14   7    1.69    0.23
 -10 -14   7    1.52    0.22
 -10  14   6    0.42    0.14
  10  14  -6    0.56    0.16
  10  14  -6    0.51    0.14
 -10 -14   6    0.59    0.16
  10  14  -5    0.40    0.14
  10  14  -5    0.39    0.12
 -10 -14   5    0.24    0.12
  10 -14  -5    0.48    0.14
  10  14  -4    0.51    0.13
  10  14  -4    0.59    0.15
  10 -14  -4    0.61    0.15
 -10 -14   4    0.48    0.13
  10  14  -3    0.04    0.09
  10  14  -3   -0.01    0.08
  10 -14  -3   -0.02    0.08
 -10 -14   3   -0.15    0.07
  10 -14  -2    0.03    0.09
  10 -14  -1    0.02    0.08
  10  14   0    0.13    0.08
  10 -14   0    0.24    0.11
  10  14   1    1.09    0.16
  10 -14   1    0.89    0.18
  10  14   2    0.34    0.11
  10 -14   2    0.44    0.13
  10  14   3   -0.06    0.07
 -10  14  -3    0.00    0.08
  10 -14   3    0.05    0.10
  10  14   4    0.31    0.11
 -10  14  -4    0.36    0.13
  10 -14   4    0.40    0.13
 -10  14  -5    0.16    0.10
  10  14   5   -0.02    0.07
  10 -14   5    0.03    0.11
 -10  15   7    0.11    0.11
  10  15  -7   -0.03    0.09
  10  15  -7    0.16    0.11
 -10 -15   7   -0.02    0.11
  10  15  -6   -0.09    0.08
  10  15  -6   -0.07    0.09
 -10 -15   6   -0.01    0.10
  10  15  -5    0.11    0.10
  10  15  -5    0.06    0.09
 -10 -15   5    0.13    0.11
  10 -15  -5    0.06    0.10
  10  15  -4    0.27    0.12
  10  15  -4    0.33    0.12
  10 -15  -4    0.28    0.12
 -10 -15   4    0.34    0.12
  10  15  -3    0.62    0.15
  10  15  -3    0.67    0.16
  10 -15  -3    0.64    0.15
 -10 -15   3    0.80    0.16
  10 -15  -2    0.67    0.17
  10 -15  -1    1.02    0.18
  10 -15   0    2.13    0.26
  10 -15   1    0.01    0.08
  10  15   2    0.74    0.15
  10 -15   2    0.74    0.17
 -10  15  -3    0.12    0.10
  10  15   3    0.13    0.09
  10 -15   3    0.14    0.11
 -10  15  -4    0.02    0.08
  10  15   4   -0.04    0.08
  10 -15   4    0.12    0.10
  10  16  -6    0.10    0.11
  10  16  -6    0.15    0.12
 -10 -16   6    0.06    0.11
  10  16  -5   -0.02    0.08
  10  16  -5    0.15    0.12
  10 -16  -5   -0.07    0.10
 -10 -16   5    0.13    0.11
  10  16  -4    0.01    0.09
  10  16  -4   -0.10    0.08
  10 -16  -4   -0.10    0.08
 -10 -16   4    0.06    0.11
  10  16  -3    0.16    0.12
 -10 -16   3    0.06    0.09
  10 -16  -3    0.31    0.13
  10 -16  -2    0.41    0.14
  10 -16  -1    0.31    0.13
  10 -16   0    0.12    0.11
  10 -16   1    0.34    0.13
 -10  16  -2    0.13    0.11
  10 -16   2    0.29    0.12
  10  16   3   -0.04    0.08
 -10  16  -3   -0.06    0.08
  10 -16   3    0.00    0.09
  10  17  -5    0.04    0.10
  10  17  -5    0.00    0.10
 -10 -17   5    0.17    0.12
  10  17  -4    0.01    0.10
  10  17  -4   -0.06    0.10
  10 -17  -4    0.07    0.11
 -10 -17   4   -0.13    0.08
  10 -17  -3    0.04    0.11
  10 -17  -2   -0.10    0.09
  10 -17  -1    0.07    0.11
  10 -17   0    0.61    0.17
 -10  17  -1    0.12    0.10
  10 -17   1   -0.03    0.10
 -10  17  -2    0.04    0.10
  10 -17   2    0.22    0.12
  10 -18  -3    0.07    0.10
  10 -18  -2   -0.03    0.10
  10 -18  -1    0.77    0.18
 -10  18   0    0.18    0.12
  10 -18   0    0.16    0.13
  11   0 -10    0.23    0.11
 -11   0   9    0.01    0.08
  11   0  -9   -0.04    0.07
  11   0  -8    0.12    0.09
  11   0  -7   -0.01    0.08
  11   0  -6    1.37    0.19
 -11   0   6    1.12    0.17
  11   0  -5   -0.05    0.06
 -11   0   5    0.13    0.07
  11   0  -4    0.90    0.15
 -11   0   4    0.95    0.14
 -11   0   3   -0.06    0.05
  11   0  -3    0.00    0.07
  11   0  -2    1.30    0.18
 -11   0   2    0.89    0.13
  11   0  -2    1.28    0.17
 -11   0   1    0.07    0.05
  11   0  -1    0.02    0.08
  11   0  -1    0.07    0.08
  11   0   0    3.69    0.23
  11   0   0    2.80    0.21
  11   0   1    0.04    0.07
  11   0   1    0.03    0.07
  11   0   2    4.36    0.26
  11   0   2    4.59    0.25
  11   0   3   -0.11    0.06
  11   0   4    0.26    0.09
  11   0   5    0.00    0.07
  11   0   6    0.10    0.09
  11   0   7   -0.03    0.08
  11   1 -10    0.11    0.11
  11   1 -10    0.05    0.09
  11  -1 -10    0.05    0.09
 -11   1   9    0.01    0.08
  11   1  -9   -0.02    0.08
  11   1  -9    0.11    0.10
  11  -1  -9    0.08    0.10
 -11  -1   9   -0.04    0.08
  11   1  -8    0.13    0.10
 -11   1   8    0.08    0.09
  11   1  -8    0.06    0.08
  11  -1  -8    0.12    0.09
  11   1  -7    0.12    0.09
  11   1  -7   -0.02    0.07
  11  -1  -7   -0.04    0.07
  11   1  -6   -0.01    0.08
 -11   1   6   -0.06    0.05
 -11  -1   6    0.03    0.06
  11  -1  -6   -0.06    0.07
 -11   1   5    0.28    0.10
  11   1  -5    0.15    0.09
  11  -1  -5    0.07    0.08
 -11  -1   5    0.31    0.10
 -11   1   4    3.89    0.25
  11   1  -4    4.33    0.27
 -11  -1   4    4.30    0.26
  11  -1  -4    4.06    0.27
  11   1  -3    6.90    0.35
 -11   1   3    6.61    0.32
  11  -1  -3    6.83    0.35
 -11  -1   3    6.98    0.32
  11   1  -2   -0.01    0.07
  11   1  -2   -0.07    0.06
 -11   1   2    0.04    0.05
  11  -1  -2    0.12    0.08
 -11  -1   2   -0.04    0.04
  11  -1  -2    0.06    0.07
  11   1  -1    3.00    0.23
  11   1  -1    3.48    0.22
 -11   1   1    3.20    0.19
 -11  -1   1    3.45    0.20
  11  -1  -1    4.18    0.26
  11  -1  -1    3.43    0.22
  11   1   0    1.87    0.19
  11   1   0    2.10    0.21
 -11  -1   0    2.00    0.15
  11  -1   0    2.12    0.21
  11  -1   0    2.06    0.20
  11   1   1    1.08    0.15
  11   1   1    0.77    0.13
  11  -1   1    0.99    0.14
  11  -1   1    0.82    0.13
  11   1   2    0.45    0.11
  11  -1   2    0.42    0.12
  11  -1   2    0.46    0.11
  11   1   3    0.12    0.08
  11  -1   3    0.05    0.08
  11   1   4    0.17    0.09
  11  -1   4    0.06    0.07
  11   1   5    0.01    0.07
  11  -1   5   -0.10    0.06
  11   1   6    0.07    0.09
  11  -1   6    0.10    0.09
  11   1   7    0.08    0.09
  11   1   8   -0.03    0.09
  11   2 -10   -0.10    0.08
  11   2 -10    0.12    0.10
  11  -2 -10   -0.01    0.09
  11   2  -9    0.06    0.08
  11   2  -9    0.08    0.09
 -11   2   9    0.12    0.09
  11  -2  -9   -0.14    0.08
  11   2  -8    0.01    0.07
 -11   2   8    0.00    0.08
  11   2  -8    0.11    0.09
  11  -2  -8    0.00    0.09
  11   2  -7    0.03    0.07
  11   2  -7    0.06    0.08
  11  -2  -7    0.17    0.09
  11   2  -6    0.84    0.15
  11   2  -6    0.96    0.16
 -11  -2   6    1.03    0.16
  11  -2  -6    1.15    0.17
 -11   2   5    5.93    0.32
  11   2  -5    5.44    0.32
  11  -2  -5    4.67    0.30
 -11  -2   5    5.20    0.29
  11   2  -4    0.28    0.10
 -11   2   4    0.32    0.09
  11  -2  -4    0.16    0.10
 -11  -2   4    0.25    0.08
 -11   2   3    1.55    0.17
  11   2  -3    1.77    0.20
  11   2  -3    1.35    0.18
  11  -2  -3    1.45    0.19
 -11  -2   3    1.19    0.15
 -11   2   2    0.23    0.08
  11   2  -2    0.39    0.11
  11   2  -2    0.23    0.09
 -11  -2   2    0.24    0.08
  11  -2  -2    0.26    0.09
  11   2  -1    0.27    0.09
  11   2  -1    0.26    0.09
 -11   2   1    0.23    0.07
 -11  -2   1    0.25    0.07
  11  -2  -1    0.26    0.09
  11  -2  -1    0.30    0.10
  11   2   0    0.40    0.11
  11   2   0    0.42    0.11
 -11  -2   0    0.41    0.08
  11  -2   0    0.50    0.11
  11  -2   0    0.49    0.11
  11   2   1    0.56    0.12
  11   2   1    0.64    0.13
  11  -2   1    0.43    0.11
  11  -2   1    0.85    0.14
  11   2   2    0.36    0.10
  11  -2   2    0.40    0.11
  11  -2   2    0.22    0.10
  11   2   3    1.70    0.19
  11  -2   3    1.41    0.17
  11   2   4    0.01    0.07
  11  -2   4    0.02    0.07
  11   2   5    0.19    0.09
  11  -2   5    0.08    0.08
  11   2   6   -0.04    0.08
  11   2   7    0.36    0.12
  11   2   8   -0.03    0.09
  11   3 -10    0.09    0.10
  11   3 -10   -0.07    0.08
  11  -3 -10   -0.03    0.10
 -11   3   9    0.08    0.09
  11   3  -9    0.11    0.11
  11   3  -9    0.12    0.09
  11  -3  -9   -0.06    0.08
 -11   3   8    0.00    0.07
  11   3  -8   -0.05    0.07
  11   3  -8   -0.02    0.08
  11  -3  -8   -0.05    0.08
  11   3  -7    0.31    0.10
 -11   3   7    0.39    0.13
  11   3  -7    0.52    0.14
  11  -3  -7    0.44    0.13
  11   3  -6    0.18    0.10
  11   3  -6    0.15    0.08
  11  -3  -6    0.37    0.11
  11   3  -5   -0.08    0.06
  11   3  -5    0.20    0.10
  11  -3  -5   -0.06    0.07
 -11  -3   5    0.11    0.07
  11   3  -4    0.35    0.11
 -11   3   4    0.30    0.09
 -11  -3   4    0.40    0.10
  11  -3  -4    0.33    0.11
  11   3  -3    0.13    0.08
 -11   3   3    0.14    0.07
  11   3  -3    0.23    0.10
  11  -3  -3    0.11    0.07
 -11  -3   3    0.21    0.08
  11   3  -2   -0.01    0.06
  11   3  -2    0.12    0.07
 -11   3   2    0.05    0.06
 -11  -3   2   -0.03    0.04
  11  -3  -2    0.16    0.08
  11   3  -1    0.24    0.09
  11   3  -1    0.12    0.08
  11  -3  -1    0.24    0.09
  11  -3  -1    0.23    0.09
 -11  -3   1    0.15    0.06
  11   3   0    1.52    0.18
  11   3   0    1.53    0.18
 -11  -3   0    1.75    0.16
  11  -3   0    1.89    0.20
  11  -3   0    1.59    0.18
  11   3   1    3.87    0.24
  11   3   1    4.25    0.25
  11  -3   1    3.88    0.24
  11  -3   1    3.74    0.25
  11   3   2    0.74    0.13
  11  -3   2    1.19    0.16
  11  -3   2    0.63    0.13
  11   3   3    0.07    0.08
  11  -3   3    0.07    0.08
  11  -3   3    0.12    0.08
  11   3   4    0.18    0.09
  11  -3   4    0.18    0.09
  11   3   5   -0.03    0.07
  11  -3   5    0.10    0.08
  11   3   6   -0.05    0.08
  11   3   7    0.32    0.12
  11   3   8    0.13    0.12
  11   4 -10    0.15    0.11
  11   4 -10    0.20    0.11
  11   4  -9   -0.04    0.08
  11   4  -9   -0.04    0.08
 -11   4   9   -0.09    0.08
  11  -4  -9    0.03    0.08
  11   4  -8   -0.07    0.07
  11   4  -8    0.08    0.10
 -11   4   8    0.01    0.08
  11  -4  -8    0.02    0.09
  11   4  -7    0.13    0.09
  11   4  -7    0.11    0.09
 -11   4   7   -0.05    0.07
  11  -4  -7   -0.02    0.07
  11   4  -6    1.94    0.23
  11   4  -6    1.36    0.19
  11  -4  -6    1.53    0.20
  11   4  -5    0.59    0.13
  11   4  -5    0.68    0.15
 -11  -4   5    0.60    0.12
  11  -4  -5    0.76    0.15
  11   4  -4    2.37    0.23
  11   4  -4    2.37    0.24
  11  -4  -4    2.06    0.22
 -11  -4   4    2.67    0.20
 -11   4   3    0.03    0.06
  11   4  -3   -0.07    0.06
  11   4  -3    0.00    0.06
 -11  -4   3   -0.02    0.05
  11  -4  -3   -0.09    0.06
  11   4  -2    0.50    0.12
  11   4  -2    0.74    0.13
 -11   4   2    0.73    0.12
  11  -4  -2    0.70    0.13
 -11  -4   2    0.57    0.10
  11   4  -1    0.72    0.13
  11   4  -1    0.53    0.12
  11  -4  -1    0.91    0.14
 -11  -4   1    0.64    0.10
  11   4   0    1.86    0.19
  11   4   0    1.74    0.19
  11  -4   0    1.69    0.18
  11  -4   0    1.65    0.19
 -11  -4   0    1.72    0.16
  11   4   1    0.12    0.08
  11  -4   1    0.28    0.09
  11  -4   1    0.17    0.09
 -11  -4  -1    0.24    0.07
  11   4   2    2.00    0.20
  11  -4   2    2.12    0.22
  11  -4   2    1.91    0.19
  11   4   3    0.01    0.07
  11  -4   3    0.08    0.08
  11  -4   3    0.01    0.08
  11   4   4    1.17    0.17
  11  -4   4    1.01    0.15
  11   4   5    0.16    0.09
  11   4   6    0.28    0.10
  11   4   7    0.23    0.11
  11   5 -10   -0.06    0.08
  11   5 -10    0.04    0.10
 -11  -5  10   -0.02    0.09
 -11   5   9    0.06    0.09
  11   5  -9    0.10    0.10
  11   5  -9    0.12    0.10
  11  -5  -9    0.46    0.14
  11   5  -8    0.04    0.09
 -11   5   8    0.09    0.09
  11   5  -8   -0.05    0.08
  11  -5  -8    0.00    0.09
  11   5  -7   -0.01    0.07
  11   5  -7    0.14    0.09
 -11   5   7    0.01    0.07
  11  -5  -7   -0.03    0.08
  11   5  -6    0.41    0.12
  11   5  -6    0.52    0.13
 -11   5   6    0.27    0.11
  11  -5  -6    0.52    0.13
  11   5  -5   -0.03    0.06
  11   5  -5    0.04    0.08
  11  -5  -5    0.02    0.07
 -11  -5   5    0.06    0.06
  11   5  -4    3.41    0.25
  11   5  -4    3.05    0.23
  11  -5  -4    3.21    0.25
 -11  -5   4    3.35    0.22
  11   5  -3   -0.07    0.06
  11   5  -3    0.03    0.07
  11   5  -3   -0.03    0.06
  11  -5  -3    0.00    0.07
 -11  -5   3    0.03    0.06
 -11   5   2   -0.05    0.05
  11   5  -2    0.00    0.06
  11   5  -2    0.02    0.07
 -11  -5   2    0.00    0.04
  11  -5  -2   -0.07    0.06
  11   5  -1   -0.01    0.06
  11   5  -1    0.15    0.08
  11  -5  -1    0.01    0.06
 -11  -5   1    0.07    0.05
  11   5   0    1.22    0.17
  11   5   0    1.21    0.16
  11  -5   0    1.33    0.17
 -11  -5   0    1.12    0.13
  11  -5   0    1.36    0.17
  11   5   1    0.37    0.10
  11  -5   1    0.67    0.13
  11  -5   1    0.64    0.12
 -11  -5  -1    0.56    0.10
  11   5   2    1.74    0.20
  11  -5   2    2.04    0.21
  11  -5   2    2.03    0.19
  11   5   3    0.25    0.10
  11  -5   3    0.07    0.09
  11  -5   3    0.40    0.11
  11   5   4   -0.02    0.07
  11   5   5    0.06    0.08
  11   5   6    0.05    0.09
  11   5   7    0.13    0.10
  11   6 -10    0.04    0.10
  11   6 -10   -0.06    0.09
 -11  -6  10    0.01    0.10
  11   6  -9    0.52    0.14
  11   6  -9    0.53    0.14
 -11  -6   9    0.51    0.14
  11  -6  -9    0.27    0.12
  11   6  -8    0.32    0.12
  11   6  -8    0.21    0.11
 -11   6   8    0.54    0.15
  11  -6  -8    0.48    0.13
 -11   6   7    0.76    0.16
  11   6  -7    0.68    0.15
  11   6  -7    0.40    0.13
  11  -6  -7    0.63    0.15
  11   6  -6    0.34    0.12
  11   6  -6    0.46    0.13
 -11   6   6    0.31    0.12
  11  -6  -6    0.31    0.11
  11   6  -5    0.62    0.14
 -11   6   5    0.59    0.14
  11   6  -5    0.58    0.14
  11  -6  -5    0.79    0.15
  11   6  -4    0.79    0.15
  11   6  -4    0.90    0.15
 -11  -6   4    0.70    0.12
  11  -6  -4    1.14    0.18
  11   6  -3    3.42    0.24
  11   6  -3    3.25    0.23
  11   6  -3    3.57    0.24
 -11  -6   3    3.18    0.21
  11  -6  -3    3.05    0.23
  11   6  -2    2.37    0.23
  11   6  -2    2.51    0.20
  11   6  -2    2.62    0.20
  11  -6  -2    2.52    0.25
 -11  -6   2    2.60    0.19
  11   6  -1    0.00    0.06
  11   6  -1   -0.04    0.07
 -11  -6   1    0.06    0.05
  11  -6  -1    0.00    0.06
  11   6   0    0.49    0.11
  11   6   0    0.98    0.15
  11  -6   0    0.83    0.15
 -11  -6   0    0.91    0.12
  11   6   1    0.02    0.06
 -11  -6  -1   -0.05    0.04
  11  -6   1   -0.02    0.07
  11  -6   1    0.07    0.08
  11   6   2    0.32    0.10
  11  -6   2    0.35    0.11
  11  -6   2    0.27    0.10
  11   6   3    0.76    0.14
  11  -6   3    0.71    0.14
  11   6   4    0.06    0.07
  11  -6   4    0.15    0.08
  11   6   5    0.02    0.08
  11   6   6   -0.04    0.07
  11   6   7    0.17    0.11
  11   7 -10    0.34    0.13
  11   7 -10    0.37    0.14
 -11  -7  10    0.41    0.13
  11   7  -9    0.18    0.11
  11   7  -9    0.03    0.09
 -11  -7   9    0.08    0.10
  11   7  -8    0.31    0.12
 -11   7   8    0.13    0.10
  11   7  -8    0.18    0.11
  11  -7  -8    0.04    0.09
  11   7  -7    0.31    0.12
  11   7  -7    0.19    0.10
 -11   7   7    0.10    0.09
  11  -7  -7    0.39    0.12
  11   7  -6   -0.04    0.07
 -11   7   6    0.01    0.07
  11   7  -6    0.05    0.08
  11  -7  -6    0.10    0.09
 -11   7   5    0.08    0.08
  11   7  -5    0.05    0.07
  11   7  -5   -0.02    0.07
  11  -7  -5    0.01    0.07
  11  -7  -5   -0.03    0.08
  11   7  -4    0.04    0.07
  11   7  -4   -0.06    0.06
 -11   7   4   -0.02    0.06
  11  -7  -4    0.15    0.09
  11  -7  -4    0.09    0.07
 -11  -7   4    0.00    0.05
  11   7  -3    2.16    0.22
  11   7  -3    2.21    0.22
  11   7  -3    1.97    0.21
  11  -7  -3    1.80    0.21
 -11  -7   3    2.35    0.18
  11   7  -2    0.48    0.12
  11   7  -2    0.55    0.12
  11   7  -2    0.38    0.11
 -11  -7   2    0.37    0.09
  11  -7  -2    0.40    0.11
  11   7  -1    0.92    0.15
  11   7  -1    0.73    0.13
 -11  -7   1    0.91    0.13
  11  -7  -1    0.73    0.14
  11   7   0    0.34    0.10
 -11  -7   0    0.44    0.09
  11  -7   0    0.59    0.13
  11   7   1    3.31    0.23
  11  -7   1    3.00    0.23
  11  -7   1    2.85    0.21
 -11  -7  -1    3.57    0.21
  11   7   2    0.25    0.10
  11  -7   2    0.29    0.11
  11   7   3   -0.10    0.06
  11  -7   3    0.11    0.09
  11   7   4   -0.03    0.07
  11  -7   4    0.12    0.09
  11   7   5    0.04    0.09
 -11   7  -6    0.30    0.11
  11   7   6    0.13    0.09
  11   7   7    0.05    0.10
  11   8  -9    0.14    0.11
  11   8  -9    0.24    0.12
 -11  -8   9    0.41    0.14
 -11   8   8   -0.09    0.08
  11   8  -8   -0.06    0.08
  11   8  -8    0.12    0.09
 -11  -8   8    0.07    0.09
  11  -8  -8    0.11    0.10
  11   8  -7    0.04    0.08
 -11   8   7   -0.05    0.08
  11   8  -7    0.06    0.09
  11  -8  -7    0.04    0.09
 -11   8   6    0.45    0.13
  11   8  -6    0.52    0.14
  11   8  -6    0.34    0.12
  11  -8  -6    0.42    0.13
  11   8  -5    0.78    0.15
  11   8  -5    0.78    0.15
 -11   8   5    0.68    0.14
  11  -8  -5    1.16    0.18
  11  -8  -5    0.75    0.14
  11   8  -4    0.87    0.16
  11   8  -4    0.56    0.13
  11   8  -4    0.34    0.11
 -11   8   4    0.62    0.13
  11  -8  -4    0.70    0.14
  11  -8  -4    0.67    0.14
  11   8  -3    0.13    0.08
  11   8  -3    0.08    0.08
 -11   8   3    0.11    0.08
  11   8  -3    0.09    0.09
  11  -8  -3    0.17    0.09
 -11  -8   3    0.20    0.07
  11   8  -2    1.47    0.18
  11   8  -2    1.06    0.15
  11   8  -2    0.86    0.14
  11  -8  -2    1.04    0.16
 -11  -8   2    1.30    0.15
  11   8  -1    0.13    0.08
  11   8  -1   -0.01    0.07
 -11  -8   1    0.08    0.06
  11  -8  -1    0.04    0.08
  11   8   0   -0.05    0.06
  11  -8   0   -0.03    0.07
 -11  -8   0   -0.05    0.04
  11   8   1    0.22    0.09
  11  -8   1    0.12    0.10
 -11  -8  -1    0.18    0.07
  11   8   2    0.41    0.11
 -11  -8  -2    0.72    0.12
  11  -8   2    0.81    0.16
  11   8   3    0.24    0.10
  11  -8   3    0.20    0.10
  11   8   4    0.34    0.11
  11  -8   4    0.27    0.12
  11   8   5    0.36    0.12
  11   8   6   -0.11    0.08
 -11   8  -6   -0.04    0.07
  11   8   7    0.02    0.09
  11   9  -9    0.22    0.12
  11   9  -9    0.14    0.12
 -11  -9   9    0.07    0.11
  11   9  -8    0.11    0.10
 -11   9   8   -0.06    0.08
  11   9  -8   -0.05    0.08
  11  -9  -8    0.03    0.10
 -11  -9   8    0.17    0.11
  11   9  -7   -0.11    0.07
 -11   9   7   -0.02    0.08
  11   9  -7    0.07    0.10
 -11  -9   7   -0.08    0.07
  11  -9  -7    0.01    0.09
  11   9  -6    0.35    0.12
  11   9  -6    0.13    0.10
 -11   9   6    0.00    0.07
  11  -9  -6    0.15    0.10
 -11  -9   6    0.04    0.09
 -11   9   5   -0.05    0.06
  11   9  -5    0.03    0.08
  11   9  -5    0.00    0.08
  11  -9  -5   -0.05    0.07
  11   9  -4    0.27    0.10
  11   9  -4    0.22    0.10
 -11   9   4    0.14    0.08
  11   9  -4    0.20    0.09
  11  -9  -4    0.27    0.10
  11  -9  -4    0.15    0.09
  11   9  -3    0.15    0.08
  11   9  -3   -0.02    0.07
  11   9  -3    0.16    0.08
  11  -9  -3    0.07    0.08
  11   9  -2   -0.02    0.06
  11   9  -2   -0.01    0.06
  11   9  -2    0.24    0.10
 -11  -9   2    0.03    0.05
  11  -9  -2    0.00    0.08
  11   9  -1    0.89    0.15
  11   9  -1    0.91    0.15
  11   9  -1    0.78    0.13
  11  -9  -1    1.05    0.17
 -11  -9   1    1.28    0.16
  11   9   0    0.03    0.07
  11  -9   0    0.04    0.08
 -11  -9   0    0.03    0.06
  11   9   1    0.88    0.14
 -11  -9  -1    0.58    0.11
  11  -9   1    0.39    0.12
  11   9   2    1.02    0.16
  11  -9   2    1.30    0.19
 -11  -9  -2    1.55    0.18
  11   9   3    0.28    0.11
  11  -9   3    0.18    0.10
  11   9   4    0.09    0.09
  11  -9   4    0.13    0.09
  11   9   5   -0.05    0.07
 -11   9  -6    0.03    0.09
  11   9   6    0.08    0.10
  11  10  -9    0.04    0.10
 -11  10   9    0.09    0.11
  11  10  -9    0.06    0.11
 -11 -10   9    0.13    0.11
  11  10  -8   -0.18    0.06
  11  10  -8    0.10    0.10
 -11 -10   8    0.06    0.11
 -11  10   7    0.65    0.15
  11  10  -7    0.59    0.15
  11  10  -7    0.56    0.14
 -11 -10   7    0.43    0.14
  11 -10  -7    0.62    0.15
  11  10  -6   -0.12    0.07
  11  10  -6   -0.05    0.07
 -11  10   6    0.03    0.08
  11 -10  -6    0.00    0.08
 -11 -10   6   -0.04    0.08
  11  10  -5    0.09    0.09
 -11  10   5    0.26    0.10
  11  10  -5    0.32    0.11
 -11 -10   5    0.19    0.11
  11 -10  -5    0.02    0.08
  11  10  -4    0.01    0.07
 -11  10   4    0.06    0.07
  11  10  -4    0.00    0.08
  11  10  -4    0.04    0.08
  11 -10  -4   -0.03    0.08
  11 -10  -4    0.03    0.08
  11  10  -3   -0.05    0.06
  11  10  -3   -0.03    0.07
  11  10  -3   -0.06    0.07
  11 -10  -3    0.03    0.07
  11  10  -2   -0.04    0.07
  11  10  -2    0.07    0.09
  11  10  -2    0.16    0.08
  11 -10  -2   -0.04    0.07
  11  10  -1    0.00    0.07
  11  10  -1    0.06    0.07
  11 -10  -1   -0.01    0.08
  11  10   0    1.86    0.21
  11 -10   0    2.04    0.24
  11  10   1    0.12    0.09
  11 -10   1    0.08    0.09
  11  10   2    1.31    0.18
  11 -10   2    0.99    0.17
  11  10   3    0.29    0.11
  11 -10   3    0.30    0.12
  11  10   4    0.09    0.09
  11 -10   4   -0.01    0.10
 -11  10  -5    0.31    0.12
  11  10   5    0.34    0.12
  11 -10   5    0.25    0.11
  11  10   6    0.22    0.12
 -11  10  -6    0.18    0.11
  11  11  -8   -0.01    0.09
  11  11  -8    0.04    0.10
 -11 -11   8   -0.11    0.08
  11  11  -7    0.01    0.09
  11  11  -7    0.08    0.10
 -11  11   7    0.06    0.09
  11 -11  -7   -0.01    0.10
 -11 -11   7    0.06    0.10
  11  11  -6    0.29    0.12
  11  11  -6    0.19    0.11
 -11  11   6    0.22    0.11
  11 -11  -6    0.43    0.13
 -11 -11   6    0.29    0.13
 -11  11   5   -0.01    0.08
  11  11  -5    0.05    0.09
  11  11  -5    0.07    0.09
  11 -11  -5    0.04    0.09
 -11 -11   5   -0.09    0.08
  11  11  -4    0.55    0.14
  11  11  -4    0.42    0.13
  11 -11  -4    0.45    0.14
 -11 -11   4    0.67    0.15
  11  11  -3    0.24    0.09
  11  11  -3    0.38    0.12
  11  11  -3    0.20    0.09
  11 -11  -3    0.14    0.10
 -11 -11   3    0.35    0.12
  11  11  -2    0.21    0.11
  11  11  -2    0.16    0.09
  11  11  -2    0.31    0.11
 -11 -11   2    0.28    0.11
  11 -11  -2    0.18    0.09
  11  11  -1    0.43    0.11
  11 -11  -1    0.19    0.10
  11  11   0    0.03    0.07
  11 -11   0    0.03    0.08
  11  11   1    1.52    0.19
  11 -11   1    1.19    0.19
  11  11   2    0.04    0.08
  11 -11   2    0.20    0.10
  11  11   3    1.14    0.18
  11 -11   3    0.92    0.17
  11  11   4    0.04    0.09
  11 -11   4    0.26    0.12
  11  11   5    0.25    0.12
 -11  11  -5    0.25    0.12
  11 -11   5    0.04    0.10
 -11  12   8    0.03    0.11
  11  12  -8    0.19    0.13
  11  12  -8    0.38    0.14
 -11 -12   8    0.27    0.14
 -11  12   7    0.12    0.11
  11  12  -7    0.14    0.11
  11  12  -7    0.19    0.11
 -11 -12   7    0.17    0.12
  11  12  -6    0.26    0.12
  11  12  -6    0.30    0.12
 -11  12   6    0.41    0.13
 -11 -12   6    0.30    0.13
  11 -12  -6    0.43    0.14
  11  12  -5    0.06    0.09
  11  12  -5    0.13    0.10
  11 -12  -5    0.10    0.10
 -11 -12   5    0.21    0.11
  11  12  -4    0.13    0.09
  11  12  -4    0.11    0.10
  11 -12  -4    0.39    0.13
 -11 -12   4    0.13    0.10
  11  12  -3    0.11    0.09
  11  12  -3    0.10    0.09
 -11 -12   3    0.26    0.11
  11 -12  -3    0.25    0.11
  11  12  -2    0.54    0.13
  11  12  -2    0.84    0.15
  11  12  -2    0.58    0.14
  11 -12  -2    0.62    0.14
 -11 -12   2    0.64    0.14
  11  12  -1    0.18    0.09
  11 -12  -1    0.28    0.12
  11  12   0    0.15    0.09
  11 -12   0    0.18    0.11
  11  12   1    0.02    0.08
  11 -12   1    0.19    0.10
  11  12   2    0.05    0.08
  11 -12   2   -0.04    0.08
  11  12   3    0.17    0.10
  11 -12   3    0.12    0.10
  11  12   4    0.87    0.16
  11 -12   4    0.56    0.15
  11  12   5    0.16    0.11
 -11  12  -5    0.18    0.11
  11 -12   5    0.15    0.11
  11  13  -7    0.29    0.13
  11  13  -7    0.09    0.12
 -11 -13   7    0.36    0.15
  11  13  -6   -0.03    0.09
  11  13  -6    0.13    0.10
  11 -13  -6    0.19    0.12
 -11 -13   6    0.07    0.10
  11  13  -5    0.31    0.12
  11  13  -5    0.51    0.14
  11 -13  -5    0.06    0.10
 -11 -13   5    0.34    0.12
  11  13  -4    0.31    0.13
  11  13  -4    0.28    0.12
 -11 -13   4    0.33    0.13
  11 -13  -4    0.32    0.12
  11  13  -3    0.18    0.10
  11  13  -3    0.17    0.10
 -11 -13   3    0.21    0.11
  11 -13  -3    0.37    0.13
  11  13  -2    0.65    0.14
  11 -13  -2    0.84    0.17
  11  13  -1    0.27    0.11
  11 -13  -1    0.39    0.13
  11  13   0    0.19    0.10
  11 -13   0    0.33    0.12
  11  13   1    0.84    0.16
  11 -13   1    0.62    0.14
  11  13   2    0.20    0.10
  11 -13   2    0.33    0.13
  11  13   3   -0.03    0.08
  11 -13   3   -0.06    0.09
 -11  13  -4    0.04    0.09
  11  13   4    0.02    0.09
  11 -13   4    0.14    0.11
  11  14  -7   -0.04    0.09
  11  14  -6    0.30    0.14
  11  14  -6    0.67    0.16
  11 -14  -6    0.54    0.16
 -11 -14   6    0.47    0.15
  11  14  -5    0.05    0.10
  11  14  -5    0.03    0.09
 -11 -14   5    0.03    0.10
  11 -14  -5    0.23    0.12
  11  14  -4    0.27    0.12
  11  14  -4    0.23    0.12
  11 -14  -4    0.27    0.13
 -11 -14   4    0.09    0.10
  11  14  -3    0.29    0.13
  11  14  -3    0.44    0.13
  11 -14  -3    0.44    0.14
 -11 -14   3    0.14    0.11
  11 -14  -2   -0.04    0.08
  11 -14  -1    0.41    0.13
  11  14   0    0.61    0.14
  11 -14   0    0.61    0.15
  11  14   1    0.12    0.09
  11 -14   1    0.17    0.11
  11  14   2    0.18    0.10
  11 -14   2    0.18    0.11
  11  14   3    0.04    0.09
  11 -14   3    0.41    0.15
 -11  14  -4   -0.06    0.08
  11  14   4    0.00    0.09
  11 -14   4    0.06    0.10
  11  15  -6   -0.01    0.10
  11  15  -6   -0.14    0.09
 -11 -15   6    0.09    0.12
  11  15  -5    0.29    0.14
  11  15  -5    0.42    0.15
  11 -15  -5    0.39    0.15
 -11 -15   5    0.43    0.15
  11  15  -4    0.50    0.14
  11  15  -4    0.41    0.15
 -11 -15   4    0.84    0.18
  11 -15  -4    0.55    0.15
  11  15  -3    0.42    0.14
  11 -15  -3    0.57    0.16
  11 -15  -2    0.37    0.14
  11 -15  -1   -0.01    0.09
  11 -15   0    0.13    0.11
  11  15   1   -0.03    0.08
  11 -15   1    0.01    0.10
  11  15   2    0.25    0.11
  11 -15   2    0.18    0.12
  11  15   3    0.21    0.11
 -11  15  -3    0.11    0.10
  11 -15   3   -0.02    0.09
  11  16  -5    0.13    0.12
  11 -16  -5    0.41    0.15
  11  16  -4    0.10    0.11
  11  16  -4    0.04    0.10
  11 -16  -4    0.25    0.13
 -11 -16   4    0.19    0.13
  11 -16  -3    0.05    0.11
  11 -16  -2    0.03    0.11
  11 -16  -1    0.17    0.12
  11 -16   0    0.20    0.12
  11 -16   1    0.01    0.10
 -11  16  -2    0.03    0.10
  11 -17  -3    0.01    0.10
  11 -17  -2    0.18    0.12
  11 -17  -1    0.27    0.14
  12   0 -10    0.02    0.10
 -12   0   9    0.06    0.10
  12   0  -9    0.04    0.10
  12   0  -8   -0.08    0.07
  12   0  -7   -0.04    0.07
  12   0  -6    0.71    0.15
 -12   0   5    0.17    0.08
  12   0  -5    0.02    0.07
 -12   0   4    0.21    0.09
  12   0  -4    0.28    0.11
 -12   0   3   -0.01    0.05
  12   0  -3    0.01    0.07
 -12   0   2    0.28    0.08
  12   0  -2    0.14    0.09
  12   0  -2    0.29    0.11
 -12   0   1    0.09    0.06
  12   0  -1   -0.01    0.08
  12   0  -1    0.04    0.08
  12   0   0    0.28    0.10
  12   0   0    0.19    0.11
  12   0   1    0.03    0.09
  12   0   1    0.12    0.08
  12   0   2    0.36    0.11
  12   0   3    0.03    0.07
  12   0   4   -0.04    0.07
  12   0   5    0.26    0.11
  12   0   6    0.51    0.13
  12   0   7    0.18    0.11
  12   1 -10    0.15    0.11
  12  -1 -10    0.10    0.12
 -12   1   9    0.07    0.09
  12   1  -9    0.03    0.09
 -12  -1   9    0.03    0.11
  12  -1  -9    0.01    0.09
  12   1  -8   -0.08    0.08
  12  -1  -8   -0.05    0.08
  12   1  -7    0.28    0.12
  12  -1  -7    0.37    0.13
  12   1  -6    0.08    0.09
  12  -1  -6    0.06    0.09
 -12   1   5    0.77    0.14
  12   1  -5    0.67    0.15
  12  -1  -5    0.66    0.15
 -12  -1   5    0.47    0.12
  12   1  -4    0.23    0.10
 -12   1   4    0.42    0.11
 -12  -1   4    0.29    0.09
  12  -1  -4    0.39    0.12
 -12   1   3    0.12    0.07
  12   1  -3    0.17    0.09
  12  -1  -3    0.23    0.10
 -12  -1   3    0.04    0.06
  12   1  -2    1.14    0.17
  12   1  -2    0.98    0.17
 -12   1   2    1.37    0.16
  12  -1  -2    1.44    0.19
  12  -1  -2    1.04    0.16
 -12  -1   2    1.21    0.15
  12   1  -1    1.03    0.16
  12   1  -1    0.83    0.15
  12  -1  -1    0.83    0.16
  12  -1  -1    0.89    0.15
 -12  -1   1    1.17    0.14
  12   1   0    7.66    0.37
  12   1   0    6.70    0.34
  12  -1   0    7.42    0.35
  12  -1   0    6.78    0.35
  12   1   1    0.05    0.08
  12   1   1   -0.02    0.08
  12  -1   1    0.09    0.09
  12  -1   1   -0.06    0.08
  12   1   2   -0.07    0.07
  12  -1   2    0.01    0.08
  12  -1   2    0.01    0.08
  12   1   3   -0.06    0.07
  12  -1   3    0.07    0.08
  12   1   4    0.00    0.08
  12  -1   4    0.05    0.08
  12   1   5    0.05    0.09
  12  -1   5    0.15    0.10
  12   1   6   -0.04    0.09
  12  -1   6   -0.04    0.09
  12   1   7   -0.04    0.09
  12   2 -10    0.01    0.09
  12   2 -10   -0.06    0.08
  12  -2 -10    0.05    0.11
  12   2  -9    0.16    0.12
  12   2  -9    0.33    0.12
  12  -2  -9    0.23    0.12
  12   2  -8   -0.01    0.09
 -12   2   8   -0.01    0.08
  12   2  -8    0.05    0.09
  12  -2  -8   -0.05    0.08
  12   2  -7    1.14    0.19
  12  -2  -7    1.01    0.17
  12   2  -6    0.17    0.10
  12  -2  -6    0.21    0.11
  12   2  -5    1.17    0.19
 -12   2   5    1.66    0.20
  12  -2  -5    1.11    0.18
  12   2  -4    1.27    0.19
 -12   2   4    1.41    0.18
 -12  -2   4    1.34    0.17
  12  -2  -4    1.47    0.20
  12   2  -3    0.10    0.09
 -12   2   3    0.25    0.09
  12   2  -3    0.29    0.11
 -12  -2   3    0.27    0.09
  12  -2  -3    0.27    0.11
  12   2  -2    0.06    0.08
 -12   2   2    0.08    0.06
  12   2  -2   -0.09    0.06
  12  -2  -2    0.07    0.09
 -12  -2   2    0.14    0.07
  12   2  -1    2.93    0.22
  12   2  -1    2.16    0.23
  12  -2  -1    2.68    0.22
 -12  -2   1    3.01    0.19
  12  -2  -1    3.13    0.28
  12   2   0    1.59    0.19
  12   2   0    1.47    0.19
  12  -2   0    1.61    0.20
  12  -2   0    1.63    0.19
  12   2   1    5.72    0.31
  12   2   1    5.52    0.30
  12  -2   1    5.23    0.31
  12  -2   1    5.84    0.31
  12   2   2   -0.01    0.07
  12  -2   2    0.38    0.11
  12  -2   2    0.14    0.09
  12   2   3    0.06    0.08
  12  -2   3    0.15    0.09
  12   2   4    0.17    0.09
  12  -2   4    0.12    0.09
  12   2   5    0.51    0.13
  12  -2   5    0.30    0.11
  12   2   6    0.09    0.10
  12   2   7    0.05    0.10
  12   3 -10    0.03    0.09
  12   3 -10   -0.01    0.10
  12  -3 -10    0.03    0.10
  12   3  -9    0.07    0.10
  12   3  -9    0.01    0.09
  12  -3  -9    0.21    0.12
  12   3  -8    0.03    0.08
 -12   3   8    0.02    0.08
  12   3  -8    0.05    0.09
  12  -3  -8    0.03    0.09
  12   3  -7    0.42    0.12
 -12   3   7    0.77    0.17
  12   3  -7    0.76    0.16
  12  -3  -7    0.81    0.17
  12   3  -6    0.04    0.09
  12   3  -6    0.01    0.07
  12  -3  -6    0.03    0.08
 -12   3   5    2.41    0.24
  12   3  -5    2.04    0.24
  12  -3  -5    2.42    0.25
  12   3  -4   -0.02    0.08
 -12   3   4    0.04    0.07
  12  -3  -4    0.11    0.09
 -12  -3   4    0.14    0.07
  12   3  -3    0.52    0.13
 -12   3   3    1.01    0.15
  12   3  -3    0.50    0.13
 -12  -3   3    0.79    0.13
  12  -3  -3    0.75    0.15
  12   3  -2    2.37    0.24
  12   3  -2    2.80    0.26
 -12   3   2    2.59    0.19
 -12  -3   2    2.58    0.19
  12  -3  -2    2.20    0.24
  12   3  -1    3.25    0.23
  12   3  -1    3.60    0.25
  12  -3  -1    3.00    0.23
  12  -3  -1    3.23    0.25
 -12  -3   1    3.45    0.21
  12   3   0    2.31    0.23
  12   3   0    1.82    0.21
  12  -3   0    2.51    0.24
  12  -3   0    2.50    0.24
 -12  -3   0    2.16    0.17
  12   3   1    0.06    0.08
  12  -3   1    0.10    0.09
  12   3   2    0.07    0.08
  12  -3   2    0.17    0.09
  12  -3   2   -0.07    0.08
  12   3   3    0.12    0.09
  12  -3   3    0.28    0.10
  12   3   4   -0.01    0.08
  12  -3   4    0.01    0.08
  12   3   5    0.91    0.16
  12   3   6   -0.03    0.09
  12   3   7   -0.02    0.10
  12   4 -10    0.04    0.09
  12   4 -10   -0.17    0.08
  12   4  -9   -0.11    0.08
  12   4  -9   -0.06    0.09
  12  -4  -9   -0.09    0.09
  12   4  -8   -0.02    0.08
  12   4  -8   -0.20    0.08
 -12   4   8   -0.04    0.08
  12  -4  -8    0.08    0.10
  12   4  -7    0.37    0.12
 -12   4   7    0.07    0.10
  12   4  -7    0.18    0.11
  12  -4  -7    0.02    0.09
  12   4  -6    0.29    0.12
  12   4  -6    0.33    0.11
  12  -4  -6    0.38    0.12
  12   4  -5    0.27    0.10
  12   4  -5    0.10    0.10
  12  -4  -5    0.19    0.11
  12   4  -4    0.04    0.08
 -12   4   4    0.01    0.06
 -12  -4   4   -0.01    0.06
  12  -4  -4   -0.02    0.07
 -12   4   3    0.08    0.07
  12   4  -3    0.06    0.08
  12   4  -3    0.04    0.08
  12  -4  -3    0.09    0.09
 -12  -4   3    0.06    0.06
  12   4  -2    0.49    0.13
  12   4  -2    0.71    0.14
  12  -4  -2    0.48    0.13
 -12  -4   2    0.50    0.10
  12   4  -1    0.25    0.10
  12   4  -1    0.30    0.12
 -12  -4   1    0.32    0.08
  12  -4  -1    0.41    0.12
  12   4   0    0.53    0.13
  12   4   0    0.63    0.13
  12  -4   0    0.60    0.13
  12  -4   0    0.36    0.11
 -12  -4   0    0.78    0.12
  12   4   1    0.39    0.12
  12  -4   1    0.27    0.11
  12  -4   1    0.50    0.13
  12   4   2    1.85    0.21
  12  -4   2    2.17    0.22
  12  -4   2    2.47    0.24
  12   4   3    0.68    0.14
  12  -4   3    0.61    0.13
  12  -4   3    0.70    0.14
  12   4   4    0.18    0.10
  12   4   5   -0.11    0.07
  12   4   6    0.27    0.12
  12   4   7    0.02    0.10
  12   5  -9    0.01    0.09
  12   5  -9    0.15    0.11
  12  -5  -9    0.10    0.11
 -12   5   8    0.67    0.17
  12   5  -8    0.52    0.14
  12   5  -8    0.46    0.14
  12  -5  -8    0.46    0.13
  12   5  -7    0.14    0.10
 -12   5   7    0.09    0.10
  12   5  -7    0.12    0.10
  12  -5  -7    0.39    0.13
  12   5  -6   -0.05    0.08
 -12   5   6   -0.02    0.09
  12   5  -6   -0.05    0.07
  12  -5  -6   -0.04    0.08
  12   5  -5   -0.08    0.07
  12   5  -5    0.18    0.09
  12  -5  -5   -0.01    0.07
  12   5  -4    0.22    0.10
  12   5  -4    0.17    0.09
  12  -5  -4    0.09    0.09
 -12   5   3    0.23    0.08
  12   5  -3    0.13    0.10
  12   5  -3    0.13    0.09
  12  -5  -3    0.20    0.11
 -12  -5   3    0.32    0.09
  12   5  -2   -0.04    0.07
  12   5  -2    0.09    0.08
  12  -5  -2   -0.05    0.07
 -12  -5   2    0.07    0.06
  12   5  -1   -0.01    0.09
  12   5  -1    0.12    0.09
  12  -5  -1    0.12    0.09
 -12  -5   1    0.00    0.06
  12   5   0    3.39    0.24
  12   5   0    3.63    0.25
  12  -5   0    3.11    0.23
  12  -5   0    3.10    0.25
 -12  -5   0    3.36    0.21
  12   5   1    0.14    0.09
  12  -5   1   -0.03    0.07
  12  -5   1    0.04    0.08
  12   5   2   -0.07    0.07
  12  -5   2   -0.04    0.07
  12  -5   2    0.11    0.09
  12   5   3   -0.13    0.06
  12  -5   3   -0.01    0.08
  12   5   4    0.09    0.09
  12   5   5    0.15    0.10
  12   5   6   -0.01    0.08
  12   6  -9    0.04    0.09
  12   6  -9   -0.05    0.09
  12  -6  -9    0.20    0.13
 -12   6   8   -0.02    0.09
  12   6  -8    0.20    0.11
  12   6  -8    0.32    0.12
  12  -6  -8    0.18    0.11
  12   6  -7    0.84    0.16
  12   6  -7    0.53    0.15
 -12   6   7    1.01    0.19
  12  -6  -7    0.72    0.15
  12   6  -6    1.18    0.19
 -12   6   6    1.23    0.20
  12   6  -6    1.34    0.20
  12  -6  -6    1.34    0.20
  12   6  -5    1.16    0.18
 -12   6   5    1.62    0.22
  12   6  -5    1.18    0.18
  12  -6  -5    0.94    0.17
  12   6  -4    0.92    0.16
  12   6  -4    1.20    0.18
  12  -6  -4    1.24    0.19
  12   6  -3    0.13    0.09
  12   6  -3    0.16    0.09
 -12  -6   3    0.20    0.08
  12  -6  -3    0.04    0.08
  12   6  -2    0.08    0.09
  12   6  -2    0.27    0.10
 -12  -6   2    0.20    0.08
  12  -6  -2    0.17    0.10
  12   6  -1    2.80    0.26
  12   6  -1    2.26    0.23
  12  -6  -1    2.40    0.25
 -12  -6   1    2.09    0.20
  12   6   0    0.30    0.11
 -12  -6   0    0.27    0.09
  12  -6   0    0.25    0.11
  12   6   1    2.19    0.23
  12  -6   1    2.39    0.24
  12  -6   1    1.81    0.20
  12   6   2    0.19    0.09
  12  -6   2    0.37    0.12
  12   6   3   -0.02    0.08
  12  -6   3    0.04    0.08
  12   6   4   -0.11    0.07
  12   6   5    0.35    0.12
  12   6   6    0.24    0.12
  12   7  -9   -0.07    0.08
  12   7  -9    0.06    0.10
 -12  -7   9    0.02    0.11
  12  -7  -9    0.02    0.10
 -12   7   8    0.12    0.10
  12   7  -8    0.07    0.10
  12   7  -8    0.21    0.12
  12  -7  -8    0.34    0.13
  12   7  -7    0.05    0.10
  12   7  -7    0.04    0.09
 -12   7   7    0.17    0.11
  12  -7  -7    0.11    0.10
  12   7  -6    0.02    0.08
 -12   7   6    0.01    0.08
  12   7  -6   -0.04    0.08
  12  -7  -6    0.04    0.09
  12   7  -5    0.64    0.15
  12   7  -5    0.94    0.16
 -12   7   5    0.84    0.17
  12  -7  -5    1.50    0.21
  12   7  -4    0.11    0.08
 -12   7   4   -0.04    0.07
  12   7  -4    0.19    0.10
  12  -7  -4    0.06    0.09
  12   7  -3    0.07    0.08
  12   7  -3    0.08    0.08
  12   7  -3    0.12    0.10
  12  -7  -3    0.02    0.07
  12   7  -2    0.10    0.09
  12   7  -2    0.21    0.10
  12  -7  -2    0.03    0.08
  12   7  -1    0.15    0.09
  12   7  -1    0.16    0.09
 -12  -7   1    0.18    0.07
  12  -7  -1    0.05    0.07
  12   7   0    0.34    0.11
 -12  -7   0    0.16    0.08
  12  -7   0    0.29    0.11
  12   7   1    0.01    0.08
 -12  -7  -1   -0.02    0.06
  12  -7   1   -0.05    0.07
  12   7   2    0.14    0.09
  12  -7   2    0.00    0.07
  12   7   3   -0.05    0.07
  12  -7   3    0.06    0.08
  12   7   4    0.14    0.09
  12   7   5    0.21    0.11
  12   7   6    0.03    0.10
  12   8  -9   -0.06    0.09
  12   8  -9    0.04    0.10
 -12  -8   9   -0.10    0.10
  12   8  -8    0.08    0.10
  12   8  -8    0.02    0.09
  12  -8  -8   -0.01    0.09
 -12  -8   8    0.00    0.10
  12   8  -7    0.00    0.09
  12   8  -7    0.12    0.11
 -12   8   7   -0.02    0.09
  12  -8  -7    0.05    0.10
  12   8  -6    0.28    0.12
 -12   8   6    0.33    0.12
  12   8  -6    0.16    0.11
  12  -8  -6    0.42    0.13
  12   8  -5   -0.10    0.07
  12   8  -5   -0.01    0.08
 -12   8   5   -0.03    0.07
  12  -8  -5    0.02    0.08
  12   8  -4   -0.05    0.06
  12   8  -4    0.14    0.09
 -12   8   4    0.20    0.09
  12  -8  -4    0.14    0.10
  12   8  -3   -0.08    0.07
  12   8  -3    0.02    0.07
  12   8  -3   -0.09    0.06
  12  -8  -3   -0.04    0.07
  12   8  -2    0.08    0.08
  12   8  -2    0.18    0.10
  12  -8  -2    0.05    0.09
  12   8  -1    0.63    0.13
  12   8  -1    0.75    0.15
  12  -8  -1    0.58    0.14
  12   8   0    0.02    0.08
  12  -8   0    0.13    0.09
  12   8   1    0.35    0.11
  12  -8   1    0.42    0.12
  12   8   2    0.02    0.08
  12  -8   2    0.07    0.09
  12   8   3    0.03    0.08
  12  -8   3    0.07    0.09
  12   8   4    0.01    0.08
  12  -8   4    0.11    0.10
  12   8   5    0.01    0.09
 -12   8  -6    0.05    0.09
  12   8   6    0.10    0.11
  12   9  -8    0.11    0.11
  12   9  -8    0.19    0.11
 -12  -9   8    0.11    0.12
  12  -9  -8    0.16    0.12
  12   9  -7   -0.09    0.08
  12   9  -7    0.04    0.09
 -12   9   7   -0.04    0.08
  12  -9  -7   -0.08    0.09
 -12  -9   7   -0.08    0.08
 -12   9   6    0.10    0.09
  12   9  -6    0.09    0.09
  12   9  -6    0.12    0.10
  12  -9  -6    0.00    0.08
  12   9  -5    0.06    0.09
 -12   9   5    0.00    0.07
  12   9  -5   -0.02    0.08
  12  -9  -5   -0.03    0.07
  12   9  -4    0.44    0.13
 -12   9   4    0.31    0.11
  12   9  -4    0.68    0.14
  12   9  -4    0.37    0.12
  12  -9  -4    0.34    0.11
  12   9  -3    0.18    0.09
  12   9  -3    0.15    0.09
  12   9  -3    0.11    0.09
  12  -9  -3    0.34    0.12
  12   9  -2    0.10    0.09
  12   9  -2   -0.02    0.07
  12   9  -2    0.07    0.09
  12  -9  -2   -0.01    0.08
  12   9  -1    0.02    0.08
  12  -9  -1    0.15    0.10
  12   9   0    3.78    0.27
  12  -9   0    3.51    0.27
  12   9   1    0.04    0.08
  12  -9   1   -0.02    0.08
  12   9   2    0.23    0.10
  12  -9   2    0.06    0.09
  12   9   3    0.09    0.09
  12  -9   3    0.01    0.09
  12   9   4    0.01    0.09
  12  -9   4    0.06    0.10
  12   9   5    0.42    0.13
  12  10  -8    0.00    0.10
  12  10  -8    0.10    0.10
 -12 -10   8    0.10    0.11
  12  10  -7    0.08    0.09
 -12  10   7   -0.04    0.09
  12  10  -7    0.03    0.10
 -12 -10   7    0.06    0.10
  12 -10  -7    0.04    0.09
  12  10  -6    0.38    0.13
 -12  10   6    0.34    0.13
  12  10  -6    0.31    0.12
  12 -10  -6    0.41    0.14
 -12 -10   6    0.66    0.17
  12  10  -5    0.04    0.09
 -12  10   5    0.17    0.11
  12  10  -5    0.03    0.08
  12 -10  -5    0.25    0.12
 -12 -10   5    0.09    0.10
  12  10  -4   -0.03    0.07
  12  10  -4   -0.06    0.07
  12  10  -4    0.04    0.09
  12 -10  -4   -0.10    0.06
  12  10  -3    0.15    0.09
  12  10  -3    0.01    0.08
  12  10  -3   -0.06    0.08
  12 -10  -3    0.00    0.08
  12  10  -2    0.54    0.13
  12  10  -2    0.57    0.13
  12  10  -2    0.66    0.14
  12 -10  -2    0.72    0.15
  12  10  -1    0.19    0.09
  12 -10  -1    0.21    0.11
  12  10   0    0.00    0.07
  12 -10   0   -0.02    0.08
  12  10   1    0.95    0.17
  12 -10   1    0.80    0.16
  12  10   2    0.15    0.10
  12 -10   2    0.18    0.10
  12  10   3    0.26    0.11
  12 -10   3    0.08    0.10
  12  10   4    0.34    0.13
  12 -10   4    0.68    0.17
  12  10   5    0.47    0.14
  12  11  -7    0.19    0.12
  12  11  -7    0.27    0.13
  12 -11  -7    0.33    0.14
 -12 -11   7    0.16    0.12
  12  11  -6    0.11    0.11
 -12  11   6    0.03    0.09
  12  11  -6   -0.11    0.09
 -12 -11   6   -0.05    0.10
  12 -11  -6   -0.02    0.10
  12  11  -5    0.08    0.09
  12  11  -5   -0.02    0.08
  12 -11  -5    0.12    0.10
 -12 -11   5    0.18    0.11
  12  11  -4   -0.08    0.07
  12  11  -4    0.04    0.08
 -12 -11   4   -0.04    0.09
  12 -11  -4    0.04    0.09
  12  11  -3    0.23    0.11
  12  11  -3    0.02    0.08
  12  11  -3    0.06    0.09
 -12 -11   3    0.13    0.10
  12 -11  -3   -0.13    0.08
  12  11  -2    0.87    0.15
  12  11  -2    0.90    0.16
  12 -11  -2    0.95    0.18
  12  11  -1    0.35    0.12
  12 -11  -1    0.29    0.12
  12  11   0    0.02    0.09
  12 -11   0    0.02    0.09
  12  11   1    0.87    0.16
  12 -11   1    0.74    0.16
  12  11   2    0.10    0.09
  12 -11   2    0.08    0.11
  12  11   3    0.13    0.10
  12 -11   3    0.13    0.11
  12  11   4    0.07    0.11
  12 -11   4    0.02    0.10
  12  12  -7   -0.05    0.10
  12  12  -7    0.00    0.09
  12 -12  -7    0.07    0.11
 -12 -12   7   -0.16    0.10
  12  12  -6    0.01    0.09
  12  12  -6    0.18    0.13
  12 -12  -6    0.04    0.12
 -12 -12   6    0.18    0.12
  12  12  -5    0.21    0.11
  12  12  -5    0.30    0.13
 -12 -12   5    0.14    0.11
  12 -12  -5    0.55    0.15
  12  12  -4    0.16    0.10
  12  12  -4    0.12    0.10
  12 -12  -4    0.13    0.10
 -12 -12   4    0.14    0.11
  12  12  -3    0.01    0.09
  12  12  -3   -0.04    0.10
 -12 -12   3   -0.10    0.09
  12 -12  -3   -0.03    0.09
  12  12  -2    0.04    0.08
  12  12  -2    0.18    0.10
  12 -12  -2    0.00    0.10
  12  12  -1    1.66    0.20
  12 -12  -1    1.58    0.23
  12  12   0    0.04    0.09
  12 -12   0    0.08    0.10
  12  12   1    0.65    0.15
  12 -12   1    0.72    0.16
  12  12   2    0.10    0.09
  12 -12   2    0.08    0.10
  12  12   3    0.13    0.10
  12 -12   3    0.19    0.12
  12  12   4   -0.02    0.08
  12 -12   4   -0.04    0.09
  12  13  -6    0.57    0.16
  12  13  -6    0.66    0.17
  12 -13  -6    0.36    0.15
 -12 -13   6    0.34    0.14
  12  13  -5    0.58    0.17
  12  13  -5    0.24    0.12
 -12 -13   5    0.50    0.15
  12 -13  -5    0.30    0.13
  12  13  -4    1.34    0.20
  12  13  -4    1.26    0.20
 -12 -13   4    1.47    0.21
  12 -13  -4    1.84    0.25
  12  13  -3    0.27    0.14
  12  13  -3    0.35    0.13
  12 -13  -3    0.02    0.10
 -12 -13   3    0.29    0.13
  12 -13  -2    0.29    0.12
  12  13  -1    0.38    0.12
  12 -13  -1    0.35    0.13
  12  13   0    0.74    0.15
  12 -13   0    0.57    0.15
  12  13   1    0.26    0.11
  12 -13   1   -0.06    0.09
  12  13   2    0.18    0.10
  12 -13   2    0.18    0.11
  12  13   3    0.15    0.10
  12 -13   3    0.16    0.11
  12  14  -5    1.28    0.21
 -12 -14   5    1.12    0.20
  12 -14  -5    1.23    0.21
  12  14  -4    0.42    0.14
  12  14  -4    0.39    0.13
  12 -14  -4    0.39    0.15
 -12 -14   4    0.67    0.16
  12  14  -3    0.11    0.10
  12 -14  -3    0.10    0.11
  12 -14  -2    0.43    0.14
  12 -14  -1    0.59    0.16
  12  14   0    0.12    0.10
  12 -14   0    0.22    0.12
  12  14   1    0.21    0.11
  12 -14   1    0.20    0.11
  12  14   2    0.10    0.09
  12 -14   2    0.03    0.09
  12  15  -4   -0.07    0.09
  12  15  -4    0.10    0.11
  12 -15  -4   -0.01    0.10
 -12 -15   4   -0.05    0.11
  12 -15  -3    0.12    0.11
  12 -15  -2    0.55    0.16
  12 -15  -1    0.04    0.10
  12 -15   0    0.58    0.16
  12  15   1    0.27    0.11
  13   0  -9   -0.07    0.09
  13   0  -8    0.99    0.18
  13   0  -7    0.10    0.10
  13   0  -6    0.07    0.10
  13   0  -5   -0.05    0.08
  13   0  -4    0.47    0.13
 -13   0   3   -0.04    0.05
  13   0  -3    0.00    0.08
  13   0  -2    0.45    0.13
  13   0  -2    0.62    0.14
 -13   0   2    0.59    0.12
  13   0  -1    0.03    0.09
  13   0  -1   -0.06    0.08
  13   0   0    0.23    0.11
  13   0   0    0.06    0.08
  13   0   1    0.04    0.08
  13   0   1    0.08    0.09
  13   0   2    1.25    0.18
  13   0   3    0.01    0.09
  13   0   4    1.35    0.19
  13   0   5   -0.03    0.10
  13   0   6    0.22    0.12
  13   1  -9    0.37    0.14
  13  -1  -9    0.44    0.15
  13   1  -8    0.03    0.10
  13  -1  -8    0.17    0.12
  13   1  -7   -0.12    0.08
  13  -1  -7   -0.02    0.08
  13   1  -6    0.07    0.09
  13  -1  -6    0.06    0.09
  13   1  -5    0.65    0.15
  13  -1  -5    1.08    0.18
  13   1  -4    0.14    0.09
  13  -1  -4    0.04    0.09
 -13   1   3    0.06    0.06
  13   1  -3    0.13    0.10
 -13  -1   3    0.07    0.07
  13  -1  -3    0.11    0.10
  13   1  -2    0.82    0.16
  13   1  -2    1.02    0.17
 -13  -1   2    1.34    0.16
  13  -1  -2    0.94    0.17
  13   1  -1    1.31    0.19
  13   1  -1    1.57    0.20
  13  -1  -1    1.74    0.22
  13  -1  -1    1.67    0.21
  13   1   0    0.14    0.10
  13   1   0    0.07    0.08
  13  -1   0    0.01    0.08
  13  -1   0    0.02    0.08
  13   1   1    0.87    0.16
  13  -1   1    1.04    0.16
  13  -1   1    0.96    0.17
  13   1   2    1.00    0.16
  13  -1   2    0.82    0.15
  13   1   3    0.05    0.09
  13  -1   3   -0.08    0.08
  13   1   4    0.61    0.14
  13  -1   4    0.44    0.13
  13   1   5   -0.10    0.08
  13  -1   5   -0.04    0.09
  13   1   6    0.01    0.10
  13  -1   6    0.00    0.10
  13   2  -9   -0.03    0.10
  13  -2  -9   -0.04    0.09
  13   2  -8    0.16    0.12
  13  -2  -8    0.07    0.11
  13   2  -7    0.61    0.15
  13  -2  -7    0.73    0.16
  13   2  -6    0.20    0.11
  13  -2  -6    0.20    0.12
  13   2  -5   -0.09    0.08
  13  -2  -5    0.12    0.10
  13   2  -4    0.04    0.08
  13  -2  -4   -0.01    0.08
  13   2  -3    0.32    0.12
 -13   2   3    0.42    0.11
  13  -2  -3    0.29    0.11
 -13  -2   3    0.38    0.10
  13   2  -2    0.01    0.09
  13   2  -2    0.03    0.08
  13  -2  -2    0.02    0.08
 -13  -2   2    0.01    0.06
  13   2  -1    1.44    0.20
  13   2  -1    1.74    0.21
  13  -2  -1    1.42    0.19
  13  -2  -1    1.29    0.19
  13   2   0    1.00    0.17
  13   2   0    0.59    0.14
  13  -2   0    1.03    0.17
  13  -2   0    0.82    0.15
  13   2   1    0.04    0.08
  13  -2   1   -0.01    0.09
  13  -2   1    0.09    0.08
  13   2   2    0.32    0.12
  13  -2   2    0.36    0.12
  13   2   3    0.42    0.12
  13  -2   3    0.31    0.11
  13   2   4    0.16    0.11
  13  -2   4    0.00    0.09
  13   2   5    0.57    0.14
  13  -2   5    0.64    0.15
  13   2   6    0.04    0.10
  13   3  -9    0.11    0.11
  13  -3  -9    0.05    0.11
  13   3  -8    0.03    0.10
  13  -3  -8   -0.02    0.09
  13   3  -7    0.79    0.17
  13  -3  -7    1.06    0.19
  13   3  -6    0.12    0.11
  13  -3  -6   -0.11    0.06
  13   3  -5    0.31    0.13
  13  -3  -5    0.49    0.14
  13   3  -4    0.06    0.09
  13  -3  -4    0.13    0.10
  13   3  -3    0.29    0.11
 -13   3   3    0.08    0.08
  13   3  -3    0.18    0.10
  13  -3  -3    0.16    0.09
  13   3  -2    1.08    0.18
  13   3  -2    0.59    0.14
  13  -3  -2    0.57    0.14
 -13  -3   2    0.92    0.14
  13   3  -1    0.34    0.12
  13   3  -1    0.37    0.12
  13  -3  -1    0.28    0.11
 -13  -3   1    0.32    0.09
  13  -3  -1    0.17    0.11
  13   3   0    0.10    0.09
  13   3   0    0.06    0.09
  13  -3   0   -0.05    0.08
  13  -3   0    0.05    0.08
  13   3   1    0.15    0.10
  13  -3   1    0.06    0.09
  13  -3   1    0.11    0.09
  13   3   2    0.04    0.08
  13  -3   2    0.07    0.09
  13  -3   2    0.09    0.08
  13   3   3    1.01    0.17
  13  -3   3    1.04    0.17
  13   3   4    0.17    0.10
  13  -3   4    0.01    0.09
  13   3   5    0.03    0.09
  13   3   6    0.03    0.10
  13   4  -9   -0.04    0.10
  13   4  -9    0.06    0.09
  13  -4  -9    0.00    0.09
  13   4  -8    0.56    0.15
  13   4  -8    0.33    0.13
  13  -4  -8    0.54    0.15
  13   4  -7    0.22    0.11
  13   4  -7    0.08    0.11
 -13   4   7    0.15    0.11
  13  -4  -7   -0.06    0.08
  13   4  -6    0.05    0.09
  13  -4  -6    0.07    0.10
  13   4  -5    0.01    0.10
  13  -4  -5   -0.05    0.07
  13   4  -4    1.03    0.17
  13  -4  -4    0.73    0.16
  13   4  -3    0.00    0.08
  13   4  -3    0.01    0.08
  13  -4  -3    0.04    0.09
  13   4  -2    0.69    0.14
  13   4  -2    0.57    0.15
  13  -4  -2    0.25    0.12
 -13  -4   2    0.43    0.10
  13   4  -1    0.28    0.11
  13   4  -1    0.39    0.12
  13  -4  -1    0.51    0.13
 -13  -4   1    0.34    0.09
  13   4   0    1.02    0.17
  13  -4   0    0.45    0.12
  13  -4   0    0.48    0.13
  13   4   1    0.03    0.08
  13  -4   1    0.02    0.08
  13  -4   1    0.06    0.08
  13   4   2   -0.01    0.08
  13  -4   2   -0.07    0.07
  13  -4   2    0.06    0.08
  13   4   3    0.17    0.10
  13  -4   3    0.18    0.10
  13   4   4    0.48    0.14
  13   4   5    0.07    0.10
  13   5  -9    0.08    0.10
  13   5  -9   -0.11    0.09
  13  -5  -9    0.03    0.10
  13   5  -8   -0.06    0.09
  13   5  -8    0.09    0.11
  13  -5  -8    0.03    0.10
  13   5  -7    0.15    0.10
 -13   5   7    0.39    0.14
  13   5  -7    0.36    0.13
  13  -5  -7    0.09    0.10
 -13   5   6    0.87    0.18
  13   5  -6    0.66    0.15
  13   5  -6    1.10    0.19
  13  -5  -6    1.36    0.22
  13   5  -5    0.09    0.10
  13  -5  -5   -0.03    0.08
  13   5  -4    0.02    0.08
  13  -5  -4   -0.05    0.08
  13   5  -3    0.03    0.09
  13   5  -3    0.06    0.09
  13  -5  -3   -0.01    0.08
  13   5  -2    2.01    0.23
  13   5  -2    1.67    0.21
  13  -5  -2    2.00    0.24
  13   5  -1    0.10    0.09
  13   5  -1    0.09    0.09
  13  -5  -1    0.06    0.09
 -13  -5   1    0.17    0.08
  13   5   0    0.08    0.09
  13  -5   0    0.14    0.10
  13   5   1    0.17    0.09
  13  -5   1    0.03    0.08
  13  -5   1    0.08    0.09
  13   5   2    0.08    0.08
  13  -5   2   -0.02    0.08
  13  -5   2   -0.06    0.08
  13   5   3    0.05    0.09
  13   5   4    0.10    0.10
  13   5   5    0.04    0.10
  13   6  -8    0.27    0.13
  13   6  -8    0.10    0.10
  13  -6  -8    0.14    0.12
 -13   6   7    0.35    0.13
  13   6  -7    0.32    0.12
  13   6  -7    0.36    0.13
  13  -6  -7    0.51    0.15
  13   6  -6    0.18    0.10
  13   6  -6    0.25    0.12
 -13   6   6    0.38    0.13
  13  -6  -6    0.36    0.13
  13   6  -5    0.73    0.15
 -13   6   5    0.99    0.18
  13   6  -5    0.62    0.15
  13  -6  -5    0.95    0.18
  13   6  -4   -0.07    0.07
  13  -6  -4    0.01    0.09
  13   6  -3    0.42    0.13
  13   6  -3    0.32    0.12
  13  -6  -3    0.17    0.10
  13   6  -2    0.54    0.14
  13   6  -2    0.80    0.15
  13  -6  -2    0.63    0.15
  13   6  -1    1.84    0.23
  13   6  -1    1.22    0.18
  13  -6  -1    1.58    0.21
  13   6   0    0.97    0.17
  13  -6   0    0.86    0.16
  13   6   1    0.33    0.12
  13  -6   1    0.26    0.11
  13  -6   1    0.42    0.13
  13   6   2   -0.04    0.07
  13  -6   2   -0.10    0.08
  13   6   3   -0.14    0.07
  13  -6   3    0.00    0.09
  13   6   4    0.07    0.10
  13   6   5    0.23    0.12
  13   7  -8    0.06    0.10
  13   7  -8    0.16    0.11
  13  -7  -8    0.17    0.12
 -13   7   7    0.06    0.10
  13   7  -7   -0.11    0.07
  13   7  -7   -0.06    0.09
  13  -7  -7   -0.08    0.08
 -13   7   6   -0.03    0.08
  13   7  -6    0.18    0.10
  13   7  -6    0.12    0.10
  13  -7  -6    0.22    0.12
 -13   7   5    0.29    0.12
  13   7  -5    0.24    0.12
  13   7  -5    0.27    0.12
  13  -7  -5    0.43    0.14
  13   7  -4   -0.05    0.07
 -13   7   4    0.07    0.09
  13   7  -4    0.03    0.09
  13  -7  -4    0.09    0.10
  13   7  -3    0.12    0.09
  13   7  -3    0.11    0.09
  13  -7  -3   -0.07    0.09
  13   7  -2    0.13    0.10
  13   7  -2    0.10    0.10
  13  -7  -2    0.25    0.11
  13   7  -1    1.74    0.22
  13  -7  -1    2.11    0.25
  13   7   0    0.25    0.11
  13  -7   0    0.21    0.11
  13   7   1    0.09    0.09
  13  -7   1    0.17    0.10
  13   7   2   -0.09    0.07
  13  -7   2   -0.04    0.09
  13   7   3    0.39    0.12
  13  -7   3    0.31    0.13
  13   7   4   -0.09    0.08
  13   7   5    0.07    0.11
  13   8  -8    0.10    0.12
  13   8  -8    0.30    0.12
  13  -8  -8    0.47    0.15
 -13  -8   8    0.29    0.15
  13   8  -7    0.20    0.12
  13   8  -7    0.20    0.11
  13  -8  -7    0.33    0.14
  13   8  -6    0.01    0.08
  13   8  -6   -0.02    0.09
 -13   8   6    0.15    0.11
  13  -8  -6    0.02    0.09
 -13   8   5    0.14    0.10
  13   8  -5    0.05    0.09
  13   8  -5   -0.03    0.08
  13  -8  -5   -0.05    0.09
 -13   8   4    0.54    0.14
  13   8  -4    0.21    0.10
  13   8  -4    0.60    0.15
  13  -8  -4   -0.02    0.10
  13   8  -3    0.47    0.13
  13   8  -3    0.63    0.14
  13  -8  -3    0.63    0.15
  13   8  -2    0.06    0.09
  13   8  -2    0.21    0.10
  13  -8  -2    0.11    0.10
  13   8  -1   -0.02    0.08
  13  -8  -1    0.09    0.09
  13   8   0   -0.02    0.09
  13  -8   0    0.09    0.10
  13   8   1   -0.05    0.08
  13  -8   1   -0.11    0.08
  13   8   2    0.70    0.15
  13  -8   2    0.64    0.16
  13   8   3    0.05    0.09
  13  -8   3    0.06    0.10
  13   8   4    0.21    0.11
  13   9  -7    0.17    0.12
  13   9  -7    0.23    0.12
 -13  -9   7    0.43    0.15
  13  -9  -7    0.25    0.14
  13   9  -6    0.03    0.10
 -13   9   6    0.00    0.10
  13   9  -6    0.02    0.10
  13  -9  -6   -0.02    0.10
  13   9  -5    0.01    0.09
  13   9  -5   -0.03    0.08
 -13   9   5    0.04    0.09
  13  -9  -5   -0.07    0.09
  13   9  -4   -0.05    0.07
  13   9  -4    0.01    0.09
  13  -9  -4    0.19    0.11
  13   9  -3    0.15    0.10
  13   9  -3    0.06    0.10
  13   9  -3    0.05    0.09
  13  -9  -3    0.10    0.11
  13   9  -2    0.63    0.14
  13   9  -2    0.82    0.16
  13  -9  -2    0.83    0.17
  13   9  -1   -0.01    0.09
  13  -9  -1    0.14    0.10
  13   9   0    0.32    0.11
  13  -9   0    0.24    0.12
  13   9   1    0.31    0.12
  13  -9   1    0.04    0.09
  13   9   2    0.09    0.09
  13  -9   2    0.05    0.10
  13   9   3    0.70    0.16
  13  -9   3    0.25    0.12
  13   9   4    0.35    0.13
  13  10  -7   -0.01    0.10
  13  10  -7    0.01    0.09
  13 -10  -7   -0.08    0.10
 -13 -10   7    0.02    0.11
  13  10  -6    0.01    0.10
 -13  10   6   -0.11    0.08
  13  10  -6    0.06    0.11
 -13 -10   6    0.02    0.11
  13 -10  -6    0.19    0.12
  13  10  -5    0.43    0.14
  13  10  -5    0.52    0.15
  13 -10  -5    0.53    0.16
  13  10  -4    0.00    0.09
  13  10  -4    0.07    0.09
  13 -10  -4    0.06    0.10
  13  10  -3    0.10    0.10
  13  10  -3    0.07    0.10
  13  10  -3    0.02    0.09
  13 -10  -3    0.03    0.09
  13  10  -2    0.04    0.08
  13 -10  -2    0.10    0.10
  13  10  -1    0.07    0.09
  13 -10  -1    0.16    0.11
  13  10   0    0.20    0.11
  13 -10   0    0.31    0.13
  13  10   1    0.18    0.11
  13 -10   1    0.30    0.13
  13  10   2    0.34    0.13
  13 -10   2    0.17    0.12
  13  10   3    0.02    0.10
  13 -10   3    0.23    0.11
  13  10   4    0.22    0.12
  13 -10   4    0.19    0.12
  13  11  -6   -0.10    0.08
  13  11  -6    0.09    0.11
  13 -11  -6    0.06    0.11
 -13 -11   6   -0.01    0.10
  13  11  -5    0.06    0.10
  13  11  -5   -0.05    0.09
 -13 -11   5   -0.05    0.09
  13 -11  -5    0.00    0.10
  13  11  -4    0.29    0.13
  13  11  -4    0.33    0.12
  13 -11  -4    0.41    0.14
 -13 -11   4    0.13    0.11
  13  11  -3    0.31    0.12
  13  11  -3    0.18    0.11
  13  11  -3    0.22    0.11
  13 -11  -3    0.16    0.11
 -13 -11   3    0.11    0.11
  13  11  -2    0.23    0.11
  13 -11  -2    0.34    0.12
  13  11  -1    0.75    0.16
  13 -11  -1    0.78    0.17
  13  11   0    0.04    0.09
  13 -11   0    0.13    0.11
  13  11   1    0.02    0.09
  13 -11   1    0.25    0.12
  13  11   2   -0.02    0.09
  13 -11   2   -0.05    0.08
  13  11   3    0.04    0.09
  13 -11   3    0.13    0.11
  13  12  -6    0.22    0.13
  13  12  -6    0.15    0.12
 -13 -12   6    0.25    0.14
  13 -12  -6    0.19    0.13
  13  12  -5    0.05    0.11
  13  12  -5    0.18    0.11
 -13 -12   5    0.06    0.11
  13 -12  -5   -0.14    0.09
  13  12  -4    0.51    0.15
  13  12  -4    0.19    0.11
 -13 -12   4    0.57    0.15
  13 -12  -4    0.29    0.13
  13  12  -3    0.10    0.10
 -13 -12   3    0.24    0.12
  13 -12  -3    0.11    0.11
  13  12  -2   -0.01    0.10
  13 -12  -2    0.14    0.12
  13  12  -1    0.01    0.09
  13 -12  -1    0.11    0.11
  13  12   0    0.01    0.09
  13 -12   0    0.07    0.10
  13  12   1    0.27    0.12
  13 -12   1    0.71    0.17
  13  12   2    0.18    0.12
  13 -12   2    0.20    0.12
  13  13  -5    0.51    0.16
  13  13  -5    0.48    0.15
  13 -13  -5    0.64    0.17
  13  13  -4    0.06    0.10
  13  13  -4    0.14    0.11
  13 -13  -4   -0.03    0.10
 -13 -13   4    0.40    0.13
  13  13  -3    0.40    0.13
  13 -13  -3    0.42    0.15
  13 -13  -2    0.11    0.12
  13  13  -1    0.29    0.12
  13 -13  -1    0.02    0.10
  13  13   0    0.01    0.09
  13 -13   0    0.18    0.12
  13  13   1   -0.01    0.09
  13 -13   1    0.09    0.10
  13 -14  -3    0.54    0.17
  13 -14  -2    0.15    0.13
  13 -14  -1    0.25    0.13
  14   0  -8    0.09    0.11
  14   0  -7    0.00    0.09
  14   0  -6    0.03    0.10
  14   0  -5   -0.04    0.08
  14   0  -4    1.09    0.19
  14   0  -3    0.04    0.09
  14   0  -2    0.18    0.11
  14   0  -2    0.25    0.11
  14   0  -1    0.10    0.10
  14   0  -1   -0.05    0.08
  14   0   0    0.27    0.12
  14   0   0    0.34    0.12
  14   0   1    0.04    0.08
  14   0   2    0.28    0.12
  14   0   3   -0.07    0.09
  14   0   4    0.08    0.10
  14   0   5   -0.05    0.10
  14   1  -8    0.10    0.11
  14  -1  -8   -0.01    0.10
  14   1  -7    0.33    0.14
  14  -1  -7    0.29    0.13
  14   1  -6    0.06    0.10
  14  -1  -6   -0.01    0.09
  14   1  -5   -0.12    0.08
  14  -1  -5   -0.01    0.08
  14   1  -4   -0.09    0.08
  14  -1  -4   -0.07    0.08
  14   1  -3    0.08    0.10
  14  -1  -3    0.27    0.12
  14   1  -2    0.65    0.16
  14   1  -2    0.45    0.13
  14  -1  -2    0.67    0.16
  14   1  -1    0.23    0.11
  14   1  -1    0.00    0.09
  14  -1  -1    0.00    0.09
  14  -1  -1    0.14    0.11
  14   1   0    0.29    0.12
  14   1   0    0.20    0.11
  14  -1   0    0.14    0.10
  14  -1   0    0.11    0.09
  14   1   1    0.06    0.09
  14  -1   1    0.24    0.11
  14  -1   1    0.16    0.11
  14   1   2    2.68    0.27
  14  -1   2    2.71    0.27
  14   1   3    0.03    0.10
  14  -1   3    0.19    0.11
  14   1   4   -0.12    0.09
  14  -1   4   -0.01    0.10
  14   1   5    0.01    0.11
  14  -1   5   -0.15    0.09
  14   2  -8    0.03    0.10
  14  -2  -8   -0.06    0.09
  14   2  -7    0.26    0.13
  14  -2  -7    0.50    0.14
  14   2  -6    0.00    0.09
  14  -2  -6    0.01    0.10
  14   2  -5    0.06    0.09
  14  -2  -5   -0.03    0.09
  14   2  -4    0.21    0.11
  14  -2  -4    0.17    0.11
  14   2  -3    0.06    0.09
  14  -2  -3    0.02    0.09
  14   2  -2    0.02    0.08
  14   2  -2    0.01    0.09
  14  -2  -2    0.11    0.11
  14   2  -1    0.48    0.13
  14   2  -1    0.62    0.14
  14  -2  -1    0.26    0.12
  14  -2  -1    0.35    0.12
  14   2   0    0.00    0.08
  14   2   0    0.00    0.09
  14  -2   0    0.09    0.10
  14  -2   0    0.06    0.09
  14   2   1    0.78    0.16
  14  -2   1    0.64    0.15
  14  -2   1    0.69    0.16
  14   2   2    0.68    0.16
  14  -2   2    0.50    0.14
  14   2   3    1.55    0.22
  14  -2   3    1.86    0.23
  14   2   4    0.00    0.11
  14  -2   4    0.33    0.13
  14   3  -8    0.02    0.10
  14  -3  -8    0.16    0.12
  14   3  -7    0.24    0.13
  14  -3  -7    0.00    0.10
  14   3  -6    0.13    0.10
  14  -3  -6    0.04    0.09
  14   3  -5    0.22    0.12
  14  -3  -5    0.17    0.11
  14   3  -4    0.53    0.15
  14  -3  -4    0.31    0.13
  14   3  -3    1.16    0.19
  14  -3  -3    1.21    0.20
  14   3  -2    0.66    0.16
  14   3  -2    0.45    0.14
  14  -3  -2    0.39    0.13
  14   3  -1   -0.06    0.09
  14   3  -1    0.07    0.09
  14  -3  -1    0.03    0.09
  14   3   0    0.13    0.09
  14  -3   0    0.10    0.10
  14  -3   0    0.09    0.10
  14   3   1    0.66    0.15
  14  -3   1    0.46    0.13
  14  -3   1    0.27    0.13
  14   3   2   -0.02    0.09
  14  -3   2    0.14    0.11
  14   3   3    0.16    0.11
  14   3   4    0.07    0.10
  14   4  -8    0.18    0.12
  14  -4  -8    0.04    0.11
  14   4  -7    0.06    0.10
  14  -4  -7    0.04    0.10
  14   4  -6   -0.01    0.10
  14  -4  -6    0.07    0.10
  14   4  -5    0.08    0.11
  14  -4  -5   -0.04    0.09
  14   4  -4    0.24    0.11
  14  -4  -4    0.17    0.11
  14   4  -3   -0.06    0.08
  14   4  -3    0.00    0.08
  14  -4  -3   -0.09    0.08
  14   4  -2    0.79    0.16
  14   4  -2    0.37    0.12
  14  -4  -2    0.39    0.14
  14   4  -1   -0.01    0.09
  14   4  -1   -0.05    0.08
  14  -4  -1    0.10    0.10
  14   4   0    0.07    0.09
  14  -4   0   -0.07    0.09
  14  -4   0   -0.02    0.08
  14   4   1    0.49    0.13
  14  -4   1    0.39    0.13
  14   4   2    0.43    0.13
  14  -4   2    0.32    0.12
  14  -4   2    0.33    0.13
  14  -4   3   -0.07    0.10
  14   4   4    0.34    0.13
  14  -5  -8   -0.03    0.10
  14   5  -7   -0.03    0.09
  14  -5  -7    0.02    0.10
  14   5  -6    0.00    0.09
 -14   5   6   -0.12    0.07
  14  -5  -6    0.02    0.10
  14   5  -5    0.25    0.12
  14  -5  -5    0.24    0.13
  14   5  -4    0.07    0.09
  14  -5  -4   -0.07    0.09
  14   5  -3    0.04    0.10
  14   5  -3    0.12    0.09
  14  -5  -3    0.14    0.11
  14   5  -2    0.59    0.15
  14   5  -2    0.67    0.15
  14  -5  -2    0.49    0.15
  14   5  -1    0.20    0.11
  14   5  -1    0.19    0.12
  14  -5  -1    0.07    0.10
  14   5   0   -0.05    0.07
  14  -5   0    0.06    0.10
  14   5   1    0.22    0.11
  14  -5   1    0.01    0.08
  14  -5   1   -0.03    0.10
  14   5   2    0.30    0.13
  14  -5   2    0.43    0.14
  14  -5   2    0.39    0.14
  14   5   3    0.22    0.11
  14   5   4    0.03    0.10
  14   6  -7   -0.02    0.09
  14   6  -7    0.03    0.10
  14  -6  -7    0.07    0.10
  14   6  -6    0.01    0.10
 -14   6   6    0.13    0.10
  14  -6  -6    0.13    0.11
 -14   6   5    0.95    0.19
  14   6  -5    0.86    0.17
  14  -6  -5    0.92    0.18
  14   6  -4    0.40    0.14
  14  -6  -4    0.68    0.17
  14   6  -3    1.36    0.21
  14   6  -3    0.94    0.17
  14  -6  -3    1.07    0.20
  14   6  -2    0.94    0.18
  14   6  -2    0.50    0.14
  14  -6  -2    0.60    0.16
  14   6  -1    0.55    0.16
  14  -6  -1    0.37    0.13
  14   6   0    0.03    0.09
  14  -6   0   -0.08    0.07
  14   6   1    0.44    0.13
  14  -6   1    0.06    0.09
  14   6   2    0.09    0.10
  14  -6   2    0.03    0.10
  14   6   3    0.46    0.15
  14   6   4    0.13    0.11
  14   7  -7    0.11    0.11
  14   7  -7   -0.05    0.10
  14  -7  -7    0.24    0.13
  14   7  -6    0.08    0.10
 -14   7   6    0.09    0.10
  14   7  -6    0.12    0.10
  14  -7  -6    0.21    0.13
  14   7  -5   -0.06    0.08
 -14   7   5    0.11    0.10
  14  -7  -5   -0.02    0.09
  14   7  -4    0.01    0.09
  14  -7  -4    0.14    0.11
  14   7  -3    1.91    0.24
  14   7  -3    1.39    0.21
  14  -7  -3    1.55    0.23
  14   7  -2    0.19    0.11
  14   7  -2    0.28    0.13
  14  -7  -2    0.30    0.12
  14   7  -1    0.06    0.10
  14  -7  -1    0.14    0.11
  14   7   0    0.17    0.11
  14  -7   0    0.12    0.10
  14   7   1   -0.04    0.09
  14  -7   1    0.08    0.12
  14   7   2    0.05    0.10
  14  -7   2    0.17    0.12
  14   7   3   -0.04    0.10
  14   8  -7    0.10    0.11
  14  -8  -7    0.01    0.11
  14   8  -6   -0.01    0.10
  14   8  -6    0.00    0.09
  14  -8  -6    0.12    0.12
 -14   8   5   -0.04    0.09
  14   8  -5    0.06    0.10
  14   8  -5   -0.03    0.10
  14  -8  -5    0.14    0.11
  14   8  -4    0.29    0.14
  14  -8  -4    0.10    0.10
  14   8  -3    0.05    0.09
  14   8  -3   -0.04    0.09
  14  -8  -3    0.04    0.10
  14   8  -2    0.03    0.09
  14  -8  -2   -0.10    0.08
  14   8  -1    0.01    0.09
  14  -8  -1   -0.02    0.09
  14   8   0    0.13    0.11
  14  -8   0    0.24    0.13
  14   8   1    0.14    0.11
  14  -8   1    0.14    0.11
  14   8   2    0.29    0.13
  14  -8   2    0.29    0.13
  14   8   3    0.24    0.13
  14  -8   3    0.18    0.12
  14   9  -6    0.40    0.13
  14   9  -6    0.08    0.12
  14  -9  -6    0.48    0.16
  14   9  -5    0.08    0.11
  14   9  -5    0.18    0.11
  14  -9  -5   -0.08    0.10
  14   9  -4   -0.05    0.09
  14  -9  -4    0.14    0.12
  14   9  -3    0.14    0.11
  14   9  -3    0.10    0.10
  14  -9  -3    0.24    0.12
  14   9  -2    0.52    0.15
  14  -9  -2    0.54    0.16
  14   9  -1    0.13    0.10
  14  -9  -1    0.02    0.10
  14   9   0    0.17    0.11
  14  -9   0    0.10    0.10
  14  -9   1    0.28    0.13
  14   9   2    0.80    0.17
  14  -9   2    0.66    0.16
  14  10  -5    0.02    0.09
  14  10  -5   -0.04    0.09
  14 -10  -5   -0.02    0.10
  14  10  -4    0.76    0.17
  14  10  -4    0.90    0.18
  14 -10  -4    0.79    0.19
  14  10  -3    0.15    0.11
  14  10  -3    0.00    0.09
  14 -10  -3   -0.05    0.09
  14  10  -2   -0.03    0.09
  14 -10  -2    0.01    0.10
  14  10  -1    0.28    0.12
  14 -10  -1    0.54    0.15
  14  10   0   -0.01    0.09
  14 -10   0   -0.01    0.09
  14  10   1    0.09    0.10
  14 -10   1    0.11    0.10
  14  10   2   -0.02    0.10
  14 -10   2    0.16    0.12
  14  11  -4   -0.07    0.09
  14  11  -4   -0.05    0.10
 -14 -11   4    0.08    0.12
  14 -11  -4    0.01    0.10
  14  11  -3    0.46    0.14
  14 -11  -3    0.46    0.16
  14  11  -2   -0.06    0.08
  14 -11  -2    0.06    0.11
  14  11  -1    0.11    0.10
  14 -11  -1    0.07    0.11
  14  11   0    0.50    0.14
  14 -11   0    0.73    0.17
  14  11   1    0.02    0.10
  14 -11   1   -0.07    0.09
  14  12  -3    0.13    0.11
  14  12  -2    0.07    0.10
  14  12  -1    0.22    0.11
  15   0  -7    0.22    0.13
  15   0  -6    0.97    0.20
  15   0  -5   -0.03    0.10
  15   0  -4    0.02    0.10
  15   0  -3    0.04    0.10
  15   0  -2   -0.01    0.09
  15   0  -1   -0.06    0.09
  15   0  -1    0.03    0.10
  15   0   0   -0.17    0.09
  15   0   0    0.02    0.10
  15   0   1    0.04    0.10
  15   0   2    0.36    0.14
  15   0   3   -0.03    0.09
  15   1  -7    0.11    0.12
  15  -1  -7    0.20    0.12
  15   1  -6    0.07    0.10
  15  -1  -6    0.02    0.10
  15   1  -5   -0.06    0.08
  15  -1  -5    0.05    0.10
  15   1  -4    0.07    0.10
  15  -1  -4   -0.04    0.09
  15   1  -3    0.21    0.12
  15  -1  -3    0.16    0.11
  15   1  -2   -0.05    0.09
  15   1  -2   -0.07    0.09
  15  -1  -2    0.04    0.10
  15   1  -1   -0.03    0.09
  15  -1  -1   -0.04    0.10
  15  -1  -1    0.09    0.10
  15   1   0    0.30    0.13
  15  -1   0    0.37    0.14
  15  -1   0    0.48    0.14
  15   1   1    0.27    0.13
  15  -1   1    0.57    0.15
  15   1   2   -0.01    0.10
  15  -1   2    0.07    0.11
  15   1   3    0.24    0.13
  15  -1   3    0.10    0.11
  15   2  -7    0.08    0.11
  15  -2  -7    0.06    0.11
  15   2  -6    0.05    0.10
  15  -2  -6    0.05    0.10
  15  -2  -5    0.10    0.11
  15   2  -4    0.06    0.10
  15  -2  -4    0.06    0.10
  15   2  -3    0.24    0.12
  15  -2  -3    0.05    0.10
  15   2  -2    0.20    0.12
  15   2  -2    0.13    0.10
  15  -2  -2    0.08    0.10
  15   2  -1    0.27    0.12
  15   2  -1    0.12    0.11
  15  -2  -1    0.19    0.12
  15   2   0    0.05    0.09
  15  -2   0   -0.08    0.10
  15  -2   0   -0.03    0.10
  15   2   1    0.34    0.13
  15  -2   1    0.42    0.13
  15   2   2   -0.08    0.10
  15  -2   2   -0.01    0.10
  15   2   3    0.43    0.15
  15  -2   3    0.40    0.14
  15   3  -6   -0.01    0.10
  15  -3  -6    0.04    0.10
  15   3  -5    0.41    0.15
  15  -3  -5    0.61    0.17
  15   3  -4    0.20    0.12
  15  -3  -4    0.19    0.13
  15   3  -3    0.05    0.10
  15  -3  -3    0.17    0.12
  15   3  -2   -0.04    0.08
  15   3  -2   -0.08    0.08
  15  -3  -2   -0.07    0.08
  15   3  -1    0.03    0.10
  15   3  -1    0.13    0.11
  15  -3  -1   -0.04    0.09
  15   3   0    0.01    0.10
  15  -3   0    0.11    0.11
  15  -3   0   -0.02    0.10
  15   3   1    0.54    0.15
  15  -3   1    0.44    0.15
  15  -3   1    0.45    0.14
  15   3   2   -0.03    0.10
  15  -3   2    0.04    0.10
  15   3   3    0.02    0.10
  15  -3   3   -0.10    0.09
  15   4  -6    0.32    0.13
  15  -4  -6    0.18    0.12
  15   4  -5   -0.07    0.09
  15  -4  -5    0.11    0.11
  15   4  -4   -0.06    0.10
  15  -4  -4    0.07    0.11
  15   4  -3    0.08    0.11
  15  -4  -3   -0.05    0.10
  15   4  -2    0.12    0.11
  15   4  -2   -0.02    0.10
  15  -4  -2    0.04    0.10
  15   4  -1    0.14    0.10
  15  -4  -1    0.05    0.10
  15   4   0   -0.08    0.08
  15  -4   0   -0.02    0.10
  15   4   1    0.09    0.11
  15  -4   1    0.07    0.11
  15  -4   1    0.26    0.12
  15   4   2    0.29    0.13
  15  -4   2    0.42    0.14
  15   4   3    0.15    0.11
  15   5  -6    0.00    0.10
  15  -5  -6    0.03    0.11
  15   5  -5   -0.08    0.10
  15  -5  -5    0.05    0.11
  15   5  -4    0.64    0.17
  15  -5  -4    0.98    0.20
  15   5  -3    0.44    0.15
  15   5  -3    0.36    0.13
  15  -5  -3    0.22    0.12
  15   5  -2   -0.02    0.09
  15   5  -2   -0.03    0.09
  15  -5  -2   -0.02    0.09
  15   5  -1    0.05    0.10
  15  -5  -1    0.12    0.12
  15   5   0    0.31    0.13
  15  -5   0    0.16    0.12
  15   5   1   -0.12    0.09
  15  -5   1    0.23    0.13
  15  -5   1    0.09    0.10
  15   5   2    0.00    0.11
  15   6  -6    0.06    0.11
  15  -6  -6    0.04    0.11
  15   6  -5    0.37    0.14
  15  -6  -5    0.74    0.18
  15   6  -4    0.27    0.13
  15  -6  -4    0.23    0.13
  15   6  -3    1.52    0.23
  15   6  -3    1.55    0.23
  15  -6  -3    0.95    0.19
  15   6  -2    0.17    0.11
  15   6  -2   -0.01    0.11
  15  -6  -2    0.07    0.11
  15   6  -1    0.20    0.12
  15  -6  -1    0.12    0.11
  15   6   0    0.22    0.11
  15  -6   0    0.47    0.14
  15   6   1    0.51    0.15
  15  -6   1    0.11    0.11
  15   6   2    0.17    0.12
  15  -6   2    0.15    0.12
  15   7  -5    0.17    0.13
  15  -7  -5    0.18    0.13
  15   7  -4    0.04    0.11
  15  -7  -4    0.08    0.10
  15   7  -3    0.04    0.10
  15   7  -3    0.00    0.10
  15  -7  -3    0.18    0.12
  15   7  -2    0.16    0.11
  15  -7  -2    0.24    0.13
  15   7  -1    0.06    0.11
  15  -7  -1    0.08    0.10
  15   7   0    0.09    0.11
  15  -7   0    0.17    0.12
  15   7   1    0.66    0.17
  15  -7   1    0.27    0.14
  15   8  -5    0.32    0.13
  15   8  -4    0.08    0.11
  15  -8  -4   -0.11    0.09
  15   8  -3    0.00    0.10
  15   8  -3    0.12    0.11
  15  -8  -3   -0.01    0.10
  15   8  -2    0.09    0.10
  15  -8  -2   -0.01    0.09
  15   8  -1    0.13    0.12
  15  -8  -1    0.39    0.14
  15   8   0    0.14    0.12
  15  -8   0    0.19    0.12
  15   8   1    0.02    0.11
  15  -8   1    0.05    0.10
  15   9  -4    0.10    0.11
  15   9  -3    0.03    0.10
  15   9  -3    0.15    0.11
  15  -9  -3    0.14    0.12
  15   9  -2    0.20    0.11
  15  -9  -2    0.32    0.14
  15   9  -1    0.12    0.11
  15  -9  -1    0.03    0.11
  15   9   0    0.27    0.13
  15  -9   0    0.06    0.10
  16   0  -5    0.22    0.13
  16   0  -4    0.18    0.13
  16   0  -3    0.03    0.10
  16   0  -2    0.21    0.13
  16   0  -1    0.08    0.12
  16   0  -1   -0.08    0.11
  16   0   0    0.48    0.15
  16   0   1   -0.14    0.09
  16   1  -5    0.29    0.14
  16  -1  -5    0.15    0.12
  16   1  -4    0.21    0.12
  16  -1  -4   -0.09    0.10
  16   1  -3    0.05    0.11
  16  -1  -3    0.04    0.10
  16   1  -2    0.03    0.11
  16  -1  -2   -0.08    0.09
  16   1  -1    0.10    0.11
  16   1  -1    0.15    0.11
  16  -1  -1    0.27    0.15
  16   1   0    0.39    0.15
  16  -1   0    0.40    0.15
  16  -1   0    0.50    0.16
  16   1   1    0.00    0.11
  16  -1   1    0.08    0.12
  16   2  -5    0.04    0.11
  16  -2  -5    0.24    0.13
  16   2  -4    0.10    0.11
  16  -2  -4   -0.03    0.10
  16   2  -3    0.01    0.11
  16  -2  -3   -0.04    0.09
  16   2  -2    0.31    0.14
  16  -2  -2    0.08    0.11
  16   2  -1    0.08    0.12
  16   2  -1    0.05    0.11
  16   2   0    0.05    0.12
  16  -2   0    0.33    0.15
  16  -2   0    0.16    0.12
  16   2   1    0.60    0.16
  16  -2   1    0.66    0.17
  16   3  -5    0.19    0.13
  16   3  -4   -0.04    0.10
  16  -3  -4   -0.12    0.09
  16   3  -3    0.19    0.12
  16  -3  -3    0.15    0.12
  16   3  -2    0.27    0.13
  16   3  -2    0.00    0.09
  16  -3  -2    0.31    0.14
  16   3  -1    0.67    0.17
  16  -3  -1    0.41    0.14
  16   3   0    0.01    0.10
  16  -3   0   -0.11    0.09
  16   4  -4    0.20    0.14
  16  -4  -4    0.11    0.12
  16   4  -3    0.10    0.12
  16  -4  -3    0.04    0.11
  16   4  -2   -0.01    0.11
  16   4  -2    0.06    0.10
  16  -4  -2    0.25    0.13
  16   4  -1    0.03    0.11
  16  -4  -1   -0.18    0.10
  16   4   0    0.07    0.10
  16  -4   0    0.20    0.13
  16   5  -4    0.20    0.12
  16   5  -3    0.02    0.11
  16  -5  -3    0.28    0.14
  16   5  -2   -0.08    0.10
  16  -5  -2   -0.03    0.11
  16   5  -1    0.43    0.16
  16  -5  -1    0.28    0.14
  16   6  -2    0.22    0.13
  16  -6  -2    0.32    0.14
   0   0   0    0.00    0.00
;
_shelx_hkl_checksum              47552
_shelx_res_file
;
    shelx.res created by SHELXL-2014/7
TITL Chem_Mahesh_J79_0ma in P2(1)/c
CELL  0.71073  11.6767  16.2058   9.1417   90.000   99.486   90.000
ZERR     4.00   0.0003   0.0003   0.0002    0.000    0.002    0.000
LATT   1
SYMM  - X, 1/2 + Y, 1/2 - Z
SFAC  C    H    N    O    S
UNIT  72   84   4    8    8
MERG   2
FMAP   2
PLAN   20
ACTA
BOND   $H
CONF
L.S.  10
TEMP    23.00
WGHT    0.064900    0.122500
FVAR       0.10918
S1    5    0.727574    0.850425    0.047498    11.00000    0.04886    0.03829 =
         0.07932   -0.00107    0.00644    0.00565
S2    5    0.974695    0.868542    0.206734    11.00000    0.05169    0.05745 =
         0.07521   -0.00970    0.00929   -0.01091
O3    4    0.523222    1.124012    0.202522    11.00000    0.04663    0.04464 =
         0.06957    0.00140    0.02251    0.00506
O4    4    0.432382    1.020156    0.286896    11.00000    0.08317    0.06292 =
         0.12469    0.00654    0.06490   -0.00011
N5    3    0.850292    0.730328    0.180903    11.00000    0.04826    0.04240 =
         0.05786   -0.00105   -0.00002    0.00042
C6    1    0.527869    1.293067    0.185184    11.00000    0.05903    0.04558 =
         0.08288   -0.00835    0.01252    0.01097
AFIX  33
H6A   2    0.475747    1.258099    0.227814    11.00000   -1.50000
H6B   2    0.568883    1.328248    0.260663    11.00000   -1.50000
H6C   2    0.484416    1.326264    0.108453    11.00000   -1.50000
AFIX   0
C7    1    0.713334    1.366906    0.038596    11.00000    0.07352    0.04213 =
         0.08565    0.00340    0.00859   -0.00615
AFIX  33
H7A   2    0.777025    1.378615   -0.012483    11.00000   -1.50000
H7B   2    0.643324    1.390066   -0.015672    11.00000   -1.50000
H7C   2    0.728454    1.390686    0.136054    11.00000   -1.50000
AFIX   0
C8    1    0.699518    1.274829    0.050979    11.00000    0.04838    0.03984 =
         0.05927    0.00081    0.00014   -0.00090
C9    1    0.775541    1.222981   -0.007703    11.00000    0.05063    0.04800 =
         0.07190    0.00640    0.01741   -0.00608
AFIX  43
H9    2    0.831763    1.246221   -0.056160    11.00000   -1.20000
AFIX   0
C10   1    0.770182    1.139090    0.003629    11.00000    0.04309    0.04711 =
         0.06226    0.00256    0.01630    0.00292
AFIX  43
H10   2    0.822276    1.106188   -0.036785    11.00000   -1.20000
AFIX   0
C11   1    0.685951    1.102396    0.076366    11.00000    0.03811    0.03850 =
         0.04868    0.00206    0.00617    0.00295
C12   1    0.609907    1.155099    0.131323    11.00000    0.03668    0.04049 =
         0.04831    0.00168    0.00637    0.00115
C13   1    0.613165    1.240835    0.120495    11.00000    0.04137    0.04104 =
         0.05241   -0.00316    0.00152    0.00328
C14   1    0.675169    1.014471    0.097997    11.00000    0.04280    0.03655 =
         0.05193    0.00213    0.00729    0.00403
C15   1    0.592263    0.987171    0.171559    11.00000    0.05213    0.04014 =
         0.06379    0.00542    0.01811    0.00137
AFIX  43
H15   2    0.587049    0.930803    0.188375    11.00000   -1.20000
AFIX   0
C16   1    0.511357    1.041263    0.225338    11.00000    0.05193    0.04713 =
         0.06879    0.00313    0.02119   -0.00086
C17   1    0.756341    0.958563    0.032710    11.00000    0.05749    0.03830 =
         0.07862    0.00310    0.02604    0.00686
AFIX  23
H17A  2    0.835051    0.969466    0.081712    11.00000   -1.20000
H17B  2    0.752200    0.972282   -0.071312    11.00000   -1.20000
AFIX   0
C18   1    0.857656    0.810380    0.153137    11.00000    0.04587    0.04503 =
         0.04285   -0.00697    0.01256    0.00241
C19   1    0.950232    0.682302    0.254385    11.00000    0.05997    0.05453 =
         0.06325    0.00705   -0.00252    0.00818
AFIX  23
H19A  2    0.931540    0.656801    0.343512    11.00000   -1.20000
H19B  2    1.016277    0.718542    0.282730    11.00000   -1.20000
AFIX   0
C20   1    0.980429    0.616552    0.150132    11.00000    0.05771    0.06020 =
         0.08559    0.00684    0.01693    0.00861
AFIX  23
H20A  2    1.005659    0.642511    0.065274    11.00000   -1.20000
H20B  2    1.044145    0.583407    0.200462    11.00000   -1.20000
AFIX   0
C21   1    0.877803    0.561697    0.097686    11.00000    0.07152    0.04732 =
         0.10602   -0.01169    0.03066    0.00154
AFIX  23
H21A  2    0.858689    0.530353    0.180790    11.00000   -1.20000
H21B  2    0.897578    0.522967    0.024880    11.00000   -1.20000
AFIX   0
C22   1    0.773864    0.612177    0.029570    11.00000    0.06466    0.05330 =
         0.06723   -0.00616    0.01822   -0.01362
AFIX  23
H22A  2    0.789279    0.637645   -0.061224    11.00000   -1.20000
H22B  2    0.706978    0.576316    0.004680    11.00000   -1.20000
AFIX   0
C23   1    0.747416    0.678197    0.135375    11.00000    0.04979    0.04086 =
         0.06952    0.00291    0.01035   -0.00250
AFIX  23
H23A  2    0.683414    0.711967    0.087650    11.00000   -1.20000
H23B  2    0.724452    0.652731    0.222104    11.00000   -1.20000
AFIX   0
HKLF 4
REM  Chem_Mahesh_J79_0ma in P2(1)/c
REM R1 =  0.0487 for    3111 Fo > 4sig(Fo)  and  0.0862 for all    5070 data
REM    208 parameters refined using      0 restraints
END
WGHT      0.0649      0.1219
REM Highest difference peak  0.291,  deepest hole -0.175,  1-sigma level  0.044
Q1    1   0.9164  0.8947  0.2225  11.00000  0.05    0.29
Q2    1   0.7236  0.8560  0.1451  11.00000  0.05    0.29
Q3    1   0.7126  0.9906  0.0601  11.00000  0.05    0.27
Q4    1   0.7264  0.9084  0.0537  11.00000  0.05    0.25
Q5    1   0.4451  1.2735  0.1478  11.00000  0.05    0.24
Q6    1   0.7236  1.1208  0.0303  11.00000  0.05    0.23
Q7    1   0.6402  1.1282  0.0821  11.00000  0.05    0.22
Q8    1   0.6621  1.1304  0.1146  11.00000  0.05    0.22
Q9    1   0.5642  1.0231  0.2050  11.00000  0.05    0.22
Q10   1   0.9135  0.8302  0.1708  11.00000  0.05    0.21
Q11   1   0.5806  1.1394  0.1501  11.00000  0.05    0.20
Q12   1   0.7187  1.2438 -0.0005  11.00000  0.05    0.20
Q13   1   0.6529  1.3867  0.0413  11.00000  0.05    0.20
Q14   1   0.7041  1.3170  0.0506  11.00000  0.05    0.20
Q15   1   0.5969  1.1943  0.1085  11.00000  0.05    0.19
Q16   1   0.9734  0.9153  0.1610  11.00000  0.05    0.19
Q17   1   0.6339  1.1970  0.1615  11.00000  0.05    0.19
Q18   1   0.8071  0.8240  0.0636  11.00000  0.05    0.19
Q19   1   0.5619  1.2645  0.1431  11.00000  0.05    0.19
Q20   1   0.5390  1.3536  0.1476  11.00000  0.05    0.18
;
_shelx_res_checksum              15087
loop_
_space_group_symop_operation_xyz
'x, y, z'
'-x, y+1/2, -z+1/2'
'-x, -y, -z'
'x, -y-1/2, z-1/2'
loop_
_atom_site_type_symbol
_atom_site_label
_atom_site_fract_x
_atom_site_fract_y
_atom_site_fract_z
_atom_site_U_iso_or_equiv
_atom_site_adp_type
_atom_site_calc_flag
_atom_site_occupancy
S S1 0.72757(4) 0.85043(3) 0.04750(6) 0.05596(17) Uani d 1
S S2 0.97470(5) 0.86854(3) 0.20673(7) 0.06158(18) Uani d 1
O O3 0.52322(11) 1.12401(7) 0.20252(15) 0.0522(3) Uani d 1
O O4 0.43238(14) 1.02016(9) 0.2869(2) 0.0849(5) Uani d 1
N N5 0.85029(13) 0.73033(9) 0.18090(18) 0.0505(4) Uani d 1
C C6 0.52787(18) 1.29307(12) 0.1852(3) 0.0624(5) Uani d 1
H H6A 0.4757 1.2581 0.2278 0.094 Uiso calc 1
H H6B 0.5689 1.3282 0.2607 0.094 Uiso calc 1
H H6C 0.4844 1.3263 0.1085 0.094 Uiso calc 1
C C7 0.7133(2) 1.36691(12) 0.0386(3) 0.0676(6) Uani d 1
H H7A 0.7770 1.3786 -0.0125 0.101 Uiso calc 1
H H7B 0.6433 1.3901 -0.0157 0.101 Uiso calc 1
H H7C 0.7285 1.3907 0.1361 0.101 Uiso calc 1
C C8 0.69952(16) 1.27483(11) 0.0510(2) 0.0502(4) Uani d 1
C C9 0.77554(17) 1.22298(12) -0.0077(2) 0.0560(5) Uani d 1
H H9 0.8318 1.2462 -0.0562 0.067 Uiso calc 1
C C10 0.77018(16) 1.13909(11) 0.0036(2) 0.0500(4) Uani d 1
H H10 0.8223 1.1062 -0.0368 0.060 Uiso calc 1
C C11 0.68595(14) 1.10240(10) 0.07637(19) 0.0419(4) Uani d 1
C C12 0.60991(14) 1.15510(10) 0.13132(19) 0.0419(4) Uani d 1
C C13 0.61317(15) 1.24084(11) 0.1205(2) 0.0456(4) Uani d 1
C C14 0.67517(14) 1.01447(10) 0.0980(2) 0.0438(4) Uani d 1
C C15 0.59226(16) 0.98717(11) 0.1716(2) 0.0511(4) Uani d 1
H H15 0.5870 0.9308 0.1884 0.061 Uiso calc 1
C C16 0.51136(17) 1.04126(12) 0.2253(2) 0.0547(5) Uani d 1
C C17 0.75634(18) 0.95856(11) 0.0327(2) 0.0565(5) Uani d 1
H H17A 0.8351 0.9695 0.0817 0.068 Uiso calc 1
H H17B 0.7522 0.9723 -0.0713 0.068 Uiso calc 1
C C18 0.85766(15) 0.81038(11) 0.15314(18) 0.0440(4) Uani d 1
C C19 0.95023(19) 0.68230(13) 0.2544(2) 0.0607(5) Uani d 1
H H19A 0.9315 0.6568 0.3435 0.073 Uiso calc 1
H H19B 1.0163 0.7185 0.2827 0.073 Uiso calc 1
C C20 0.98043(19) 0.61655(13) 0.1501(3) 0.0673(6) Uani d 1
H H20A 1.0057 0.6425 0.0653 0.081 Uiso calc 1
H H20B 1.0441 0.5834 0.2005 0.081 Uiso calc 1
C C21 0.8778(2) 0.56170(13) 0.0977(3) 0.0731(7) Uani d 1
H H21A 0.8587 0.5304 0.1808 0.088 Uiso calc 1
H H21B 0.8976 0.5230 0.0249 0.088 Uiso calc 1
C C22 0.77386(19) 0.61218(12) 0.0296(2) 0.0609(5) Uani d 1
H H22A 0.7893 0.6376 -0.0612 0.073 Uiso calc 1
H H22B 0.7070 0.5763 0.0047 0.073 Uiso calc 1
C C23 0.74742(16) 0.67820(11) 0.1354(2) 0.0533(5) Uani d 1
H H23A 0.6834 0.7120 0.0876 0.064 Uiso calc 1
H H23B 0.7245 0.6527 0.2221 0.064 Uiso calc 1
loop_
_atom_site_aniso_label
_atom_site_aniso_U_11
_atom_site_aniso_U_22
_atom_site_aniso_U_33
_atom_site_aniso_U_12
_atom_site_aniso_U_13
_atom_site_aniso_U_23
S1 0.0489(3) 0.0383(3) 0.0793(4) 0.00565(19) 0.0064(2) -0.0011(2)
S2 0.0517(3) 0.0575(3) 0.0752(4) -0.0109(2) 0.0093(3) -0.0097(2)
O3 0.0466(7) 0.0446(7) 0.0696(9) 0.0051(5) 0.0225(6) 0.0014(6)
O4 0.0832(11) 0.0629(10) 0.1247(14) -0.0001(8) 0.0649(11) 0.0065(9)
N5 0.0483(9) 0.0424(8) 0.0579(10) 0.0004(6) 0.0000(7) -0.0011(7)
C6 0.0590(13) 0.0456(11) 0.0829(15) 0.0110(9) 0.0125(11) -0.0083(10)
C7 0.0735(15) 0.0421(11) 0.0856(16) -0.0061(10) 0.0086(13) 0.0034(10)
C8 0.0484(10) 0.0398(10) 0.0593(12) -0.0009(8) 0.0001(9) 0.0008(8)
C9 0.0506(11) 0.0480(11) 0.0719(13) -0.0061(8) 0.0174(10) 0.0064(9)
C10 0.0431(10) 0.0471(10) 0.0623(12) 0.0029(8) 0.0163(9) 0.0026(8)
C11 0.0381(9) 0.0385(9) 0.0487(10) 0.0030(7) 0.0062(7) 0.0021(7)
C12 0.0367(9) 0.0405(9) 0.0483(10) 0.0012(7) 0.0064(7) 0.0017(7)
C13 0.0414(9) 0.0410(9) 0.0524(10) 0.0033(7) 0.0015(8) -0.0032(7)
C14 0.0428(9) 0.0365(9) 0.0519(10) 0.0040(7) 0.0073(8) 0.0021(7)
C15 0.0521(11) 0.0401(9) 0.0638(12) 0.0014(8) 0.0181(9) 0.0054(8)
C16 0.0519(11) 0.0471(10) 0.0688(13) -0.0009(8) 0.0212(10) 0.0031(9)
C17 0.0575(12) 0.0383(10) 0.0786(14) 0.0069(8) 0.0260(10) 0.0031(9)
C18 0.0459(10) 0.0450(10) 0.0428(10) 0.0024(7) 0.0126(8) -0.0070(7)
C19 0.0600(12) 0.0545(12) 0.0633(13) 0.0082(9) -0.0025(10) 0.0071(10)
C20 0.0577(13) 0.0602(13) 0.0856(16) 0.0086(10) 0.0169(11) 0.0068(11)
C21 0.0715(15) 0.0473(12) 0.1060(19) 0.0015(10) 0.0307(14) -0.0117(11)
C22 0.0647(13) 0.0533(12) 0.0672(13) -0.0136(10) 0.0182(11) -0.0062(10)
C23 0.0498(11) 0.0409(9) 0.0695(13) -0.0025(8) 0.0104(10) 0.0029(9)
loop_
_atom_type_symbol
_atom_type_description
_atom_type_scat_dispersion_real
_atom_type_scat_dispersion_imag
_atom_type_scat_source
C C 0.0033 0.0016 'International Tables Vol C Tables 4.2.6.8 and 6.1.1.4'
H H 0.0000 0.0000 'International Tables Vol C Tables 4.2.6.8 and 6.1.1.4'
N N 0.0061 0.0033 'International Tables Vol C Tables 4.2.6.8 and 6.1.1.4'
O O 0.0106 0.0060 'International Tables Vol C Tables 4.2.6.8 and 6.1.1.4'
S S 0.1246 0.1234 'International Tables Vol C Tables 4.2.6.8 and 6.1.1.4'
loop_
_geom_angle_atom_site_label_1
_geom_angle_atom_site_label_2
_geom_angle_atom_site_label_3
_geom_angle
C18 S1 C17 104.07(9)
C16 O3 C12 121.90(14)
C18 N5 C19 122.23(16)
C18 N5 C23 125.64(15)
C19 N5 C23 112.02(15)
C13 C6 H6A 109.5
C13 C6 H6B 109.5
H6A C6 H6B 109.5
C13 C6 H6C 109.5
H6A C6 H6C 109.5
H6B C6 H6C 109.5
C8 C7 H7A 109.5
C8 C7 H7B 109.5
H7A C7 H7B 109.5
C8 C7 H7C 109.5
H7A C7 H7C 109.5
H7B C7 H7C 109.5
C13 C8 C9 119.55(16)
C13 C8 C7 121.40(17)
C9 C8 C7 119.05(18)
C10 C9 C8 122.10(17)
C10 C9 H9 118.9
C8 C9 H9 118.9
C9 C10 C11 120.07(17)
C9 C10 H10 120.0
C11 C10 H10 120.0
C12 C11 C10 116.80(15)
C12 C11 C14 118.84(15)
C10 C11 C14 124.35(15)
C11 C12 O3 120.53(15)
C11 C12 C13 124.22(16)
O3 C12 C13 115.24(14)
C8 C13 C12 117.23(16)
C8 C13 C6 122.32(17)
C12 C13 C6 120.44(16)
C15 C14 C11 118.65(15)
C15 C14 C17 123.66(16)
C11 C14 C17 117.67(15)
C14 C15 C16 122.75(17)
C14 C15 H15 118.6
C16 C15 H15 118.6
O4 C16 O3 116.98(17)
O4 C16 C15 125.74(18)
O3 C16 C15 117.27(15)
C14 C17 S1 114.87(13)
C14 C17 H17A 108.5
S1 C17 H17A 108.5
C14 C17 H17B 108.5
S1 C17 H17B 108.5
H17A C17 H17B 107.5
N5 C18 S2 124.93(14)
N5 C18 S1 112.53(13)
S2 C18 S1 122.54(11)
N5 C19 C20 109.61(17)
N5 C19 H19A 109.7
C20 C19 H19A 109.7
N5 C19 H19B 109.7
C20 C19 H19B 109.7
H19A C19 H19B 108.2
C21 C20 C19 111.18(18)
C21 C20 H20A 109.4
C19 C20 H20A 109.4
C21 C20 H20B 109.4
C19 C20 H20B 109.4
H20A C20 H20B 108.0
C20 C21 C22 110.78(17)
C20 C21 H21A 109.5
C22 C21 H21A 109.5
C20 C21 H21B 109.5
C22 C21 H21B 109.5
H21A C21 H21B 108.1
C23 C22 C21 110.82(18)
C23 C22 H22A 109.5
C21 C22 H22A 109.5
C23 C22 H22B 109.5
C21 C22 H22B 109.5
H22A C22 H22B 108.1
N5 C23 C22 110.17(15)
N5 C23 H23A 109.6
C22 C23 H23A 109.6
N5 C23 H23B 109.6
C22 C23 H23B 109.6
H23A C23 H23B 108.1
loop_
_geom_bond_atom_site_label_1
_geom_bond_atom_site_label_2
_geom_bond_distance
S1 C18 1.7825(18)
S1 C17 1.7937(18)
S2 C18 1.6660(18)
O3 C16 1.368(2)
O3 C12 1.385(2)
O4 C16 1.206(2)
N5 C18 1.327(2)
N5 C19 1.470(2)
N5 C23 1.471(2)
C6 C13 1.501(2)
C6 H6A 0.9600
C6 H6B 0.9600
C6 H6C 0.9600
C7 C8 1.507(3)
C7 H7A 0.9600
C7 H7B 0.9600
C7 H7C 0.9600
C8 C13 1.391(3)
C8 C9 1.392(3)
C9 C10 1.366(3)
C9 H9 0.9300
C10 C11 1.407(2)
C10 H10 0.9300
C11 C12 1.385(2)
C11 C14 1.447(2)
C12 C13 1.394(2)
C14 C15 1.342(2)
C14 C17 1.504(2)
C15 C16 1.434(2)
C15 H15 0.9300
C17 H17A 0.9700
C17 H17B 0.9700
C19 C20 1.510(3)
C19 H19A 0.9700
C19 H19B 0.9700
C20 C21 1.506(3)
C20 H20A 0.9700
C20 H20B 0.9700
C21 C22 1.510(3)
C21 H21A 0.9700
C21 H21B 0.9700
C22 C23 1.508(3)
C22 H22A 0.9700
C22 H22B 0.9700
C23 H23A 0.9700
C23 H23B 0.9700
loop_
_geom_hbond_atom_site_label_D
_geom_hbond_atom_site_label_H
_geom_hbond_atom_site_label_A
_geom_hbond_distance_DH
_geom_hbond_distance_HA
_geom_hbond_distance_DA
_geom_hbond_angle_DHA
_geom_hbond_publ_flag
C17 H17A S2 0.97 2.45 3.134(2) 127 yes
loop_
_geom_torsion_atom_site_label_1
_geom_torsion_atom_site_label_2
_geom_torsion_atom_site_label_3
_geom_torsion_atom_site_label_4
_geom_torsion
C13 C8 C9 C10 -1.6(3)
C7 C8 C9 C10 178.0(2)
C8 C9 C10 C11 0.0(3)
C9 C10 C11 C12 1.2(3)
C9 C10 C11 C14 -178.15(19)
C10 C11 C12 O3 179.04(16)
C14 C11 C12 O3 -1.6(3)
C10 C11 C12 C13 -0.9(3)
C14 C11 C12 C13 178.49(17)
C16 O3 C12 C11 2.0(3)
C16 O3 C12 C13 -178.05(17)
C9 C8 C13 C12 1.9(3)
C7 C8 C13 C12 -177.70(18)
C9 C8 C13 C6 -179.57(18)
C7 C8 C13 C6 0.9(3)
C11 C12 C13 C8 -0.6(3)
O3 C12 C13 C8 179.44(16)
C11 C12 C13 C6 -179.25(18)
O3 C12 C13 C6 0.8(3)
C12 C11 C14 C15 -0.5(3)
C10 C11 C14 C15 178.87(18)
C12 C11 C14 C17 178.01(17)
C10 C11 C14 C17 -2.7(3)
C11 C14 C15 C16 2.2(3)
C17 C14 C15 C16 -176.22(19)
C12 O3 C16 O4 -179.19(18)
C12 O3 C16 C15 -0.4(3)
C14 C15 C16 O4 176.9(2)
C14 C15 C16 O3 -1.8(3)
C15 C14 C17 S1 4.6(3)
C11 C14 C17 S1 -173.78(14)
C18 S1 C17 C14 -119.89(15)
C19 N5 C18 S2 -4.7(2)
C23 N5 C18 S2 179.53(14)
C19 N5 C18 S1 174.31(14)
C23 N5 C18 S1 -1.5(2)
C17 S1 C18 N5 177.30(13)
C17 S1 C18 S2 -3.67(13)
C18 N5 C19 C20 -116.9(2)
C23 N5 C19 C20 59.4(2)
N5 C19 C20 C21 -56.5(2)
C19 C20 C21 C22 54.5(3)
C20 C21 C22 C23 -54.1(3)
C18 N5 C23 C22 116.7(2)
C19 N5 C23 C22 -59.4(2)
C21 C22 C23 N5 55.9(2)
