#------------------------------------------------------------------------------
#$Date: 2016-02-04 09:13:43 +0200 (Thu, 04 Feb 2016) $
#$Revision: 175801 $
#$URL: svn://www.crystallography.net/cod/cif/1/54/22/1542266.cif $
#------------------------------------------------------------------------------
#
# This file is available in the Crystallography Open Database (COD),
# http://www.crystallography.net/
#
# All data on this site have been placed in the public domain by the
# contributors.
#
data_1542266
loop_
_publ_author_name
'Terada, Shoshi'
'Mandai, Toshihiko'
'Suzuki, Soma'
'Tsuzuki, Seiji'
'Watanabe, Katsuya'
'Kamei, Yutaro'
'Ueno, Kazuhide'
'Dokko, Kaoru'
'Watanabe, Masayoshi'
_publ_section_title
;
 Thermal and Electrochemical Stability of Tetraglyme--Magnesium
 Bis(trifluoromethanesulfonyl)amide Complex: Electric Field Effect of
 Divalent Cation on Solvate Stability
;
_journal_issue                   3
_journal_name_full               'The Journal of Physical Chemistry C'
_journal_page_first              1353
_journal_paper_doi               10.1021/acs.jpcc.5b09779
_journal_volume                  120
_journal_year                    2016
_chemical_formula_sum            'C14 H22 F12 Mg N2 O13 S4'
_chemical_formula_weight         806.88
_chemical_name_systematic
;
 ?
;
_space_group_crystal_system      monoclinic
_space_group_IT_number           14
_space_group_name_Hall           '-P 2yn'
_space_group_name_H-M_alt        'P 1 21/n 1'
_symmetry_space_group_name_Hall  '-P 2yn'
_symmetry_space_group_name_H-M   'P 1 21/n 1'
_atom_sites_solution_hydrogens   geom
_audit_creation_method           SHELXL-2013
_cell_angle_alpha                90
_cell_angle_beta                 96.6900(11)
_cell_angle_gamma                90
_cell_formula_units_Z            4
_cell_length_a                   10.1949(8)
_cell_length_b                   8.4085(7)
_cell_length_c                   35.446(3)
_cell_measurement_temperature    173(2)
_cell_volume                     3017.9(4)
_computing_structure_refinement  'SHELXL-2013 (Sheldrick, 2013)'
_diffrn_ambient_temperature      173(2)
_diffrn_measured_fraction_theta_full 0.998
_diffrn_measured_fraction_theta_max 0.986
_diffrn_radiation_type           MoK\a
_diffrn_radiation_wavelength     0.71073
_diffrn_reflns_av_R_equivalents  0.0337
_diffrn_reflns_av_unetI/netI     0.0467
_diffrn_reflns_laue_measured_fraction_full 0.998
_diffrn_reflns_laue_measured_fraction_max 0.986
_diffrn_reflns_limit_h_max       12
_diffrn_reflns_limit_h_min       -13
_diffrn_reflns_limit_k_max       10
_diffrn_reflns_limit_k_min       -8
_diffrn_reflns_limit_l_max       42
_diffrn_reflns_limit_l_min       -45
_diffrn_reflns_number            16753
_diffrn_reflns_point_group_measured_fraction_full 0.998
_diffrn_reflns_point_group_measured_fraction_max 0.986
_diffrn_reflns_theta_full        25.000
_diffrn_reflns_theta_max         27.503
_diffrn_reflns_theta_min         1.157
_exptl_absorpt_coefficient_mu    0.470
_exptl_crystal_density_diffrn    1.776
_exptl_crystal_F_000             1632
_exptl_crystal_size_max          0.300
_exptl_crystal_size_mid          0.300
_exptl_crystal_size_min          0.100
_refine_diff_density_max         0.343
_refine_diff_density_min         -0.400
_refine_diff_density_rms         0.064
_refine_ls_extinction_method     none
_refine_ls_goodness_of_fit_ref   1.015
_refine_ls_hydrogen_treatment    constr
_refine_ls_matrix_type           full
_refine_ls_number_parameters     417
_refine_ls_number_reflns         6832
_refine_ls_number_restraints     0
_refine_ls_restrained_S_all      1.015
_refine_ls_R_factor_all          0.0623
_refine_ls_R_factor_gt           0.0389
_refine_ls_shift/su_max          0.001
_refine_ls_shift/su_mean         0.000
_refine_ls_structure_factor_coef Fsqd
_refine_ls_weighting_details
'w=1/[\s^2^(Fo^2^)+(0.0323P)^2^+1.6736P] where P=(Fo^2^+2Fc^2^)/3'
_refine_ls_weighting_scheme      calc
_refine_ls_wR_factor_gt          0.0787
_refine_ls_wR_factor_ref         0.0911
_reflns_Friedel_coverage         0.000
_reflns_number_gt                4966
_reflns_number_total             6832
_reflns_threshold_expression     'I > 2\s(I)'
_cod_data_source_file            jp5b09779_si_002.cif
_cod_data_source_block           140411_302a
_cod_depositor_comments          'Adding full bibliography for 1542266.cif.'
_cod_database_code               1542266
_shelx_space_group_comment
;
The symmetry employed for this shelxl refinement is uniquely defined
by the following loop, which should always be used as a source of
symmetry information in preference to the above space-group names.
They are only intended as comments.
;
_shelx_estimated_absorpt_t_min   0.872
_shelx_estimated_absorpt_t_max   0.954
_shelxl_version_number           2013-4
_shelx_res_file
;
TITL 140411_302a in P2(1)/n
CELL 0.71073  10.19490   8.40850  35.44620  90.0000  96.6900  90.0000
ZERR    4.00   0.00080   0.00070   0.00290   0.0000   0.0011   0.0000
LATT 1
SYMM 0.5-X, 0.5+Y, 0.5-Z
SFAC C  H  N  O  F  Mg S
UNIT 56  88  8  52  48  4  16
L.S. 4
ACTA 50
BOND $H
FMAP 2
PLAN 20
SIZE 0.10 0.30 0.30
TEMP -100
WGHT    0.032300    1.673600
FVAR       0.10921
MOLE 1
C1    1   -0.156584    0.431233    0.097212    11.00000    0.02500    0.02471 =
         0.05656   -0.00103    0.00296   -0.00347
AFIX 137
H1A   2   -0.195841    0.494586    0.075580    11.00000   -1.50000
H1B   2   -0.186421    0.472220    0.120650    11.00000   -1.50000
H1C   2   -0.183971    0.320010    0.093637    11.00000   -1.50000
AFIX   0
C2    1    0.039724    0.378240    0.067310    11.00000    0.04346    0.02975 =
         0.02848   -0.01170    0.00574   -0.00226
AFIX  23
H2A   2   -0.027029    0.312889    0.051802    11.00000   -1.20000
H2B   2    0.117073    0.310327    0.075588    11.00000   -1.20000
AFIX   0
C3    1    0.080171    0.515065    0.044617    11.00000    0.04141    0.03726 =
         0.02109   -0.01009    0.00258   -0.00044
AFIX  23
H3A   2    0.133111    0.477903    0.024627    11.00000   -1.20000
H3B   2    0.001600    0.572280    0.032388    11.00000   -1.20000
AFIX   0
C4    1    0.204916    0.755597    0.054193    11.00000    0.04888    0.04028 =
         0.02676    0.00622    0.01514   -0.00966
AFIX  23
H4A   2    0.130536    0.824589    0.043906    11.00000   -1.20000
H4B   2    0.256903    0.727054    0.033270    11.00000   -1.20000
AFIX   0
C5    1    0.289468    0.838542    0.085043    11.00000    0.04291    0.03726 =
         0.03063    0.00403    0.01524   -0.01338
AFIX  23
H5A   2    0.374475    0.781857    0.090990    11.00000   -1.20000
H5B   2    0.307908    0.948732    0.077351    11.00000   -1.20000
AFIX   0
C6    1    0.277829    0.932125    0.148265    11.00000    0.04875    0.02100 =
         0.03243   -0.00200   -0.00093   -0.01463
AFIX  23
H6A   2    0.285370    1.044527    0.140489    11.00000   -1.20000
H6B   2    0.367282    0.891306    0.157037    11.00000   -1.20000
AFIX   0
C7    1    0.190671    0.918495    0.179034    11.00000    0.05333    0.01549 =
         0.02973   -0.00474    0.00250   -0.00502
AFIX  23
H7A   2    0.235224    0.962520    0.203088    11.00000   -1.20000
H7B   2    0.107318    0.977562    0.172143    11.00000   -1.20000
AFIX   0
C8    1    0.081739    0.721697    0.212577    11.00000    0.04033    0.03120 =
         0.02088   -0.00278    0.00941    0.00044
AFIX  23
H8A   2   -0.006938    0.768756    0.205895    11.00000   -1.20000
H8B   2    0.121302    0.767630    0.237002    11.00000   -1.20000
AFIX   0
C9    1    0.072580    0.545068    0.215427    11.00000    0.03344    0.03355 =
         0.01966    0.00424    0.00544   -0.00011
AFIX  23
H9A   2    0.159320    0.499867    0.225484    11.00000   -1.20000
H9B   2    0.007140    0.515234    0.232742    11.00000   -1.20000
AFIX   0
C10   1    0.017623    0.315514    0.179370    11.00000    0.06015    0.02093 =
         0.03901    0.00789    0.00838   -0.00449
AFIX 137
H10A  2    0.097922    0.268381    0.192701    11.00000   -1.50000
H10B  2    0.002855    0.273160    0.153465    11.00000   -1.50000
H10C  2   -0.058019    0.289222    0.192916    11.00000   -1.50000
AFIX   0
C11   1    0.486579    0.359573    0.125013    11.00000    0.03658    0.02828 =
         0.04847   -0.01461    0.01809   -0.00648
C12   1    0.664335    0.537736    0.230065    11.00000    0.03237    0.04413 =
         0.04501   -0.00259   -0.00648   -0.00231
C13   1   -0.279632    0.904918    0.121992    11.00000    0.03839    0.03745 =
         0.03531   -0.00295    0.00770    0.01255
C14   1   -0.369187    0.796503    0.009665    11.00000    0.04018    0.06300 =
         0.03414   -0.00057   -0.00184    0.01088
F1    5    0.503149    0.470256    0.099689    11.00000    0.09143    0.04990 =
         0.05342   -0.01323    0.04813   -0.02229
F2    5    0.426025    0.236830    0.106809    11.00000    0.05528    0.03705 =
         0.06297   -0.02843    0.02721   -0.01320
F3    5    0.603509    0.312873    0.140989    11.00000    0.02814    0.06447 =
         0.10329   -0.02872    0.01750    0.00978
F4    5    0.653021    0.381465    0.228031    11.00000    0.05655    0.03731 =
         0.08555   -0.00504   -0.02068    0.01362
F5    5    0.749925    0.583461    0.207153    11.00000    0.03004    0.10080 =
         0.08305    0.00490    0.01329   -0.00007
F6    5    0.711242    0.576638    0.265218    11.00000    0.06312    0.06767 =
         0.05332   -0.00445   -0.02885   -0.00041
F7    5   -0.251929    0.959013    0.157039    11.00000    0.06775    0.09593 =
         0.03487   -0.01895    0.01102    0.02202
F8    5   -0.339564    0.767304    0.122890    11.00000    0.04093    0.05344 =
         0.07428    0.01068    0.02601   -0.00046
F9    5   -0.360507    1.006524    0.102529    11.00000    0.04747    0.05347 =
         0.05558   -0.00052    0.00804    0.03129
F10   5   -0.451328    0.813525    0.035464    11.00000    0.03862    0.10391 =
         0.05296   -0.00571    0.01052    0.00033
F11   5   -0.426860    0.852484   -0.023095    11.00000    0.06413    0.11433 =
         0.04090    0.00561   -0.01695    0.01899
F12   5   -0.348398    0.641264    0.005299    11.00000    0.06048    0.05873 =
         0.07642   -0.01721   -0.00259   -0.00704
MG1   6    0.106195    0.621174    0.130514    11.00000    0.02236    0.01613 =
         0.01859    0.00001    0.00272    0.00059
N1    3    0.465116    0.582929    0.174637    11.00000    0.03059    0.02098 =
         0.02500   -0.00194    0.00461   -0.00405
N2    3   -0.162203    0.809435    0.060407    11.00000    0.03676    0.01953 =
         0.02420    0.00097    0.00410    0.00680
O1    4   -0.014847    0.441343    0.099811    11.00000    0.02649    0.02664 =
         0.02668   -0.00670    0.00492   -0.00418
O2    4    0.156984    0.616110    0.070834    11.00000    0.03476    0.02889 =
         0.01935   -0.00036    0.00409   -0.00760
O3    4    0.217566    0.839057    0.117295    11.00000    0.03350    0.02530 =
         0.02492   -0.00069    0.00596   -0.00821
O4    4    0.164349    0.752089    0.183173    11.00000    0.03379    0.01818 =
         0.02088   -0.00079    0.00517   -0.00171
O5    4    0.032477    0.485618    0.177940    11.00000    0.03458    0.01748 =
         0.02253    0.00345    0.00337   -0.00145
O6    4    0.264422    0.471507    0.138338    11.00000    0.02755    0.03017 =
         0.03065   -0.00571   -0.00298    0.00771
O7    4    0.379395    0.302662    0.186917    11.00000    0.03924    0.02553 =
         0.03544    0.00942   -0.00150   -0.00629
O8    4    0.421506    0.570380    0.243377    11.00000    0.04380    0.04392 =
         0.02858   -0.00314    0.01233   -0.00825
O9    4    0.533092    0.799105    0.218220    11.00000    0.05735    0.02363 =
         0.03576   -0.00783    0.00376   -0.00535
O10   4   -0.057629    0.765821    0.124232    11.00000    0.02708    0.02044 =
         0.02915    0.00406    0.00055    0.00378
O11   4   -0.069544    1.041165    0.101206    11.00000    0.04947    0.01746 =
         0.04913    0.00178    0.00013   -0.00412
O12   4   -0.247565    1.064089    0.026824    11.00000    0.06984    0.03126 =
         0.03960    0.01232    0.00868    0.01845
O13   4   -0.135954    0.857554   -0.006911    11.00000    0.05446    0.05891 =
         0.03259    0.00135    0.01777    0.00793
S1    7    0.386532    0.430516    0.161043    11.00000    0.02035    0.01945 =
         0.02292   -0.00084    0.00472    0.00100
S2    7    0.504463    0.633648    0.217382    11.00000    0.03012    0.02389 =
         0.02504   -0.00315    0.00412   -0.00167
S3    7   -0.125720    0.886084    0.100188    11.00000    0.02681    0.01600 =
         0.02817    0.00143    0.00299    0.00330
S4    7   -0.213408    0.901311    0.022421    11.00000    0.04079    0.03315 =
         0.02544    0.00601    0.00809    0.01034
HKLF 4

REM  140411_302a in P2(1)/n
REM R1 =  0.0389 for    4966 Fo > 4sig(Fo)  and  0.0623 for all    6832 data
REM    417 parameters refined using      0 restraints

END

WGHT      0.0322      1.6727

REM Highest difference peak  0.343,  deepest hole -0.400,  1-sigma level  0.064
Q1    1  -0.2046  0.8946  0.1133  11.00000  0.05    0.34
Q2    1   0.5602  0.2633  0.1530  11.00000  0.05    0.32
Q3    1   0.4385  0.3906  0.1424  11.00000  0.05    0.29
Q4    1  -0.1922  0.8561  0.0787  11.00000  0.05    0.29
Q5    1  -0.2945  0.8447  0.0189  11.00000  0.05    0.29
Q6    1   0.4610  0.1067  0.1198  11.00000  0.05    0.28
Q7    1  -0.0790  0.9110  0.0126  11.00000  0.05    0.27
Q8    1   0.4764  0.6029  0.1945  11.00000  0.05    0.27
Q9    1   0.1354  0.5349  0.0242  11.00000  0.05    0.27
Q10   1  -0.1842  1.0593  0.0283  11.00000  0.05    0.27
Q11   1  -0.1392  0.9205  0.0045  11.00000  0.05    0.27
Q12   1  -0.1755  0.8693 -0.0265  11.00000  0.05    0.26
Q13   1   0.3725  0.3052  0.0957  11.00000  0.05    0.26
Q14   1   0.1240  0.6324  0.0868  11.00000  0.05    0.26
Q15   1   0.5810  0.3384  0.1165  11.00000  0.05    0.26
Q16   1  -0.0381  0.4369  0.0544  11.00000  0.05    0.25
Q17   1   0.4160  0.4616  0.0877  11.00000  0.05    0.25
Q18   1   0.1114  0.7314  0.1627  11.00000  0.05    0.25
Q19   1  -0.4245  0.8939 -0.0201  11.00000  0.05    0.25
Q20   1  -0.2111  0.8328  0.0445  11.00000  0.05    0.24
;
_shelx_res_checksum              40543
_shelx_hkl_file
;
   1   0   0    0.02    0.03
   2   0   0    3.31    0.24
   3   0   0    0.16    0.14
   4   0   0    3.94    0.39
  -6   0   0    0.55    0.28
  -7   0   0    0.09    0.33
  -8   0   0   67.54    2.15
  -9   0   0    0.18    0.44
 -10   0   0    1.37    0.54
 -11   0   0    0.44    0.48
 -12   0   0    0.89    0.59
 -13   0   0    0.60    0.58
   0   1   0   -0.04    0.03
   0   1   0   -0.13    0.04
   1   1   0   62.28    1.12
   1   1   0   63.13    1.25
  -1   1   0   62.78    1.15
  -1   1   0   60.53    1.23
   1   1   0   63.43    1.28
   2   1   0  249.46    4.66
   2   1   0  250.83    4.49
   3   1   0   75.76    1.75
  -4   1   0    0.34    0.23
   4   1   0    0.31    0.26
  -5   1   0    6.10    0.51
  -6  -1   0    1.05    0.38
  -6   1   0    1.09    0.30
  -7  -1   0    1.79    0.44
  -7   1   0    1.53    0.38
  -8  -1   0    0.02    0.39
  -8   1   0   -0.02    0.34
  -9  -1   0   31.33    1.52
  -9   1   0   33.93    1.50
 -10  -1   0    0.59    0.49
 -10   1   0    1.36    0.50
 -11  -1   0    0.29    0.54
 -11   1   0   -0.13    0.42
 -12  -1   0    1.97    0.73
 -12   1   0    1.25    0.61
 -13  -1   0   -0.41    0.62
   0   2   0   92.82    1.85
   0   2   0   92.63    1.74
   1   2   0   54.65    1.19
   1   2   0   53.17    1.06
   1   2   0   52.86    1.20
  -1   2   0   54.05    1.21
   2   2   0   68.52    1.54
  -2   2   0   69.51    1.33
   2   2   0   71.07    1.58
   2   2   0   69.30    1.29
  -2   2   0   69.08    1.52
   3   2   0  311.66    6.12
  -3   2   0  325.40    5.91
  -3   2   0  324.70    5.86
   3   2   0  332.53    5.95
  -4   2   0   95.36    2.06
   4   2   0   97.13    2.30
  -4   2   0   97.23    2.17
  -5   2   0   17.95    0.72
  -6  -2   0   11.32    0.80
  -6   2   0   11.22    0.64
  -7  -2   0    0.11    0.32
  -7   2   0   -0.03    0.26
  -8  -2   0   16.74    1.10
  -8   2   0   16.67    0.96
  -9  -2   0    0.14    0.45
  -9   2   0    0.15    0.40
 -10  -2   0    0.68    0.46
 -10   2   0   -0.19    0.41
 -11  -2   0    0.61    0.57
 -12  -2   0    1.10    0.60
   0   3   0   -0.14    0.15
  -1   3   0   14.27    0.59
   1   3   0   13.60    0.52
   1   3   0   14.45    0.48
   1   3   0   14.76    0.60
   2   3   0    4.44    0.25
   2   3   0    5.05    0.43
  -2   3   0    5.15    0.44
   2   3   0    4.39    0.41
  -3   3   0   50.92    1.06
   3   3   0   51.27    1.41
  -3   3   0   50.48    1.37
   3   3   0   51.51    1.40
   4   3   0    5.68    0.56
  -4   3   0    3.91    0.29
  -4   3   0    5.13    0.49
  -5   3   0    4.25    0.48
  -5   3   0    3.91    0.37
   5   3   0    4.20    0.50
  -6  -3   0    5.08    0.62
  -6   3   0    4.17    0.50
  -6   3   0    4.06    0.44
  -7  -3   0   40.41    1.64
  -7   3   0   40.11    1.45
  -7   3   0   39.50    1.32
  -8  -3   0    4.78    0.74
  -8   3   0    5.01    0.66
  -9  -3   0    5.67    0.84
  -9   3   0    8.52    0.90
 -10  -3   0    0.11    0.42
 -10   3   0    0.54    0.48
 -11  -3   0    0.13    0.56
 -11   3   0    0.48    0.48
 -12  -3   0    4.61    0.96
 -12   3   0    5.29    0.86
   0  -4   0   60.95    1.33
   0   4   0   61.65    1.58
   1  -4   0   37.60    0.74
  -1  -4   0   36.62    1.02
   1   4   0   38.02    0.99
  -1   4   0   37.66    1.15
   1   4   0   36.19    1.14
  -2   4   0   14.27    0.69
   2   4   0   14.01    0.69
   2   4   0   14.27    0.50
  -3   4   0   10.53    0.61
   3   4   0    9.78    0.36
   3   4   0    9.43    0.61
  -4  -4   0    2.64    0.43
   4   4   0    3.60    0.48
  -4   4   0    2.91    0.44
  -5  -4   0    0.78    0.34
   5   4   0    1.15    0.35
  -5   4   0    1.37    0.34
  -6  -4   0    6.98    0.77
  -6   4   0    6.87    0.70
   6   4   0    6.94    0.72
  -7  -4   0    5.24    0.77
  -7   4   0    5.88    0.67
  -8  -4   0   44.36    1.87
  -8   4   0   42.18    1.64
  -9  -4   0    0.82    0.51
  -9   4   0   -0.06    0.39
 -10  -4   0   13.43    1.33
 -10   4   0   15.22    1.24
 -11  -4   0    0.47    0.55
 -11   4   0    0.87    0.54
 -12  -4   0    1.92    0.78
 -12   4   0    4.44    0.83
   0  -5   0   -0.18    0.12
   0   5   0    0.00    0.20
  -1  -5   0   90.96    2.07
  -1   5   0   91.32    2.27
   1   5   0   91.78    2.04
   1   5   0   95.24    2.31
  -2  -5   0   71.81    1.83
   2   5   0   71.10    1.92
   2   5   0   70.75    1.60
  -2   5   0   69.11    1.90
  -3  -5   0   -0.10    0.24
   3   5   0    0.10    0.24
  -3   5   0    0.22    0.26
  -4  -5   0    6.21    0.64
   4   5   0    6.75    0.66
  -4   5   0    6.68    0.66
  -5  -5   0    5.70    0.70
   5   5   0    4.03    0.56
  -5   5   0    5.32    0.63
  -6  -5   0   12.38    1.05
  -6   5   0   11.98    0.86
   6   5   0   12.44    0.87
  -7  -5   0    1.01    0.51
  -7   5   0    2.01    0.48
  -8  -5   0    0.87    0.47
  -8   5   0    0.80    0.43
  -9  -5   0    3.04    0.76
  -9   5   0    3.17    0.65
 -10  -5   0    0.12    0.49
 -10   5   0    0.01    0.44
 -11  -5   0    1.13    0.65
 -11   5   0    0.56    0.53
   0   6   0   68.20    1.95
   1   6   0   53.70    1.71
   1   6   0   55.28    1.49
  -1   6   0   54.83    1.72
  -2  -6   0   26.80    1.03
  -2   6   0   26.82    1.15
   2   6   0   26.55    1.17
  -3  -6   0    0.25    0.31
  -3   6   0    0.13    0.31
   3   6   0   -0.25    0.25
  -4  -6   0    5.67    0.65
  -4   6   0    5.52    0.66
   4   6   0    4.96    0.62
  -5  -6   0   25.53    1.28
  -5   6   0   25.27    1.20
   5   6   0   25.79    1.25
  -6  -6   0    5.28    0.77
   6   6   0    7.94    0.86
  -6   6   0    7.34    0.81
  -7  -6   0   35.71    1.66
   7   6   0   32.50    1.53
  -7   6   0   32.44    1.48
  -8  -6   0    1.47    0.59
  -8   6   0    1.98    0.53
  -9  -6   0    0.59    0.56
  -9   6   0    1.01    0.50
 -10  -6   0    0.24    0.58
 -10   6   0    0.74    0.49
   0   7   0    0.16    0.36
   0   7   0   -0.33    0.25
   1   7   0    0.23    0.38
  -1   7   0   -0.23    0.30
  -2   7   0    2.59    0.52
   2   7   0    2.67    0.55
   3   7   0   16.08    1.00
  -3   7   0   16.35    0.99
   4   7   0    2.15    0.50
  -4   7   0    2.39    0.53
  -5  -7   0   26.16    1.35
  -5   7   0   30.01    1.40
   5   7   0   27.17    1.38
  -6  -7   0    0.34    0.41
  -6   7   0    0.88    0.47
   6   7   0    0.03    0.36
  -7  -7   0   12.54    1.21
   7   7   0   12.05    1.17
  -7   7   0   12.09    1.12
  -8  -7   0    1.72    0.64
  -8   7   0    0.08    0.39
  -9  -7   0    0.22    0.51
  -9   7   0   -0.29    0.43
 -10  -7   0    2.08    0.84
 -10   7   0    3.38    0.79
   0   8   0    9.40    0.95
  -1   8   0   22.89    1.25
   1   8   0   25.13    1.27
   2   8   0    3.62    0.66
  -2   8   0    2.70    0.57
   3   8   0   -0.04    0.33
  -3   8   0    0.37    0.40
  -4   8   0    2.50    0.59
   4   8   0    1.82    0.53
   5   8   0    1.84    0.54
  -5   8   0    2.28    0.57
   6   8   0    4.77    0.82
  -6   8   0    5.70    0.85
  -7   8   0    1.35    0.58
   7   8   0    1.73    0.60
  -8  -8   0    0.10    0.63
  -8   8   0    1.40    0.56
   8   8   0    1.56    0.61
   0   9   0   -0.22    0.34
  -1   9   0    1.21    0.48
   1   9   0    1.46    0.53
  -2   9   0    0.76    0.48
  -2   9   0    0.22    0.38
   2   9   0    0.41    0.41
  -3   9   0    0.18    0.39
   3   9   0    0.35    0.50
  -4   9   0    0.18    0.43
   4   9   0    0.95    0.48
  -5   9   0    9.70    1.06
   5   9   0    8.63    1.04
  -6   9   0    3.66    0.71
   6   9   0    3.45    0.79
   7   9   0   -0.16    0.48
  -7   9   0    1.32    0.59
   0  10   0   -0.27    0.44
   1  10   0   15.48    1.37
  -1  10   0   14.43    1.31
   2  10   0    0.72    0.56
  -2  10   0    1.51    0.56
   3  10   0    5.07    0.86
  -3  10   0    5.88    0.92
   4  10   0    1.28    0.62
  -4  10   0    3.69    0.77
  -5  10   0    2.73    0.71
 -13   0   1    0.76    0.62
 -12   0   1   -0.01    0.53
 -11   0   1    4.68    0.84
 -10   0   1    0.23    0.45
  -9   0   1   12.11    1.09
  -8   0   1    0.20    0.41
  -7   0   1   22.31    1.06
   5   0  -1   43.04    1.30
   4   0  -1    0.10    0.22
   3   0  -1   26.27    0.79
   2   0  -1   -0.17    0.13
   1   0  -1    0.24    0.06
  -1   0  -1    5.50    0.20
  -2   0  -1    0.04    0.13
  -3   0  -1  388.06    7.13
  -4   0  -1    0.44    0.24
  -5   0  -1    1.36    0.33
  -6   0  -1    0.10    0.25
  -7   0  -1    2.39    0.50
  -8   0  -1   -0.14    0.38
  -9   0  -1   18.67    1.19
 -10   0  -1    0.38    0.44
 -11   0  -1    9.43    1.12
 -12   0  -1   -0.19    0.52
 -13   0  -1    1.33    0.76
 -13  -1   1    6.69    1.15
 -12  -1   1    3.83    0.87
 -12   1   1    3.61    0.80
 -11  -1   1   -0.09    0.51
 -11   1   1    0.64    0.53
 -10  -1   1   -0.01    0.48
 -10   1   1    1.12    0.49
  -9  -1   1   14.34    1.05
  -9   1   1   14.04    1.01
  -8  -1   1    7.93    0.84
  -8   1   1    8.27    0.82
  -7  -1   1    0.09    0.29
  -7   1   1    0.17    0.30
  -6   1   1   32.96    1.17
   6   1  -1   31.62    1.20
   5   1  -1  130.07    2.95
   4  -1  -1   -0.29    0.19
   4   1  -1    0.39    0.26
   3  -1  -1    9.11    0.39
   3   1  -1    7.92    0.44
   2  -1  -1  542.85    9.49
   2   1  -1  530.93    9.52
   2   1  -1  541.85    9.64
   1  -1  -1  176.68    3.15
   1   1  -1  177.53    3.28
  -1   1   1  180.33    3.16
   1   1  -1  178.86    3.18
   0  -1  -1    2.92    0.12
   0   1   1    3.50    0.15
   0   1  -1    3.08    0.12
   0   1  -1    3.27    0.16
  -1  -1  -1   14.94    0.44
  -1   1  -1   13.91    0.33
   1   1   1   13.78    0.41
  -1   1  -1   14.05    0.42
   1   1   1   14.81    0.34
  -2   1  -1  201.86    3.78
   2   1   1  212.24    3.80
  -3   1  -1  712.09   12.66
  -4  -1  -1   -0.11    0.24
  -4   1  -1    0.00    0.21
  -5  -1  -1  148.47    3.27
  -5   1  -1  139.40    3.09
  -6  -1  -1   12.04    0.78
  -6   1  -1   13.13    0.74
  -7  -1  -1    6.86    0.72
  -7   1  -1    9.19    0.78
  -8  -1  -1    2.38    0.54
  -8   1  -1    1.92    0.48
  -9  -1  -1    2.07    0.56
  -9   1  -1    2.96    0.58
 -10  -1  -1    3.83    0.78
 -10   1  -1    3.69    0.69
 -11  -1  -1   -0.63    0.39
 -11   1  -1    0.17    0.48
 -12  -1  -1    7.49    1.12
 -12   1  -1    5.85    0.93
 -13  -1  -1   -0.03    0.55
 -12  -2   1    9.69    1.25
 -11  -2   1    4.49    0.88
 -10  -2   1    6.06    0.90
 -10   2   1    6.38    0.83
  -9  -2   1    1.41    0.53
  -9   2   1    0.44    0.40
  -8  -2   1    0.91    0.45
  -8   2   1    1.10    0.42
  -7  -2   1    0.42    0.36
  -7   2   1    1.18    0.35
  -6   2   1   29.53    1.06
   5   2  -1    0.48    0.31
  -5   2   1    0.25    0.20
  -4   2   1  231.64    4.45
  -4   2   1  233.15    4.41
   4   2  -1  229.21    4.48
   4   2  -1  232.38    4.69
   3   2  -1   79.78    1.81
  -3   2   1   82.90    1.80
   3   2  -1   79.64    1.89
   2   2  -1   48.60    1.21
   2   2  -1   50.07    0.91
   2   2  -1   49.62    1.19
  -2   2   1   49.90    1.17
   1   2  -1    3.86    0.24
   1   2  -1    4.37    0.27
  -1   2   1    4.10    0.25
   0  -2  -1  125.41    2.32
   0   2  -1  125.87    2.31
   0   2  -1  125.02    2.41
   0   2   1  125.27    2.40
  -1  -2  -1  150.36    2.89
  -1   2  -1  148.64    2.86
   1   2   1  152.34    2.87
   1   2   1  151.21    2.73
  -2   2  -1  348.94    6.33
  -2   2  -1  357.04    6.26
   2   2   1  352.29    6.34
   2   2   1  357.92    6.14
   3   2   1   27.58    0.89
  -3   2  -1   27.12    0.86
  -3   2  -1   27.71    0.73
  -4  -2  -1   17.03    0.84
  -4   2  -1   18.30    0.74
  -4   2  -1   17.40    0.64
  -5  -2  -1   40.79    1.39
  -5   2  -1   41.16    1.19
  -6  -2  -1   78.67    2.26
  -6   2  -1   75.45    1.97
  -7  -2  -1    4.80    0.65
  -7   2  -1    4.57    0.54
  -8  -2  -1    4.55    0.69
  -8   2  -1    5.21    0.66
  -9  -2  -1    0.94    0.50
  -9   2  -1    0.02    0.38
 -10  -2  -1   15.07    1.32
 -10   2  -1   15.06    1.08
 -11  -2  -1    1.20    0.62
 -12  -2  -1   15.17    1.49
 -12  -3   1    4.45    0.99
 -12   3   1    3.94    0.74
 -11  -3   1    4.30    0.90
 -11   3   1    6.35    0.91
 -10  -3   1    4.39    0.80
 -10   3   1    4.26    0.68
  -9  -3   1    6.39    0.93
  -9   3   1    4.70    0.67
  -8  -3   1   -0.31    0.35
  -8   3   1   -0.14    0.29
  -7  -3   1    0.31    0.41
  -7   3   1    0.56    0.30
  -7   3   1   -0.22    0.32
  -6   3   1   18.80    0.77
  -6   3   1   17.83    0.86
  -5   3   1   43.26    1.34
   5   3  -1   42.48    1.37
  -5   3   1   42.90    1.14
   5   3  -1   42.00    1.42
   4   3  -1    9.84    0.62
  -4   3   1    9.85    0.57
   4   3  -1   10.67    0.61
  -4   3   1    9.94    0.42
  -3   3   1  152.59    3.11
   3   3  -1  149.35    3.21
  -3   3   1  155.26    2.79
   3   3  -1  150.20    3.14
   2   3  -1   26.65    0.88
   2   3  -1   26.23    0.62
   2   3  -1   26.14    0.86
  -2   3   1   27.04    0.87
   1   3  -1    6.05    0.36
  -1   3   1    7.26    0.45
   1   3  -1    7.04    0.43
   0  -3  -1   83.44    1.68
   0   3   1   85.27    1.86
   0   3  -1   85.46    1.67
   0   3  -1   85.55    1.87
  -1  -3  -1   37.51    0.99
  -1   3  -1   38.54    1.06
  -1   3  -1   37.92    0.73
   1   3   1   40.07    0.93
   1   3   1   38.02    1.06
  -2  -3  -1   30.00    0.95
   2   3   1   30.57    0.97
  -2   3  -1   28.49    0.93
   2   3   1   28.26    0.72
  -3  -3  -1    0.08    0.25
   3   3   1   -0.06    0.20
  -3   3  -1    0.32    0.22
  -3   3  -1    0.31    0.12
  -4  -3  -1    6.12    0.58
  -4   3  -1    6.25    0.35
  -4   3  -1    5.12    0.49
   4   3   1    6.26    0.55
  -5  -3  -1   15.69    0.87
  -5   3  -1   16.34    0.64
  -5   3  -1   15.23    0.78
  -6  -3  -1   27.47    1.26
  -6   3  -1   31.17    1.18
  -6   3  -1   28.71    1.00
  -7  -3  -1   48.42    1.83
  -7   3  -1   48.13    1.50
  -7   3  -1   50.39    1.67
  -8  -3  -1    6.43    0.81
  -8   3  -1    7.54    0.78
  -9  -3  -1    4.36    0.79
  -9   3  -1    2.87    0.57
 -10  -3  -1    0.27    0.53
 -10   3  -1    0.07    0.44
 -11  -3  -1   14.77    1.46
 -11   3  -1   13.21    1.17
 -12  -3  -1    0.42    0.61
 -12   3  -1    0.66    0.54
 -12  -4   1    1.40    0.75
 -12   4   1    0.08    0.51
 -11  -4   1    3.61    0.81
 -11   4   1    3.46    0.75
 -10  -4   1   11.76    1.25
 -10   4   1   11.31    1.07
  -9  -4   1    3.72    0.76
  -9   4   1    3.47    0.60
  -8  -4   1    1.62    0.53
  -8   4   1    1.28    0.46
  -7  -4   1    5.42    0.77
  -7   4   1    4.01    0.56
  -6  -4   1    1.20    0.45
  -6   4   1    0.83    0.35
   6   4  -1    0.66    0.33
   5   4  -1    3.69    0.51
  -5   4   1    3.51    0.48
   4   4  -1    0.59    0.28
  -4   4   1   -0.04    0.19
   4   4  -1    0.22    0.27
   3   4  -1   39.71    0.85
  -3   4   1   38.97    1.22
   3   4  -1   36.69    1.20
   3   4  -1   36.85    1.23
  -2   4   1    8.74    0.56
   2   4  -1    8.21    0.36
   2   4  -1    8.39    0.54
   2   4  -1    7.85    0.50
   1  -4  -1    0.35    0.09
   1   4  -1    0.02    0.17
   1   4  -1   -0.05    0.20
  -1   4   1    0.49    0.23
   0  -4  -1   40.01    0.96
   0   4   1   40.43    1.19
   0   4  -1   37.94    1.17
   1  -4   1   30.00    0.63
  -1  -4  -1   31.05    0.91
  -1   4  -1   29.59    1.01
   1   4   1   30.22    0.86
   1   4   1   29.82    1.01
  -2  -4  -1   62.50    1.63
   2   4   1   62.42    1.39
  -2   4  -1   66.06    1.70
   2   4   1   64.45    1.68
  -3  -4  -1   92.07    2.27
   3   4   1   90.85    2.22
  -3   4  -1   91.68    2.21
   3   4   1   90.95    1.81
  -4  -4  -1    0.12    0.25
  -4   4  -1    0.10    0.22
   4   4   1    0.36    0.26
  -4   4  -1    0.08    0.10
  -5  -4  -1    4.81    0.63
  -5   4  -1    3.55    0.48
   5   4   1    4.81    0.59
  -6  -4  -1    0.59    0.37
  -6   4  -1    1.58    0.43
  -7  -4  -1    2.04    0.58
  -7   4  -1    4.56    0.65
  -8  -4  -1   20.79    1.32
  -8   4  -1   22.69    1.17
  -9  -4  -1   13.98    1.25
  -9   4  -1   18.08    1.10
 -10  -4  -1   -0.26    0.42
 -10   4  -1    0.31    0.38
 -11  -4  -1    4.71    0.88
 -11   4  -1    3.25    0.69
 -12   4  -1    0.73    0.59
 -11  -5   1    7.47    1.12
 -11   5   1    5.70    0.87
 -10  -5   1   -0.41    0.41
 -10   5   1   -0.36    0.36
  -9  -5   1    0.51    0.54
  -9   5   1    0.34    0.37
  -8  -5   1   -0.34    0.41
  -8   5   1   -0.54    0.25
  -7  -5   1    5.99    0.85
  -7   5   1    4.99    0.67
  -6  -5   1   -0.05    0.32
  -6   5   1   -0.21    0.27
   6   5  -1   -0.19    0.30
  -5  -5   1    1.34    0.47
  -5   5   1    1.84    0.41
   5   5  -1    1.72    0.43
  -4  -5   1   53.33    1.71
   4   5  -1   53.56    1.68
  -4   5   1   50.43    1.61
  -3  -5   1    8.42    0.62
   3   5  -1    8.17    0.70
  -3   5   1    7.78    0.69
  -2  -5   1   41.37    1.28
   2   5  -1   45.22    1.42
  -2   5   1   43.77    1.39
   2   5  -1   43.95    1.11
  -1  -5   1   -0.02    0.18
   1   5  -1    0.01    0.23
  -1   5   1    0.32    0.25
   0  -5   1    1.58    0.22
   0  -5  -1    1.46    0.22
   0   5  -1    1.29    0.32
   0   5   1    1.02    0.29
  -1  -5  -1    8.56    0.49
  -1   5  -1    9.31    0.62
   1   5   1    9.63    0.62
   1   5   1    9.56    0.51
  -2  -5  -1    3.04    0.40
  -2   5  -1    2.66    0.42
   2   5   1    3.37    0.33
   2   5   1    2.77    0.43
  -3  -5  -1   21.60    0.96
   3   5   1   23.45    1.02
  -3   5  -1   23.94    1.01
  -4  -5  -1    1.19    0.38
  -4   5  -1    0.49    0.30
   4   5   1    1.25    0.36
  -5  -5  -1    0.39    0.33
   5   5   1    0.37    0.32
  -5   5  -1    0.06    0.28
  -6  -5  -1   24.06    1.28
  -6   5  -1   25.06    1.19
   6   5   1   24.65    1.22
  -7  -5  -1   10.22    1.03
  -7   5  -1   12.09    0.86
  -8  -5  -1    1.51    0.57
  -8   5  -1    1.39    0.49
  -9  -5  -1    7.04    1.00
  -9   5  -1    7.57    0.89
 -10  -5  -1   11.86    1.27
 -10   5  -1   13.81    1.20
 -11  -5  -1   -0.24    0.50
 -11   5  -1    0.59    0.48
 -11   6   1    0.03    0.50
 -10  -6   1   -0.01    0.57
 -10   6   1    0.77    0.54
  -9  -6   1    0.17    0.51
  -9   6   1    0.36    0.41
  -8  -6   1   17.17    1.24
  -8   6   1   17.56    1.14
  -7  -6   1    1.79    0.56
  -7   6   1    1.78    0.52
   7   6  -1    2.11    0.58
  -6  -6   1   13.02    1.10
   6   6  -1   11.13    0.98
  -6   6   1   13.21    0.93
  -5  -6   1    0.37    0.35
  -5   6   1    0.29    0.35
   5   6  -1    0.50    0.34
  -4  -6   1    8.87    0.80
   4   6  -1   10.19    0.85
  -4   6   1    9.05    0.80
  -3  -6   1    8.95    0.74
  -3   6   1    8.57    0.78
   3   6  -1    8.31    0.74
  -2  -6   1    2.22    0.39
   2   6  -1    2.14    0.43
  -2   6   1    2.42    0.45
  -1   6   1    6.14    0.64
   1   6  -1    6.65    0.54
   1   6  -1    7.49    0.70
   0   6  -1   46.99    1.53
   0   6   1   45.10    1.52
   0   6   1   42.75    1.36
   1   6   1    5.48    0.51
   1   6   1    5.81    0.63
  -1   6  -1    6.08    0.65
  -2  -6  -1   83.92    2.16
  -2   6  -1   86.91    2.35
   2   6   1   90.84    2.37
  -3  -6  -1   43.65    1.46
   3   6   1   40.98    1.52
  -3   6  -1   40.81    1.51
  -4  -6  -1   10.30    0.76
  -4   6  -1   11.26    0.91
   4   6   1   11.81    0.83
  -5  -6  -1   24.79    1.26
   5   6   1   25.44    1.26
  -5   6  -1   25.24    1.24
  -6  -6  -1    0.61    0.45
  -6   6  -1    0.53    0.38
   6   6   1    0.27    0.36
  -7  -6  -1    2.36    0.63
  -7   6  -1    0.80    0.44
   7   6   1    1.07    0.46
  -8  -6  -1   12.30    1.23
  -8   6  -1   10.74    1.03
  -9  -6  -1    2.13    0.70
  -9   6  -1    1.94    0.59
 -10  -6  -1   13.47    1.43
 -10   6  -1   12.80    1.24
 -10  -7   1    3.41    0.85
 -10   7   1    3.55    0.79
  -9  -7   1    0.43    0.53
  -9   7   1    1.34    0.53
  -8  -7   1    1.99    0.65
  -8   7   1    0.44    0.42
  -7  -7   1    0.23    0.41
   7   7  -1   -0.24    0.33
  -7   7   1   -0.48    0.34
  -6  -7   1    4.25    0.73
   6   7  -1    3.63    0.66
  -6   7   1    4.93    0.69
  -5  -7   1    0.05    0.39
   5   7  -1    0.64    0.39
  -5   7   1    0.30    0.37
  -4   7   1   17.14    1.04
   4   7  -1   18.36    1.08
  -3   7   1    3.98    0.65
   3   7  -1    4.39    0.64
   2   7  -1   14.70    0.96
  -2   7   1   16.49    0.97
  -1   7   1   35.11    1.40
   1   7  -1   34.64    1.43
   0   7  -1    5.69    0.73
   0   7   1    7.09    0.76
   0   7   1    6.09    0.62
   1   7   1    0.09    0.33
  -1   7  -1   -0.29    0.28
  -2   7  -1   28.05    1.27
   2   7   1   27.55    1.26
  -3   7  -1    8.26    0.85
   3   7   1    6.96    0.79
  -4   7  -1    2.09    0.51
   4   7   1    2.89    0.59
  -5  -7  -1   10.76    1.02
   5   7   1    9.82    0.93
  -5   7  -1   10.60    0.97
  -6  -7  -1    6.86    0.87
   6   7   1    7.40    0.88
  -6   7  -1    6.32    0.83
  -7  -7  -1    1.69    0.57
  -7   7  -1    0.56    0.46
   7   7   1    1.16    0.50
  -8  -7  -1    6.89    1.01
  -8   7  -1    7.19    0.91
  -9  -7  -1    0.73    0.56
  -9   7  -1    0.28    0.46
 -10  -7  -1    3.25    0.91
 -10   7  -1    2.39    0.65
  -8  -8   1    0.87    0.64
  -8   8   1    0.56    0.45
   8   8  -1    0.98    0.55
   7   8  -1    1.02    0.58
  -7   8   1    1.14    0.50
   6   8  -1    1.21    0.53
  -6   8   1    2.28    0.61
   5   8  -1    2.37    0.60
  -5   8   1    2.95    0.65
   4   8  -1    5.65    0.80
  -4   8   1    5.10    0.74
  -3   8   1   11.88    1.01
   3   8  -1   13.26    1.10
  -2   8   1    5.66    0.73
   2   8  -1    3.57    0.64
  -1   8   1    1.63    0.47
  -1   8   1    2.02    0.52
   1   8  -1    1.49    0.46
   0   8  -1    2.98    0.57
   0   8   1    4.24    0.68
   1   8   1   11.82    1.02
  -1   8  -1   10.98    0.97
  -2   8  -1    1.72    0.51
   2   8   1    1.10    0.43
  -3   8  -1    2.01    0.53
   3   8   1    1.45    0.53
  -4   8  -1    5.08    0.76
   4   8   1    6.97    0.87
  -5   8  -1   20.81    1.26
   5   8   1   22.80    1.35
  -6   8  -1    2.56    0.59
   6   8   1    2.00    0.57
   7   8   1    5.19    0.83
  -7   8  -1    3.15    0.71
  -8  -8  -1    1.00    0.69
   8   8   1    1.98    0.70
  -8   8  -1    1.64    0.59
  -7   9   1    0.43    0.48
   7   9  -1    0.68    0.53
  -6   9   1    5.76    0.90
   6   9  -1    4.86    0.88
   5   9  -1    0.82    0.54
  -5   9   1    0.87    0.53
  -4   9   1    6.04    0.83
   4   9  -1    7.90    1.00
   3   9  -1    0.61    0.45
  -3   9   1   -0.38    0.33
  -2   9   1   15.75    1.22
   2   9  -1   15.83    1.12
  -2   9   1   13.69    1.20
  -1   9   1    2.52    0.58
   1   9  -1    2.57    0.62
   0   9   1    3.11    0.68
   0   9  -1    2.19    0.59
   1   9   1    1.73    0.57
  -1   9  -1    1.41    0.51
  -2   9  -1   17.12    1.35
   2   9   1   13.58    1.19
  -3   9  -1   -0.01    0.39
   3   9   1    0.04    0.42
  -4   9  -1    0.70    0.45
   4   9   1    0.46    0.45
  -5   9  -1   -0.37    0.36
   5   9   1    0.68    0.48
  -6   9  -1    0.52    0.47
   6   9   1    1.18    0.58
  -7   9  -1    4.23    0.89
  -5  10   1    0.50    0.50
  -4  10   1    1.72    0.66
   4  10  -1    0.63    0.53
  -4  10   1    1.17    0.57
   3  10  -1    0.81    0.57
  -3  10   1    0.53    0.48
   2  10  -1    0.14    0.42
  -2  10   1    0.05    0.46
   1  10  -1    0.50    0.46
  -1  10   1    0.96    0.52
   0  10  -1    6.47    0.90
   0  10   1    8.84    1.06
   1  10   1    5.23    0.83
  -1  10  -1    4.02    0.75
  -2  10  -1    3.08    0.71
   2  10   1    3.49    0.74
   3  10   1    2.47    0.71
  -3  10  -1    1.26    0.59
  -4  10  -1    0.42    0.44
   4  10   1   -0.11    0.48
  -5  10  -1   -0.86    0.42
 -13   0   2   -0.44    0.58
 -12   0   2    6.36    1.00
 -11   0   2    0.30    0.50
 -10   0   2   22.99    1.32
  -9   0   2    0.31    0.44
  -8   0   2    1.33    0.47
   6   0  -2    0.43    0.27
   5   0  -2    0.06    0.23
   4   0  -2  164.19    3.37
   3   0  -2    0.02    0.13
   2   0  -2  106.50    2.11
   1   0  -2   -0.10    0.03
   0   0  -2   -0.31    0.01
  -1   0  -2    0.02    0.05
  -2   0  -2   93.81    1.91
  -3   0  -2   -0.15    0.11
  -4   0  -2    0.53    0.27
  -5   0  -2    0.38    0.27
  -6   0  -2    0.22    0.26
  -7   0  -2   -0.55    0.26
  -8   0  -2   24.62    1.23
  -9   0  -2    0.92    0.51
 -10   0  -2   -0.01    0.46
 -11   0  -2   -0.29    0.49
 -12   0  -2    9.96    1.20
 -13   0  -2   -0.79    0.57
 -13  -1   2    0.45    0.62
 -12  -1   2    0.88    0.63
 -12   1   2    0.66    0.61
 -11  -1   2   16.18    1.39
 -11   1   2   18.08    1.22
 -10  -1   2    0.78    0.48
 -10   1   2    0.38    0.44
  -9  -1   2    6.20    0.86
  -9   1   2    7.80    0.84
  -8  -1   2    5.19    0.70
  -8   1   2    5.85    0.71
  -7   1   2   12.09    0.78
   6  -1  -2    9.64    0.59
   6   1  -2    9.18    0.75
   5  -1  -2    0.70    0.24
   5   1  -2    1.22    0.33
   4  -1  -2   15.01    0.62
   4   1  -2   14.69    0.70
   3  -1  -2  146.87    2.84
   3   1  -2  144.06    2.97
   2  -1  -2  148.36    2.76
  -2   1   2  148.85    2.73
   2   1  -2  147.01    2.75
   2   1  -2  146.52    2.89
   1  -1  -2  560.53   11.54
   1   1  -2  716.65   11.61
   1   1  -2  676.70   11.38
  -1   1   2  684.62   11.79
   0  -1  -2  273.13    4.96
   0   1   2  283.26    4.89
   0   1  -2  282.83    4.86
   0   1   2  284.69    4.84
   0   1  -2  278.09    4.96
  -1  -1  -2   26.32    0.66
  -1   1  -2   25.89    0.63
   1   1   2   24.34    0.62
  -1   1  -2   25.31    0.56
   1   1   2   25.86    0.57
  -2  -1  -2  221.11    4.15
  -2   1  -2  216.17    4.01
  -3  -1  -2  191.11    3.77
  -3   1  -2  184.10    3.60
  -4  -1  -2   26.79    1.03
  -4   1  -2   29.65    0.93
  -5  -1  -2    4.21    0.50
  -5   1  -2    4.33    0.46
  -6  -1  -2    7.13    0.67
  -6   1  -2    6.41    0.58
  -7  -1  -2   54.07    1.83
  -7   1  -2   56.58    1.76
  -8  -1  -2    0.41    0.40
  -8   1  -2    1.02    0.40
  -9  -1  -2    7.04    0.85
  -9   1  -2    7.04    0.84
 -10  -1  -2    6.90    0.91
 -10   1  -2    6.43    0.83
 -11  -1  -2    0.37    0.52
 -11   1  -2    0.17    0.49
 -12  -1  -2    3.35    0.83
 -12   1  -2    1.11    0.64
 -13  -1  -2    1.61    0.77
 -12  -2   2    0.87    0.66
 -11  -2   2    0.36    0.55
 -10  -2   2    0.66    0.48
 -10   2   2    0.07    0.42
  -9  -2   2    2.60    0.62
  -9   2   2    3.08    0.57
  -8  -2   2    5.32    0.73
  -8   2   2    4.92    0.61
  -7   2   2    1.21    0.36
   6   2  -2    3.96    0.54
  -6   2   2    3.69    0.44
   5   2  -2   51.97    1.59
  -5   2   2   52.97    1.46
   4  -2  -2   23.92    0.74
  -4   2   2   22.32    0.80
   4   2  -2   23.18    0.84
   4   2  -2   22.02    0.90
   3  -2  -2    8.45    0.36
   3   2  -2    8.38    0.46
  -3   2   2    8.42    0.46
   3   2  -2    7.92    0.49
   2  -2  -2    0.07    0.07
   2   2  -2    0.14    0.13
  -2   2   2    0.15    0.13
   2   2  -2    0.23    0.15
   1  -2  -2  107.22    1.89
   1   2  -2  102.35    2.09
   1   2  -2  106.17    2.10
  -1   2   2  104.74    2.06
   0  -2  -2   38.68    0.83
   0   2  -2   37.58    0.82
   0   2   2   38.61    0.89
   0   2  -2   37.73    0.93
   0   2   2   37.53    0.90
  -1  -2  -2  154.24    2.94
  -1   2  -2  154.85    2.75
   1   2   2  154.56    2.80
   1   2   2  149.17    2.89
  -1   2  -2  151.36    2.91
   2   2   2   73.90    1.65
  -2   2  -2   75.35    1.65
   2   2   2   75.15    1.46
  -2   2  -2   75.44    1.47
  -3  -2  -2   53.67    1.46
  -3   2  -2   52.66    1.34
  -3   2  -2   52.89    1.20
   3   2   2   52.57    1.36
  -4  -2  -2   15.92    0.80
  -4   2  -2   18.68    0.74
  -4   2  -2   15.89    0.63
  -5  -2  -2   57.88    1.75
  -5   2  -2   57.46    1.51
  -6  -2  -2    2.25    0.45
  -6   2  -2    1.93    0.36
  -7  -2  -2   13.89    0.93
  -7   2  -2   13.55    0.80
  -8  -2  -2    0.84    0.44
  -8   2  -2   -0.11    0.33
  -9  -2  -2   12.20    1.13
  -9   2  -2   10.33    0.96
 -10  -2  -2    6.55    0.95
 -10   2  -2    7.87    0.90
 -11  -2  -2    8.91    1.12
 -12  -2  -2    0.89    0.61
 -12  -3   2    0.06    0.64
 -12   3   2   -0.47    0.45
 -11  -3   2    1.60    0.65
 -11   3   2    2.95    0.64
 -10  -3   2   22.80    1.44
 -10   3   2   22.26    1.25
  -9  -3   2    2.62    0.64
  -9   3   2    3.25    0.60
  -8  -3   2    3.79    0.66
  -8   3   2    4.25    0.61
  -7   3   2    6.31    0.64
  -7   3   2    6.94    0.61
  -6   3   2    8.40    0.69
   6   3  -2    8.94    0.77
  -6   3   2    7.73    0.52
  -5   3   2   11.81    0.54
  -5   3   2   11.52    0.64
   5   3  -2   13.87    0.73
   5   3  -2   12.43    0.75
  -4   3   2   20.23    0.63
  -4   3   2   20.56    0.82
   4   3  -2   19.91    0.90
   4   3  -2   21.80    0.87
   3   3  -2  153.79    3.28
  -3   3   2  158.10    2.85
   3   3  -2  156.75    3.21
  -3   3   2  151.55    3.14
   2   3  -2   27.37    0.89
  -2   3   2   28.03    0.89
   2   3  -2   28.41    0.63
   2   3  -2   26.56    0.89
   1  -3  -2    0.26    0.07
   1   3  -2   -0.06    0.17
  -1   3   2    0.04    0.16
   1   3  -2   -0.16    0.14
   0  -3  -2   -0.12    0.11
   0   3   2    0.31    0.17
   0   3  -2    0.15    0.12
   0   3  -2   -0.34    0.15
  -1  -3  -2   65.90    1.46
   1   3   2   64.34    1.37
  -1   3  -2   63.29    1.21
  -1   3  -2   60.48    1.50
   1   3   2   62.76    1.50
  -2  -3  -2   22.21    0.79
   2   3   2   22.27    0.81
   2   3   2   21.92    0.62
  -2   3  -2   22.20    0.80
  -2   3  -2   21.62    0.48
  -3  -3  -2   17.67    0.81
   3   3   2   16.19    0.75
  -3   3  -2   18.23    0.75
  -3   3  -2   17.69    0.51
  -4  -3  -2   10.27    0.70
   4   3   2   10.79    0.63
  -4   3  -2   11.41    0.47
  -4   3  -2   11.41    0.63
  -5  -3  -2   33.26    1.30
  -5   3  -2   30.94    0.96
  -5   3  -2   33.27    1.17
  -6  -3  -2   43.02    1.61
  -6   3  -2   46.03    1.32
  -6   3  -2   42.16    1.44
  -7  -3  -2    2.25    0.58
  -7   3  -2    1.71    0.43
  -7   3  -2    1.59    0.37
  -8  -3  -2   32.51    1.58
  -8   3  -2   34.57    1.42
  -9  -3  -2    0.25    0.43
  -9   3  -2    0.97    0.42
 -10  -3  -2    1.48    0.63
 -10   3  -2    1.11    0.48
 -11  -3  -2   -0.13    0.54
 -11   3  -2    0.19    0.43
 -12  -3  -2    2.35    0.80
 -12   3  -2    2.45    0.69
 -12  -4   2    0.58    0.62
 -12   4   2    0.81    0.58
 -11  -4   2    3.99    0.85
 -11   4   2    4.71    0.79
 -10  -4   2   12.38    1.29
 -10   4   2   13.24    1.16
  -9  -4   2    7.05    0.93
  -9   4   2    6.90    0.82
  -8  -4   2   23.32    1.34
  -8   4   2   22.24    1.14
  -7  -4   2    4.41    0.71
  -7   4   2    5.01    0.62
  -6   4   2    1.18    0.36
   6   4  -2    1.71    0.41
   5   4  -2    0.14    0.29
  -5   4   2   -0.15    0.19
   5   4  -2    0.21    0.28
   4   4  -2   -0.24    0.19
  -4   4   2    0.11    0.20
   4   4  -2   -0.22    0.24
   3   4  -2   24.03    0.95
  -3   4   2   22.47    0.90
   3   4  -2   22.56    0.91
   3   4  -2   22.67    0.55
  -2   4   2   34.37    1.10
   2   4  -2   33.13    0.82
   2   4  -2   33.24    1.11
   2   4  -2   34.81    1.05
   1  -4  -2    7.49    0.25
   1   4  -2    6.73    0.41
  -1   4   2    7.42    0.49
   1   4  -2    6.95    0.49
   0  -4  -2   23.55    0.67
   0   4  -2   23.69    0.66
   0   4  -2   23.29    0.88
   0   4   2   23.30    0.86
  -1  -4  -2   10.80    0.52
   1   4   2   11.75    0.52
  -1   4  -2   12.09    0.63
   1   4   2   11.55    0.62
  -1   4  -2   11.54    0.33
  -2  -4  -2    5.53    0.48
   2   4   2    4.20    0.30
   2   4   2    4.47    0.47
  -2   4  -2    4.23    0.46
  -3  -4  -2   27.07    1.03
  -3   4  -2   25.61    0.98
   3   4   2   26.10    0.71
   3   4   2   24.33    0.97
  -4  -4  -2   52.54    1.64
  -4   4  -2   50.86    1.12
   4   4   2   51.28    1.57
  -4   4  -2   52.24    1.57
  -5  -4  -2    4.88    0.63
   5   4   2    5.41    0.62
  -5   4  -2    4.82    0.54
  -6   4  -2   15.77    0.89
  -7  -4  -2   12.09    1.09
  -7   4  -2   10.53    0.89
  -8  -4  -2    1.06    0.50
  -8   4  -2    1.19    0.47
  -9  -4  -2    0.83    0.54
  -9   4  -2    2.26    0.57
 -10  -4  -2    0.96    0.54
 -10   4  -2    0.49    0.47
 -11  -4  -2    1.91    0.75
 -11   4  -2    2.30    0.68
 -12   4  -2    2.42    0.70
 -11  -5   2   19.47    1.75
 -11   5   2   19.84    1.29
 -10  -5   2    8.49    1.10
 -10   5   2    9.89    1.02
  -9  -5   2    4.59    0.82
  -9   5   2    4.25    0.69
  -8  -5   2   15.79    1.17
  -8   5   2   13.87    0.94
  -7  -5   2    3.73    0.74
  -7   5   2    4.38    0.61
   7   5  -2    4.36    0.68
  -6  -5   2    0.83    0.40
   6   5  -2   -0.08    0.33
  -6   5   2    0.06    0.29
   5   5  -2   -0.40    0.28
  -5   5   2    0.29    0.32
  -4   5   2    0.32    0.26
   4   5  -2    0.34    0.26
   3   5  -2   64.43    1.75
  -3   5   2   63.13    1.78
   3   5  -2   61.07    1.79
   2   5  -2    0.47    0.18
   2   5  -2    0.18    0.25
   2   5  -2    0.13    0.21
  -2   5   2    0.43    0.25
   1   5  -2   45.95    1.43
   1   5  -2   45.41    1.21
  -1   5   2   46.12    1.41
   0  -5  -2   56.83    1.30
   0   5   2   54.06    1.56
   0   5   2   54.43    1.48
   0   5  -2   54.85    1.60
  -1  -5  -2    7.66    0.48
   1   5   2    7.06    0.59
  -1   5  -2    6.58    0.60
   1   5   2    7.51    0.47
  -2  -5  -2   34.32    1.13
   2   5   2   33.92    1.21
   2   5   2   33.79    0.98
  -2   5  -2   35.14    1.23
  -3  -5  -2    4.99    0.55
  -3   5  -2    4.25    0.52
   3   5   2    2.91    0.46
  -4  -5  -2   18.88    0.99
   4   5   2   21.56    1.04
  -4   5  -2   20.59    0.98
  -5  -5  -2   14.52    0.92
  -5   5  -2   14.32    0.86
   5   5   2   15.12    0.91
  -6  -5  -2    3.20    0.58
   6   5   2    2.97    0.54
  -6   5  -2    3.78    0.61
  -7  -5  -2   44.20    1.86
  -7   5  -2   50.80    1.78
  -8  -5  -2   14.24    1.24
  -8   5  -2   13.31    0.96
  -9  -5  -2    0.71    0.55
  -9   5  -2    0.67    0.42
 -10  -5  -2    0.00    0.51
 -10   5  -2    0.56    0.48
 -11  -5  -2    1.81    0.82
 -11   5  -2    1.40    0.58
 -11   6   2    0.52    0.48
 -10  -6   2    1.04    0.60
 -10   6   2    1.23    0.58
  -9  -6   2    3.18    0.78
  -9   6   2    4.24    0.73
  -8  -6   2    1.86    0.61
  -8   6   2    1.87    0.57
  -7  -6   2    0.53    0.49
  -7   6   2    0.07    0.38
   7   6  -2    0.30    0.37
  -6  -6   2    7.64    0.87
  -6   6   2    7.04    0.77
   6   6  -2    5.89    0.75
  -5  -6   2    1.08    0.46
  -5   6   2    1.56    0.44
   5   6  -2    1.49    0.48
  -4  -6   2    0.22    0.32
   4   6  -2    0.65    0.34
  -4   6   2    0.75    0.37
  -3  -6   2    1.90    0.41
   3   6  -2    1.62    0.41
  -3   6   2    1.84    0.42
  -2  -6   2   22.64    0.94
  -2   6   2   23.33    1.04
   2   6  -2   21.64    1.05
   1   6  -2    7.22    0.68
  -1   6   2    5.61    0.59
   0   6  -2    7.31    0.69
   0   6   2    8.10    0.58
   0   6   2    8.07    0.70
   1   6   2    3.85    0.45
  -1   6  -2    5.18    0.61
   1   6   2    3.79    0.51
  -2  -6  -2   26.52    1.04
   2   6   2   26.48    1.14
  -2   6  -2   27.13    1.16
  -3  -6  -2    0.11    0.29
  -3   6  -2   -0.12    0.28
   3   6   2    0.13    0.30
  -4  -6  -2   71.88    2.15
  -4   6  -2   73.64    2.19
   4   6   2   70.18    2.14
  -5  -6  -2   20.72    1.16
   5   6   2   21.78    1.15
  -5   6  -2   22.72    1.17
  -6  -6  -2   -0.16    0.39
   6   6   2    0.01    0.32
  -6   6  -2    0.21    0.34
  -7  -6  -2    1.37    0.53
   7   6   2    0.39    0.42
  -7   6  -2    1.01    0.46
  -8  -6  -2   -0.22    0.38
  -8   6  -2    0.33    0.38
  -9  -6  -2    9.15    1.18
  -9   6  -2   10.12    1.07
 -10  -6  -2   11.50    1.31
 -10   6  -2   10.54    1.15
 -10  -7   2    4.61    0.99
 -10   7   2    2.59    0.71
  -9  -7   2    2.48    0.73
  -9   7   2    1.01    0.55
  -8  -7   2    2.47    0.67
   8   7  -2    2.05    0.60
  -8   7   2    1.29    0.51
  -7  -7   2    0.17    0.47
  -7   7   2    0.37    0.41
   7   7  -2    0.59    0.42
  -6  -7   2    4.46    0.75
  -6   7   2    3.07    0.57
   6   7  -2    4.65    0.72
  -5  -7   2    7.53    0.86
   5   7  -2    7.44    0.85
  -5   7   2    8.17    0.88
   4   7  -2    3.22    0.61
  -4   7   2    4.04    0.65
  -3   7   2   10.80    0.93
   3   7  -2    8.84    0.85
  -2   7   2    2.86    0.56
   2   7  -2    2.54    0.51
   1   7  -2   -0.03    0.31
  -1   7   2    0.05    0.32
  -1   7   2   -0.29    0.27
   0   7   2  108.58    2.86
   0   7  -2  111.40    2.88
   0   7   2  109.25    2.67
   1   7   2   -0.13    0.33
  -1   7  -2    0.36    0.34
  -2   7  -2    1.29    0.46
   2   7   2    1.16    0.39
   3   7   2    6.98    0.77
  -3   7  -2    7.07    0.77
   4   7   2   13.59    0.95
  -4   7  -2   13.60    0.98
  -5  -7  -2   11.17    1.02
   5   7   2   11.04    1.01
  -5   7  -2   11.62    1.01
  -6  -7  -2    0.46    0.50
  -6   7  -2    0.04    0.40
   6   7   2    1.28    0.47
  -7  -7  -2    0.32    0.50
   7   7   2    2.26    0.58
  -7   7  -2    2.66    0.63
  -8  -7  -2   13.88    1.34
  -8   7  -2   12.21    1.16
  -9  -7  -2    0.93    0.63
  -9   7  -2    0.89    0.54
 -10  -7  -2    0.29    0.67
 -10   7  -2   -0.21    0.49
  -9  -8   2    1.36    0.70
  -9   8   2    1.67    0.66
  -8  -8   2   -0.25    0.55
   8   8  -2   -0.08    0.44
  -8   8   2   -0.18    0.44
  -7   8   2    2.88    0.64
   7   8  -2    2.89    0.68
  -6   8   2   15.51    1.11
   6   8  -2   15.24    1.30
   5   8  -2    1.02    0.46
  -5   8   2    1.92    0.52
  -4   8   2   11.31    1.03
   4   8  -2    7.54    0.89
   3   8  -2    1.14    0.43
  -3   8   2    1.18    0.44
  -2   8   2    9.43    0.93
   2   8  -2    9.69    0.93
   1   8  -2   16.00    1.03
  -1   8   2   15.67    1.01
  -1   8   2   15.04    0.94
   0   8  -2    3.58    0.63
   0   8   2    3.02    0.57
  -1   8  -2    1.74    0.53
   1   8   2    1.88    0.54
  -2   8  -2   21.83    1.22
   2   8   2   25.21    1.29
   3   8   2    9.22    0.96
  -3   8  -2    8.07    0.88
  -4   8  -2    3.19    0.61
   4   8   2    2.74    0.60
   5   8   2    0.85    0.46
  -5   8  -2   -0.05    0.43
   6   8   2    1.98    0.63
  -6   8  -2    2.19    0.58
   7   8   2    0.01    0.41
  -7   8  -2    0.41    0.49
  -8  -8  -2   -0.66    0.55
  -8   8  -2   -0.08    0.42
  -7   9   2    0.21    0.47
   7   9  -2    0.84    0.56
  -6   9   2    0.09    0.51
   6   9  -2    0.42    0.49
  -5   9   2    0.52    0.45
   5   9  -2    0.50    0.46
  -4   9   2    6.76    0.86
   4   9  -2    8.75    1.00
  -3   9   2    5.67    0.79
   3   9  -2    4.48    0.76
  -3   9   2    4.90    0.79
   2   9  -2    0.59    0.44
  -2   9   2    1.40    0.50
  -2   9   2    1.06    0.47
   1   9  -2    8.42    0.93
  -1   9   2   10.08    1.06
   0   9   2    1.29    0.49
   0   9  -2    2.41    0.56
  -1   9  -2   15.21    1.10
   1   9   2   16.83    1.14
  -2   9  -2    1.99    0.56
   2   9   2    2.73    0.66
  -3   9  -2    0.31    0.45
   3   9   2    0.18    0.43
   4   9   2   16.82    1.21
  -4   9  -2   19.10    1.25
   5   9   2    1.16    0.56
  -5   9  -2    1.37    0.54
   6   9   2    0.75    0.51
  -6   9  -2   -0.15    0.39
  -7   9  -2    1.48    0.69
  -5  10   2    0.42    0.60
  -5  10   2    0.40    0.55
  -4  10   2    2.26    0.63
  -4  10   2    2.42    0.70
   4  10  -2    2.57    0.71
   3  10  -2    0.38    0.50
  -3  10   2    0.58    0.52
   2  10  -2    0.88    0.51
  -2  10   2    0.34    0.44
  -1  10   2   -0.39    0.45
   1  10  -2   -0.07    0.44
   0  10  -2    1.76    0.63
   0  10   2    1.49    0.55
   1  10   2    0.78    0.50
  -1  10  -2    1.24    0.53
   2  10   2    0.64    0.52
  -2  10  -2    0.67    0.55
   3  10   2   -0.18    0.41
  -3  10  -2    0.15    0.42
  -4  10  -2    3.28    0.72
   4  10   2    5.10    0.85
  -5  10  -2    2.66    0.73
 -13   0   3    2.61    0.84
 -12   0   3    0.67    0.60
 -11   0   3    0.56    0.49
 -10   0   3    0.46    0.42
  -9   0   3   27.95    1.42
   7   0  -3    1.52    0.38
   6   0  -3   -0.29    0.21
   5   0  -3   60.22    1.64
   4   0  -3   -0.11    0.21
   3   0  -3  417.96    7.63
   2   0  -3    0.04    0.12
   1   0  -3    7.44    0.26
  -1   0   3    7.31    0.22
   0   0  -3    0.00    0.02
  -1   0  -3   23.71    0.60
  -2   0  -3   -0.12    0.12
  -3   0  -3   43.81    1.16
  -4   0  -3    0.28    0.24
  -5   0  -3    0.48    0.29
  -6   0  -3   -0.05    0.23
  -7   0  -3    6.68    0.70
  -8   0  -3    0.07    0.41
  -9   0  -3   56.35    2.05
 -10   0  -3   -0.37    0.42
 -11   0  -3   -0.16    0.47
 -12   0  -3    0.44    0.60
 -13   0  -3    2.76    0.86
 -13  -1   3    0.21    0.57
 -12  -1   3    0.32    0.57
 -12   1   3    1.04    0.61
 -11  -1   3    0.14    0.46
 -11   1   3    0.73    0.52
 -10  -1   3    7.48    0.96
 -10   1   3    6.79    0.85
  -9  -1   3    3.34    0.69
  -9   1   3    2.07    0.55
  -8   1   3   59.29    1.92
   7   1  -3   -0.10    0.26
   6  -1  -3    0.46    0.27
   6   1  -3    0.45    0.29
   5  -1  -3   12.15    0.61
   5   1  -3   11.89    0.71
   4  -1  -3   31.88    0.97
   4   1  -3   33.37    1.08
   3  -1  -3   48.12    1.13
   3   1  -3   45.70    1.23
   2  -1  -3   36.18    0.84
  -2  -1   3   36.63    0.69
   2   1  -3   36.14    0.86
  -2   1   3   36.75    0.83
   2   1  -3   37.56    0.95
   1   1  -3  453.28    7.78
   1   1  -3  455.61    8.06
  -1   1   3  451.64    7.73
   0  -1  -3  565.58   10.45
   0   1   3  560.11    9.99
   0   1   3  574.11   10.30
   0   1  -3  586.44   10.54
   0   1  -3  555.95    9.86
  -1  -1  -3   12.91    0.44
  -1   1  -3   12.36    0.38
   1   1   3   12.76    0.38
  -1   1  -3   11.73    0.41
   1   1   3   12.34    0.41
  -2  -1  -3  199.53    3.79
  -2   1  -3  194.77    3.67
  -3  -1  -3    2.64    0.32
  -3   1  -3    2.88    0.28
  -4   1  -3   90.07    2.06
  -5  -1  -3    9.98    0.69
  -5   1  -3   10.86    0.63
  -6  -1  -3   20.71    1.01
  -6   1  -3   22.91    0.98
  -7  -1  -3    2.89    0.54
  -7   1  -3    3.81    0.56
  -8  -1  -3    1.37    0.54
  -8   1  -3    0.86    0.41
  -9  -1  -3   33.51    1.59
  -9   1  -3   32.35    1.49
 -10  -1  -3    5.35    0.88
 -10   1  -3    6.13    0.83
 -11  -1  -3    0.00    0.54
 -11   1  -3    0.61    0.55
 -12  -1  -3    0.91    0.66
 -12   1  -3    0.49    0.60
 -13   2   3    0.03    0.52
 -12  -2   3    7.37    1.13
 -11  -2   3    7.43    1.03
 -10  -2   3    1.20    0.53
 -10   2   3    1.69    0.53
  -9  -2   3    1.81    0.59
  -9   2   3    1.62    0.47
  -8   2   3   24.01    1.14
  -7   2   3    2.58    0.44
   7   2  -3    3.13    0.53
   6   2  -3   60.11    1.84
   5  -2  -3   12.71    0.59
  -5   2   3   12.69    0.64
   5   2  -3   12.97    0.76
   4  -2  -3    0.26    0.18
  -4   2   3    0.18    0.22
   4   2  -3    0.12    0.25
   4   2  -3    0.63    0.24
   3  -2  -3   26.80    0.70
   3   2  -3   27.40    0.92
  -3   2   3   25.33    0.79
   3   2  -3   26.08    0.85
   2  -2  -3    0.45    0.09
   2   2  -3    0.26    0.14
   2   2  -3    0.67    0.16
  -2   2   3    0.42    0.15
   1  -2  -3    8.65    0.25
   1   2  -3    9.51    0.39
   1   2  -3    8.84    0.37
  -1   2   3    8.79    0.35
   0  -2  -3  625.56   11.01
   0   2   3  630.06   10.78
   0   2   3  615.98   10.67
   0   2  -3  613.96   10.71
   0   2  -3  616.91   10.98
  -1  -2  -3   19.51    0.59
  -1   2  -3   18.72    0.46
   1   2   3   19.00    0.59
  -1   2  -3   18.88    0.60
   1   2   3   18.84    0.53
  -2  -2  -3    0.14    0.17
   2   2   3    0.21    0.14
  -2   2  -3    0.25    0.15
  -2   2  -3    0.25    0.10
  -3  -2  -3    0.71    0.27
   3   2   3    0.49    0.23
  -3   2  -3    0.59    0.22
  -3   2  -3    0.76    0.19
  -4  -2  -3  383.79    7.25
  -4   2  -3  371.27    6.93
  -4   2  -3  370.04    6.91
  -5   2  -3   13.89    0.67
  -6  -2  -3   26.11    1.17
  -6   2  -3   24.64    0.98
  -7  -2  -3    0.98    0.43
  -7   2  -3    1.64    0.40
  -8  -2  -3    4.51    0.71
  -8   2  -3    4.71    0.64
  -9  -2  -3    1.24    0.55
  -9   2  -3    1.73    0.48
 -10  -2  -3    7.76    0.98
 -10   2  -3    8.97    0.96
 -11  -2  -3    0.00    0.49
 -12  -2  -3    1.48    0.71
 -12  -3   3   -0.81    0.45
 -12   3   3    0.85    0.49
 -11  -3   3    0.39    0.54
 -11   3   3    0.19    0.48
 -10  -3   3    0.19    0.48
 -10   3   3   -0.30    0.35
  -9  -3   3   -0.09    0.45
  -9   3   3    0.41    0.37
  -8   3   3    1.26    0.41
  -7   3   3   80.05    2.08
   7   3  -3   78.71    2.36
  -7   3   3   81.15    2.18
   6   3  -3    3.29    0.50
  -6   3   3    4.22    0.49
  -6   3   3    2.97    0.39
  -5   3   3    0.05    0.22
   5   3  -3    0.19    0.27
   5   3  -3    0.51    0.25
  -5   3   3   -0.01    0.16
   4   3  -3    5.37    0.53
  -4   3   3    6.89    0.54
   4   3  -3    5.79    0.52
   3  -3  -3    7.09    0.28
   3   3  -3    7.61    0.49
  -3   3   3    7.04    0.46
   3   3  -3    7.83    0.59
   2   3  -3   26.83    0.88
  -2   3   3   27.70    0.86
   2   3  -3   27.09    0.88
   1  -3  -3   32.16    0.67
   1   3  -3   31.89    0.95
  -1   3   3   30.03    0.89
   1   3  -3   30.78    0.87
   0  -3  -3   90.27    1.78
   0   3  -3   86.63    1.76
   0   3  -3   91.02    1.95
   0   3   3   86.69    1.86
   0   3   3   84.46    1.88
  -1  -3  -3    3.07    0.31
  -1   3  -3    2.92    0.34
   1   3   3    3.01    0.34
  -1   3  -3    3.45    0.20
   1   3   3    3.36    0.29
  -2  -3  -3  176.03    3.57
  -2   3  -3  178.42    3.21
   2   3   3  175.00    3.50
  -2   3  -3  166.25    3.49
   2   3   3  185.61    3.30
  -3  -3  -3   73.63    1.88
  -3   3  -3   72.12    1.80
  -3   3  -3   75.49    1.53
   3   3   3   72.71    1.81
  -4  -3  -3   27.39    1.08
   4   3   3   29.11    1.05
  -4   3  -3   27.75    1.02
  -4   3  -3   28.08    0.81
  -5  -3  -3    3.44    0.49
  -5   3  -3    3.18    0.36
  -5   3  -3    3.70    0.47
  -6  -3  -3   24.65    1.20
  -6   3  -3   21.33    0.88
  -6   3  -3   23.69    1.05
  -7  -3  -3    6.67    0.79
  -7   3  -3    5.34    0.62
  -7   3  -3    5.03    0.55
  -8  -3  -3    7.52    0.91
  -8   3  -3    6.08    0.73
  -9  -3  -3   42.82    1.94
  -9   3  -3   43.18    1.71
 -10  -3  -3    8.91    1.09
 -10   3  -3   10.59    1.03
 -11  -3  -3   -0.52    0.52
 -11   3  -3   -0.31    0.38
 -12  -3  -3    0.59    0.71
 -12   3  -3    0.73    0.56
 -12  -4   3    2.56    0.78
 -12   4   3    2.06    0.65
 -11  -4   3    1.65    0.68
 -11   4   3    2.12    0.62
 -10  -4   3    1.94    0.67
 -10   4   3    0.59    0.40
  -9  -4   3    0.45    0.46
  -9   4   3    0.50    0.41
  -8  -4   3    7.62    0.89
  -8   4   3    5.58    0.68
  -7   4   3    9.46    0.80
   6   4  -3   25.84    1.15
  -6   4   3   24.22    1.06
   6   4  -3   26.65    1.22
   5   4  -3   28.89    1.18
  -5   4   3   26.76    1.05
   5   4  -3   26.12    1.09
  -4   4   3   10.73    0.62
  -4   4   3   10.00    0.37
   4   4  -3   10.49    0.65
   4   4  -3    8.88    0.66
   3   4  -3   60.60    1.16
   3   4  -3   56.60    1.62
  -3   4   3   59.63    1.60
   3   4  -3   61.17    1.65
   2   4  -3    0.95    0.25
  -2   4   3    0.87    0.28
   2   4  -3    0.75    0.26
   1  -4  -3   74.86    1.42
  -1   4   3   70.67    1.75
   1   4  -3   71.06    1.79
   1   4  -3   72.12    1.65
   0  -4  -3   29.60    0.80
   0   4  -3   29.38    0.77
   0   4   3   27.55    0.96
   0   4   3   29.53    0.93
   0   4  -3   29.07    0.99
  -1  -4  -3    0.27    0.20
   1   4   3    0.79    0.26
   1   4   3    0.71    0.21
  -1   4  -3    0.87    0.13
  -1   4  -3    1.00    0.28
  -2  -4  -3   19.78    0.79
   2   4   3   17.98    0.78
   2   4   3   18.64    0.63
  -2   4  -3   18.49    0.82
  -3  -4  -3    2.85    0.43
   3   4   3    2.90    0.26
  -3   4  -3    2.53    0.39
   3   4   3    3.13    0.41
  -3   4  -3    2.77    0.17
  -4  -4  -3    3.26    0.51
  -4   4  -3    4.22    0.51
   4   4   3    3.79    0.49
  -4   4  -3    4.04    0.27
  -5  -4  -3   40.24    1.50
  -5   4  -3   40.26    1.39
   5   4   3   39.00    1.40
  -6  -4  -3   31.25    1.40
  -6   4  -3   32.74    1.30
  -7  -4  -3    2.29    0.59
  -7   4  -3    3.25    0.56
  -8  -4  -3    0.83    0.51
  -8   4  -3    1.08    0.42
  -9  -4  -3    1.39    0.56
  -9   4  -3    0.21    0.37
 -10  -4  -3    0.87    0.58
 -10   4  -3    0.30    0.49
 -11  -4  -3   -0.25    0.56
 -11   4  -3   -0.06    0.46
 -12   4  -3    0.17    0.49
 -11  -5   3    1.49    0.68
 -11   5   3    1.55    0.61
 -10  -5   3    1.86    0.69
 -10   5   3    0.00    0.42
  -9  -5   3    9.80    1.12
  -9   5   3   10.41    1.00
  -8  -5   3    3.80    0.71
  -8   5   3    2.67    0.53
  -7  -5   3    0.47    0.46
   7   5  -3    0.89    0.42
  -7   5   3    0.30    0.32
   6   5  -3    1.34    0.42
  -6   5   3    0.23    0.33
  -5   5   3    1.27    0.36
   5   5  -3    2.01    0.46
   5   5  -3    1.33    0.43
  -4   5   3    4.05    0.51
   4   5  -3    2.93    0.46
   4   5  -3    3.61    0.50
   3   5  -3    4.88    0.54
  -3   5   3    5.04    0.53
   3   5  -3    5.67    0.55
   2   5  -3   27.34    0.96
   2   5  -3   27.29    0.79
  -2   5   3   26.64    1.04
   2   5  -3   26.56    1.06
   1   5  -3  137.22    2.90
  -1   5   3  143.22    3.11
   1   5  -3  142.15    3.14
   0  -5  -3    8.22    0.42
   0   5   3    8.94    0.55
   0   5  -3    9.28    0.42
   0   5  -3    8.12    0.58
   0   5   3    9.00    0.68
  -1  -5  -3   16.88    0.69
   1   5   3   17.14    0.81
  -1   5  -3   15.99    0.81
   1   5   3   17.08    0.70
  -2  -5  -3   11.56    0.65
   2   5   3   11.02    0.68
   2   5   3   10.64    0.53
  -2   5  -3   10.45    0.67
  -3  -5  -3    2.43    0.42
  -3   5  -3    1.73    0.39
   3   5   3    2.06    0.39
  -4  -5  -3   -0.06    0.28
   4   5   3   -0.14    0.26
  -4   5  -3   -0.17    0.24
  -5  -5  -3    0.47    0.39
   5   5   3    0.64    0.36
  -5   5  -3    0.09    0.29
  -6  -5  -3   18.97    1.13
   6   5   3   19.04    1.06
  -6   5  -3   19.90    1.06
  -7  -5  -3   79.79    2.59
  -7   5  -3   73.13    2.30
  -8  -5  -3   -0.10    0.42
  -8   5  -3    0.61    0.42
  -9  -5  -3    1.67    0.62
  -9   5  -3    1.97    0.59
 -10  -5  -3    6.40    1.00
 -10   5  -3    9.41    1.02
 -11  -5  -3   -0.51    0.57
 -11   5  -3    0.42    0.56
 -11   6   3    3.21    0.72
 -10  -6   3    0.60    0.58
 -10   6   3    1.13    0.57
  -9  -6   3    4.00    0.82
  -9   6   3    4.78    0.73
  -8  -6   3    0.52    0.50
  -8   6   3    2.01    0.51
  -7  -6   3    5.24    0.80
  -7   6   3    8.02    0.83
   7   6  -3    7.57    0.87
  -6  -6   3    0.17    0.37
  -6   6   3    0.21    0.37
   6   6  -3    0.27    0.34
  -5  -6   3   -0.26    0.31
  -5   6   3   -0.26    0.33
   5   6  -3    0.38    0.34
  -4   6   3   -0.30    0.31
   4   6  -3    0.16    0.35
  -3   6   3    0.35    0.30
   3   6  -3    0.58    0.32
  -2   6   3   15.97    0.86
   2   6  -3   15.76    0.91
   1   6  -3    0.17    0.26
  -1   6   3   -0.03    0.28
   0   6  -3    0.49    0.29
   0   6   3    0.46    0.32
   0   6   3    0.23    0.27
   1   6   3   12.87    0.68
   1   6   3   13.96    0.83
  -1   6  -3   14.03    0.83
  -2  -6  -3    2.90    0.45
  -2   6  -3    2.85    0.51
   2   6   3    3.47    0.51
  -3  -6  -3    0.06    0.30
  -3   6  -3    0.42    0.35
   3   6   3    0.68    0.38
  -4  -6  -3   41.51    1.54
  -4   6  -3   43.84    1.60
   4   6   3   42.19    1.57
  -5  -6  -3    6.82    0.80
   5   6   3    6.54    0.77
  -5   6  -3    7.37    0.82
  -6  -6  -3    0.55    0.44
   6   6   3    0.05    0.39
  -6   6  -3    0.62    0.40
  -7  -6  -3    2.58    0.68
  -7   6  -3    4.57    0.71
   7   6   3    3.62    0.64
  -8  -6  -3    8.61    1.08
  -8   6  -3    7.01    0.92
  -9  -6  -3    2.17    0.74
 -10  -6  -3    0.75    0.62
 -10   6  -3    0.77    0.50
 -10  -7   3   -0.43    0.58
 -10   7   3   -0.09    0.46
  -9  -7   3    2.62    0.74
  -9   7   3    2.79    0.68
  -8  -7   3    0.15    0.44
  -8   7   3    0.39    0.42
   8   7  -3    0.62    0.45
  -7  -7   3    1.44    0.56
   7   7  -3    0.99    0.48
  -7   7   3    0.30    0.42
  -6  -7   3   13.24    1.16
  -6   7   3   13.67    1.10
   6   7  -3   12.78    1.14
  -5  -7   3    3.33    0.61
  -5   7   3    3.10    0.58
   5   7  -3    4.98    0.71
   4   7  -3   25.59    1.27
  -4   7   3   22.89    1.17
  -3   7   3    3.36    0.59
   3   7  -3    3.31    0.59
   2   7  -3    2.85    0.52
  -2   7   3    2.18    0.51
  -1   7   3   38.29    1.41
   1   7  -3   36.76    1.47
  -1   7   3   40.25    1.49
   0   7  -3    1.89    0.45
   0   7   3    3.01    0.50
   0   7   3    3.70    0.59
   1   7   3    0.61    0.41
  -1   7  -3    1.03    0.40
   2   7   3    6.13    0.74
  -2   7  -3    4.98    0.64
   3   7   3    1.28    0.44
  -3   7  -3    0.55    0.41
  -4   7  -3   11.12    0.98
   4   7   3   11.87    0.99
  -5  -7  -3   11.27    1.02
  -5   7  -3   13.80    0.97
   5   7   3   12.23    1.11
  -6  -7  -3   -0.29    0.40
  -6   7  -3   -0.33    0.36
   6   7   3    0.19    0.42
  -7  -7  -3    0.49    0.54
  -7   7  -3    0.12    0.37
   7   7   3   -0.28    0.34
  -8  -7  -3    1.74    0.62
  -8   7  -3    1.59    0.58
  -9  -7  -3    6.06    1.06
  -9   7  -3    4.42    0.79
  -9  -8   3    1.68    0.71
  -9   8   3    3.49    0.78
  -8  -8   3    0.04    0.55
  -8   8   3    0.69    0.53
   8   8  -3   -0.45    0.40
  -7   8   3    1.87    0.59
   7   8  -3    0.77    0.49
   6   8  -3    3.53    0.71
  -6   8   3    2.08    0.59
  -5   8   3   31.26    1.52
   5   8  -3   34.12    1.60
  -4   8   3   20.97    1.22
   4   8  -3   18.63    1.18
  -3   8   3   29.68    1.42
   3   8  -3   27.38    1.38
  -2   8   3    5.29    0.72
  -2   8   3    4.07    0.68
   2   8  -3    4.26    0.67
   1   8  -3    1.28    0.44
  -1   8   3    2.12    0.50
  -1   8   3    2.70    0.54
   0   8  -3   -0.12    0.33
   0   8   3    0.08    0.34
   1   8   3   12.79    1.06
  -1   8  -3    8.32    0.86
  -2   8  -3    0.26    0.34
   2   8   3    0.21    0.35
   3   8   3    1.82    0.50
  -3   8  -3    2.27    0.57
   4   8   3    0.28    0.41
  -4   8  -3   -0.33    0.34
  -5   8  -3    9.04    1.02
   5   8   3   10.18    1.09
  -6   8  -3   17.01    1.18
   6   8   3   18.74    1.26
  -7   8  -3    2.26    0.62
   7   8   3    1.74    0.66
  -8  -8  -3   -0.74    0.54
  -8   8  -3    0.50    0.55
  -7   9   3    0.92    0.56
   7   9  -3    0.06    0.45
   6   9  -3    0.30    0.46
  -6   9   3    0.55    0.47
   5   9  -3    1.02    0.48
  -5   9   3    0.36    0.45
  -4   9   3    3.15    0.66
   4   9  -3    2.13    0.56
  -4   9   3    3.58    0.72
   3   9  -3   11.76    1.15
  -3   9   3   11.93    1.10
  -3   9   3   12.22    1.13
  -2   9   3   16.74    1.30
  -2   9   3   15.75    1.07
   2   9  -3   14.30    1.22
   1   9  -3    2.99    0.61
  -1   9   3    2.02    0.54
   0   9  -3    0.02    0.40
   0   9   3    0.83    0.44
  -1   9  -3    2.62    0.61
   1   9   3    4.32    0.72
  -2   9  -3    2.92    0.64
   2   9   3    2.51    0.60
  -3   9  -3    1.59    0.57
   3   9   3    1.36    0.53
   4   9   3    4.76    0.78
  -4   9  -3    6.03    0.86
   5   9   3    8.33    1.02
  -5   9  -3    9.36    1.07
   6   9   3    1.97    0.69
  -6   9  -3    1.37    0.57
  -7   9  -3   11.01    1.21
  -5  10   3    4.11    0.77
  -5  10   3    4.28    0.84
   4  10  -3    1.57    0.62
  -4  10   3    0.40    0.53
  -4  10   3    2.09    0.66
  -3  10   3    0.66    0.47
   3  10  -3    0.35    0.46
  -2  10   3    2.62    0.67
   2  10  -3    2.06    0.64
   1  10  -3    2.41    0.70
  -1  10   3    2.62    0.65
   0  10   3   -0.03    0.39
   0  10  -3   -0.74    0.38
  -1  10  -3    2.73    0.67
   1  10   3    1.51    0.56
   2  10   3    2.43    0.65
  -2  10  -3    3.40    0.76
   3  10   3    4.79    0.83
  -3  10  -3    3.79    0.75
  -4  10  -3    2.97    0.73
   4  10   3    1.52    0.64
  -5  10  -3   -0.15    0.51
 -13   0   4    1.52    0.77
 -12   0   4    6.92    1.03
 -11   0   4    0.17    0.50
 -10   0   4   -0.18    0.41
  -9   0   4   -0.62    0.35
   8   0  -4   38.93    1.49
   7   0  -4    0.00    0.26
   6   0  -4    1.69    0.35
   5   0  -4   -0.21    0.24
   4   0  -4   42.27    1.21
   3   0  -4    0.09    0.15
   2   0  -4   75.49    1.59
  -1   0   4   -0.05    0.05
   1   0  -4   -0.02    0.07
   0   0  -4  208.30    3.79
  -1   0  -4   -0.03    0.08
  -2   0  -4   12.73    0.48
  -3   0  -4    0.12    0.15
  -4   0  -4   13.36    0.67
  -5   0  -4    0.07    0.27
  -6   0  -4   64.15    1.89
  -7   0  -4   -0.23    0.27
  -8   0  -4    9.54    0.90
  -9   0  -4    0.49    0.42
 -10   0  -4    5.40    0.80
 -11   0  -4   -0.25    0.51
 -12   0  -4    3.78    0.89
 -13  -1   4    7.04    1.16
 -12  -1   4    7.64    1.08
 -12   1   4    7.05    0.98
 -11  -1   4    8.42    1.08
 -11   1   4    8.37    0.98
 -10  -1   4    0.01    0.42
 -10   1   4    0.08    0.38
  -9  -1   4   -0.35    0.36
  -9   1   4    0.36    0.42
   8   1  -4    1.62    0.46
   7  -1  -4    1.52    0.36
   7   1  -4    1.94    0.44
   6  -1  -4    0.64    0.28
   6   1  -4    0.42    0.31
   5  -1  -4  126.37    2.77
   5   1  -4  128.37    2.92
   4  -1  -4  285.12    5.43
   4   1  -4  288.19    5.58
   3  -1  -4   43.62    1.09
   3   1  -4   45.01    1.20
  -2  -1   4   84.48    1.52
   2  -1  -4   83.49    1.70
  -2   1   4   82.78    1.62
   2   1  -4   84.92    1.68
   2   1  -4   86.46    1.82
   1  -1  -4   26.62    0.64
  -1   1   4   26.70    0.59
   1   1  -4   27.03    0.71
   1   1  -4   26.79    0.64
  -1   1   4   27.83    0.70
   0  -1  -4   10.23    0.34
   0   1   4    9.86    0.29
   0   1   4   10.16    0.34
   0   1  -4   10.15    0.34
   0   1  -4    9.63    0.32
  -1  -1  -4   63.76    1.38
   1   1   4   62.39    1.28
  -1   1  -4   64.67    1.31
  -1   1  -4   63.42    1.32
   1   1   4   64.29    1.30
  -2  -1  -4   70.87    1.61
  -2   1  -4   72.80    1.53
  -3  -1  -4  244.37    4.80
  -3   1  -4  249.24    4.68
  -4  -1  -4    1.33    0.33
  -4   1  -4    0.80    0.28
  -5  -1  -4   16.33    0.84
  -5   1  -4   19.26    0.82
  -6  -1  -4    0.25    0.28
  -6   1  -4    1.08    0.33
  -7  -1  -4    2.00    0.52
  -7   1  -4    2.69    0.46
  -8  -1  -4    9.05    0.92
  -8   1  -4   11.44    0.96
  -9  -1  -4    0.25    0.42
  -9   1  -4    0.32    0.38
 -10  -1  -4    0.61    0.50
 -10   1  -4   -0.19    0.41
 -11  -1  -4    0.99    0.62
 -11   1  -4    0.96    0.56
 -12  -1  -4   10.33    1.28
 -12   1  -4    7.90    1.09
 -13   2   4    8.45    1.04
 -12  -2   4    1.74    0.68
 -11  -2   4    8.66    1.10
 -10  -2   4   -0.33    0.41
 -10   2   4   -0.46    0.35
  -9  -2   4   -0.07    0.38
  -9   2   4   -0.01    0.35
  -8   2   4   34.02    1.35
   8   2  -4   33.36    1.46
   7   2  -4    2.69    0.52
   6  -2  -4   21.73    0.88
   6   2  -4   21.92    1.02
   5  -2  -4    5.77    0.43
  -5   2   4    6.81    0.53
   5   2  -4    6.32    0.59
  -4  -2   4    4.57    0.18
   4  -2  -4    4.94    0.35
   4   2  -4    6.17    0.44
   4   2  -4    5.53    0.52
  -4   2   4    5.08    0.42
   3  -2  -4  119.24    2.31
   3   2  -4  116.27    2.42
  -3   2   4  116.54    2.37
   3   2  -4  116.06    2.56
   2  -2  -4    0.93    0.13
   2   2  -4    0.90    0.18
  -2   2   4    0.83    0.16
   2   2  -4    0.87    0.20
   1  -2  -4   11.13    0.33
   1   2  -4   11.07    0.43
   1   2  -4   11.65    0.44
  -1   2   4   11.69    0.41
   0  -2  -4   23.29    0.60
   0   2  -4   23.73    0.60
   0   2  -4   20.97    0.65
   0   2   4   21.96    0.63
   0   2   4   21.80    0.61
  -1  -2  -4    9.46    0.40
  -1   2  -4    9.49    0.32
   1   2   4    9.97    0.41
  -1   2  -4    9.32    0.41
   1   2   4    9.58    0.36
  -2  -2  -4   60.32    1.50
   2   2   4   63.15    1.45
  -2   2  -4   62.08    1.46
  -2   2  -4   63.96    1.33
  -3  -2  -4  118.08    2.62
  -3   2  -4  119.58    2.39
   3   2   4  115.16    2.49
  -3   2  -4  117.91    2.50
  -4  -2  -4    4.45    0.52
  -4   2  -4    4.71    0.46
  -4   2  -4    5.11    0.42
  -5  -2  -4  120.99    2.93
  -5   2  -4  120.56    2.66
  -6  -2  -4    0.26    0.31
  -6   2  -4    0.59    0.27
  -7  -2  -4   16.90    1.04
  -7   2  -4   16.28    0.88
  -8  -2  -4   16.14    1.09
  -8   2  -4   15.73    0.95
  -9  -2  -4   21.02    1.30
  -9   2  -4   18.62    1.11
 -10  -2  -4    0.04    0.53
 -10   2  -4    0.04    0.44
 -11  -2  -4    1.49    0.63
 -12  -2  -4    1.14    0.70
 -12  -3   4    0.90    0.63
 -12   3   4    1.19    0.58
 -11  -3   4    0.91    0.58
 -11   3   4    0.55    0.47
 -10  -3   4    6.10    0.94
 -10   3   4    6.05    0.77
  -9  -3   4    0.36    0.45
  -9   3   4    1.35    0.46
   8   3  -4   14.60    1.00
  -8   3   4   13.44    0.84
  -7   3   4   -0.22    0.24
   7   3  -4    0.17    0.36
  -7   3   4    0.43    0.29
  -6   3   4    1.86    0.35
   6   3  -4    1.90    0.42
   5  -3  -4    3.05    0.32
   5   3  -4    2.87    0.41
   5   3  -4    3.05    0.46
  -5   3   4    3.53    0.41
   4  -3  -4   44.13    1.03
   4   3  -4   42.27    1.27
   4   3  -4   39.58    1.32
  -4   3   4   41.62    1.21
   3  -3  -4    1.22    0.16
   3   3  -4    0.97    0.28
   3   3  -4    1.34    0.31
  -3   3   4    0.99    0.24
   2  -3  -4   16.49    0.42
   2   3  -4   16.86    0.68
   2   3  -4   16.72    0.68
  -2   3   4   17.64    0.66
   1  -3  -4    0.94    0.13
  -1   3   4    0.67    0.20
   1   3  -4    0.76    0.23
   1   3  -4    1.09    0.22
   0  -3  -4   27.85    0.75
   0   3  -4   28.34    0.73
   0   3  -4   28.96    0.89
   0   3   4   26.29    0.80
   0   3   4   27.62    0.83
  -1  -3  -4    7.04    0.41
  -1   3  -4    7.08    0.30
  -1   3  -4    7.07    0.46
   1   3   4    7.76    0.44
   1   3   4    7.69    0.40
  -2  -3  -4   99.23    2.26
   2   3   4   99.46    2.23
   2   3   4  100.36    2.04
  -2   3  -4  103.40    1.95
  -2   3  -4  101.32    2.25
  -3  -3  -4    3.41    0.44
  -3   3  -4    3.89    0.29
  -3   3  -4    4.08    0.45
   3   3   4    3.83    0.43
  -4  -3  -4  193.83    4.06
  -4   3  -4  187.42    3.87
   4   3   4  180.33    3.84
  -4   3  -4  183.79    3.61
  -5  -3  -4    0.94    0.38
  -5   3  -4    1.84    0.36
  -5   3  -4    1.53    0.28
  -6  -3  -4    1.05    0.40
  -6   3  -4    0.33    0.27
  -6   3  -4    0.60    0.27
  -7  -3  -4    3.81    0.64
  -7   3  -4    4.72    0.64
  -7   3  -4    5.07    0.57
  -8  -3  -4   13.97    1.18
  -8   3  -4   13.52    0.95
  -9  -3  -4   13.16    1.21
  -9   3  -4   13.28    1.10
 -10  -3  -4    0.51    0.51
 -10   3  -4    0.10    0.37
 -11  -3  -4    3.42    0.85
 -11   3  -4    3.27    0.69
 -12  -3  -4    5.57    1.12
 -12   3  -4    7.19    1.04
 -12  -4   4    4.50    1.00
 -12   4   4    4.77    0.81
 -11  -4   4    1.44    0.64
 -11   4   4    0.51    0.47
 -10  -4   4   18.19    1.55
 -10   4   4   15.93    1.07
  -9  -4   4    0.33    0.46
  -9   4   4   -0.42    0.33
  -8   4   4    2.14    0.46
   7   4  -4    1.70    0.48
  -7   4   4    2.62    0.48
   6   4  -4   20.37    1.11
  -6   4   4   20.10    0.96
   6   4  -4   20.83    1.01
   5   4  -4    0.93    0.32
  -5   4   4    1.03    0.32
   5   4  -4    0.53    0.31
   4   4  -4   74.20    2.01
   4   4  -4   67.45    1.89
  -4   4   4   73.40    1.47
  -4   4   4   75.77    1.90
   3   4  -4   25.66    0.98
   3   4  -4   25.62    0.56
   3   4  -4   25.04    0.98
  -3   4   4   26.84    0.96
   2   4  -4    0.30    0.23
  -2   4   4    0.58    0.26
   2   4  -4    0.42    0.21
   1  -4  -4    6.18    0.28
   1   4  -4    6.11    0.40
  -1   4   4    6.14    0.52
   1   4  -4    5.98    0.51
   0  -4  -4  103.49    2.14
   0   4   4  103.40    2.26
   0   4   4  107.26    2.33
   0   4  -4  103.67    2.12
   0   4  -4  103.11    2.36
  -1  -4  -4    0.39    0.20
   1   4   4   -0.13    0.16
   1   4   4   -0.01    0.20
  -1   4  -4   -0.10    0.10
  -1   4  -4   -0.12    0.20
  -2  -4  -4    0.29    0.22
   2   4   4    0.43    0.25
  -2   4  -4    0.42    0.10
  -2   4  -4    0.22    0.22
   2   4   4    0.43    0.18
  -3  -4  -4   37.75    1.26
  -3   4  -4   37.26    0.84
   3   4   4   37.12    0.98
  -3   4  -4   38.74    1.25
   3   4   4   37.18    1.23
  -4  -4  -4    3.66    0.52
  -4   4  -4    3.69    0.48
  -4   4  -4    3.27    0.27
   4   4   4    3.51    0.49
  -5  -4  -4    4.08    0.58
   5   4   4    4.55    0.55
  -5   4  -4    4.89    0.57
  -6  -4  -4    0.19    0.37
  -6   4  -4    1.19    0.39
  -7  -4  -4    3.37    0.69
  -7   4  -4    3.72    0.59
  -8  -4  -4   20.66    1.30
  -8   4  -4   19.18    1.11
  -9   4  -4   35.78    1.58
 -10  -4  -4   -0.48    0.45
 -10   4  -4    0.36    0.41
 -11  -4  -4    0.73    0.68
 -11   4  -4    0.85    0.50
 -12   4  -4    2.34    0.70
 -11  -5   4    0.68    0.59
 -11   5   4    0.79    0.53
 -10  -5   4   11.62    1.31
 -10   5   4   10.09    1.03
  -9  -5   4    1.17    0.55
  -9   5   4    0.52    0.37
  -8  -5   4    3.18    0.70
  -8   5   4    4.23    0.65
  -7   5   4   28.79    1.28
   7   5  -4   26.06    1.28
  -6   5   4    3.64    0.53
   6   5  -4    4.81    0.65
   6   5  -4    5.48    0.70
   5   5  -4    4.79    0.64
  -5   5   4    3.43    0.50
   5   5  -4    4.25    0.58
   4   5  -4    3.55    0.52
  -4   5   4    3.33    0.46
   4   5  -4    3.19    0.49
   3   5  -4    7.85    0.67
  -3   5   4    8.25    0.67
   3   5  -4    8.56    0.60
   2   5  -4   45.72    1.34
   2   5  -4   46.59    1.46
  -2   5   4   46.65    1.42
   1   5  -4    1.12    0.25
  -1   5   4    1.30    0.33
   1   5  -4    1.47    0.33
  -1   5   4    0.77    0.28
   0  -5  -4   40.74    1.06
   0   5  -4   40.85    1.03
   0   5  -4   39.17    1.31
   0   5   4   40.65    1.23
   0   5   4   41.25    1.29
  -1  -5  -4  120.11    2.60
  -1   5  -4  120.43    2.30
   1   5   4  120.55    2.76
  -1   5  -4  116.17    2.78
   1   5   4  122.70    2.60
  -2  -5  -4    0.08    0.24
   2   5   4    0.18    0.22
  -2   5  -4    0.51    0.29
   2   5   4   -0.21    0.15
  -3  -5  -4    7.95    0.67
  -3   5  -4    6.85    0.64
   3   5   4    6.03    0.61
  -4  -5  -4    1.30    0.42
  -4   5  -4    1.00    0.35
   4   5   4    1.24    0.38
  -5  -5  -4   29.11    1.34
  -5   5  -4   29.85    1.26
   5   5   4   31.45    1.31
  -6  -5  -4    1.76    0.54
   6   5   4    1.80    0.48
  -6   5  -4    1.44    0.44
  -7  -5  -4   10.43    1.07
  -7   5  -4   11.17    0.98
  -8  -5  -4    0.69    0.49
  -8   5  -4    0.65    0.42
  -9  -5  -4    9.43    1.15
  -9   5  -4    9.75    1.02
 -10  -5  -4    4.64    0.91
 -10   5  -4    5.42    0.84
 -11  -5  -4    1.63    0.74
 -11   5  -4    1.93    0.65
 -11   6   4    7.24    0.99
 -10  -6   4    3.57    0.84
 -10   6   4    4.43    0.80
  -9  -6   4    2.45    0.71
  -9   6   4    2.60    0.62
  -8  -6   4    0.79    0.52
  -8   6   4    0.75    0.40
  -7  -6   4    4.21    0.76
   7   6  -4    2.89    0.59
  -7   6   4    4.30    0.66
  -6  -6   4    0.30    0.38
  -6   6   4   -0.20    0.29
   6   6  -4   -0.13    0.28
  -5   6   4    0.20    0.35
   5   6  -4    0.16    0.30
   4   6  -4   48.89    1.62
   4   6  -4   48.89    1.70
  -4   6   4   45.13    1.60
  -3   6   4   31.91    1.27
   3   6  -4   32.20    1.32
   3   6  -4   32.50    1.22
  -2   6   4   35.43    1.32
   2   6  -4   31.39    1.28
   2   6  -4   36.26    1.17
   1   6  -4    7.38    0.48
  -1   6   4    9.25    0.67
  -1   6   4    6.86    0.65
   1   6  -4    8.55    0.76
   0   6  -4    3.61    0.52
   0   6   4    3.87    0.49
   0   6   4    3.60    0.49
   1   6   4    0.04    0.27
   1   6   4    0.07    0.23
  -1   6  -4   -0.14    0.26
  -2  -6  -4   19.45    0.88
  -2   6  -4   18.06    0.96
   2   6   4   18.02    0.95
  -3  -6  -4   27.98    1.16
   3   6   4   25.10    1.16
  -3   6  -4   26.67    1.19
  -4  -6  -4    5.44    0.68
  -4   6  -4    5.34    0.67
   4   6   4    5.19    0.66
  -5  -6  -4    5.42    0.72
  -5   6  -4    4.13    0.64
   5   6   4    3.76    0.60
  -6  -6  -4    2.88    0.63
   6   6   4    4.09    0.69
  -6   6  -4    3.37    0.63
  -7  -6  -4   20.91    1.36
  -7   6  -4   22.06    1.23
  -8  -6  -4    2.19    0.71
  -8   6  -4    2.32    0.59
  -9  -6  -4    0.37    0.58
  -9   6  -4    0.97    0.50
 -10  -6  -4    0.01    0.54
 -10   6  -4   -0.11    0.40
 -10  -7   4    0.99    0.67
 -10   7   4    1.15    0.60
  -9  -7   4    0.10    0.54
  -9   7   4   -0.20    0.47
  -8  -7   4    0.53    0.50
  -8   7   4    0.91    0.48
   8   7  -4    0.24    0.45
  -7  -7   4   12.74    1.20
   7   7  -4   13.48    1.20
  -7   7   4   13.18    1.14
  -6  -7   4    0.42    0.43
  -6   7   4    0.24    0.35
   6   7  -4    0.32    0.41
  -5  -7   4    6.42    0.78
  -5   7   4    5.93    0.74
   5   7  -4    6.10    0.80
  -4   7   4    4.76    0.66
   4   7  -4    4.19    0.63
   3   7  -4   20.42    1.11
  -3   7   4   22.01    1.14
   2   7  -4    0.45    0.39
  -2   7   4    0.09    0.32
  -2   7   4   -0.33    0.30
  -1   7   4    4.53    0.61
   1   7  -4    5.85    0.71
  -1   7   4    6.42    0.68
   0   7   4    0.32    0.33
   0   7   4    0.14    0.29
   0   7  -4   -0.04    0.27
  -1   7  -4   14.99    0.94
   1   7   4   14.51    0.91
  -2   7  -4   21.04    1.11
   2   7   4   19.85    1.10
   3   7   4   34.54    1.47
  -3   7  -4   35.40    1.48
   4   7   4    0.16    0.33
  -4   7  -4    0.23    0.34
  -5  -7  -4   23.81    1.29
  -5   7  -4   21.72    1.22
   5   7   4   24.23    1.29
  -6  -7  -4    0.70    0.48
   6   7   4    0.58    0.44
  -6   7  -4    0.70    0.47
  -7  -7  -4    1.65    0.64
   7   7   4    2.56    0.62
  -7   7  -4    1.79    0.55
  -8  -7  -4    0.98    0.56
  -8   7  -4   -0.07    0.44
  -9  -7  -4    4.75    0.98
  -9   7  -4    5.95    0.92
  -9  -8   4    1.79    0.74
  -9   8   4    0.46    0.54
  -8  -8   4    3.14    0.83
   8   8  -4    2.29    0.65
  -8   8   4    3.17    0.70
  -7   8   4    0.40    0.48
   7   8  -4    0.35    0.43
   6   8  -4   16.29    1.36
  -6   8   4   15.14    1.08
   5   8  -4    1.91    0.56
  -5   8   4    2.32    0.57
   4   8  -4    3.63    0.71
  -4   8   4    3.00    0.57
  -3   8   4    2.61    0.58
   3   8  -4    2.37    0.54
  -3   8   4    2.93    0.60
   2   8  -4    6.80    0.82
  -2   8   4    5.75    0.71
  -2   8   4    6.56    0.79
  -1   8   4    2.95    0.55
  -1   8   4    3.73    0.61
   1   8  -4    2.80    0.56
   0   8  -4    1.07    0.46
   0   8   4    1.61    0.47
   1   8   4   24.74    1.27
  -1   8  -4   19.87    1.16
  -2   8  -4    5.59    0.79
   2   8   4    3.57    0.62
  -3   8  -4    1.18    0.45
   3   8   4    0.74    0.44
   4   8   4   14.52    1.04
  -4   8  -4   11.12    1.05
  -5   8  -4    0.56    0.51
   5   8   4    1.60    0.52
   6   8   4    1.02    0.55
  -6   8  -4    0.57    0.43
  -7   8  -4   -0.02    0.41
   7   8   4    0.48    0.47
  -8  -8  -4    0.12    0.59
  -8   8  -4   -0.12    0.46
  -7   9   4    0.12    0.47
   7   9  -4   -0.34    0.41
   6   9  -4    1.14    0.56
  -6   9   4    1.33    0.58
   5   9  -4    2.06    0.59
  -5   9   4    2.84    0.63
  -5   9   4    3.03    0.71
   4   9  -4    3.73    0.76
  -4   9   4    3.74    0.72
  -4   9   4    4.42    0.75
  -3   9   4    3.84    0.69
   3   9  -4    2.92    0.64
  -3   9   4    4.00    0.72
  -2   9   4    3.74    0.65
  -2   9   4    3.41    0.69
   2   9  -4    3.34    0.66
   1   9  -4    1.45    0.54
  -1   9   4    3.11    0.62
   0   9   4   10.93    1.07
   0   9  -4    8.46    0.96
   1   9   4   11.30    1.09
  -1   9  -4   10.24    1.01
  -2   9  -4    2.29    0.59
   2   9   4    1.30    0.48
  -3   9  -4    0.33    0.45
   3   9   4    0.15    0.41
  -4   9  -4   -0.13    0.35
   4   9   4    0.45    0.46
   5   9   4    1.88    0.67
  -5   9  -4    1.44    0.56
   6   9   4    0.98    0.52
  -6   9  -4    1.05    0.53
  -7   9  -4    2.56    0.69
  -5  10   4    1.85    0.65
  -5  10   4    2.17    0.72
   4  10  -4    5.90    0.96
  -4  10   4    4.80    0.81
  -4  10   4    4.38    0.84
   3  10  -4    6.35    0.93
  -3  10   4    7.56    0.97
   2  10  -4    0.67    0.56
  -2  10   4    0.00    0.47
  -1  10   4    8.01    1.01
   1  10  -4    8.85    1.05
   0  10  -4    0.77    0.50
   0  10   4    1.11    0.55
   1  10   4    0.45    0.51
  -1  10  -4    0.94    0.54
   2  10   4    0.22    0.49
  -2  10  -4    0.11    0.47
  -3  10  -4    5.26    0.85
   3  10   4    4.31    0.81
  -4  10  -4    1.10    0.55
   4  10   4    2.03    0.63
 -13   0   5   -0.61    0.57
 -12   0   5    0.31    0.55
 -11   0   5   17.35    1.42
 -10   0   5   -0.03    0.39
   8   0  -5    0.04    0.36
   7   0  -5   46.59    1.58
   6   0  -5   -0.04    0.23
   5   0  -5   44.83    1.34
   4   0  -5    0.05    0.21
   3   0  -5   11.55    0.50
  -2   0   5   -0.02    0.08
   2   0  -5    0.19    0.11
  -1   0   5  765.41   13.58
   1   0  -5  712.82   13.18
   1   0  -5  767.85   12.83
   0   0  -5   -0.30    0.07
  -1   0  -5    1.86    0.22
  -2   0  -5   -0.20    0.09
  -3   0  -5   52.74    1.36
  -4   0  -5   -0.03    0.23
  -5   0  -5   39.42    1.30
  -6   0  -5   -0.18    0.24
  -7   0  -5   58.23    1.88
  -8   0  -5    0.15    0.42
  -9   0  -5    2.80    0.62
 -10   0  -5    0.54    0.52
 -11   0  -5   17.06    1.43
 -12   0  -5   -0.25    0.57
 -13  -1   5    4.56    0.97
 -12  -1   5    1.30    0.67
 -12   1   5    0.57    0.58
 -11  -1   5    2.48    0.71
 -11   1   5    2.39    0.66
 -10  -1   5   -0.73    0.38
 -10   1   5    0.39    0.38
  -9   1   5    3.04    0.62
   9   1  -5    4.38    0.67
   8  -1  -5    1.98    0.48
   8   1  -5    1.21    0.48
   7  -1  -5    2.63    0.46
   7   1  -5    2.09    0.44
   6  -1  -5    0.56    0.28
   6   1  -5    0.82    0.31
   5  -1  -5   42.55    1.26
   5   1  -5   42.65    1.35
   4  -1  -5  262.28    4.94
   4   1  -5  249.84    5.04
   3  -1  -5   60.17    1.41
  -3  -1   5   63.12    1.21
   3   1  -5   59.92    1.36
   3   1  -5   63.16    1.53
  -2  -1   5  239.33    4.17
   2  -1  -5  231.50    4.40
   2   1  -5  244.24    4.53
   2   1  -5  240.50    4.26
  -2   1   5  240.22    4.20
   1  -1  -5   29.17    0.71
   1   1  -5   27.93    0.66
  -1   1   5   29.15    0.61
   1   1  -5   29.10    0.77
  -1   1   5   28.79    0.73
   0  -1  -5   73.40    1.52
   0   1  -5   76.34    1.53
   0   1   5   74.70    1.39
   0   1   5   74.53    1.51
   0   1  -5   72.67    1.44
  -1  -1  -5  308.64    5.66
  -1   1  -5  308.72    5.59
   1   1   5  309.29    5.42
   1   1   5  306.10    5.48
  -1   1  -5  311.75    5.45
  -2  -1  -5   63.80    1.50
  -2   1  -5   63.51    1.41
  -3  -1  -5   16.46    0.70
  -3   1  -5   15.89    0.62
  -4  -1  -5    0.60    0.31
  -4   1  -5    0.78    0.28
  -5  -1  -5   12.00    0.73
  -5   1  -5   12.13    0.67
  -6  -1  -5    4.57    0.58
  -6   1  -5    5.32    0.59
  -7  -1  -5    3.81    0.60
  -7   1  -5    3.50    0.53
  -8  -1  -5   10.61    0.98
  -8   1  -5   10.58    0.92
  -9  -1  -5   15.30    1.28
  -9   1  -5   15.55    1.03
 -10  -1  -5    8.16    1.04
 -10   1  -5    8.28    0.98
 -11  -1  -5    6.08    0.94
 -11   1  -5    5.03    0.87
 -12  -1  -5    0.40    0.62
 -12   1  -5   -0.43    0.46
 -13   2   5    0.38    0.50
 -12  -2   5    5.72    0.97
 -12   2   5    4.58    0.78
 -11  -2   5   14.87    1.38
 -10  -2   5    4.05    0.76
 -10   2   5    5.21    0.75
  -9   2   5    1.26    0.45
   8   2  -5   45.45    1.74
   7  -2  -5    1.95    0.40
   7   2  -5    2.21    0.54
   6  -2  -5   18.28    0.79
   6   2  -5   17.36    0.92
  -5  -2   5   11.53    0.37
   5  -2  -5   12.22    0.59
   5   2  -5   12.83    0.73
  -5   2   5   12.87    0.61
   4  -2  -5   16.35    0.62
  -4  -2   5   16.63    0.37
   4   2  -5   16.29    0.70
  -4   2   5   15.97    0.63
   4   2  -5   16.11    0.80
   3  -2  -5   37.43    0.94
   3   2  -5   37.59    1.03
  -3   2   5   37.97    0.98
   3   2  -5   36.47    1.13
   2  -2  -5    2.54    0.20
   2   2  -5    2.37    0.28
  -2   2   5    3.21    0.26
   2   2  -5    2.48    0.26
   1  -2  -5   54.02    1.13
  -1   2   5   57.21    1.18
   1   2  -5   55.13    1.26
  -1   2   5   51.67    1.25
   1   2  -5   51.43    1.21
   0  -2  -5  237.75    4.39
   0   2  -5  231.11    4.33
   0   2   5  242.70    4.27
   0   2  -5  240.44    4.38
   0   2   5  237.22    4.36
  -1  -2  -5   93.96    1.95
   1   2   5   90.57    1.87
  -1   2  -5   94.17    1.82
   1   2   5   90.89    1.85
  -1   2  -5   87.20    1.89
  -2  -2  -5   59.60    1.48
  -2   2  -5   61.93    1.44
  -2   2  -5   57.14    1.29
   2   2   5   57.72    1.39
  -3  -2  -5    0.20    0.26
  -3   2  -5    1.07    0.22
  -3   2  -5    0.87    0.26
  -4  -2  -5    0.14    0.25
  -4   2  -5    0.04    0.22
  -4   2  -5   -0.11    0.18
  -5  -2  -5   10.05    0.71
  -5   2  -5   10.20    0.59
  -6  -2  -5    0.25    0.32
  -6   2  -5    0.31    0.25
  -7  -2  -5    6.33    0.78
  -7   2  -5    7.55    0.70
  -8  -2  -5   -0.28    0.43
  -8   2  -5    0.23    0.34
  -9  -2  -5    1.40    0.55
  -9   2  -5    2.02    0.53
 -10  -2  -5   -0.07    0.46
 -10   2  -5    0.07    0.44
 -11  -2  -5   -0.17    0.50
 -12  -2  -5    0.49    0.61
 -12  -3   5    0.02    0.59
 -12   3   5    0.31    0.46
 -11  -3   5   14.13    1.39
 -11   3   5   12.89    1.14
 -10  -3   5    3.60    0.77
 -10   3   5    2.15    0.53
  -9   3   5   20.21    1.10
   8   3  -5   29.57    1.42
  -8   3   5   29.96    1.24
   7   3  -5    0.23    0.38
  -7   3   5    0.55    0.30
   6  -3  -5   42.14    1.24
  -6   3   5   42.53    1.36
   6   3  -5   45.24    1.59
   5  -3  -5   12.51    0.55
   5   3  -5   11.33    0.66
  -5   3   5   13.00    0.67
   5   3  -5   11.78    0.76
   4  -3  -5    0.48    0.16
   4   3  -5    0.54    0.27
  -4   3   5    0.62    0.22
   4   3  -5    0.59    0.23
   3  -3  -5   25.18    0.65
   3   3  -5   25.61    0.95
   3   3  -5   24.03    0.88
  -3   3   5   25.50    0.84
   2  -3  -5   35.28    0.79
  -2   3   5   35.97    1.01
   2   3  -5   36.64    1.08
   2   3  -5   34.52    1.04
   1  -3  -5   26.08    0.66
  -1   3   5   25.78    0.87
  -1   3   5   27.48    0.82
   1   3  -5   27.02    0.81
   1   3  -5   27.68    0.87
   0  -3  -5    9.84    0.42
   0   3  -5   10.14    0.42
   0   3  -5    9.24    0.50
   0   3   5    9.29    0.48
   0   3   5    9.04    0.47
  -1  -3  -5  102.93    2.19
  -1   3  -5  104.28    2.02
   1   3   5  100.78    2.11
  -1   3  -5  100.01    2.22
   1   3   5  102.19    2.18
  -2  -3  -5    3.53    0.40
  -2   3  -5    3.74    0.41
   2   3   5    4.21    0.44
  -2   3  -5    4.27    0.28
   2   3   5    5.20    0.37
  -3  -3  -5   -0.25    0.23
  -3   3  -5    0.09    0.13
  -3   3  -5    0.13    0.22
   3   3   5   -0.02    0.22
  -4  -3  -5  101.62    2.51
  -4   3  -5   98.97    2.37
  -4   3  -5   99.66    2.13
   4   3   5   97.56    2.37
  -5  -3  -5    5.69    0.63
  -5   3  -5    6.44    0.64
  -5   3  -5    6.53    0.50
  -6  -3  -5    2.72    0.55
  -6   3  -5    1.46    0.34
  -6   3  -5    1.90    0.41
  -7  -3  -5   11.62    1.02
  -7   3  -5   12.76    0.78
  -7   3  -5   13.44    0.89
  -8  -3  -5    0.07    0.42
  -8   3  -5    0.47    0.43
  -9  -3  -5    4.44    0.83
  -9   3  -5    3.71    0.65
 -10  -3  -5    1.28    0.61
 -10   3  -5    1.29    0.52
 -11  -3  -5   -0.27    0.48
 -11   3  -5   -0.08    0.41
 -12  -3  -5    2.78    0.83
 -12   3  -5    1.40    0.65
 -12  -4   5   -0.02    0.56
 -12   4   5   -0.07    0.47
 -11  -4   5    5.24    0.89
 -11   4   5    4.79    0.78
 -10  -4   5    0.44    0.50
 -10   4   5    0.55    0.44
  -9  -4   5    0.11    0.40
  -9   4   5    0.00    0.36
   8   4  -5    6.09    0.78
  -8   4   5    4.09    0.58
   7   4  -5   25.81    1.29
  -7   4   5   24.26    1.11
   6   4  -5   28.94    1.22
   6   4  -5   30.11    1.31
  -6   4   5   28.59    1.14
   5   4  -5    4.93    0.60
   5   4  -5    3.84    0.49
  -5   4   5    3.95    0.49
   4   4  -5    7.42    0.63
   4   4  -5    6.24    0.59
  -4   4   5    8.03    0.56
   3  -4  -5    5.25    0.20
   3   4  -5    5.43    0.54
   3   4  -5    5.08    0.20
  -3   4   5    5.14    0.48
   3   4  -5    4.81    0.48
   2  -4  -5    7.71    0.24
   2   4  -5    9.10    0.53
  -2   4   5    7.98    0.52
   2   4  -5    7.12    0.50
   1  -4  -5  448.07    7.81
  -1   4   5  448.71    7.95
  -1   4   5  434.01    8.03
   1   4  -5  428.39    8.03
   1   4  -5  429.47    7.99
   0  -4  -5  121.49    2.47
   0   4  -5  120.18    2.67
   0   4  -5  122.87    2.45
   0   4   5  125.48    2.63
   0   4   5  120.40    2.59
  -1  -4  -5   89.37    2.04
   1   4   5   91.04    2.00
   1   4   5   91.24    2.12
  -1   4  -5   88.13    2.14
  -1   4  -5   93.09    1.82
  -2  -4  -5   50.14    1.43
   2   4   5   50.91    1.28
   2   4   5   53.50    1.48
  -2   4  -5   51.08    1.09
  -2   4  -5   48.72    1.46
  -3  -4  -5   15.87    0.81
  -3   4  -5   17.46    0.81
   3   4   5   15.87    0.59
   3   4   5   15.25    0.77
  -3   4  -5   16.44    0.50
  -4  -4  -5   11.68    0.75
   4   4   5   11.19    0.70
  -4   4  -5   12.35    0.73
  -4   4  -5   11.02    0.46
  -5  -4  -5    7.74    0.77
  -5   4  -5    6.62    0.68
   5   4   5    7.75    0.70
  -6  -4  -5    0.57    0.40
  -6   4  -5    0.06    0.29
  -7  -4  -5   71.07    2.40
  -7   4  -5   70.17    2.20
  -8  -4  -5   -0.12    0.48
  -8   4  -5    0.99    0.44
  -9  -4  -5    4.60    0.84
  -9   4  -5    4.27    0.69
 -10  -4  -5    0.76    0.57
 -10   4  -5    0.43    0.44
 -11  -4  -5    1.40    0.72
 -11   4  -5    1.06    0.53
 -11  -5   5    3.08    0.86
 -11   5   5    2.41    0.66
 -10  -5   5    4.18    0.89
 -10   5   5    4.25    0.72
  -9  -5   5    8.82    1.07
  -9   5   5    8.12    0.87
  -8   5   5   16.52    1.02
   7   5  -5    0.57    0.45
  -7   5   5    0.41    0.35
   7   5  -5   -0.25    0.27
  -6   5   5   21.53    1.06
   6   5  -5   22.39    1.16
   6   5  -5   20.52    1.08
   5   5  -5    4.93    0.63
   5   5  -5    4.34    0.59
  -5   5   5    5.19    0.59
   4   5  -5    1.16    0.38
   4   5  -5    0.79    0.36
  -4   5   5    1.03    0.35
  -3   5   5   13.10    0.72
   3   5  -5   12.49    0.74
   3   5  -5   13.34    0.74
   2   5  -5   35.70    1.25
   2   5  -5   36.67    1.15
  -2   5   5   34.94    1.19
   1   5  -5   27.57    0.89
   1   5  -5   27.36    1.06
  -1   5   5   26.66    1.00
  -1   5   5   27.57    1.03
   0  -5  -5   11.66    0.52
   0   5   5   11.94    0.66
   0   5  -5   10.76    0.48
   0   5  -5   11.62    0.69
   0   5   5   11.68    0.64
  -1  -5  -5   38.48    1.16
  -1   5  -5   39.94    0.94
  -1   5  -5   38.74    1.32
   1   5   5   41.57    1.20
   1   5   5   41.28    1.31
  -2  -5  -5    0.43    0.26
   2   5   5    0.64    0.29
   2   5   5    0.69    0.23
  -2   5  -5    0.28    0.25
  -3  -5  -5   14.51    0.81
   3   5   5   14.44    0.62
  -3   5  -5   16.59    0.87
   3   5   5   15.08    0.82
  -4  -5  -5    0.18    0.32
   4   5   5    0.71    0.35
  -4   5  -5   -0.11    0.25
  -5  -5  -5   23.74    1.19
   5   5   5   23.36    1.15
  -5   5  -5   24.21    1.14
  -6  -5  -5    7.96    0.89
  -6   5  -5    6.34    0.75
   6   5   5    8.07    0.82
  -7  -5  -5    0.14    0.43
  -7   5  -5    0.63    0.38
  -8  -5  -5    5.48    0.90
  -8   5  -5    6.34    0.82
  -9  -5  -5   -0.40    0.50
  -9   5  -5    0.19    0.37
 -10  -5  -5    5.81    0.96
 -10   5  -5    3.69    0.78
 -11  -5  -5   -0.28    0.51
 -11   5  -5    0.23    0.47
 -11   6   5    1.49    0.70
 -10  -6   5    0.49    0.60
 -10   6   5   -0.03    0.46
  -9  -6   5   -0.10    0.52
  -9   6   5    0.17    0.42
  -8  -6   5    9.15    1.05
  -8   6   5   10.88    1.01
  -7  -6   5   -0.19    0.37
  -7   6   5    0.50    0.36
   7   6  -5   -0.03    0.36
   6   6  -5    0.15    0.38
  -6   6   5   -0.53    0.29
   5   6  -5   17.24    1.03
   5   6  -5   16.06    0.98
  -5   6   5   19.13    1.03
  -4   6   5   23.42    1.10
   4   6  -5   22.64    1.08
   4   6  -5   20.13    1.07
  -3   6   5    9.50    0.81
   3   6  -5    8.72    0.71
   3   6  -5    7.05    0.72
   2   6  -5   61.11    1.66
  -2   6   5   56.92    1.79
   2   6  -5   58.15    1.82
  -2   6   5   59.58    1.78
  -1   6   5   31.15    1.21
   1   6  -5   30.60    1.00
  -1   6   5   31.44    1.19
   1   6  -5   30.67    1.23
   0   6  -5   46.57    1.58
   0   6   5   50.60    1.60
   0   6   5   49.57    1.50
   1   6   5    2.50    0.40
  -1   6  -5    2.66    0.47
   1   6   5    1.95    0.41
  -2  -6  -5    4.91    0.54
  -2   6  -5    4.74    0.62
   2   6   5    5.81    0.64
   2   6   5    5.44    0.52
  -3  -6  -5    5.34    0.61
   3   6   5    5.72    0.66
  -3   6  -5    5.79    0.67
  -4  -6  -5   -0.36    0.31
  -4   6  -5   -0.24    0.25
   4   6   5   -0.21    0.28
  -5  -6  -5    4.15    0.69
   5   6   5    4.06    0.62
  -5   6  -5    5.61    0.73
  -6  -6  -5  102.83    3.00
  -6   6  -5   96.09    2.81
   6   6   5  101.22    2.88
  -7  -6  -5   28.89    1.54
  -7   6  -5   30.60    1.48
  -8  -6  -5    0.68    0.54
  -8   6  -5    1.20    0.51
  -9  -6  -5    0.83    0.65
  -9   6  -5    0.62    0.51
 -10  -6  -5    0.44    0.60
 -10   6  -5   -0.15    0.46
 -10  -7   5    0.30    0.62
 -10   7   5    0.38    0.49
  -9  -7   5    0.59    0.60
  -9   7   5    1.59    0.60
  -8  -7   5    5.12    0.88
   8   7  -5    6.20    0.88
  -8   7   5    7.18    0.86
  -7  -7   5    6.49    0.93
   7   7  -5    6.37    0.86
  -7   7   5    5.36    0.75
  -6  -7   5   41.70    1.80
  -6   7   5   42.67    1.67
   6   7  -5   47.09    1.84
  -5  -7   5    9.59    0.94
  -5   7   5    9.21    0.90
   5   7  -5    8.40    0.89
  -4   7   5   16.64    0.99
   4   7  -5   17.86    1.07
   3   7  -5   56.92    1.95
  -3   7   5   60.60    1.94
  -2   7   5   11.59    0.81
  -2   7   5   10.57    0.88
   2   7  -5    9.14    0.86
   1   7  -5   22.42    1.14
  -1   7   5   23.45    1.15
  -1   7   5   23.02    1.09
   0   7   5    5.54    0.62
   0   7   5    7.48    0.76
   0   7  -5    5.84    0.69
  -1   7  -5    6.21    0.70
   1   7   5    6.29    0.70
   2   7   5    1.76    0.44
  -2   7  -5    1.43    0.47
  -3   7  -5    2.98    0.54
   3   7   5    2.49    0.52
   4   7   5    3.48    0.60
  -4   7  -5    4.28    0.66
  -5  -7  -5    1.39    0.50
  -5   7  -5    0.30    0.37
   5   7   5    0.24    0.39
  -6  -7  -5    2.89    0.63
  -6   7  -5    2.11    0.60
   6   7   5    3.58    0.67
  -7  -7  -5    0.93    0.59
  -7   7  -5    0.66    0.48
   7   7   5    0.29    0.42
  -8  -7  -5    0.54    0.58
  -8   7  -5    0.04    0.39
  -9  -7  -5    4.80    0.93
  -9   7  -5    6.10    0.92
  -9  -8   5    0.66    0.61
  -9   8   5    0.29    0.43
  -8  -8   5    0.21    0.60
  -8   8   5    1.11    0.51
   8   8  -5    0.21    0.41
  -7   8   5   -0.08    0.42
   7   8  -5    0.44    0.44
  -6   8   5    3.19    0.67
   6   8  -5    3.08    0.69
   5   8  -5    0.11    0.43
  -5   8   5   -0.23    0.37
  -4   8   5    1.70    0.54
   4   8  -5    2.93    0.61
  -4   8   5    2.62    0.56
  -3   8   5    0.74    0.45
   3   8  -5   -0.24    0.32
  -3   8   5    0.53    0.41
   2   8  -5    2.20    0.53
  -2   8   5    2.92    0.59
  -2   8   5    3.35    0.63
  -1   8   5    4.30    0.65
  -1   8   5    3.94    0.61
   1   8  -5    4.31    0.70
   0   8   5    4.87    0.68
   0   8  -5    4.39    0.66
  -1   8  -5    6.30    0.81
   1   8   5    7.19    0.81
   2   8   5    5.51    0.75
  -2   8  -5    4.68    0.71
   3   8   5    0.09    0.34
  -3   8  -5    0.02    0.34
   4   8   5   10.48    1.05
  -4   8  -5    7.93    0.92
  -5   8  -5    0.52    0.44
   5   8   5    0.14    0.38
  -6   8  -5    1.20    0.54
   6   8   5    1.04    0.54
   7   8   5    1.40    0.63
  -7   8  -5    0.55    0.50
  -8  -8  -5    1.36    0.68
  -8   8  -5    1.25    0.58
  -7   9   5    1.20    0.56
   7   9  -5    0.53    0.49
   6   9  -5    8.43    1.05
  -6   9   5    9.68    1.18
  -6   9   5    8.60    1.00
  -5   9   5    5.13    0.81
  -5   9   5    5.90    0.94
   5   9  -5    5.06    0.86
  -4   9   5    7.38    0.89
   4   9  -5    8.19    1.02
  -4   9   5    6.59    0.88
  -3   9   5    3.89    0.69
  -3   9   5    4.46    0.75
   3   9  -5    3.66    0.71
  -2   9   5    0.31    0.43
   2   9  -5    0.79    0.46
  -2   9   5    0.20    0.42
  -1   9   5    2.44    0.60
   1   9  -5    0.91    0.45
   0   9   5    3.08    0.65
   0   9  -5    3.34    0.66
  -1   9  -5    0.07    0.42
   1   9   5   -0.10    0.43
  -2   9  -5    6.99    0.92
   2   9   5    7.01    0.90
   3   9   5   -0.08    0.40
  -3   9  -5   -0.32    0.36
   4   9   5   -0.72    0.39
  -4   9  -5   -0.65    0.30
   5   9   5    9.91    1.11
  -5   9  -5   12.15    1.18
   6   9   5   -0.16    0.45
  -6   9  -5   -0.46    0.41
  -7   9  -5    0.76    0.55
  -5  10   5    2.77    0.68
  -5  10   5    3.46    0.80
  -4  10   5    4.58    0.85
  -4  10   5    4.76    0.87
   4  10  -5    4.01    0.82
  -3  10   5    1.75    0.58
   3  10  -5    1.20    0.53
   2  10  -5    7.24    0.97
  -2  10   5    5.63    0.83
   1  10  -5    0.28    0.43
  -1  10   5    1.09    0.55
   0  10  -5    1.79    0.60
   0  10   5    1.35    0.53
   1  10   5    0.00    0.39
  -1  10  -5   -0.07    0.44
  -2  10  -5    0.53    0.51
   2  10   5    0.07    0.49
  -3  10  -5    1.55    0.58
   3  10   5    1.76    0.65
  -4  10  -5    5.42    0.89
   4  10   5    5.78    0.95
 -13   0   6   -0.03    0.60
 -12   0   6    9.18    1.15
 -11   0   6    0.09    0.43
 -10   0   6    0.45    0.47
   9   0  -6    0.03    0.39
   8   0  -6   99.00    2.70
   7   0  -6    0.22    0.32
   6   0  -6    5.61    0.57
   5   0  -6   -0.18    0.20
   4   0  -6  143.93    3.05
   3   0  -6   -0.07    0.15
  -3   0   6   -0.02    0.12
  -2   0   6    2.36    0.20
   2   0  -6    2.21    0.26
  -1   0   6   -0.17    0.12
   1   0  -6   -0.21    0.14
   0   0  -6    2.41    0.22
  -1   0  -6   -0.14    0.12
  -2   0  -6  284.78    5.33
  -3   0  -6    0.16    0.19
  -4   0  -6  108.65    2.50
  -5   0  -6   -0.17    0.26
  -6   0  -6  109.08    2.75
  -7   0  -6    0.13    0.31
  -8   0  -6   13.88    0.98
  -9   0  -6    0.38    0.40
 -10   0  -6    3.14    0.71
 -11   0  -6   -0.27    0.49
 -12   0  -6    1.33    0.69
 -13  -1   6   -0.34    0.51
 -12  -1   6    5.38    0.95
 -12   1   6    3.93    0.81
 -11  -1   6    0.62    0.57
 -11   1   6    0.61    0.48
 -10   1   6    0.12    0.40
   9   1  -6   14.00    1.03
   8  -1  -6    2.04    0.49
   8   1  -6    1.98    0.53
   7  -1  -6   16.13    0.84
   7   1  -6   15.40    0.94
   6  -1  -6   76.06    1.98
   6   1  -6   75.24    2.09
   5  -1  -6   23.15    0.89
   5   1  -6   23.27    0.96
  -4  -1   6   96.80    1.91
   4  -1  -6   96.47    2.18
   4   1  -6  100.16    2.33
   3  -1  -6   76.30    1.72
  -3  -1   6   79.74    1.52
   3   1  -6   79.02    1.84
   3   1  -6   77.81    1.64
  -2  -1   6    0.08    0.07
   2  -1  -6    0.08    0.11
   2   1  -6    0.26    0.10
  -2   1   6    0.20    0.07
   2   1  -6    0.10    0.12
  -2   1   6    0.24    0.13
   1  -1  -6    9.24    0.36
  -1   1   6    9.42    0.26
   1   1  -6    9.47    0.32
   1   1  -6    8.95    0.39
  -1   1   6    9.56    0.38
   0  -1  -6  111.21    2.20
   0   1  -6  110.44    2.20
   0   1   6  110.84    2.01
   0   1  -6  109.75    2.07
  -1  -1  -6    5.47    0.32
   1   1   6    5.88    0.29
  -1   1  -6    5.89    0.28
  -1   1  -6    5.61    0.30
  -2  -1  -6  243.66    4.68
  -2   1  -6  244.44    4.58
  -3  -1  -6   84.27    2.01
  -3   1  -6   86.52    1.93
  -4  -1  -6   38.92    1.26
  -4   1  -6   37.89    1.17
  -5  -1  -6   20.03    0.93
  -5   1  -6   19.71    0.86
  -6  -1  -6   12.08    0.79
  -6   1  -6   12.20    0.75
  -7  -1  -6   41.13    1.57
  -7   1  -6   36.91    1.43
  -8  -1  -6    0.19    0.37
  -8   1  -6   -0.02    0.35
  -9  -1  -6    1.49    0.58
  -9   1  -6    1.75    0.51
 -10  -1  -6    2.53    0.68
 -10   1  -6    2.41    0.64
 -11  -1  -6    0.92    0.55
 -11   1  -6   -0.14    0.44
 -12  -1  -6    6.22    1.05
 -12   1  -6    5.43    0.97
 -12  -2   6    1.53    0.71
 -12   2   6    1.90    0.60
 -11  -2   6    5.18    0.88
 -10   2   6    0.86    0.47
  -9   2   6    5.73    0.71
   9   2  -6    5.52    0.77
   8  -2  -6    0.36    0.32
   8   2  -6    0.27    0.38
   7  -2  -6    1.24    0.36
   7   2  -6    0.74    0.40
   6  -2  -6   73.32    1.88
  -6  -2   6   74.56    1.51
   6   2  -6   74.37    2.12
   5  -2  -6  143.73    3.00
  -5  -2   6  142.28    2.60
  -5   2   6  139.87    2.94
   5   2  -6  144.33    3.27
   4  -2  -6    6.87    0.43
  -4  -2   6    6.88    0.22
  -4   2   6    7.31    0.43
   4   2  -6    6.50    0.57
   4   2  -6    6.52    0.44
   3  -2  -6    7.53    0.39
  -3   2   6    7.47    0.40
   3   2  -6    7.77    0.43
   3   2  -6    8.24    0.52
   2  -2  -6   28.26    0.74
  -2   2   6   28.66    0.87
  -2   2   6   28.93    0.75
   2   2  -6   28.85    0.81
   2   2  -6   29.35    0.89
   1  -2  -6    8.37    0.34
   1   2  -6    7.48    0.39
  -1   2   6    8.12    0.40
  -1   2   6    8.38    0.34
   1   2  -6    8.60    0.39
   0  -2  -6   13.21    0.47
   0   2  -6   13.08    0.48
   0   2   6   13.47    0.49
   0   2   6   12.91    0.44
   0   2  -6   12.94    0.46
  -1  -2  -6  140.52    2.82
   1   2   6  137.39    2.71
   1   2   6  144.86    2.71
  -1   2  -6  136.30    2.74
  -1   2  -6  141.71    2.71
  -2  -2  -6   76.78    1.82
  -2   2  -6   76.43    1.66
   2   2   6   75.93    1.73
  -2   2  -6   80.15    1.78
  -3  -2  -6  126.54    2.79
  -3   2  -6  124.69    2.55
  -3   2  -6  120.74    2.63
  -4  -2  -6   91.07    2.28
  -4   2  -6   90.66    2.15
  -4   2  -6   89.79    2.06
  -5  -2  -6   39.21    1.43
  -5   2  -6   41.16    1.25
  -6  -2  -6    1.55    0.44
  -6   2  -6    2.52    0.40
  -7  -2  -6    6.38    0.77
  -7   2  -6    8.01    0.73
  -8  -2  -6    0.86    0.49
  -8   2  -6    0.13    0.36
  -9  -2  -6   57.84    2.22
  -9   2  -6   52.14    1.93
 -10  -2  -6    0.59    0.55
 -10   2  -6    0.19    0.45
 -11  -2  -6    7.91    1.10
 -12  -2  -6    1.34    0.75
 -12  -3   6   -0.20    0.51
 -12   3   6   -0.13    0.45
 -11  -3   6    0.30    0.51
 -11   3   6    1.29    0.50
 -10  -3   6    2.56    0.72
 -10   3   6    2.52    0.54
  -9   3   6    3.41    0.57
   9   3  -6    2.79    0.58
   8   3  -6    9.40    0.95
  -8   3   6    8.45    0.76
   7   3  -6    3.45    0.60
  -7   3   6    4.13    0.53
   6  -3  -6  101.12    2.32
  -6   3   6  100.99    2.41
   6   3  -6  103.94    2.71
   5  -3  -6    0.23    0.18
   5   3  -6   -0.06    0.22
   5   3  -6   -0.05    0.29
  -5   3   6    0.04    0.20
   4  -3  -6    0.14    0.16
   4   3  -6    0.10    0.22
  -4   3   6   -0.12    0.16
   4   3  -6    0.62    0.28
   3  -3  -6   17.59    0.54
   3   3  -6   17.05    0.72
  -3   3   6   17.72    0.67
   3   3  -6   17.24    0.79
   2  -3  -6    0.47    0.14
  -2   3   6   -0.30    0.17
   2   3  -6    0.05    0.22
   2   3  -6    0.27    0.20
   1  -3  -6    8.37    0.36
   1   3  -6    7.80    0.47
   1   3  -6    8.33    0.45
  -1   3   6    9.52    0.53
  -1   3   6    7.65    0.44
   0  -3  -6    3.00    0.29
   0   3   6    2.76    0.30
   0   3  -6    2.96    0.28
   0   3   6    2.71    0.32
   0   3  -6    3.23    0.36
  -1  -3  -6   33.20    0.98
   1   3   6   33.99    0.98
   1   3   6   32.62    0.94
  -1   3  -6   33.81    0.86
  -1   3  -6   32.55    1.02
  -2  -3  -6   45.72    1.31
   2   3   6   46.10    1.28
  -2   3  -6   47.75    1.33
  -2   3  -6   49.88    1.12
   2   3   6   46.89    1.17
  -3  -3  -6   10.13    0.65
   3   3   6   10.75    0.60
  -3   3  -6    9.65    0.44
  -3   3  -6   10.33    0.61
  -4  -3  -6  138.10    3.20
  -4   3  -6  138.80    3.06
   4   3   6  136.08    3.04
  -4   3  -6  136.50    2.83
  -5  -3  -6    9.33    0.80
  -5   3  -6    9.28    0.54
  -5   3  -6    9.08    0.63
  -6  -3  -6    7.39    0.77
  -6   3  -6    7.86    0.58
  -6   3  -6    6.27    0.66
  -7  -3  -6    3.52    0.67
  -7   3  -6    3.18    0.49
  -7   3  -6    3.20    0.56
  -8  -3  -6    5.02    0.77
  -8   3  -6    6.80    0.77
  -9  -3  -6    1.79    0.60
  -9   3  -6    2.47    0.57
 -10  -3  -6   -0.10    0.46
 -10   3  -6   -0.26    0.35
 -11  -3  -6    1.37    0.65
 -11   3  -6    0.62    0.48
 -12  -3  -6    6.17    1.07
 -12   3  -6    8.96    1.10
 -12  -4   6   -0.04    0.61
 -11  -4   6   13.95    1.41
 -11   4   6   16.57    1.16
 -10  -4   6    4.50    0.83
 -10   4   6    3.88    0.68
  -9   4   6    0.96    0.45
  -8   4   6   17.33    0.99
   8   4  -6   17.42    1.14
   7   4  -6    0.08    0.36
  -7   4   6    0.56    0.31
  -6   4   6   54.48    1.66
   6   4  -6   58.03    1.91
   6   4  -6   59.51    1.81
   5   4  -6    4.42    0.59
  -5   4   6    3.90    0.48
   5   4  -6    2.96    0.48
   4   4  -6   23.71    1.03
   4   4  -6   24.07    0.98
  -4   4   6   24.19    0.93
   3  -4  -6   14.63    0.42
   3   4  -6   15.53    0.39
   3   4  -6   15.91    0.75
   3   4  -6   15.22    0.75
  -3   4   6   14.90    0.68
   2  -4  -6    9.49    0.32
   2   4  -6   10.26    0.60
   2   4  -6    9.90    0.56
  -2   4   6    8.89    0.51
   1  -4  -6    2.00    0.22
  -1   4   6    2.02    0.33
   1   4  -6    2.23    0.38
   1   4  -6    1.62    0.27
  -1   4   6    2.04    0.36
   0  -4  -6    0.04    0.17
   0   4  -6    0.01    0.15
   0   4   6   -0.09    0.21
   0   4   6   -0.15    0.17
   0   4  -6    0.20    0.21
  -1  -4  -6   40.53    1.15
  -1   4  -6   39.22    1.23
  -1   4  -6   42.00    0.98
   1   4   6   41.04    1.22
   1   4   6   38.01    1.11
  -2  -4  -6   29.73    1.03
  -2   4  -6   30.17    1.08
   2   4   6   29.23    1.02
   2   4   6   28.87    0.89
  -2   4  -6   28.69    0.75
  -3  -4  -6   22.03    0.95
   3   4   6   22.86    0.94
   3   4   6   22.79    0.75
  -3   4  -6   21.47    0.92
  -3   4  -6   22.79    0.66
  -4  -4  -6   10.98    0.75
   4   4   6   12.32    0.73
  -4   4  -6   11.17    0.49
  -4   4  -6   11.51    0.70
  -5  -4  -6    0.60    0.39
  -5   4  -6    0.90    0.33
   5   4   6    0.70    0.33
  -6  -4  -6   11.44    1.00
  -6   4  -6   11.58    0.81
  -7  -4  -6   61.76    2.22
  -7   4  -6   60.44    2.02
  -8  -4  -6   62.78    2.34
  -8   4  -6   66.97    2.21
  -9  -4  -6    1.44    0.60
  -9   4  -6    0.90    0.45
 -10  -4  -6    0.40    0.57
 -10   4  -6   -0.06    0.38
 -11  -4  -6   -0.05    0.51
 -11   4  -6   -0.11    0.39
 -11  -5   6    1.18    0.64
 -11   5   6    0.40    0.49
 -10  -5   6    0.00    0.45
 -10   5   6    0.48    0.45
  -9  -5   6    0.02    0.41
  -9   5   6   -0.06    0.37
   8   5  -6    0.07    0.39
  -8   5   6    0.48    0.34
   7   5  -6   10.03    0.96
  -7   5   6   12.10    0.95
   7   5  -6   12.09    1.03
   6   5  -6    0.42    0.34
   6   5  -6    0.16    0.36
  -6   5   6    0.57    0.33
   5   5  -6   15.82    0.91
  -5   5   6   18.47    0.90
   5   5  -6   17.05    0.99
   4   5  -6   14.14    0.81
   4   5  -6   13.27    0.80
  -4   5   6   13.94    0.75
   3   5  -6  105.04    2.56
   3   5  -6  107.39    2.62
  -3   5   6  105.75    2.52
  -2   5   6   -0.07    0.22
   2   5  -6    0.29    0.22
   2   5  -6    0.14    0.24
  -2   5   6    0.04    0.24
  -1   5   6   23.13    0.94
   1   5  -6   23.58    0.97
   1   5  -6   21.52    0.80
  -1   5   6   22.83    0.91
   0  -5  -6   46.18    1.21
   0   5  -6   49.25    1.50
   0   5  -6   45.80    1.18
   0   5   6   49.11    1.38
   0   5   6   44.43    1.39
  -1  -5  -6    1.58    0.29
   1   5   6    2.16    0.37
  -1   5  -6    2.33    0.24
   1   5   6    1.88    0.31
  -1   5  -6    1.90    0.36
  -2  -5  -6    8.55    0.58
   2   5   6   10.11    0.56
  -2   5  -6    9.46    0.64
   2   5   6    8.63    0.62
  -3  -5  -6   34.83    1.28
   3   5   6   34.88    1.04
   3   5   6   34.33    1.26
  -3   5  -6   34.69    1.30
  -4  -5  -6   35.70    1.38
   4   5   6   33.28    1.32
  -4   5  -6   36.02    1.37
  -5  -5  -6   24.13    1.22
   5   5   6   21.67    1.11
  -5   5  -6   23.88    1.16
  -6  -5  -6   34.58    1.55
  -6   5  -6   34.38    1.44
  -7  -5  -6    3.20    0.68
  -7   5  -6    4.60    0.67
  -8  -5  -6    4.85    0.79
  -8   5  -6    6.21    0.80
  -9  -5  -6    1.80    0.64
  -9   5  -6    3.92    0.70
 -10  -5  -6    0.17    0.51
 -10   5  -6    0.54    0.49
 -11  -5  -6    1.29    0.68
 -11   5  -6    2.25    0.64
 -10  -6   6    1.19    0.60
 -10   6   6    1.01    0.55
  -9  -6   6    3.45    0.81
  -9   6   6    3.01    0.62
  -8  -6   6    0.34    0.45
   8   6  -6    0.90    0.51
  -8   6   6    0.14    0.34
  -7   6   6    1.33    0.49
   7   6  -6    1.82    0.55
  -6   6   6    6.54    0.75
   6   6  -6    7.71    0.86
   6   6  -6    7.70    0.85
   5   6  -6   28.12    1.30
  -5   6   6   26.89    1.20
   5   6  -6   26.44    1.26
   4   6  -6    1.30    0.42
   4   6  -6    0.81    0.40
  -4   6   6    1.50    0.39
  -3   6   6   39.01    1.38
   3   6  -6   37.31    1.43
   3   6  -6   37.82    1.33
   2   6  -6    0.22    0.26
   2   6  -6    0.44    0.32
  -2   6   6    0.64    0.37
  -2   6   6   -0.07    0.26
  -1   6   6   33.81    1.24
  -1   6   6   28.29    1.14
   1   6  -6   31.45    1.01
   1   6  -6   30.26    1.23
   0   6   6    2.53    0.45
   0   6   6    2.52    0.41
   0   6  -6    1.74    0.40
   1   6   6   25.25    1.11
  -1   6  -6   25.13    1.13
   1   6   6   27.76    1.02
  -2  -6  -6   37.91    1.31
  -2   6  -6   39.94    1.46
   2   6   6   37.93    1.40
   2   6   6   35.33    1.19
  -3  -6  -6   31.03    1.25
   3   6   6   31.12    1.32
  -3   6  -6   31.63    1.31
  -4  -6  -6    0.19    0.35
  -4   6  -6    0.52    0.35
   4   6   6   -0.05    0.32
  -5  -6  -6   12.14    1.02
   5   6   6   10.75    0.96
  -5   6  -6   13.43    1.08
  -6  -6  -6    8.26    0.95
  -6   6  -6    5.77    0.75
   6   6   6    6.55    0.80
  -7  -6  -6    1.28    0.58
  -7   6  -6    0.63    0.40
  -8  -6  -6   -0.29    0.47
  -8   6  -6    0.18    0.37
  -9  -6  -6    3.16    0.77
  -9   6  -6    3.37    0.72
 -10  -6  -6    2.44    0.77
 -10   6  -6    1.96    0.64
 -10  -7   6    0.59    0.68
  -9  -7   6    1.02    0.65
  -9   7   6    1.30    0.52
  -8  -7   6    3.54    0.77
   8   7  -6    2.53    0.62
  -8   7   6    3.02    0.65
  -7  -7   6    4.05    0.75
  -7   7   6    3.09    0.59
   7   7  -6    4.42    0.75
  -6   7   6   10.53    0.97
   6   7  -6    9.72    0.96
  -5   7   6    1.29    0.47
   5   7  -6    0.95    0.44
   4   7  -6    7.30    0.75
   4   7  -6    8.91    0.91
  -4   7   6    8.15    0.81
  -3   7   6    1.73    0.51
  -3   7   6    1.08    0.42
   3   7  -6    1.80    0.47
  -2   7   6   18.11    1.01
   2   7  -6   17.27    1.01
  -2   7   6   16.46    0.96
  -1   7   6    2.07    0.49
   1   7  -6    2.14    0.53
  -1   7   6    1.84    0.44
   0   7   6   14.32    0.84
   0   7  -6   13.93    0.91
   0   7   6   16.28    0.96
  -1   7  -6   50.72    1.81
   1   7   6   52.31    1.78
   2   7   6    0.34    0.33
  -2   7  -6    0.53    0.37
   3   7   6    9.39    0.91
  -3   7  -6    9.86    0.92
  -4   7  -6   37.99    1.58
   4   7   6   37.14    1.57
  -5  -7  -6    0.32    0.40
  -5   7  -6   -0.04    0.36
   5   7   6    1.20    0.47
  -6  -7  -6    0.61    0.49
   6   7   6    0.33    0.45
  -6   7  -6    0.74    0.45
  -7  -7  -6    1.35    0.55
  -7   7  -6    1.14    0.51
  -8  -7  -6    0.36    0.56
  -8   7  -6    0.82    0.54
  -9  -7  -6    4.20    0.96
  -9   7  -6    7.49    1.01
  -8  -8   6    2.80    0.82
   8   8  -6    3.51    0.73
  -8   8   6    3.61    0.73
  -7   8   6    0.67    0.44
   7   8  -6    1.38    0.53
  -6   8   6    1.16    0.48
   6   8  -6    0.84    0.47
  -5   8   6    7.08    0.92
   5   8  -6    8.22    0.94
  -5   8   6    9.73    0.99
   4   8  -6    4.64    0.74
  -4   8   6    4.19    0.66
  -4   8   6    4.63    0.75
  -3   8   6   23.96    1.25
   3   8  -6   25.37    1.34
  -3   8   6   22.85    1.24
  -2   8   6   -0.40    0.34
  -2   8   6   -0.11    0.36
   2   8  -6    0.08    0.30
   1   8  -6   18.11    1.11
  -1   8   6   17.28    1.03
  -1   8   6   20.66    1.12
   0   8  -6   16.74    1.06
   0   8   6   15.36    1.02
   1   8   6    0.76    0.43
  -1   8  -6    0.20    0.32
   2   8   6    2.67    0.57
  -2   8  -6    3.70    0.64
  -3   8  -6    0.46    0.40
   3   8   6    0.45    0.38
  -4   8  -6    9.31    0.99
   4   8   6    9.82    1.01
  -5   8  -6    0.76    0.46
   5   8   6    0.23    0.43
   6   8   6    0.33    0.47
  -6   8  -6    0.81    0.50
  -7   8  -6    7.08    0.98
   7   8   6    7.28    0.99
  -8  -8  -6   20.07    1.68
  -8   8  -6   19.88    1.43
  -7   9   6    9.20    1.14
   7   9  -6    9.80    1.16
  -7   9   6   10.26    1.13
   6   9  -6   -0.11    0.39
  -6   9   6    0.39    0.51
  -6   9   6    0.06    0.53
  -5   9   6    0.59    0.56
  -5   9   6    0.05    0.42
   5   9  -6    0.31    0.46
  -4   9   6   14.05    1.19
  -4   9   6   17.14    1.19
   4   9  -6   13.58    1.22
   3   9  -6    3.32    0.66
  -3   9   6    4.58    0.77
  -3   9   6    4.86    0.75
  -2   9   6    5.31    0.78
  -2   9   6    4.41    0.71
   2   9  -6    4.64    0.78
  -1   9   6   -0.44    0.34
   1   9  -6    0.15    0.38
   0   9  -6    0.58    0.43
   0   9   6    0.09    0.41
   1   9   6   15.83    1.29
  -1   9  -6   16.57    1.33
  -2   9  -6   -0.21    0.39
   2   9   6   -0.02    0.45
   3   9   6   -0.47    0.39
  -3   9  -6   -0.11    0.37
   4   9   6    1.05    0.48
  -4   9  -6    2.38    0.63
   5   9   6   10.42    1.12
  -5   9  -6    7.71    0.98
   6   9   6    6.38    0.95
  -6   9  -6    5.42    0.93
  -5  10   6    4.22    0.86
  -5  10   6    3.37    0.76
  -4  10   6    6.73    0.96
  -4  10   6    8.26    1.02
   4  10  -6    7.64    1.06
  -3  10   6    4.89    0.80
   3  10  -6    4.59    0.80
  -2  10   6   -0.36    0.40
   2  10  -6    0.05    0.43
  -1  10   6    0.68    0.47
   1  10  -6    0.91    0.48
   0  10  -6    0.44    0.45
   0  10   6    0.10    0.43
   1  10   6    0.05    0.43
  -1  10  -6   -0.22    0.42
   2  10   6    4.84    0.82
  -2  10  -6    4.07    0.83
   3  10   6    1.55    0.61
  -3  10  -6    1.39    0.60
  -4  10  -6    3.34    0.75
   4  10   6    3.31    0.74
 -13   0   7   -0.08    0.52
 -12   0   7    0.60    0.56
 -11   0   7    8.39    1.02
   9   0  -7   43.53    1.72
   8   0  -7   -0.02    0.35
   7   0  -7   24.33    1.09
   6   0  -7    0.10    0.24
   5   0  -7   43.70    1.36
  -4   0   7   -0.17    0.18
   4   0  -7    0.05    0.27
  -3   0   7  943.27   17.05
   3   0  -7 1000.00   17.27
   2   0  -7   -0.09    0.11
  -2   0   7   -0.15    0.08
   1   0  -7   38.39    0.98
  -1   0   7   40.65    0.93
   0   0  -7   -0.14    0.12
  -1   0  -7  414.40    7.53
  -2   0  -7    0.15    0.14
  -3   0  -7   41.89    1.20
  -4   0  -7   -0.39    0.25
  -5   0  -7  229.88    4.78
  -6   0  -7    0.06    0.26
  -7   0  -7    1.27    0.46
  -8   0  -7    0.27    0.37
  -9   0  -7    5.68    0.81
 -10   0  -7    0.00    0.42
 -11   0  -7   -0.33    0.46
 -12   0  -7    0.17    0.65
 -13  -1   7    0.26    0.64
 -12  -1   7   14.27    1.40
 -12   1   7   17.83    1.50
 -11  -1   7   -0.80    0.40
 -11   1   7   -0.30    0.44
  10   1  -7    0.05    0.37
   9  -1  -7    0.35    0.40
   9   1  -7    0.30    0.38
   8  -1  -7    1.80    0.45
   8   1  -7    1.84    0.52
   7  -1  -7    7.84    0.70
   7   1  -7    6.49    0.68
   6  -1  -7   17.33    0.83
   6   1  -7   18.28    0.90
   5  -1  -7    0.17    0.23
  -5  -1   7    0.29    0.15
   5   1  -7   -0.04    0.23
   4  -1  -7  138.99    2.94
  -4  -1   7  143.57    2.66
   4   1  -7  139.11    3.07
   3  -1  -7  131.79    2.67
  -3  -1   7  132.07    2.43
  -3   1   7  126.64    2.62
   3   1  -7  126.92    2.77
   3   1  -7  133.02    2.52
  -2  -1   7    3.10    0.19
   2  -1  -7    3.55    0.26
   2   1  -7    3.63    0.33
   2   1  -7    3.23    0.20
  -2   1   7    3.70    0.27
  -2   1   7    3.31    0.17
   1  -1  -7   34.60    0.88
   1   1  -7   34.74    0.77
  -1   1   7   33.97    0.68
   1   1  -7   35.94    0.93
  -1   1   7   34.12    0.88
   0  -1  -7  203.28    3.85
   0   1   7  205.49    3.57
   0   1  -7  204.45    3.64
   0   1  -7  204.47    3.84
   0   1   7  199.74    3.76
  -1  -1  -7  215.90    4.06
  -1   1  -7  212.46    3.85
  -1   1  -7  207.35    4.00
  -2  -1  -7   33.97    1.00
  -2   1  -7   32.97    0.93
  -3  -1  -7   91.48    2.14
  -3   1  -7   90.50    2.04
  -4  -1  -7   56.25    1.61
  -4   1  -7   55.66    1.51
  -5  -1  -7   48.91    1.58
  -5   1  -7   51.27    1.51
  -6  -1  -7   79.16    2.27
  -6   1  -7   77.52    2.13
  -7  -1  -7    8.57    0.86
  -7   1  -7    8.88    0.80
  -8  -1  -7   -0.11    0.41
  -8   1  -7    0.50    0.40
  -9  -1  -7    1.00    0.49
  -9   1  -7    0.84    0.46
 -10  -1  -7    7.44    0.99
 -10   1  -7    7.90    0.94
 -11  -1  -7   12.30    1.32
 -11   1  -7   10.72    1.18
 -12  -1  -7    0.88    0.68
 -12   1  -7    0.68    0.67
 -12  -2   7    0.81    0.66
 -12   2   7   -0.18    0.38
 -11  -2   7    9.60    1.17
  10   2  -7   18.81    1.22
 -10   2   7   15.43    1.08
   9   2  -7    0.72    0.51
   8  -2  -7   20.26    1.01
   8   2  -7   20.82    1.19
   7  -2  -7    9.86    0.71
   7   2  -7   11.14    0.83
   6  -2  -7   17.18    0.78
  -6  -2   7   16.63    0.53
   6   2  -7   14.82    0.89
  -6   2   7   15.76    0.73
  -5  -2   7   -0.05    0.11
   5  -2  -7    0.23    0.21
  -5   2   7    0.36    0.20
   5   2  -7    0.43    0.28
   4  -2  -7    0.87    0.24
  -4  -2   7    1.75    0.14
   4   2  -7    1.00    0.24
   4   2  -7    1.26    0.34
  -4   2   7    1.15    0.24
   3  -2  -7   24.44    0.74
   3   2  -7   22.80    0.76
   3   2  -7   24.77    0.90
  -3   2   7   23.85    0.71
   2  -2  -7   12.24    0.46
  -2   2   7   12.44    0.57
  -2   2   7   12.84    0.45
   2   2  -7   12.30    0.50
   2   2  -7   12.09    0.57
   1  -2  -7    0.38    0.13
   1   2  -7    0.02    0.11
  -1   2   7    0.51    0.16
   1   2  -7    0.15    0.13
  -1   2   7    0.27    0.11
   0  -2  -7   -0.02    0.13
   0   2   7    0.31    0.14
   0   2  -7    0.21    0.13
   0   2   7   -0.06    0.10
   0   2  -7    0.06    0.12
  -1  -2  -7   13.28    0.55
   1   2   7   13.45    0.51
  -1   2  -7   13.09    0.48
  -1   2  -7   11.85    0.51
   1   2   7   12.43    0.51
  -2  -2  -7   16.00    0.69
  -2   2  -7   14.22    0.55
  -2   2  -7   14.25    0.61
   2   2   7   14.38    0.60
  -3  -2  -7  195.00    4.06
  -3   2  -7  197.11    3.86
  -3   2  -7  199.15    3.91
  -4  -2  -7    0.46    0.29
  -4   2  -7    1.17    0.27
  -4   2  -7    1.01    0.28
  -5  -2  -7    2.61    0.46
  -5   2  -7    2.55    0.37
  -6  -2  -7    4.05    0.59
  -6   2  -7    4.73    0.52
  -7  -2  -7    1.14    0.47
  -7   2  -7    1.93    0.44
  -8  -2  -7    0.02    0.44
  -8   2  -7    0.09    0.34
  -9  -2  -7    7.21    0.93
  -9   2  -7    6.15    0.77
 -10  -2  -7    0.69    0.57
 -10   2  -7    1.02    0.53
 -11  -2  -7   -0.91    0.46
 -12  -2  -7    1.01    0.69
 -12   2  -7    0.97    0.55
 -12  -3   7    0.45    0.57
 -11  -3   7    2.14    0.74
 -11   3   7    1.40    0.50
 -10   3   7    1.13    0.48
   9   3  -7    0.71    0.49
  -9   3   7    0.22    0.35
   8   3  -7    6.68    0.80
  -8   3   7    7.51    0.71
  -7   3   7   51.83    1.60
   7   3  -7   52.96    1.87
   6  -3  -7    3.25    0.40
  -6   3   7    3.95    0.46
   6   3  -7    3.51    0.57
   5  -3  -7    2.47    0.31
   5   3  -7    2.30    0.44
   5   3  -7    2.20    0.37
  -5   3   7    1.99    0.32
   4  -3  -7   32.11    0.88
   4   3  -7   31.34    1.05
  -4   3   7   28.04    0.94
   4   3  -7   32.58    1.16
   3  -3  -7   10.98    0.44
  -3   3   7   11.72    0.54
   3   3  -7   11.03    0.57
   3   3  -7   11.00    0.63
   2  -3  -7   56.07    1.25
  -2   3   7   58.87    1.37
   2   3  -7   56.21    1.43
  -2   3   7   57.51    1.50
   2   3  -7   56.48    1.48
   1  -3  -7   84.60    1.77
  -1   3   7   85.12    1.82
   1   3  -7   84.17    1.90
  -1   3   7   84.52    1.94
   1   3  -7   84.58    1.90
   0  -3  -7    1.56    0.25
   0   3  -7    1.61    0.25
   0   3  -7    1.38    0.28
   0   3   7    1.41    0.24
   0   3   7    1.64    0.27
  -1  -3  -7    2.27    0.32
  -1   3  -7    2.87    0.36
   1   3   7    2.58    0.31
  -1   3  -7    2.34    0.26
   1   3   7    2.89    0.34
  -2  -3  -7   40.90    1.23
   2   3   7   37.54    1.05
   2   3   7   39.98    1.15
  -2   3  -7   39.41    1.18
  -2   3  -7   38.56    0.99
  -3  -3  -7   10.34    0.63
  -3   3  -7   10.38    0.48
  -3   3  -7   10.50    0.60
   3   3   7   11.18    0.64
  -4  -3  -7    0.38    0.30
  -4   3  -7    0.52    0.20
  -4   3  -7    0.96    0.28
  -5  -3  -7    4.68    0.59
  -5   3  -7    5.86    0.59
  -5   3  -7    5.25    0.47
  -6  -3  -7   25.60    1.27
  -6   3  -7   25.04    1.00
  -6   3  -7   25.56    1.13
  -7  -3  -7   44.44    1.79
  -7   3  -7   48.20    1.54
  -7   3  -7   46.60    1.67
  -8  -3  -7    0.01    0.39
  -8   3  -7    0.17    0.35
  -9  -3  -7    2.78    0.70
  -9   3  -7    1.93    0.53
 -10  -3  -7    1.45    0.62
 -10   3  -7    3.02    0.67
 -11  -3  -7    1.02    0.60
 -11   3  -7   -0.51    0.43
 -12  -3  -7    0.41    0.63
 -12   3  -7    0.54    0.49
 -12  -4   7    0.21    0.56
 -11  -4   7   10.79    1.31
 -11   4   7    4.46    0.76
 -10  -4   7   13.77    1.34
 -10   4   7   15.35    1.05
  -9   4   7   23.52    1.20
   9   4  -7   23.84    1.37
  -8   4   7   41.38    1.54
   8   4  -7   43.99    1.82
  -7   4   7    9.17    0.78
   7   4  -7    9.53    0.90
   6   4  -7   20.93    1.10
   6   4  -7   21.05    1.02
  -6   4   7   21.78    0.94
   5   4  -7    0.27    0.25
  -5   4   7    0.01    0.22
   5   4  -7   -0.11    0.26
   4   4  -7   20.07    0.89
   4   4  -7   21.18    0.95
  -4   4   7   20.65    0.85
   3  -4  -7    0.39    0.13
   3   4  -7    0.32    0.22
  -3   4   7    0.36    0.22
   3   4  -7    0.83    0.29
   2  -4  -7    0.08    0.11
   2   4  -7    0.21    0.21
   2   4  -7    0.11    0.20
  -2   4   7    0.22    0.23
  -2   4   7    0.03    0.18
   1  -4  -7    2.37    0.24
  -1   4   7    2.70    0.33
  -1   4   7    1.49    0.31
   1   4  -7    2.37    0.38
   1   4  -7    2.92    0.34
   0  -4  -7    2.57    0.30
   0   4  -7    2.93    0.30
   0   4  -7    3.10    0.39
   0   4   7    1.94    0.30
   0   4   7    2.64    0.36
  -1  -4  -7   49.96    1.35
   1   4   7   49.40    1.33
  -1   4  -7   52.71    1.46
  -1   4  -7   49.75    1.19
   1   4   7   48.64    1.38
  -2  -4  -7  141.67    3.12
   2   4   7  144.56    2.93
  -2   4  -7  141.44    2.78
   2   4   7  141.30    3.07
  -2   4  -7  141.41    3.11
  -3  -4  -7    3.61    0.45
  -3   4  -7    3.58    0.46
   3   4   7    3.96    0.37
  -3   4  -7    4.25    0.33
   3   4   7    3.77    0.46
  -4  -4  -7    0.27    0.28
  -4   4  -7    0.70    0.28
   4   4   7    0.36    0.29
  -4   4  -7    0.46    0.18
  -5  -4  -7   12.23    0.88
  -5   4  -7   11.43    0.76
  -6  -4  -7    3.15    0.66
  -6   4  -7    2.10    0.50
  -7  -4  -7    2.43    0.64
  -7   4  -7    3.31    0.56
  -8  -4  -7    3.01    0.70
  -8   4  -7    2.63    0.57
  -9  -4  -7    4.16    0.84
  -9   4  -7    6.38    0.84
 -10  -4  -7   -0.51    0.49
 -10   4  -7    0.48    0.44
 -11  -4  -7    2.49    0.73
 -11   4  -7    0.78    0.53
 -11  -5   7    3.35    0.84
 -10  -5   7    2.24    0.67
 -10   5   7    2.23    0.54
  -9   5   7    1.95    0.52
  -8   5   7    1.36    0.47
   8   5  -7    0.97    0.48
   7   5  -7   -0.36    0.39
  -7   5   7    0.37    0.36
   7   5  -7   -0.02    0.35
   6   5  -7    4.05    0.60
  -6   5   7    3.43    0.54
   6   5  -7    2.76    0.55
   5   5  -7    2.08    0.47
   5   5  -7    2.12    0.45
  -5   5   7    1.71    0.41
   4   5  -7   46.38    1.54
   4   5  -7   42.73    1.49
  -4   5   7   46.57    1.45
  -3   5   7   12.75    0.69
   3   5  -7   10.73    0.70
   3   5  -7   11.48    0.70
  -2   5   7    4.29    0.48
   2   5  -7    4.07    0.50
  -2   5   7    5.19    0.56
   2   5  -7    3.66    0.43
  -1   5   7   92.52    2.18
  -1   5   7   88.68    2.20
   1   5  -7   85.24    2.05
   1   5  -7   88.95    2.24
   0  -5  -7   17.47    0.67
   0   5   7   16.99    0.78
   0   5   7   14.82    0.75
   0   5  -7   17.71    0.65
   0   5  -7   17.34    0.84
  -1  -5  -7    3.57    0.41
   1   5   7    4.27    0.44
  -1   5  -7    4.04    0.49
   1   5   7    4.58    0.51
  -1   5  -7    3.94    0.31
  -2  -5  -7   47.67    1.46
   2   5   7   48.09    1.35
  -2   5  -7   50.94    1.57
   2   5   7   46.25    1.48
  -3  -5  -7  114.34    2.82
   3   5   7  117.83    2.53
   3   5   7  118.89    2.83
  -3   5  -7  113.53    2.83
  -4  -5  -7   27.34    1.20
   4   5   7   26.41    1.18
  -4   5  -7   28.06    1.20
  -5  -5  -7    7.53    0.80
  -5   5  -7    7.96    0.77
   5   5   7   11.15    0.94
  -6  -5  -7   46.71    1.86
  -6   5  -7   50.32    1.79
  -7  -5  -7   12.55    1.16
  -7   5  -7   12.48    1.08
  -8  -5  -7    7.64    1.02
  -8   5  -7    5.51    0.77
  -9  -5  -7    4.54    0.84
  -9   5  -7    4.90    0.79
 -10  -5  -7    6.67    1.04
 -10   5  -7    7.63    0.99
 -11  -5  -7    3.01    0.88
 -11   5  -7    2.08    0.68
 -10  -6   7    0.38    0.53
  -9  -6   7    1.11    0.61
  -9   6   7    0.26    0.42
   8   6  -7    0.61    0.43
  -8   6   7    0.45    0.41
   7   6  -7    0.69    0.47
   7   6  -7    0.31    0.41
  -7   6   7    0.25    0.37
   6   6  -7    1.28    0.46
   6   6  -7    2.11    0.50
  -6   6   7    1.78    0.47
   5   6  -7   12.73    0.86
  -5   6   7   10.38    0.88
   5   6  -7    9.59    0.88
   4   6  -7   27.35    1.21
   4   6  -7   27.46    1.24
  -4   6   7   28.34    1.20
   3   6  -7    0.63    0.32
  -3   6   7    0.92    0.39
   3   6  -7    1.50    0.39
  -3   6   7    0.42    0.30
   2   6  -7   11.60    0.78
  -2   6   7   12.29    0.79
  -2   6   7   13.87    0.81
   2   6  -7   12.62    0.72
   1   6  -7    1.71    0.32
  -1   6   7    2.19    0.44
  -1   6   7    1.43    0.40
   1   6  -7    2.23    0.45
   0   6   7   30.51    1.20
   0   6  -7   31.15    1.25
   0   6   7   31.47    1.17
  -1   6  -7   27.07    1.17
   1   6   7   25.80    1.02
   1   6   7   26.46    1.13
  -2  -6  -7   21.35    0.95
   2   6   7   20.21    1.04
   2   6   7   19.53    0.85
  -2   6  -7   19.67    1.03
  -3  -6  -7    2.54    0.48
  -3   6  -7    1.83    0.44
   3   6   7    1.00    0.39
  -4  -6  -7   28.22    1.29
   4   6   7   29.58    1.33
  -4   6  -7   30.34    1.33
  -5  -6  -7    3.84    0.61
  -5   6  -7    2.10    0.51
   5   6   7    2.75    0.54
  -6  -6  -7    2.46    0.63
  -6   6  -7    3.04    0.61
   6   6   7    2.17    0.55
  -7  -6  -7    3.79    0.70
  -7   6  -7    3.81    0.70
  -8  -6  -7    0.64    0.52
  -8   6  -7   -0.35    0.37
  -9  -6  -7    5.79    0.92
  -9   6  -7    6.17    0.93
 -10  -6  -7    4.16    0.97
 -10   6  -7    4.04    0.79
 -10  -7   7   -0.34    0.48
  -9  -7   7    0.15    0.52
  -9   7   7    0.30    0.48
  -8  -7   7    2.59    0.69
  -8   7   7    2.37    0.57
   8   7  -7    2.89    0.64
  -7  -7   7    1.21    0.50
   7   7  -7    0.47    0.47
  -7   7   7    0.98    0.47
  -6   7   7    4.04    0.65
   6   7  -7    1.05    0.44
   5   7  -7   21.22    1.16
  -5   7   7   20.48    1.13
   5   7  -7   19.34    1.15
   4   7  -7    1.82    0.53
  -4   7   7    2.36    0.53
  -4   7   7    2.57    0.60
   4   7  -7    1.63    0.45
  -3   7   7    0.91    0.38
   3   7  -7    0.97    0.42
  -3   7   7    0.93    0.45
  -2   7   7    2.38    0.49
  -2   7   7    1.74    0.43
   2   7  -7    2.01    0.47
   1   7  -7    1.73    0.45
  -1   7   7    2.15    0.49
  -1   7   7    1.75    0.47
   0   7  -7    0.99    0.45
   0   7   7    0.58    0.34
   0   7   7    0.88    0.38
   1   7   7   19.44    0.94
   1   7   7   17.92    1.00
  -1   7  -7   18.34    1.08
  -2   7  -7   30.97    1.38
   2   7   7   30.28    1.36
  -3   7  -7    6.91    0.79
   3   7   7    8.14    0.85
  -4   7  -7    7.01    0.78
   4   7   7    8.82    0.88
  -5  -7  -7   56.45    2.07
  -5   7  -7   57.16    2.09
   5   7   7   56.63    2.06
  -6  -7  -7    6.98    0.91
  -6   7  -7    7.05    0.87
   6   7   7    7.15    0.90
  -7  -7  -7   11.02    1.16
  -7   7  -7    8.86    1.00
  -8  -7  -7    1.34    0.66
  -8   7  -7    1.27    0.55
  -9  -7  -7    0.76    0.64
  -9   7  -7    0.53    0.51
  -8  -8   7    0.83    0.64
  -8   8   7    1.54    0.58
   8   8  -7    1.00    0.56
  -7   8   7    3.69    0.73
   7   8  -7    3.03    0.69
   6   8  -7    1.32    0.49
  -6   8   7    0.09    0.50
  -6   8   7    0.53    0.42
   5   8  -7    5.52    0.80
  -5   8   7    7.29    0.88
  -5   8   7    4.31    0.73
   4   8  -7    0.69    0.43
  -4   8   7    0.72    0.41
  -4   8   7    0.68    0.46
  -3   8   7    0.34    0.39
  -3   8   7    0.20    0.40
   3   8  -7    0.39    0.37
   2   8  -7    3.74    0.67
  -2   8   7    2.95    0.59
  -2   8   7    1.97    0.52
  -1   8   7   20.03    1.07
  -1   8   7   21.44    1.18
   1   8  -7   20.70    1.18
   0   8   7    1.35    0.48
   0   8  -7    1.66    0.49
   1   8   7    6.08    0.74
  -1   8  -7    6.40    0.79
   2   8   7    7.06    0.82
  -2   8  -7    5.50    0.75
   3   8   7    0.41    0.42
  -3   8  -7    0.46    0.40
  -4   8  -7    0.70    0.43
   4   8   7    1.44    0.55
   5   8   7   -0.42    0.40
  -5   8  -7    0.32    0.43
  -6   8  -7    4.74    0.77
   6   8   7    5.91    0.93
  -7   8  -7    0.01    0.40
   7   8   7   -0.08    0.44
  -8  -8  -7    0.20    0.59
  -8   8  -7    0.27    0.46
   7   9  -7    0.93    0.54
  -7   9   7    0.26    0.49
  -7   9   7    0.24    0.59
  -6   9   7    0.70    0.52
  -6   9   7    1.31    0.60
   6   9  -7    1.01    0.52
  -5   9   7    1.69    0.60
   5   9  -7    1.49    0.63
  -5   9   7    2.12    0.63
  -4   9   7    0.47    0.40
   4   9  -7    0.08    0.41
  -4   9   7    0.98    0.49
  -3   9   7    1.80    0.58
   3   9  -7    2.66    0.62
  -3   9   7    1.62    0.58
   2   9  -7    1.43    0.53
  -2   9   7    2.54    0.59
  -2   9   7    3.17    0.62
  -1   9   7    2.61    0.60
   1   9  -7    2.12    0.56
   0   9  -7    2.44    0.60
   0   9   7    2.34    0.62
  -1   9  -7    6.01    0.85
   1   9   7    8.32    0.96
  -2   9  -7    0.19    0.42
   2   9   7    1.28    0.54
   3   9   7    8.62    1.04
  -3   9  -7    6.98    0.93
   4   9   7    0.47    0.45
  -4   9  -7    0.17    0.42
  -5   9  -7    0.02    0.48
   5   9   7    0.26    0.51
  -6   9  -7    3.70    0.77
   6   9   7    5.90    0.93
  -5  10   7   -0.47    0.42
  -5  10   7    0.14    0.58
  -4  10   7    6.10    0.90
   4  10  -7    7.90    1.06
  -4  10   7    5.10    0.80
   3  10  -7   -0.18    0.41
  -3  10   7   -0.23    0.48
  -3  10   7    1.14    0.59
  -2  10   7   -0.27    0.43
   2  10  -7    0.10    0.47
   1  10  -7    0.09    0.38
  -1  10   7   -0.71    0.31
   0  10  -7    2.53    0.65
   0  10   7    3.82    0.75
  -1  10  -7    0.76    0.53
   1  10   7   -0.14    0.36
  -2  10  -7    0.83    0.57
   2  10   7    0.25    0.47
  -3  10  -7    1.66    0.58
   3  10   7    0.14    0.46
   4  10   7    5.12    0.88
  -4  10  -7    4.05    0.79
 -13   0   8    0.66    0.65
 -12   0   8    0.56    0.58
 -11   0   8    0.56    0.56
  10   0  -8    0.76    0.47
   9   0  -8   -0.26    0.30
   8   0  -8   11.82    0.97
   7   0  -8    0.44    0.30
   6   0  -8   57.64    1.73
  -5   0   8    0.02    0.18
   5   0  -8   -0.05    0.26
   4   0  -8    0.30    0.28
  -4   0   8    0.44    0.21
  -3   0   8   -0.26    0.13
   3   0  -8    0.12    0.18
  -2   0   8   26.89    0.73
   2   0  -8   28.23    0.83
   1   0  -8   -0.16    0.08
  -1   0   8   -0.10    0.09
   1   0  -8    0.04    0.03
   0   0  -8  355.02    6.51
  -1   0  -8   -0.30    0.11
  -2   0  -8   36.16    1.04
  -3   0  -8   -0.27    0.20
  -4   0  -8   87.42    2.16
  -5   0  -8   -0.26    0.25
  -6   0  -8   12.44    0.81
  -7   0  -8   -0.10    0.33
  -8   0  -8    0.22    0.41
  -9   0  -8    0.53    0.49
 -10   0  -8    4.24    0.81
 -11   0  -8   -0.45    0.45
 -12   0  -8    0.14    0.63
 -13  -1   8    1.73    0.78
 -12  -1   8    1.41    0.61
 -12   1   8    1.06    0.60
 -11   1   8    7.84    1.00
  10   1  -8    6.32    0.86
   9  -1  -8   10.21    0.92
   9   1  -8   11.43    1.01
   8  -1  -8   39.84    1.52
   8   1  -8   41.77    1.65
  -7  -1   8    0.23    0.21
   7  -1  -8    0.40    0.32
   7   1  -8    0.02    0.33
   6  -1  -8    2.55    0.40
  -6  -1   8    2.63    0.29
   6   1  -8    2.50    0.44
   5  -1  -8    9.87    0.60
  -5  -1   8    9.70    0.43
   5   1  -8   10.05    0.67
   4  -1  -8    5.09    0.45
  -4  -1   8    4.58    0.30
   4   1  -8    4.96    0.51
  -4   1   8    4.83    0.43
  -3  -1   8  121.17    2.27
   3  -1  -8  115.01    2.49
   3   1  -8  120.47    2.61
  -3   1   8  120.55    2.46
   3   1  -8  118.64    2.33
   2  -1  -8   25.68    0.76
  -2  -1   8   24.82    0.64
  -2   1   8   25.63    0.76
   2   1  -8   26.08    0.65
  -2   1   8   25.97    0.57
   2   1  -8   24.47    0.80
   1  -1  -8    5.10    0.30
   1   1  -8    5.86    0.34
  -1   1   8    5.35    0.31
  -1   1   8    5.23    0.17
   1   1  -8    5.46    0.24
   0  -1  -8   48.65    1.17
   0   1  -8   46.40    1.16
   0   1   8   47.15    1.14
   0   1  -8   48.97    1.04
   0   1   8   47.85    0.97
  -1  -1  -8  335.33    6.21
  -1   1  -8  330.14    5.91
  -1   1  -8  335.92    6.16
  -2  -1  -8   47.30    1.30
  -2   1  -8   50.06    1.25
  -3  -1  -8  103.40    2.41
  -3   1  -8  105.29    2.32
  -4  -1  -8    0.21    0.26
  -4   1  -8   -0.10    0.22
  -5  -1  -8   86.39    2.29
  -5   1  -8   84.96    2.18
  -6  -1  -8    7.98    0.78
  -6   1  -8    7.51    0.67
  -7  -1  -8    6.27    0.74
  -7   1  -8    6.14    0.69
  -8  -1  -8   19.89    1.21
  -8   1  -8   16.18    1.06
  -9  -1  -8    0.51    0.45
  -9   1  -8    1.17    0.51
 -10  -1  -8    1.38    0.57
 -10   1  -8    1.46    0.60
 -11  -1  -8    0.17    0.57
 -11   1  -8   -0.48    0.46
 -12  -1  -8    0.60    0.70
 -12   1  -8    1.04    0.66
 -12  -2   8    0.41    0.57
  10   2  -8   -0.48    0.37
 -10   2   8    0.70    0.47
   9  -2  -8   33.12    1.37
   9   2  -8   29.80    1.48
   8  -2  -8    7.60    0.74
   8   2  -8    7.44    0.81
   7  -2  -8  176.88    3.83
   7   2  -8  171.40    4.08
   6  -2  -8   15.31    0.74
  -6   2   8   14.59    0.69
   6   2  -8   15.12    0.87
   5  -2  -8   26.00    0.92
  -5  -2   8   27.73    0.67
  -5   2   8   27.04    0.89
   5   2  -8   27.30    1.10
   4  -2  -8   24.24    0.82
  -4  -2   8   22.97    0.56
   4   2  -8   22.96    0.81
   4   2  -8   23.83    0.96
  -4   2   8   24.94    0.76
   3  -2  -8   59.52    1.41
   3   2  -8   59.79    1.43
  -3   2   8   61.09    1.54
  -3   2   8   58.41    1.33
   3   2  -8   61.72    1.61
   2  -2  -8  167.60    3.25
  -2   2   8  170.66    3.34
   2   2  -8  163.86    3.41
  -2   2   8  169.42    3.08
   2   2  -8  165.99    3.19
   1  -2  -8    0.07    0.12
   1   2  -8    0.02    0.12
   1   2  -8   -0.19    0.14
  -1   2   8   -0.05    0.09
  -1   2   8   -0.16    0.13
   0  -2  -8    9.39    0.45
   0   2  -8    9.75    0.44
   0   2   8   10.17    0.39
   0   2   8   10.05    0.46
   0   2  -8    9.47    0.44
  -1  -2  -8  190.63    3.81
  -1   2  -8  194.76    3.72
   1   2   8  194.80    3.70
  -1   2  -8  195.86    3.69
   1   2   8  190.69    3.61
  -2  -2  -8    1.20    0.29
  -2   2  -8    1.45    0.26
  -2   2  -8    1.05    0.22
   2   2   8    1.29    0.25
  -3  -2  -8  112.70    2.61
  -3   2  -8  112.21    2.47
  -3   2  -8  110.19    2.40
  -4  -2  -8    4.04    0.48
  -4   2  -8    3.81    0.43
  -4   2  -8    3.39    0.38
  -5   2  -8   20.43    0.86
  -6  -2  -8    0.53    0.35
  -6   2  -8    0.47    0.28
  -7  -2  -8    5.43    0.75
  -7   2  -8    4.41    0.58
  -8  -2  -8    0.51    0.43
  -8   2  -8    0.52    0.39
  -9  -2  -8   20.70    1.33
  -9   2  -8   21.49    1.22
 -10  -2  -8    3.22    0.72
 -10   2  -8    2.41    0.61
 -11  -2  -8    9.15    1.21
 -12  -2  -8    0.43    0.68
 -12   2  -8    0.37    0.50
 -12  -3   8    0.68    0.67
 -11  -3   8    0.48    0.58
 -11   3   8   -0.15    0.36
  10   3  -8    1.71    0.60
 -10   3   8    1.17    0.47
   9   3  -8    2.86    0.63
  -9   3   8    3.20    0.56
  -8   3   8   21.47    1.03
   8   3  -8   21.77    1.22
  -7   3   8    1.89    0.40
   7   3  -8    0.85    0.42
   6  -3  -8    0.14    0.21
  -6   3   8   -0.06    0.21
   6   3  -8   -0.17    0.19
   6   3  -8   -0.16    0.27
   5  -3  -8    4.97    0.42
  -5   3   8    4.16    0.43
   5   3  -8    4.90    0.59
   5   3  -8    4.12    0.46
   4  -3  -8    8.78    0.45
   4   3  -8    9.17    0.66
   4   3  -8    7.72    0.53
  -4   3   8    8.51    0.48
   3  -3  -8    0.43    0.16
  -3   3   8    0.47    0.27
  -3   3   8    0.61    0.20
   3   3  -8    0.19    0.25
   3   3  -8    0.22    0.23
   2  -3  -8    0.25    0.16
  -2   3   8    0.35    0.19
   2   3  -8    0.31    0.22
  -2   3   8    0.44    0.26
   2   3  -8    0.08    0.22
   1  -3  -8    9.24    0.43
   1   3  -8    8.05    0.51
  -1   3   8    8.64    0.44
   1   3  -8    9.15    0.51
  -1   3   8    9.02    0.53
   0  -3  -8   -0.19    0.19
   0   3  -8    0.08    0.18
   0   3   8    0.18    0.22
   0   3  -8    0.14    0.21
   0   3   8    0.16    0.18
  -1  -3  -8    2.81    0.36
   1   3   8    2.20    0.32
   1   3   8    2.53    0.34
  -1   3  -8    2.64    0.29
  -1   3  -8    2.29    0.34
  -2  -3  -8    1.16    0.31
   2   3   8    0.65    0.21
   2   3   8    1.17    0.30
  -2   3  -8    1.35    0.22
  -2   3  -8    0.76    0.26
  -3  -3  -8   13.84    0.75
  -3   3  -8   11.24    0.63
   3   3   8   13.66    0.67
  -3   3  -8   11.77    0.53
  -4  -3  -8   87.28    2.32
  -4   3  -8   88.96    2.22
  -4   3  -8   84.53    2.00
  -5  -3  -8    6.01    0.67
  -5   3  -8    5.89    0.59
  -5   3  -8    6.36    0.53
  -6  -3  -8   34.69    1.48
  -6   3  -8   34.50    1.22
  -6   3  -8   36.05    1.37
  -7  -3  -8    9.89    0.97
  -7   3  -8   11.46    0.77
  -7   3  -8   11.67    0.84
  -8  -3  -8   27.24    1.48
  -8   3  -8   26.31    1.30
  -9  -3  -8   -0.30    0.42
  -9   3  -8   -0.22    0.39
 -10  -3  -8    0.50    0.52
 -10   3  -8    0.67    0.43
 -11  -3  -8    0.97    0.62
 -11   3  -8    1.94    0.67
 -12   3  -8    0.83    0.58
 -12  -4   8    2.15    0.82
 -11  -4   8    1.41    0.62
 -10   4   8   14.24    0.97
   9   4  -8    4.52    0.76
  -9   4   8    5.07    0.65
   8   4  -8    6.17    0.81
  -8   4   8    5.71    0.67
  -7   4   8   10.00    0.80
   7   4  -8    9.03    0.93
  -6   4   8   44.50    1.43
   6   4  -8   46.14    1.68
   6   4  -8   44.71    1.53
   5   4  -8   11.50    0.77
   5   4  -8   12.30    0.75
  -5   4   8   11.82    0.67
   4   4  -8   23.70    1.02
  -4   4   8   23.02    0.89
   4   4  -8   25.78    1.01
   3  -4  -8   -0.07    0.11
  -3   4   8   -0.07    0.25
  -3   4   8    0.21    0.21
   3   4  -8    0.26    0.22
   3   4  -8   -0.28    0.21
   2  -4  -8    3.60    0.27
  -2   4   8    3.45    0.44
   2   4  -8    3.85    0.43
   2   4  -8    3.60    0.41
  -2   4   8    3.50    0.39
   1  -4  -8    2.22    0.25
   1   4  -8    2.88    0.39
  -1   4   8    2.19    0.35
  -1   4   8    2.18    0.32
   1   4  -8    2.06    0.31
   0  -4  -8   44.88    1.21
   0   4  -8   45.74    1.34
   0   4   8   46.88    1.28
   0   4   8   44.86    1.30
   0   4  -8   45.23    1.19
  -1  -4  -8    1.49    0.29
   1   4   8    1.94    0.31
  -1   4  -8    1.17    0.21
   1   4   8    1.54    0.29
  -1   4  -8    1.65    0.30
  -2  -4  -8    4.30    0.47
   2   4   8    4.41    0.41
  -2   4  -8    3.92    0.46
  -2   4  -8    4.27    0.31
   2   4   8    4.32    0.48
  -3  -4  -8   18.98    0.89
  -3   4  -8   18.61    0.65
  -3   4  -8   18.22    0.87
   3   4   8   18.40    0.72
   3   4   8   19.39    0.88
  -4  -4  -8    3.74    0.54
  -4   4  -8    4.06    0.53
  -4   4  -8    3.28    0.34
   4   4   8    3.40    0.47
  -5  -4  -8    9.20    0.83
  -5   4  -8    8.40    0.75
  -6  -4  -8   24.27    1.27
  -6   4  -8   24.94    1.20
  -7  -4  -8   12.52    1.15
  -7   4  -8    8.53    0.85
  -8  -4  -8    1.52    0.55
  -8   4  -8    1.46    0.51
  -9  -4  -8    0.88    0.60
  -9   4  -8    0.41    0.41
 -10  -4  -8    2.98    0.76
 -10   4  -8    2.71    0.64
 -11  -4  -8    0.50    0.56
 -11   4  -8    0.78    0.55
 -11  -5   8    2.31    0.77
 -10  -5   8   -0.24    0.46
 -10   5   8    0.98    0.56
  -9   5   8    1.43    0.48
   9   5  -8    1.67    0.56
  -8   5   8    1.47    0.46
   8   5  -8    1.76    0.59
  -7   5   8   10.00    0.83
   7   5  -8   12.47    1.02
   7   5  -8    8.83    0.93
  -6   5   8   38.82    1.38
   6   5  -8   37.16    1.55
   6   5  -8   38.16    1.49
   5   5  -8    1.02    0.40
  -5   5   8    0.60    0.29
   5   5  -8    0.79    0.36
  -4   5   8   35.65    1.23
   4   5  -8   35.14    1.33
   4   5  -8   33.26    1.28
   3   5  -8   42.13    1.41
  -3   5   8   43.89    1.49
  -3   5   8   42.46    1.34
   3   5  -8   43.58    1.42
  -2   5   8   37.51    1.31
   2   5  -8   41.57    1.35
   2   5  -8   37.29    1.23
  -2   5   8   36.14    1.21
   1   5  -8    7.81    0.51
  -1   5   8    9.64    0.61
  -1   5   8   10.76    0.65
   1   5  -8    9.75    0.64
   0  -5  -8   41.86    1.19
   0   5   8   44.51    1.35
   0   5  -8   43.74    1.17
   0   5   8   42.49    1.32
   0   5  -8   41.62    1.38
  -1  -5  -8    1.66    0.32
   1   5   8    1.87    0.33
  -1   5  -8    1.90    0.24
   1   5   8    2.09    0.37
  -1   5  -8    1.73    0.36
  -2  -5  -8    1.51    0.34
   2   5   8    1.11    0.27
   2   5   8    0.85    0.30
  -2   5  -8    0.75    0.30
  -3  -5  -8   25.60    1.13
   3   5   8   29.07    1.16
  -3   5  -8   26.92    1.15
   3   5   8   28.95    0.97
  -4  -5  -8   22.05    1.10
   4   5   8   18.63    0.99
  -4   5  -8   20.30    1.04
  -5  -5  -8    2.24    0.55
  -5   5  -8    1.40    0.46
   5   5   8    1.35    0.44
  -6  -5  -8    8.39    0.90
  -6   5  -8    7.10    0.77
  -7  -5  -8    3.78    0.76
  -7   5  -8    2.86    0.57
  -8  -5  -8    2.25    0.62
  -8   5  -8    2.17    0.55
  -9  -5  -8    1.52    0.67
  -9   5  -8    2.05    0.60
 -10  -5  -8    1.69    0.69
 -10   5  -8    1.32    0.56
 -11   5  -8    1.14    0.63
 -10  -6   8    1.82    0.74
  -9   6   8    3.13    0.63
   8   6  -8    1.09    0.48
   8   6  -8    1.17    0.47
  -8   6   8    0.60    0.41
   7   6  -8   22.95    1.27
   7   6  -8   22.85    1.30
  -7   6   8   23.99    1.20
   6   6  -8    6.17    0.78
   6   6  -8    4.71    0.66
  -6   6   8    5.79    0.69
   5   6  -8   -0.18    0.27
   5   6  -8   -0.28    0.34
  -5   6   8    0.34    0.32
   4   6  -8    0.78    0.35
   4   6  -8    0.39    0.36
  -4   6   8    1.22    0.42
  -4   6   8    0.78    0.35
  -3   6   8   42.42    1.55
   3   6  -8   39.08    1.40
   3   6  -8   39.23    1.48
  -3   6   8   38.93    1.40
  -2   6   8    1.07    0.39
   2   6  -8    1.70    0.36
  -2   6   8    0.63    0.34
   2   6  -8    0.75    0.34
   1   6  -8    5.90    0.51
  -1   6   8    5.04    0.59
   1   6  -8    6.11    0.64
  -1   6   8    6.32    0.64
   0   6   8    1.59    0.39
   0   6   8    1.17    0.38
   0   6  -8    1.23    0.42
   1   6   8   35.96    1.25
  -1   6  -8   35.26    1.38
   1   6   8   38.91    1.37
  -2  -6  -8   14.27    0.81
   2   6   8   13.44    0.87
   2   6   8   13.28    0.72
  -2   6  -8   12.00    0.83
  -3  -6  -8   15.89    0.92
   3   6   8   16.99    0.98
  -3   6  -8   15.26    0.93
  -4  -6  -8    0.68    0.41
   4   6   8    1.73    0.46
  -4   6  -8    0.84    0.43
  -5  -6  -8    0.59    0.42
   5   6   8    1.47    0.47
  -5   6  -8    1.42    0.47
  -6  -6  -8    0.08    0.43
   6   6   8    0.48    0.41
  -6   6  -8    1.09    0.43
  -7  -6  -8    0.09    0.46
  -7   6  -8    0.21    0.36
  -8  -6  -8    5.42    0.88
  -8   6  -8    5.19    0.80
  -9  -6  -8    0.68    0.57
  -9   6  -8    0.68    0.50
 -10  -6  -8    2.05    0.79
 -10   6  -8    1.11    0.60
 -10  -7   8   -0.05    0.62
  -9  -7   8    4.01    0.86
  -8  -7   8    1.47    0.59
   8   7  -8    2.19    0.63
  -8   7   8    1.50    0.55
   7   7  -8    1.33    0.52
  -7   7   8    0.48    0.42
   6   7  -8    0.38    0.39
   6   7  -8   -0.15    0.39
  -6   7   8    0.79    0.44
   5   7  -8    0.17    0.33
  -5   7   8    0.29    0.34
  -5   7   8    0.44    0.46
   5   7  -8   -0.09    0.36
   4   7  -8    3.10    0.55
  -4   7   8    3.30    0.61
  -4   7   8    3.44    0.60
   4   7  -8    3.74    0.63
   3   7  -8   -0.41    0.26
  -3   7   8    0.09    0.34
  -3   7   8   -0.42    0.28
   2   7  -8    4.15    0.63
  -2   7   8    4.78    0.63
  -2   7   8    6.90    0.74
   1   7  -8   25.25    1.23
  -1   7   8   27.83    1.21
  -1   7   8   28.50    1.23
   0   7  -8    0.33    0.34
   0   7   8    0.25    0.31
   0   7   8    0.11    0.30
  -1   7  -8    0.32    0.36
   1   7   8    0.32    0.37
   1   7   8   -0.04    0.28
   2   7   8   20.92    1.11
  -2   7  -8   21.02    1.14
   3   7   8   11.80    0.98
  -3   7  -8   11.08    0.98
   4   7   8   22.34    1.22
  -4   7  -8   23.31    1.26
  -5  -7  -8   21.20    1.25
  -5   7  -8   17.73    1.14
   5   7   8   16.73    1.12
  -6  -7  -8    8.32    0.95
   6   7   8    7.58    0.91
  -6   7  -8    8.11    0.96
  -7  -7  -8    9.03    1.04
  -7   7  -8   11.08    1.14
  -8  -7  -8    9.68    1.17
  -8   7  -8   11.97    1.19
  -9  -7  -8    2.92    0.82
  -9   7  -8    0.99    0.54
  -8  -8   8    0.18    0.52
   8   8  -8    0.23    0.51
  -8   8   8   -0.15    0.49
   7   8  -8    3.46    0.71
  -7   8   8    3.18    0.70
  -7   8   8    1.86    0.59
  -6   8   8    7.64    1.00
   6   8  -8    8.51    0.96
  -6   8   8    8.54    0.91
   5   8  -8   17.26    1.17
  -5   8   8   18.73    1.22
  -5   8   8   18.51    1.15
  -4   8   8    2.54    0.57
   4   8  -8    3.39    0.68
  -4   8   8    2.57    0.64
  -3   8   8    0.20    0.41
   3   8  -8   -0.18    0.32
  -3   8   8   -0.39    0.33
  -2   8   8   13.70    1.09
   2   8  -8   12.01    1.06
  -2   8   8   11.68    0.97
  -1   8   8   10.79    0.95
   1   8  -8   10.24    0.98
  -1   8   8   11.30    0.97
   0   8  -8    8.69    0.90
   0   8   8    7.80    0.81
   1   8   8   21.60    1.17
  -1   8  -8   17.71    1.11
  -2   8  -8    5.45    0.75
   2   8   8    6.49    0.80
  -3   8  -8   -0.04    0.35
   3   8   8    0.08    0.36
   4   8   8   16.59    1.16
  -4   8  -8   18.53    1.23
   5   8   8   12.03    1.21
  -5   8  -8   10.81    1.10
   6   8   8    3.98    0.77
  -6   8  -8    3.23    0.72
  -7   8  -8   -0.50    0.41
  -8  -8  -8    8.44    1.17
  -8   8  -8    6.17    0.99
   7   9  -8    0.98    0.58
  -7   9   8    0.88    0.55
   6   9  -8    4.05    0.79
  -6   9   8    3.48    0.72
  -6   9   8    5.15    0.89
  -5   9   8    2.17    0.60
  -5   9   8    2.42    0.69
   5   9  -8    3.65    0.77
  -4   9   8   11.41    1.07
  -4   9   8   10.67    1.07
   4   9  -8    9.67    1.05
   3   9  -8    5.46    0.83
  -3   9   8    4.99    0.76
  -3   9   8    4.96    0.76
  -2   9   8    0.41    0.43
   2   9  -8   -0.22    0.33
  -2   9   8    0.38    0.44
   1   9  -8    3.25    0.65
  -1   9   8    3.01    0.61
   0   9  -8    0.61    0.41
   0   9   8    1.13    0.50
   1   9   8    2.88    0.65
  -1   9  -8    3.80    0.73
   2   9   8    3.36    0.71
  -2   9  -8    2.52    0.64
   3   9   8    2.98    0.69
  -3   9  -8    2.95    0.69
  -4   9  -8    4.28    0.78
   4   9   8    3.61    0.70
   5   9   8    7.97    1.03
  -5   9  -8    8.11    1.01
  -6   9  -8    5.24    0.86
   6   9   8    6.18    0.99
  -5  10   8    0.27    0.46
  -5  10   8    1.31    0.60
  -4  10   8   -0.06    0.40
   4  10  -8   -0.71    0.41
  -4  10   8    0.90    0.61
  -3  10   8    0.24    0.48
   3  10  -8    0.90    0.51
  -3  10   8    0.34    0.51
   2  10  -8    1.05    0.56
  -2  10   8    2.36    0.66
   1  10  -8    0.35    0.44
  -1  10   8    0.14    0.41
   0  10   8    1.40    0.57
   0  10  -8    1.09    0.52
   1  10   8    0.71    0.56
  -1  10  -8    2.36    0.68
   2  10   8    4.05    0.80
  -2  10  -8    2.31    0.64
  -3  10  -8    3.19    0.73
   3  10   8    3.30    0.76
   4  10   8    3.04    0.80
 -13   0   9    4.89    1.01
 -12   0   9    0.66    0.59
  10   0  -9   -0.15    0.39
   9   0  -9   43.78    1.70
   8   0  -9   -0.08    0.33
   7   0  -9  206.20    4.54
  -6   0   9    0.28    0.20
   6   0  -9    0.05    0.26
   5   0  -9  194.80    4.13
  -5   0   9  198.29    3.82
   4   0  -9   -0.12    0.24
  -4   0   9   -0.01    0.18
  -3   0   9    7.70    0.40
   3   0  -9    7.73    0.49
  -2   0   9   -0.21    0.10
   2   0  -9   -0.08    0.13
  -1   0   9  352.13    6.21
   1   0  -9  343.44    5.85
   1   0  -9  342.87    6.41
   0   0  -9    0.00    0.12
  -1   0  -9    0.05    0.14
  -2   0  -9    0.00    0.18
  -3   0  -9   70.01    1.77
  -4   0  -9    0.45    0.26
  -5   0  -9  120.92    2.89
  -6   0  -9   -0.34    0.31
  -7   0  -9   -0.15    0.32
  -8   0  -9   -0.40    0.38
  -9   0  -9   16.28    1.32
 -10   0  -9   -0.33    0.40
 -11   0  -9    6.77    0.95
 -12   0  -9    0.20    0.62
 -13  -1   9    1.50    0.69
 -12  -1   9   31.28    1.79
 -12   1   9   29.38    1.69
 -11   1   9    0.13    0.43
  10  -1  -9    0.30    0.42
  10   1  -9    0.58    0.49
   9  -1  -9   34.39    1.48
   9   1  -9   36.21    1.57
   8  -1  -9    3.51    0.54
   8   1  -9    3.44    0.63
   7  -1  -9    0.41    0.30
  -7  -1   9    1.21    0.27
   7   1  -9    0.18    0.38
  -6  -1   9   24.26    0.76
   6  -1  -9   23.55    0.99
   6   1  -9   22.64    1.04
   5  -1  -9    0.38    0.25
  -5  -1   9    0.36    0.17
   5   1  -9    0.86    0.30
  -5   1   9    0.52    0.25
   4  -1  -9   24.38    0.86
  -4  -1   9   22.92    0.68
  -4   1   9   22.30    0.83
   4   1  -9   24.04    0.96
  -3  -1   9  110.41    2.15
   3  -1  -9  108.19    2.37
   3   1  -9  109.83    2.48
  -3   1   9  108.98    2.33
   3   1  -9  113.59    2.18
   2  -1  -9    4.17    0.35
  -2  -1   9    3.28    0.23
  -2   1   9    3.70    0.16
  -2   1   9    4.20    0.34
   2   1  -9    3.30    0.34
   2   1  -9    3.60    0.22
   1  -1  -9  102.41    2.15
   1   1  -9  104.59    2.20
  -1   1   9   99.37    2.11
   1   1  -9  100.41    1.91
  -1   1   9  102.02    1.79
   0  -1  -9   14.76    0.57
   0   1   9   14.33    0.54
   0   1  -9   15.75    0.47
   0   1  -9   15.96    0.58
  -1  -1  -9    9.93    0.50
  -1   1  -9   11.27    0.42
  -1   1  -9   10.31    0.48
  -2  -1  -9    7.89    0.50
  -2   1  -9    9.11    0.50
  -3  -1  -9   27.84    1.02
  -3   1  -9   27.33    0.94
  -4  -1  -9  151.21    3.40
  -4   1  -9  154.31    3.30
  -5  -1  -9    2.23    0.42
  -5   1  -9    2.66    0.43
  -6  -1  -9   13.01    0.85
  -6   1  -9   14.21    0.84
  -7  -1  -9   30.23    1.40
  -7   1  -9   30.14    1.32
  -8  -1  -9    2.66    0.62
  -8   1  -9    1.53    0.46
  -9  -1  -9    1.31    0.57
  -9   1  -9    1.02    0.47
 -10  -1  -9    0.14    0.48
 -10   1  -9   -0.42    0.41
 -11  -1  -9    2.83    0.83
 -11   1  -9    0.42    0.57
 -12  -1  -9   15.53    1.60
 -12   1  -9   13.85    1.40
 -12  -2   9    1.43    0.65
 -11   2   9   -0.41    0.32
  10   2  -9    1.04    0.53
   9  -2  -9    2.89    0.53
   9   2  -9    2.74    0.59
   8  -2  -9    3.69    0.55
   8   2  -9    3.87    0.64
   7  -2  -9    1.38    0.37
   7   2  -9    1.18    0.42
   6  -2  -9    0.24    0.24
  -6   2   9   -0.06    0.18
   6   2  -9   -0.27    0.28
   5  -2  -9    1.07    0.27
  -5  -2   9    1.29    0.17
  -5   2   9    1.07    0.23
   5   2  -9    1.23    0.34
  -4  -2   9  114.89    2.11
   4  -2  -9  110.37    2.44
  -4   2   9  113.50    2.30
  -4   2   9  113.68    2.54
   4   2  -9  112.64    2.40
   4   2  -9  112.39    2.66
   3  -2  -9   51.78    1.29
  -3   2   9   51.23    1.39
   3   2  -9   47.36    1.42
  -3   2   9   51.03    1.16
   3   2  -9   52.07    1.27
   2  -2  -9   10.68    0.49
  -2   2   9   11.98    0.41
   2   2  -9   10.88    0.60
  -2   2   9   12.67    0.58
   2   2  -9   11.40    0.49
   1  -2  -9  199.51    3.77
   1   2  -9  188.91    3.84
  -1   2   9  194.97    3.78
  -1   2   9  196.50    3.51
   1   2  -9  194.19    3.63
   0  -2  -9    5.90    0.40
   0   2   9    6.15    0.32
   0   2   9    6.23    0.39
   0   2  -9    7.13    0.37
   0   2  -9    6.56    0.40
  -1  -2  -9    2.97    0.34
  -1   2  -9    3.54    0.34
   1   2   9    3.76    0.32
   1   2   9    3.43    0.35
  -1   2  -9    2.68    0.31
  -2  -2  -9   40.93    1.24
  -2   2  -9   41.01    1.13
  -2   2  -9   41.39    1.16
  -3  -2  -9  166.88    3.63
  -3   2  -9  171.38    3.47
  -3   2  -9  168.09    3.45
  -4  -2  -9   16.84    0.86
  -4   2  -9   18.80    0.83
  -4   2  -9   16.90    0.74
  -5  -2  -9    3.44    0.52
  -5   2  -9    3.56    0.47
  -5   2  -9    3.70    0.45
  -6  -2  -9    0.83    0.38
  -6   2  -9    0.78    0.32
  -7  -2  -9    8.89    0.90
  -7   2  -9   10.11    0.86
  -8  -2  -9   11.88    1.08
  -8   2  -9   12.22    0.90
  -9  -2  -9    0.26    0.51
  -9   2  -9    0.46    0.42
 -10  -2  -9    3.60    0.78
 -10   2  -9    3.26    0.73
 -12  -2  -9   -0.36    0.63
 -12   2  -9   -0.19    0.53
 -12  -3   9    4.83    0.96
  10   3  -9    2.78    0.66
 -10   3   9    1.94    0.52
  -9   3   9   10.29    0.87
   9   3  -9   10.19    1.03
   8   3  -9    9.76    0.95
  -8   3   9   10.09    0.79
   7   3  -9   -0.23    0.33
  -7   3   9    0.45    0.28
   6  -3  -9    0.13    0.23
   6   3  -9    0.34    0.33
   6   3  -9    0.86    0.31
  -6   3   9    0.13    0.23
   5  -3  -9    0.38    0.21
   5   3  -9    0.16    0.27
   5   3  -9    0.03    0.21
  -5   3   9    0.62    0.23
   4  -3  -9    3.87    0.35
  -4   3   9    3.71    0.37
   4   3  -9    3.06    0.45
  -4   3   9    3.12    0.43
   4   3  -9    4.05    0.43
   3  -3  -9   55.30    1.32
   3   3  -9   53.85    1.55
   3   3  -9   56.10    1.45
  -3   3   9   54.78    1.33
  -3   3   9   52.62    1.52
   2  -3  -9   23.76    0.73
  -2   3   9   21.81    0.86
   2   3  -9   23.73    0.82
   2   3  -9   22.74    0.86
  -2   3   9   23.11    0.73
   1  -3  -9    0.66    0.21
  -1   3   9    0.43    0.20
   1   3  -9    0.77    0.23
  -1   3   9    0.38    0.27
   1   3  -9    0.69    0.26
   0  -3  -9    3.60    0.38
   0   3   9    3.17    0.38
   0   3   9    2.62    0.31
   0   3  -9    3.70    0.36
   0   3  -9    3.23    0.38
  -1  -3  -9   83.96    2.00
  -1   3  -9   81.99    1.97
   1   3   9   85.25    1.96
  -1   3  -9   88.57    1.91
   1   3   9   86.77    1.92
  -2  -3  -9    7.44    0.52
  -2   3  -9    5.77    0.40
   2   3   9    5.55    0.44
  -2   3  -9    5.75    0.51
   2   3   9    6.44    0.45
  -3  -3  -9   38.47    1.31
  -3   3  -9   40.74    1.26
  -3   3  -9   38.28    1.10
   3   3   9   39.47    1.23
  -4  -3  -9   31.42    1.24
  -4   3  -9   34.56    1.21
  -4   3  -9   32.91    1.04
  -5  -3  -9    4.37    0.59
  -5   3  -9    5.75    0.52
  -5   3  -9    5.59    0.59
  -6  -3  -9    6.82    0.80
  -6   3  -9    7.80    0.74
  -6   3  -9    7.83    0.65
  -7  -3  -9   -0.12    0.37
  -7   3  -9    0.17    0.33
  -7   3  -9    0.11    0.32
  -8  -3  -9   16.34    1.33
  -8   3  -9   14.48    1.03
  -9  -3  -9    0.91    0.57
  -9   3  -9   -0.09    0.36
 -10  -3  -9    1.52    0.69
 -10   3  -9    2.49    0.64
 -11  -3  -9    0.59    0.60
 -11   3  -9   -0.19    0.39
 -12  -4   9    2.60    0.84
 -11  -4   9    3.88    0.84
 -10   4   9    0.32    0.41
  10   4  -9    1.20    0.58
   9   4  -9    3.90    0.72
  -9   4   9    3.28    0.58
  -8   4   9   12.12    0.81
   8   4  -9    9.88    1.01
   7   4  -9    7.07    0.81
   7   4  -9    7.02    0.71
  -7   4   9    7.87    0.72
   6   4  -9    1.99    0.44
  -6   4   9    1.79    0.39
   6   4  -9    3.61    0.59
   5   4  -9   29.63    1.25
  -5   4   9   29.78    1.06
   5   4  -9   31.20    1.17
   4   4  -9    1.37    0.32
   4   4  -9    1.43    0.35
  -4   4   9    1.84    0.39
  -4   4   9    2.08    0.33
   3  -4  -9    1.65    0.21
   3   4  -9    0.76    0.28
   3   4  -9    1.86    0.35
  -3   4   9    1.66    0.35
  -3   4   9    1.40    0.29
   2  -4  -9   27.35    0.77
   2   4  -9   25.61    0.97
   2   4  -9   25.85    0.95
  -2   4   9   27.49    0.90
  -2   4   9   26.16    1.00
   1  -4  -9   10.46    0.48
  -1   4   9   11.03    0.56
   1   4  -9   11.75    0.63
   1   4  -9    9.75    0.55
  -1   4   9   10.22    0.62
   0  -4  -9    0.21    0.19
   0   4  -9    0.14    0.18
   0   4   9    0.05    0.21
   0   4   9    0.23    0.21
   0   4  -9   -0.09    0.19
  -1  -4  -9    2.62    0.36
  -1   4  -9    2.88    0.39
   1   4   9    3.43    0.39
   1   4   9    3.77    0.41
  -1   4  -9    3.24    0.32
  -2  -4  -9   23.53    0.94
  -2   4  -9   23.64    0.75
  -2   4  -9   21.00    0.91
   2   4   9   20.93    0.82
   2   4   9   22.19    0.89
  -3  -4  -9  251.99    5.22
   3   4   9  256.40    5.05
  -3   4  -9  244.20    5.06
   3   4   9  252.37    4.86
  -3   4  -9  255.30    4.82
  -4  -4  -9    7.42    0.72
  -4   4  -9    6.70    0.63
  -4   4  -9    6.83    0.45
   4   4   9    7.87    0.68
  -5  -4  -9    2.90    0.53
  -5   4  -9    4.18    0.55
  -6  -4  -9    9.16    0.88
  -6   4  -9    8.74    0.82
  -7  -4  -9    1.50    0.56
  -7   4  -9    1.99    0.48
  -8  -4  -9    8.51    1.02
  -8   4  -9    9.13    0.97
  -9  -4  -9    0.35    0.46
  -9   4  -9    0.73    0.45
 -10  -4  -9   -0.36    0.43
 -10   4  -9    0.09    0.39
 -11  -4  -9    5.30    0.95
 -11   4  -9    6.16    0.99
 -11  -5   9    8.37    1.15
   9   5  -9   11.11    1.14
  -9   5   9   10.19    0.95
   8   5  -9    2.90    0.68
  -8   5   9    3.55    0.57
   7   5  -9   10.41    1.02
   7   5  -9    9.48    0.89
  -7   5   9    8.41    0.76
   6   5  -9   40.12    1.53
  -6   5   9   42.03    1.45
   6   5  -9   42.54    1.65
  -5   5   9   -0.08    0.28
   5   5  -9    0.37    0.30
   5   5  -9    0.13    0.37
   4   5  -9    0.40    0.32
  -4   5   9    0.43    0.29
   4   5  -9    0.07    0.32
  -4   5   9   -0.12    0.29
  -3   5   9   11.83    0.76
   3   5  -9   11.02    0.71
  -3   5   9    9.54    0.63
   3   5  -9   11.35    0.73
   2   5  -9   13.25    0.71
  -2   5   9   15.09    0.81
  -2   5   9   16.29    0.74
   2   5  -9   14.20    0.77
   1   5  -9    8.55    0.54
   1   5  -9    9.55    0.63
  -1   5   9    9.31    0.62
  -1   5   9    9.18    0.59
   0  -5  -9    6.59    0.47
   0   5  -9    6.99    0.64
   0   5   9    7.89    0.56
   0   5  -9    7.12    0.45
   0   5   9    6.47    0.56
  -1  -5  -9    3.68    0.43
   1   5   9    2.30    0.38
  -1   5  -9    3.16    0.32
  -1   5  -9    2.50    0.43
   1   5   9    3.54    0.46
  -2  -5  -9   17.42    0.85
   2   5   9   18.85    0.90
  -2   5  -9   18.98    0.92
   2   5   9   18.73    0.80
  -3  -5  -9   16.11    0.90
   3   5   9   17.31    0.75
   3   5   9   16.37    0.88
  -3   5  -9   17.12    0.91
  -4  -5  -9   35.17    1.43
  -4   5  -9   34.43    1.36
   4   5   9   35.31    1.39
  -5  -5  -9    4.91    0.67
   5   5   9    5.95    0.70
  -5   5  -9    4.04    0.60
  -6  -5  -9   10.21    0.98
  -6   5  -9   12.91    0.90
  -7  -5  -9    0.76    0.46
  -7   5  -9    0.72    0.39
  -8  -5  -9    1.99    0.65
  -8   5  -9    2.30    0.55
  -9  -5  -9   -0.21    0.50
  -9   5  -9    0.44    0.47
 -10  -5  -9   -0.46    0.48
 -10   5  -9    0.13    0.43
 -10  -6   9    7.57    1.06
   8   6  -9    1.37    0.50
  -8   6   9    2.71    0.56
   8   6  -9    3.39    0.69
   7   6  -9    0.15    0.39
   7   6  -9    0.76    0.44
  -7   6   9    1.19    0.42
  -6   6   9    1.97    0.45
   6   6  -9    0.43    0.43
   6   6  -9    1.37    0.45
   5   6  -9    5.22    0.71
   5   6  -9    4.66    0.62
  -5   6   9    3.99    0.59
  -5   6   9    4.69    0.69
  -4   6   9   49.12    1.74
   4   6  -9   48.62    1.68
  -4   6   9   47.50    1.56
   4   6  -9   47.08    1.67
  -3   6   9   29.62    1.31
   3   6  -9   30.64    1.27
  -3   6   9   29.39    1.19
   3   6  -9   31.51    1.23
  -2   6   9   24.80    1.11
  -2   6   9   23.71    1.02
   2   6  -9   23.12    1.09
   2   6  -9   24.64    1.01
   1   6  -9   13.29    0.82
  -1   6   9   12.48    0.77
  -1   6   9   14.39    0.84
   1   6  -9   11.79    0.66
   0   6   9    1.89    0.40
   0   6  -9    2.90    0.49
   0   6   9    1.76    0.41
  -1   6  -9   92.24    2.50
   1   6   9   94.83    2.34
   1   6   9   89.26    2.39
  -2  -6  -9   26.10    1.11
  -2   6  -9   26.68    1.21
   2   6   9   26.73    1.06
   2   6   9   28.27    1.19
  -3  -6  -9    3.25    0.55
  -3   6  -9    2.83    0.51
   3   6   9    3.60    0.56
  -4  -6  -9    7.25    0.79
  -4   6  -9    6.97    0.77
   4   6   9    7.47    0.80
  -5  -6  -9    0.10    0.42
   5   6   9   -0.45    0.33
  -5   6  -9    0.74    0.37
  -6  -6  -9   37.73    1.69
  -6   6  -9   38.01    1.63
  -7  -6  -9   17.52    1.28
  -7   6  -9   18.45    1.18
  -8  -6  -9   -0.75    0.40
  -8   6  -9   -0.63    0.33
  -9  -6  -9    2.75    0.74
  -9   6  -9    3.04    0.71
 -10  -6  -9    5.03    1.01
 -10   6  -9    6.05    0.95
 -10  -7   9    1.46    0.72
  -9  -7   9    2.16    0.74
  -9   7   9    2.26    0.72
  -8   7   9    4.02    0.78
   8   7  -9    2.32    0.64
  -7   7   9    0.32    0.50
  -7   7   9   -0.43    0.36
   7   7  -9    0.64    0.46
   7   7  -9    0.21    0.42
  -6   7   9    7.11    0.80
  -6   7   9    8.91    0.96
   6   7  -9    7.25    0.85
   6   7  -9    7.84    0.91
   5   7  -9    1.16    0.45
   5   7  -9    1.62    0.49
  -5   7   9    0.46    0.43
  -5   7   9    1.36    0.46
  -4   7   9    6.83    0.85
   4   7  -9    5.72    0.69
   4   7  -9    4.80    0.66
  -4   7   9    6.28    0.72
   3   7  -9    5.33    0.70
  -3   7   9    6.72    0.72
  -3   7   9    6.74    0.77
  -2   7   9   18.16    1.00
   2   7  -9   18.70    1.06
  -2   7   9   17.62    1.02
  -1   7   9   23.63    1.15
  -1   7   9   25.37    1.15
   1   7  -9   25.66    1.22
   0   7   9   14.15    0.91
   0   7  -9   13.81    0.92
   0   7   9   13.75    0.86
   1   7   9   36.65    1.37
   1   7   9   38.86    1.48
  -1   7  -9   35.73    1.49
   2   7   9   14.38    0.96
  -2   7  -9   13.08    0.92
  -3   7  -9   -0.09    0.32
   3   7   9   -0.06    0.30
   4   7   9    4.78    0.73
  -4   7  -9    4.28    0.69
  -5  -7  -9    0.40    0.41
   5   7   9    0.93    0.44
  -5   7  -9    0.31    0.42
  -6  -7  -9   10.62    1.13
  -6   7  -9   12.09    1.12
   6   7   9   11.31    1.09
  -7  -7  -9    3.35    0.76
  -7   7  -9    3.15    0.70
  -8  -7  -9   10.65    1.24
  -8   7  -9    9.50    1.10
  -9  -7  -9    0.74    0.70
  -9   7  -9    1.08    0.61
  -8  -8   9    6.68    1.04
  -8   8   9    5.46    0.91
   8   8  -9    8.31    1.07
  -7   8   9    9.77    1.11
   7   8  -9   11.93    1.16
  -6   8   9    0.41    0.40
   6   8  -9    1.70    0.55
  -6   8   9    1.73    0.63
   5   8  -9    6.93    0.85
  -5   8   9    7.31    0.92
  -5   8   9    7.25    0.83
   4   8  -9    4.00    0.70
  -4   8   9    2.69    0.58
  -4   8   9    2.71    0.61
   3   8  -9   -0.28    0.31
  -3   8   9   -0.09    0.29
  -3   8   9    0.00    0.36
  -2   8   9    0.62    0.43
  -2   8   9    1.47    0.47
   2   8  -9    0.85    0.45
  -1   8   9   13.35    0.95
   1   8  -9   13.79    0.98
  -1   8   9   12.75    0.93
   0   8  -9    1.95    0.49
   0   8   9    2.06    0.50
  -1   8  -9   19.47    1.15
   1   8   9   17.28    1.10
  -2   8  -9    0.23    0.39
   2   8   9    0.28    0.41
   3   8   9    4.73    0.72
  -3   8  -9    5.87    0.82
   4   8   9    0.71    0.47
  -4   8  -9   -0.08    0.32
  -5   8  -9    1.03    0.48
   5   8   9    0.26    0.47
  -6   8  -9   -0.07    0.39
   6   8   9   -0.23    0.40
  -7   8  -9    1.40    0.57
  -8  -8  -9    0.39    0.63
  -8   8  -9   -0.20    0.42
  -7   9   9    3.75    0.90
   7   9  -9    2.75    0.74
  -6   9   9    0.50    0.57
   6   9  -9    0.02    0.42
  -5   9   9    8.05    0.95
   5   9  -9    7.19    0.96
  -5   9   9    5.98    0.90
  -4   9   9    0.23    0.38
  -4   9   9    1.14    0.52
   4   9  -9    1.37    0.52
   3   9  -9    5.45    0.80
  -3   9   9    6.15    0.83
  -3   9   9    6.05    0.85
   2   9  -9   -0.04    0.36
  -2   9   9    0.69    0.46
  -2   9   9    0.34    0.42
  -1   9   9    4.15    0.68
   1   9  -9    4.05    0.72
   0   9   9    4.09    0.70
   0   9  -9    3.18    0.65
  -1   9  -9   -0.07    0.35
   1   9   9    0.25    0.45
  -2   9  -9    0.42    0.39
   2   9   9    0.46    0.48
   3   9   9   -0.32    0.42
  -3   9  -9    0.58    0.43
  -4   9  -9   -0.59    0.39
   4   9   9    0.18    0.42
   5   9   9    2.82    0.68
  -6   9  -9    2.20    0.70
   6   9   9    2.61    0.69
  -4  10   9    8.88    1.11
   4  10  -9    8.45    1.11
  -4  10   9    6.93    0.94
  -3  10   9    0.10    0.48
   3  10  -9    0.22    0.45
  -3  10   9   -0.89    0.43
  -2  10   9    5.15    0.84
   2  10  -9    4.24    0.82
  -1  10   9    1.20    0.51
   1  10  -9    0.94    0.50
   0  10  -9    0.12    0.45
   0  10   9    0.64    0.49
   1  10   9    0.29    0.52
  -1  10  -9   -0.02    0.41
   2  10   9    9.31    1.11
  -2  10  -9    9.89    1.09
   3  10   9    1.24    0.58
  -3  10  -9    1.48    0.63
   4  10   9    2.72    0.78
 -13   0  10    1.36    0.66
 -12   0  10    4.32    0.84
  11   0 -10    0.35    0.47
  10   0 -10   -0.13    0.35
   9   0 -10    1.15    0.49
  -8   0  10   14.97    0.79
   8   0 -10   15.11    0.98
  -7   0  10   -0.30    0.22
   7   0 -10   -0.01    0.29
  -6   0  10    2.61    0.34
   6   0 -10    2.32    0.42
  -5   0  10    0.27    0.19
   5   0 -10   -0.19    0.20
  -4   0  10    0.27    0.21
   4   0 -10    0.09    0.23
   3   0 -10    0.29    0.22
  -3   0  10   -0.13    0.17
   2   0 -10  489.95    9.00
  -2   0  10  493.21    8.71
  -1   0  10    0.17    0.12
   1   0 -10    0.00    0.04
   1   0 -10   -0.23    0.09
   0   0 -10  270.56    5.13
  -1   0 -10    0.18    0.15
  -2   0 -10    6.17    0.51
  -3   0 -10    0.03    0.25
  -4   0 -10   13.85    0.74
  -5   0 -10   -0.17    0.26
  -6   0 -10  285.63    5.97
  -7   0 -10   -0.25    0.36
  -8   0 -10    5.33    0.74
  -9   0 -10   -0.72    0.35
 -10   0 -10    9.17    1.07
 -11   0 -10   -0.05    0.57
 -12   0 -10    2.66    0.80
 -13  -1  10    1.41    0.75
 -12  -1  10    1.64    0.65
 -12   1  10    1.21    0.61
  11   1 -10    1.45    0.56
  10  -1 -10   19.80    1.16
  10   1 -10   18.99    1.27
   9  -1 -10   16.04    1.03
   9   1 -10   18.43    1.17
   8  -1 -10    1.51    0.46
   8   1 -10    1.98    0.51
  -7  -1  10    9.46    0.55
   7  -1 -10    9.48    0.80
   7   1 -10    9.61    0.84
  -6  -1  10    8.88    0.46
   6  -1 -10    7.61    0.66
  -6   1  10    9.24    0.59
   6   1 -10    9.15    0.78
  -5  -1  10    7.61    0.41
   5  -1 -10    8.66    0.58
  -5   1  10    8.37    0.54
   5   1 -10    7.08    0.63
   4  -1 -10    0.74    0.27
  -4  -1  10    1.20    0.21
  -4   1  10    1.62    0.30
   4   1 -10    0.71    0.30
   3  -1 -10  138.42    2.87
  -3  -1  10  136.96    2.62
  -3   1  10  135.60    2.79
   3   1 -10  135.22    2.96
   3   1 -10  134.73    2.59
  -3   1  10  133.20    2.48
  -2  -1  10   12.26    0.45
   2  -1 -10   10.44    0.52
   2   1 -10   11.90    0.39
   2   1 -10   11.50    0.56
  -2   1  10   10.90    0.29
  -2   1  10   11.80    0.52
   1  -1 -10    6.68    0.38
   1   1 -10    7.45    0.29
  -1   1  10    6.84    0.19
   1   1 -10    6.53    0.40
  -1   1  10    6.37    0.37
   0  -1 -10  166.64    3.36
   0   1 -10  168.77    3.37
   0   1  10  163.93    3.26
   0   1 -10  172.81    3.09
  -1  -1 -10   36.31    1.06
  -1   1 -10   35.61    0.91
  -1   1 -10   35.11    1.02
  -2  -1 -10  164.32    3.46
  -2   1 -10  168.83    3.41
  -3  -1 -10   30.26    1.10
  -3   1 -10   29.33    1.02
  -4  -1 -10   27.98    1.11
  -4   1 -10   27.60    1.01
  -5  -1 -10   19.02    0.96
  -5   1 -10   19.64    0.92
  -6  -1 -10    0.00    0.30
  -6   1 -10   -0.04    0.27
  -7  -1 -10    2.59    0.57
  -7   1 -10    3.70    0.61
  -8  -1 -10   12.75    1.15
  -8   1 -10   12.53    0.92
  -9  -1 -10   10.68    1.12
  -9   1 -10    8.99    0.94
 -10  -1 -10    0.20    0.48
 -10   1 -10   -0.05    0.41
 -11  -1 -10    0.67    0.56
 -11   1 -10   -0.60    0.49
 -12  -1 -10    3.04    0.87
 -12   1 -10    3.00    0.83
 -12  -2  10    0.98    0.63
  11   2 -10    7.71    0.98
  10   2 -10    2.12    0.60
   9  -2 -10   22.98    1.17
   9   2 -10   24.55    1.36
   8  -2 -10   -0.32    0.29
   8   2 -10    0.48    0.45
   7  -2 -10    4.29    0.54
  -7   2  10    4.90    0.51
   7   2 -10    4.23    0.63
   6  -2 -10    7.77    0.63
   6   2 -10    7.20    0.70
  -6   2  10    7.30    0.50
  -5  -2  10    0.18    0.12
   5  -2 -10    0.38    0.23
   5   2 -10    0.02    0.25
  -5   2  10    0.17    0.24
   5   2 -10    0.43    0.21
  -5   2  10    0.29    0.19
   4  -2 -10   34.36    1.06
  -4  -2  10   35.21    0.81
  -4   2  10   33.63    0.93
  -4   2  10   34.56    1.13
   4   2 -10   35.15    1.02
   4   2 -10   35.64    1.23
   3  -2 -10    0.63    0.22
   3   2 -10    0.36    0.19
  -3   2  10    0.62    0.28
   3   2 -10    0.24    0.25
  -3   2  10    0.37    0.15
   2  -2 -10   10.86    0.52
   2   2 -10   10.94    0.61
  -2   2  10   11.08    0.40
  -2   2  10   11.19    0.58
   2   2 -10   10.20    0.47
   1  -2 -10   12.48    0.54
  -1   2  10   11.14    0.56
   1   2 -10   11.74    0.49
  -1   2  10   12.51    0.41
   1   2 -10   11.56    0.57
   0  -2 -10   13.95    0.62
   0   2  10   13.71    0.62
   0   2 -10   14.81    0.56
   0   2 -10   14.11    0.59
   0   2  10   14.48    0.49
  -1  -2 -10   18.60    0.75
  -1   2 -10   18.15    0.69
  -1   2 -10   18.96    0.69
   1   2  10   17.83    0.62
   1   2  10   19.13    0.70
  -2  -2 -10   38.75    1.22
  -2   2 -10   38.83    1.13
  -2   2 -10   40.97    1.15
  -3  -2 -10   15.55    0.79
  -3   2 -10   15.59    0.71
  -3   2 -10   16.82    0.71
  -4  -2 -10    2.53    0.44
  -4   2 -10    3.14    0.40
  -4   2 -10    2.58    0.38
  -5  -2 -10   26.89    1.19
  -5   2 -10   26.31    1.09
  -5   2 -10   26.59    1.03
  -6  -2 -10   42.15    1.59
  -6   2 -10   40.18    1.41
  -7  -2 -10    0.88    0.43
  -7   2 -10    1.40    0.42
  -8  -2 -10    1.94    0.55
  -8   2 -10    1.64    0.48
  -9  -2 -10    0.85    0.54
  -9   2 -10   -0.22    0.38
 -10  -2 -10    0.96    0.63
 -10   2 -10    1.38    0.58
 -11  -2 -10    3.94    0.94
 -12  -2 -10   -0.35    0.65
 -12   2 -10   -0.34    0.41
 -12  -3  10    0.22    0.63
  11   3 -10    9.95    1.17
  10   3 -10   48.81    2.06
 -10   3  10   47.93    1.80
  -9   3  10    5.15    0.65
   9   3 -10    3.99    0.72
  -8   3  10    0.09    0.28
   8   3 -10    0.18    0.43
  -7   3  10    8.75    0.62
   7   3 -10    7.51    0.83
   6  -3 -10   72.33    1.86
   6   3 -10   74.65    1.98
  -6   3  10   71.34    1.84
   6   3 -10   72.78    2.19
   5  -3 -10    7.23    0.48
  -5   3  10    7.54    0.49
  -5   3  10    6.74    0.63
   5   3 -10    8.32    0.75
   5   3 -10    8.15    0.56
   4  -3 -10    3.31    0.34
  -4   3  10    2.59    0.40
   4   3 -10    1.89    0.39
   4   3 -10    3.36    0.39
  -4   3  10    3.17    0.34
   3  -3 -10   28.81    0.85
   3   3 -10   28.73    0.94
  -3   3  10   28.36    0.84
  -3   3  10   27.41    1.01
   3   3 -10   26.02    1.02
   2  -3 -10   72.35    1.64
  -2   3  10   72.59    1.58
  -2   3  10   70.34    1.80
   2   3 -10   71.11    1.70
   2   3 -10   71.92    1.83
   1  -3 -10   60.40    1.47
  -1   3  10   62.51    1.40
   1   3 -10   59.14    1.50
  -1   3  10   59.90    1.58
   1   3 -10   62.48    1.57
   0  -3 -10    0.63    0.26
   0   3 -10    0.59    0.23
   0   3 -10    0.49    0.23
   0   3  10    0.23    0.19
   0   3  10    0.48    0.25
  -1  -3 -10   -0.12    0.19
   1   3  10    0.01    0.18
  -1   3 -10    0.04    0.22
   1   3  10    0.20    0.23
  -1   3 -10    0.60    0.21
  -2  -3 -10   56.34    1.58
   2   3  10   58.28    1.49
  -2   3 -10   55.50    1.53
   2   3  10   56.26    1.46
  -2   3 -10   57.16    1.43
  -3  -3 -10   18.44    0.88
  -3   3 -10   19.50    0.75
  -3   3 -10   18.41    0.82
   3   3  10   20.27    0.83
  -4  -3 -10    0.50    0.30
  -4   3 -10    0.97    0.31
  -4   3 -10    0.61    0.23
  -5  -3 -10    3.11    0.52
  -5   3 -10    4.31    0.54
  -5   3 -10    3.09    0.42
  -6  -3 -10   23.02    1.20
  -6   3 -10   20.39    1.07
  -6   3 -10   20.52    0.95
  -7  -3 -10   19.91    1.19
  -7   3 -10   18.33    0.96
  -7   3 -10   17.70    1.06
  -8  -3 -10   13.27    1.16
  -8   3 -10   12.43    1.04
  -9  -3 -10    2.46    0.65
  -9   3 -10    2.38    0.55
 -10  -3 -10    1.53    0.68
 -10   3 -10    2.27    0.63
 -11  -3 -10   -0.24    0.54
 -11   3 -10   -0.15    0.47
 -12   4  10    0.59    0.59
  10   4 -10    1.63    0.64
   9   4 -10    4.32    0.76
  -9   4  10    2.67    0.51
   8   4 -10    6.43    0.89
  -8   4  10    7.27    0.71
   7   4 -10    0.45    0.45
   7   4 -10   -0.07    0.30
  -7   4  10    0.84    0.32
  -6   4  10    0.58    0.30
   6   4 -10    0.57    0.34
   6   4 -10    0.35    0.37
   5   4 -10   27.09    1.21
  -5   4  10   27.27    1.18
   5   4 -10   24.97    1.05
  -5   4  10   26.67    0.99
   4   4 -10   22.99    0.96
   4   4 -10   24.17    1.07
  -4   4  10   23.69    0.89
  -4   4  10   22.01    1.00
   3  -4 -10    0.05    0.14
  -3   4  10    0.52    0.28
  -3   4  10    0.15    0.20
   3   4 -10    0.47    0.23
   3   4 -10    0.37    0.27
   2  -4 -10   14.52    0.56
   2   4 -10   13.69    0.71
  -2   4  10   13.40    0.73
   2   4 -10   15.19    0.73
  -2   4  10   14.36    0.63
   1  -4 -10   55.58    1.36
  -1   4  10   53.75    1.39
  -1   4  10   54.99    1.53
   1   4 -10   53.84    1.46
   1   4 -10   51.92    1.48
   0  -4 -10    4.11    0.41
   0   4 -10    2.53    0.37
   0   4  10    2.92    0.38
   0   4  10    3.44    0.38
   0   4 -10    2.89    0.34
  -1  -4 -10   14.41    0.70
   1   4  10   13.47    0.68
  -1   4 -10   14.13    0.60
  -1   4 -10   13.92    0.71
   1   4  10   15.05    0.69
  -2  -4 -10   59.85    1.68
   2   4  10   59.29    1.56
  -2   4 -10   57.66    1.67
   2   4  10   59.28    1.61
  -2   4 -10   57.89    1.45
  -3  -4 -10   11.90    0.73
  -3   4 -10   12.26    0.56
   3   4  10    9.45    0.64
  -3   4 -10   10.99    0.69
  -4  -4 -10    0.77    0.36
  -4   4 -10    0.49    0.21
   4   4  10    0.13    0.27
  -4   4 -10    0.18    0.26
  -5  -4 -10    0.61    0.40
  -5   4 -10    0.80    0.35
  -6  -4 -10    4.55    0.67
  -6   4 -10    5.17    0.64
  -7  -4 -10   12.55    1.14
  -7   4 -10   11.71    1.02
  -8  -4 -10    6.02    0.90
  -8   4 -10    5.44    0.77
  -9  -4 -10    0.11    0.46
  -9   4 -10    1.42    0.52
 -10  -4 -10    0.95    0.58
 -10   4 -10    0.16    0.46
 -11  -4 -10    3.28    0.87
 -11   4 -10    2.74    0.77
 -11  -5  10    7.78    1.13
  10   5 -10   -0.50    0.40
   9   5 -10   11.55    1.19
  -8   5  10    4.77    0.63
   8   5 -10    5.26    0.82
   7   5 -10   12.50    1.01
   7   5 -10   14.00    1.02
  -7   5  10   13.69    0.85
   6   5 -10    1.21    0.42
   6   5 -10    1.16    0.50
  -6   5  10    1.35    0.38
  -5   5  10    3.26    0.47
   5   5 -10    2.78    0.49
  -5   5  10    2.72    0.52
   5   5 -10    2.14    0.52
   4   5 -10   80.57    2.28
  -4   5  10   86.21    2.13
  -4   5  10   81.56    2.33
   4   5 -10   83.50    2.25
   3   5 -10    0.17    0.28
  -3   5  10    0.40    0.30
   3   5 -10    0.34    0.26
  -3   5  10    0.39    0.27
   2   5 -10    0.18    0.24
  -2   5  10   -0.15    0.23
  -2   5  10    0.51    0.24
   2   5 -10    0.07    0.27
   1  -5 -10    0.58    0.21
  -1   5  10    1.23    0.32
  -1   5  10    0.52    0.26
   1   5 -10    0.72    0.24
   1   5 -10    0.22    0.24
   0  -5 -10    0.55    0.24
   0   5 -10    0.38    0.28
   0   5 -10    0.58    0.22
   0   5  10    0.84    0.29
   0   5  10    0.59    0.27
  -1  -5 -10   36.46    1.19
  -1   5 -10   34.75    1.02
   1   5  10   35.84    1.21
  -1   5 -10   36.77    1.32
   1   5  10   35.57    1.23
  -2  -5 -10   18.54    0.89
   2   5  10   18.42    0.82
   2   5  10   17.86    0.87
  -2   5 -10   18.50    0.95
  -3  -5 -10   52.06    1.72
   3   5  10   52.21    1.67
  -3   5 -10   56.05    1.77
   3   5  10   55.20    1.53
  -4  -5 -10    8.47    0.82
  -4   5 -10   12.02    0.94
   4   5  10   10.28    0.85
  -5  -5 -10    0.84    0.42
   5   5  10    0.22    0.37
  -5   5 -10    0.63    0.35
  -6  -5 -10    0.27    0.40
  -6   5 -10    0.13    0.35
  -7  -5 -10    0.35    0.44
  -7   5 -10    1.00    0.41
  -8  -5 -10    1.55    0.60
  -8   5 -10    2.42    0.60
  -9  -5 -10    1.20    0.62
  -9   5 -10    0.12    0.47
 -10  -5 -10    2.90    0.82
 -10   5 -10    4.03    0.77
 -10   6  10    0.47    0.55
   9   6 -10    0.11    0.49
   8   6 -10   -0.31    0.35
   8   6 -10    0.25    0.45
  -7   6  10    0.12    0.42
   7   6 -10   -0.06    0.35
  -7   6  10    0.38    0.37
   7   6 -10    0.73    0.50
  -6   6  10   10.01    0.99
   6   6 -10    9.26    0.91
  -6   6  10   11.58    0.91
   6   6 -10    9.94    0.90
  -5   6  10   19.57    1.00
   5   6 -10   17.75    1.06
  -5   6  10   17.14    1.11
   5   6 -10   20.91    1.14
   4   6 -10   18.72    1.03
  -4   6  10   17.38    0.92
  -4   6  10   17.34    1.03
   4   6 -10   17.31    1.00
   3   6 -10   15.82    0.92
  -3   6  10   15.42    0.84
  -3   6  10   16.99    1.01
   3   6 -10   17.68    0.92
  -2   6  10    2.97    0.48
   2   6 -10    3.02    0.46
  -2   6  10    2.69    0.52
   2   6 -10    2.46    0.49
  -1   6  10    6.67    0.65
   1   6 -10    7.09    0.70
   1   6 -10    8.03    0.57
  -1   6  10    7.14    0.64
   0   6  10    2.62    0.47
   0   6  10    2.96    0.45
   0   6 -10    2.36    0.45
   1   6  10    0.58    0.32
   1   6  10    0.98    0.37
  -1   6 -10    1.45    0.45
  -2  -6 -10    5.83    0.63
   2   6  10    6.36    0.62
   2   6  10    6.40    0.67
  -2   6 -10    6.98    0.73
  -3  -6 -10    1.57    0.44
   3   6  10    1.88    0.45
  -3   6 -10    1.52    0.45
  -4  -6 -10   17.88    1.06
  -4   6 -10   16.08    1.00
   4   6  10   16.46    1.00
  -5  -6 -10   40.60    1.70
  -5   6 -10   37.55    1.61
   5   6  10   38.18    1.58
  -6  -6 -10    8.07    0.93
  -6   6 -10    7.59    0.86
  -7  -6 -10    0.15    0.49
  -7   6 -10    1.00    0.49
  -8  -6 -10    6.66    1.03
  -8   6 -10    4.45    0.78
  -9  -6 -10   -0.85    0.38
  -9   6 -10    0.04    0.40
 -10  -6 -10    3.59    0.93
 -10   6 -10    2.93    0.77
 -10  -7  10   10.89    1.37
  -9  -7  10    1.36    0.65
  -9   7  10    1.55    0.70
  -8   7  10    0.60    0.55
   8   7 -10   -1.02    0.38
   8   7 -10    0.00    0.40
  -7   7  10   24.69    1.27
  -7   7  10   24.40    1.45
   7   7 -10   26.12    1.42
   7   7 -10   22.36    1.35
   6   7 -10   22.56    1.26
  -6   7  10   21.78    1.17
  -6   7  10   22.56    1.35
   6   7 -10   23.76    1.33
  -5   7  10    0.42    0.38
   5   7 -10    0.70    0.40
  -5   7  10    0.26    0.40
   5   7 -10    0.40    0.37
  -4   7  10    2.12    0.46
   4   7 -10    2.62    0.52
   4   7 -10    1.88    0.48
  -4   7  10    1.73    0.52
   3   7 -10    6.59    0.75
  -3   7  10    6.67    0.71
  -3   7  10    5.68    0.75
   2   7 -10    2.79    0.55
  -2   7  10    2.95    0.52
  -2   7  10    2.81    0.57
  -1   7  10   68.12    2.05
  -1   7  10   70.71    2.11
   1   7 -10   65.78    2.12
   0   7 -10    2.50    0.51
   0   7  10    3.24    0.56
   0   7  10    3.06    0.51
   1   7  10   14.54    0.90
   1   7  10   15.31    0.88
  -1   7 -10   15.34    0.98
  -2   7 -10   24.84    1.27
   2   7  10   25.64    1.22
  -3   7 -10    1.23    0.43
   3   7  10    2.25    0.52
   4   7  10    0.80    0.43
  -4   7 -10    1.72    0.49
  -5  -7 -10    8.91    0.94
   5   7  10    8.13    0.91
  -5   7 -10    8.89    0.95
  -6  -7 -10   -0.11    0.42
   6   7  10    0.04    0.42
  -6   7 -10    0.88    0.43
  -7  -7 -10    1.31    0.64
  -7   7 -10    1.01    0.51
  -8  -7 -10    1.92    0.70
  -8   7 -10    2.81    0.69
  -9  -7 -10    2.84    0.87
  -9   7 -10    2.05    0.66
  -8  -8  10    2.71    0.80
  -8   8  10    3.04    0.81
   8   8 -10    2.06    0.63
  -7   8  10    2.05    0.68
   7   8 -10    1.09    0.56
   6   8 -10    1.40    0.57
  -6   8  10    1.47    0.51
  -6   8  10    1.88    0.64
   5   8 -10    2.88    0.61
  -5   8  10    2.48    0.55
  -5   8  10    2.75    0.69
  -4   8  10   17.81    1.19
   4   8 -10   13.65    1.16
  -4   8  10   14.85    0.98
  -3   8  10    3.70    0.69
  -3   8  10    2.92    0.57
   3   8 -10    1.93    0.53
   2   8 -10    4.40    0.69
  -2   8  10    3.76    0.61
  -2   8  10    2.90    0.60
  -1   8  10    5.72    0.72
   1   8 -10    7.45    0.86
  -1   8  10    7.63    0.84
   0   8  10   18.66    1.08
   0   8 -10   18.32    1.12
   0   8  10   20.15    1.10
  -1   8 -10    5.19    0.75
   1   8  10    5.18    0.69
  -2   8 -10    1.34    0.47
   2   8  10    1.77    0.51
  -3   8 -10    2.32    0.56
  -4   8 -10    2.58    0.62
   4   8  10    2.96    0.67
  -5   8 -10    0.60    0.48
   5   8  10    0.79    0.52
   6   8  10    1.36    0.56
  -6   8 -10    0.25    0.48
  -7   8 -10   -0.62    0.40
  -8  -8 -10   10.06    1.26
   7   9 -10   15.36    1.43
  -6   9  10    0.77    0.55
   6   9 -10    0.18    0.49
  -5   9  10    1.32    0.56
   5   9 -10    0.80    0.47
  -5   9  10    1.55    0.57
  -4   9  10   -0.06    0.42
  -4   9  10   -0.31    0.42
   4   9 -10    0.30    0.46
   3   9 -10    2.63    0.63
  -3   9  10    3.98    0.70
  -3   9  10    3.64    0.68
  -2   9  10    7.85    0.89
  -2   9  10    8.08    0.95
   2   9 -10    8.36    0.98
   1   9 -10    0.47    0.43
  -1   9  10    1.07    0.49
   0   9 -10   -0.21    0.36
   0   9  10    0.24    0.38
  -1   9 -10   21.74    1.30
   1   9  10   20.28    1.24
  -2   9 -10    2.87    0.61
   2   9  10    3.45    0.70
   3   9  10    0.45    0.47
  -3   9 -10    0.15    0.40
  -4   9 -10    3.75    0.73
   4   9  10    6.14    0.87
   5   9  10    1.99    0.62
  -5   9 -10    1.44    0.59
   6   9  10    0.53    0.53
  -6   9 -10   -0.17    0.43
   4  10 -10    0.31    0.48
  -4  10  10    0.34    0.52
  -4  10  10   -0.19    0.37
  -3  10  10    3.24    0.76
  -3  10  10    4.23    0.77
   3  10 -10    2.65    0.70
   2  10 -10    1.09    0.52
  -2  10  10    1.50    0.56
  -1  10  10    0.38    0.42
   1  10 -10   -0.18    0.42
   0  10  10    0.15    0.45
   0  10 -10   -0.12    0.47
  -1  10 -10   -0.20    0.38
   1  10  10    0.09    0.44
   2  10  10    1.37    0.59
  -2  10 -10    0.38    0.44
  -3  10 -10    3.28    0.72
   3  10  10    2.87    0.76
   4  10  10    4.45    0.82
 -13   0  11    6.06    1.06
  11   0 -11    8.85    1.05
  10   0 -11   -0.17    0.40
   9   0 -11   24.74    1.27
   8   0 -11   -0.09    0.37
  -8   0  11   -0.35    0.24
  -7   0  11   22.04    0.88
   7   0 -11   23.73    1.11
  -6   0  11    0.13    0.19
   6   0 -11   -0.05    0.26
  -5   0  11   45.83    1.23
   5   0 -11   44.04    1.42
  -4   0  11    0.11    0.19
   4   0 -11    0.09    0.26
   3   0 -11    0.42    0.26
  -3   0  11    0.71    0.22
   2   0 -11   -0.15    0.16
  -2   0  11    0.38    0.17
   1   0 -11   62.65    1.52
   1   0 -11   59.26    1.09
   0   0 -11    0.11    0.14
  -1   0 -11  644.93   11.70
  -2   0 -11   -0.24    0.20
  -3   0 -11   20.39    0.89
  -4   0 -11   -0.04    0.25
  -5   0 -11   52.56    1.67
  -6   0 -11    0.00    0.30
  -7   0 -11   41.05    1.63
  -8   0 -11   -0.19    0.35
  -9   0 -11   12.57    1.13
 -10   0 -11   -0.06    0.43
 -11   0 -11    8.06    1.12
 -12   0 -11    0.05    0.59
 -13  -1  11    1.48    0.67
 -12   1  11    0.70    0.58
  11  -1 -11    1.85    0.54
  11   1 -11    1.70    0.62
  10  -1 -11    0.51    0.44
  10   1 -11    0.12    0.41
   9  -1 -11    0.30    0.40
  -9   1  11    0.03    0.31
   9   1 -11    0.70    0.42
   8  -1 -11   62.54    1.97
   8   1 -11   59.38    2.03
  -8   1  11   59.12    1.77
   7  -1 -11  293.39    6.01
  -7  -1  11  291.63    5.48
  -7   1  11  287.55    5.75
   7   1 -11  295.20    6.17
  -6  -1  11    2.33    0.30
   6  -1 -11    2.71    0.44
  -6   1  11    3.01    0.41
   6   1 -11    3.31    0.50
  -5  -1  11   52.37    1.28
   5  -1 -11   55.04    1.56
  -5   1  11   52.39    1.45
   5   1 -11   52.52    1.62
  -4  -1  11  316.51    5.74
   4  -1 -11  317.82    6.12
   4   1 -11  313.81    6.21
  -4   1  11  317.85    5.95
   3  -1 -11  101.73    2.27
  -3  -1  11  101.73    2.05
  -3   1  11   99.05    2.19
   3   1 -11   99.95    1.97
   3   1 -11   96.55    2.33
  -3   1  11   98.47    1.86
  -2  -1  11   68.59    1.49
   2  -1 -11   68.33    1.64
   2   1 -11   68.16    1.37
   2   1 -11   68.75    1.71
  -2   1  11   65.83    1.59
  -2   1  11   65.61    1.21
   1  -1 -11   77.72    1.81
  -1   1  11   80.06    1.78
   1   1 -11   78.95    1.54
   1   1 -11   76.14    1.83
   0  -1 -11   55.43    1.41
   0   1  11   53.92    1.35
   0   1 -11   54.93    1.20
   0   1 -11   56.57    1.42
  -1  -1 -11   11.01    0.58
  -1   1 -11   11.46    0.55
  -1   1 -11   11.18    0.47
  -2  -1 -11   12.75    0.67
  -2   1 -11   13.70    0.64
  -3  -1 -11   11.86    0.68
  -3   1 -11   11.33    0.65
  -4  -1 -11    8.55    0.63
  -4   1 -11    8.58    0.60
  -5  -1 -11   10.42    0.73
  -5   1 -11   10.19    0.69
  -6  -1 -11   26.17    1.22
  -6   1 -11   25.57    1.13
  -7  -1 -11    0.96    0.44
  -7   1 -11    1.22    0.45
  -8  -1 -11    5.96    0.84
  -8   1 -11    6.03    0.75
  -9  -1 -11    0.65    0.49
  -9   1 -11    0.84    0.50
 -10  -1 -11    4.46    0.82
 -10   1 -11    5.50    0.87
 -11  -1 -11   11.73    1.27
 -11   1 -11   12.06    1.26
 -12  -1 -11    4.47    1.01
 -12   1 -11    4.81    0.95
  11   2 -11    6.87    0.96
 -10   2  11    1.83    0.51
 -10   2  11    0.55    0.40
  10   2 -11   -0.19    0.42
   9  -2 -11    0.72    0.40
   9   2 -11    0.38    0.40
   8  -2 -11    4.90    0.62
   8   2 -11    4.45    0.67
   7  -2 -11    0.98    0.37
   7   2 -11    0.81    0.40
  -7   2  11    0.63    0.29
  -7   2  11    0.59    0.38
   6  -2 -11   -0.02    0.22
   6   2 -11    0.17    0.29
  -6   2  11    0.10    0.18
  -6   2  11    0.21    0.27
  -5  -2  11    0.89    0.17
   5  -2 -11    0.84    0.27
  -5   2  11    0.55    0.20
  -5   2  11    1.16    0.31
   5   2 -11    0.69    0.23
   5   2 -11    0.56    0.32
   4  -2 -11   16.40    0.71
  -4   2  11   16.50    0.76
  -4   2  11   16.84    0.58
   4   2 -11   16.72    0.66
   4   2 -11   16.82    0.83
   3  -2 -11   48.81    1.30
  -3   2  11   48.60    1.09
   3   2 -11   48.90    1.22
  -3   2  11   48.24    1.36
   3   2 -11   47.67    1.44
   2  -2 -11   31.45    0.96
   2   2 -11   30.58    0.87
  -2   2  11   32.10    0.75
  -2   2  11   31.28    1.02
   2   2 -11   32.52    1.08
   1  -2 -11   81.13    1.90
  -1   2  11   85.70    1.64
   1   2 -11   83.10    1.78
  -1   2  11   83.35    1.94
   1   2 -11   85.34    1.98
   0  -2 -11    5.17    0.44
   0   2  11    4.80    0.45
   0   2 -11    4.56    0.42
   0   2 -11    3.73    0.35
   0   2  11    4.21    0.28
  -1  -2 -11   58.35    1.55
  -1   2 -11   59.53    1.49
   1   2  11   56.74    1.34
   1   2  11   59.88    1.49
  -1   2 -11   56.42    1.40
  -2  -2 -11  160.81    3.39
  -2   2 -11  152.95    3.17
  -2   2 -11  154.80    3.24
  -3  -2 -11    1.82    0.40
  -3   2 -11    3.19    0.38
  -3   2 -11    2.08    0.33
  -4  -2 -11   48.67    1.60
  -4   2 -11   51.50    1.48
  -4   2 -11   49.68    1.49
  -5  -2 -11   -0.31    0.23
  -5   2 -11    0.10    0.25
  -5   2 -11    0.21    0.25
  -6  -2 -11   38.21    1.56
  -6   2 -11   37.08    1.37
  -7  -2 -11   21.91    1.24
  -7   2 -11   21.87    1.10
  -8  -2 -11   12.99    1.17
  -8   2 -11   11.44    0.97
  -9  -2 -11    0.26    0.52
  -9   2 -11    0.26    0.43
 -10  -2 -11    4.96    0.87
 -10   2 -11    4.41    0.78
 -11  -2 -11    0.43    0.55
 -12  -2 -11    0.46    0.64
 -11   3  11    1.41    0.52
  11   3 -11    2.70    0.71
  10   3 -11   11.70    1.17
  -9   3  11   -0.02    0.29
   9   3 -11   -0.03    0.38
  -8   3  11   30.69    1.19
   8   3 -11   26.97    1.39
   7  -3 -11   23.10    1.04
   7   3 -11   22.61    1.21
  -7   3  11   24.36    0.98
   6  -3 -11    9.43    0.60
   6   3 -11    6.97    0.74
  -6   3  11   10.01    0.82
   6   3 -11    9.45    0.65
  -6   3  11    9.36    0.57
   5  -3 -11    0.03    0.18
   5   3 -11    0.04    0.26
  -5   3  11    0.46    0.20
  -5   3  11   -0.14    0.27
   5   3 -11    0.07    0.18
   4  -3 -11    0.97    0.25
  -4   3  11    0.48    0.25
  -4   3  11    0.48    0.19
   4   3 -11    0.49    0.24
   4   3 -11    0.77    0.31
   3  -3 -11    0.48    0.20
   3   3 -11    0.37    0.25
  -3   3  11    0.55    0.19
  -3   3  11    0.63    0.29
   3   3 -11    0.23    0.20
   2  -3 -11   45.37    1.22
   2   3 -11   46.65    1.25
   2   3 -11   47.21    1.38
  -2   3  11   46.52    1.13
  -2   3  11   45.76    1.36
   1  -3 -11   18.24    0.70
   1   3 -11   18.64    0.71
  -1   3  11   18.31    0.80
   1   3 -11   17.05    0.75
  -1   3  11   18.22    0.62
   0  -3 -11    4.02    0.43
   0   3 -11    4.85    0.44
   0   3  11    4.38    0.38
   0   3 -11    4.82    0.46
   0   3  11    5.24    0.50
  -1  -3 -11   20.06    0.83
   1   3  11   19.09    0.72
  -1   3 -11   19.45    0.75
   1   3  11   18.40    0.77
  -1   3 -11   20.27    0.80
  -2  -3 -11    2.59    0.40
   2   3  11    2.99    0.37
  -2   3 -11    2.58    0.32
   2   3  11    2.63    0.35
  -2   3 -11    2.92    0.39
  -3  -3 -11   43.74    1.46
  -3   3 -11   45.12    1.38
  -3   3 -11   43.95    1.26
  -4  -3 -11    3.62    0.51
  -4   3 -11    4.40    0.52
  -4   3 -11    4.77    0.47
  -5  -3 -11   53.60    1.82
  -5   3 -11   53.48    1.57
  -5   3 -11   53.70    1.72
  -6  -3 -11    0.39    0.38
  -6   3 -11    1.41    0.39
  -6   3 -11    0.98    0.36
  -7  -3 -11    1.94    0.55
  -7   3 -11    1.87    0.45
  -7   3 -11    1.08    0.42
  -8  -3 -11    8.24    0.98
  -8   3 -11   10.08    0.95
  -9  -3 -11   -0.02    0.52
  -9   3 -11    0.29    0.42
 -10  -3 -11    6.62    1.01
 -10   3 -11    7.41    0.95
 -11  -3 -11    2.42    0.79
 -11   3 -11    2.59    0.67
 -12   4  11    0.10    0.54
 -11   4  11   -0.30    0.41
  11   4 -11   -0.05    0.53
  10   4 -11    1.17    0.55
   9   4 -11    3.57    0.70
  -8   4  11    3.64    0.54
   8   4 -11    4.53    0.77
   7   4 -11   17.76    1.12
   7   4 -11   19.12    1.03
  -7   4  11   20.68    0.94
   6   4 -11    8.71    0.75
  -6   4  11   11.19    0.94
   6   4 -11    8.48    0.84
  -6   4  11    8.39    0.61
   5   4 -11    1.06    0.34
  -5   4  11    1.55    0.32
   5   4 -11    1.44    0.44
  -5   4  11    0.64    0.34
  -4   4  11    2.94    0.37
   4   4 -11    1.97    0.41
   4   4 -11    2.25    0.38
  -4   4  11    3.16    0.47
   3  -4 -11    9.21    0.46
  -3   4  11    9.45    0.65
   3   4 -11    8.65    0.64
   3   4 -11    8.30    0.56
  -3   4  11   10.26    0.55
   2  -4 -11    1.53    0.25
   2   4 -11    1.82    0.34
  -2   4  11    2.13    0.38
  -2   4  11    1.84    0.29
   2   4 -11    2.45    0.37
   1  -4 -11    0.49    0.21
  -1   4  11    0.98    0.30
   1   4 -11    0.32    0.23
   1   4 -11    0.71    0.27
  -1   4  11    0.69    0.23
   0  -4 -11    6.70    0.48
   0   4 -11    7.40    0.61
   0   4  11    6.11    0.53
   0   4  11    5.77    0.48
   0   4 -11    6.11    0.44
  -1  -4 -11   84.00    2.12
  -1   4 -11   86.77    2.00
   1   4  11   89.41    2.12
  -1   4 -11   83.90    2.12
   1   4  11   87.96    2.05
  -2  -4 -11   36.83    1.27
   2   4  11   36.35    1.19
   2   4  11   37.23    1.18
  -2   4 -11   37.36    1.26
  -2   4 -11   35.73    1.08
  -3  -4 -11    0.47    0.28
  -3   4 -11    0.27    0.23
  -3   4 -11    0.48    0.20
   3   4  11    0.46    0.29
  -4  -4 -11    4.99    0.62
  -4   4 -11    6.93    0.68
  -4   4 -11    6.18    0.51
  -5  -4 -11    0.03    0.34
  -5   4 -11   -0.41    0.24
  -6  -4 -11   24.61    1.31
  -6   4 -11   24.10    1.21
  -7  -4 -11    3.64    0.68
  -7   4 -11    4.90    0.71
  -8  -4 -11    9.26    1.06
  -8   4 -11   11.50    1.04
  -9  -4 -11    4.41    0.89
  -9   4 -11    5.98    0.86
 -10  -4 -11    0.62    0.57
 -10   4 -11    0.38    0.43
 -11  -4 -11    0.58    0.63
 -11   4 -11    0.32    0.47
 -11   5  11    2.86    0.78
  10   5 -11    7.01    1.03
 -10   5  11    6.44    0.94
  -9   5  11   22.32    1.35
   9   5 -11   23.82    1.49
  -8   5  11   15.96    1.12
   8   5 -11   16.11    1.19
   7   5 -11   -0.02    0.34
  -7   5  11    0.22    0.32
   7   5 -11   -0.50    0.29
  -7   5  11    0.11    0.39
   6   5 -11   17.48    1.07
  -6   5  11   18.25    0.92
   6   5 -11   17.34    1.00
  -6   5  11   17.62    1.06
  -5   5  11   52.73    1.80
   5   5 -11   50.05    1.79
   5   5 -11   52.69    1.71
  -5   5  11   51.35    1.56
   4   5 -11   -0.07    0.24
  -4   5  11    0.23    0.34
   4   5 -11    0.53    0.37
  -4   5  11    0.46    0.29
  -3   5  11    1.27    0.38
   3   5 -11    0.63    0.31
   3   5 -11    0.83    0.32
  -3   5  11    0.78    0.28
  -2   5  11    4.97    0.49
  -2   5  11    3.70    0.50
   2   5 -11    4.45    0.50
   2   5 -11    4.11    0.50
   1  -5 -11   25.75    0.87
  -1   5  11   26.49    1.08
   1   5 -11   24.38    0.95
  -1   5  11   26.90    0.98
   1   5 -11   26.03    1.06
   0  -5 -11   45.13    1.32
   0   5  11   44.34    1.36
   0   5  11   46.08    1.45
   0   5 -11   45.49    1.30
   0   5 -11   46.77    1.49
  -1  -5 -11   36.61    1.24
  -1   5 -11   38.02    1.10
   1   5  11   35.80    1.23
  -1   5 -11   37.33    1.35
   1   5  11   37.39    1.26
  -2  -5 -11  135.26    3.16
  -2   5 -11  132.94    3.17
   2   5  11  134.88    3.02
   2   5  11  136.71    3.09
  -3  -5 -11   39.00    1.45
   3   5  11   37.23    1.36
   3   5  11   38.75    1.26
  -3   5 -11   38.51    1.43
  -4  -5 -11    8.54    0.83
  -4   5 -11    7.19    0.73
   4   5  11    6.53    0.69
  -5  -5 -11    1.72    0.53
  -5   5 -11    1.49    0.50
  -6  -5 -11   -0.19    0.37
  -6   5 -11   -0.14    0.30
  -7  -5 -11   -0.87    0.40
  -7   5 -11    0.00    0.33
  -8  -5 -11    0.42    0.53
  -8   5 -11   -0.11    0.35
  -9  -5 -11    0.33    0.52
  -9   5 -11    0.17    0.46
 -10  -5 -11   12.46    1.38
 -10   5 -11   11.02    1.20
 -10   6  11    0.63    0.57
  -9   6  11    1.07    0.59
   9   6 -11    0.68    0.54
   8   6 -11    0.26    0.46
   8   6 -11    0.48    0.45
  -8   6  11    0.76    0.54
   7   6 -11    9.24    0.94
  -7   6  11    8.33    0.80
  -7   6  11    9.90    1.05
   7   6 -11    9.10    1.00
  -6   6  11    9.53    0.95
   6   6 -11    7.91    0.89
   6   6 -11    8.95    0.87
  -6   6  11    8.35    0.77
   5   6 -11   -0.24    0.36
  -5   6  11    0.05    0.39
  -5   6  11    0.07    0.31
   5   6 -11    0.15    0.36
   4   6 -11   12.79    0.89
  -4   6  11   14.18    0.94
  -4   6  11   13.95    0.82
   4   6 -11   13.12    0.89
  -3   6  11   24.66    1.20
  -3   6  11   23.66    1.04
   3   6 -11   23.68    1.08
   3   6 -11   24.59    1.14
   2   6 -11   11.65    0.92
  -2   6  11   11.68    0.74
   2   6 -11   11.66    0.75
  -2   6  11   11.53    0.83
  -1   6  11   84.82    2.18
   1   6 -11   80.16    2.06
  -1   6  11   82.56    2.27
   1   6 -11   81.61    2.29
   0   6  11   11.53    0.75
   0   6 -11   11.06    0.78
   0   6  11   11.91    0.78
  -1   6 -11   41.09    1.53
   1   6  11   44.38    1.48
   1   6  11   43.32    1.49
  -2  -6 -11   57.54    1.80
   2   6  11   58.76    1.84
   2   6  11   61.64    1.77
  -2   6 -11   61.72    1.96
  -3  -6 -11   37.97    1.48
   3   6  11   37.32    1.45
  -3   6 -11   38.43    1.51
  -4  -6 -11   -0.29    0.32
  -4   6 -11   -0.01    0.31
   4   6  11    0.46    0.38
  -5  -6 -11   -0.06    0.39
   5   6  11    0.44    0.36
  -5   6 -11    0.42    0.37
  -6  -6 -11    6.06    0.89
  -6   6 -11    5.66    0.75
  -7  -6 -11    0.12    0.45
  -7   6 -11   -0.14    0.37
  -8  -6 -11    0.87    0.56
  -8   6 -11    0.89    0.47
  -9  -6 -11   -0.11    0.51
  -9   6 -11    0.18    0.45
 -10  -6 -11   -0.09    0.57
  -9   7  11    1.40    0.64
  -8   7  11    1.98    0.66
   8   7 -11    2.80    0.71
   8   7 -11    2.29    0.56
  -7   7  11   10.51    1.12
   7   7 -11    8.83    0.96
   7   7 -11    9.36    1.02
   6   7 -11    2.54    0.57
  -6   7  11    3.66    0.73
   6   7 -11    2.37    0.55
  -6   7  11    2.37    0.53
   5   7 -11   10.46    0.97
  -5   7  11   13.35    1.17
  -5   7  11   11.95    0.97
   5   7 -11   10.90    1.00
   4   7 -11    3.41    0.58
  -4   7  11    3.38    0.66
   4   7 -11    2.80    0.54
  -4   7  11    2.54    0.51
  -3   7  11   -0.02    0.28
  -3   7  11   -0.59    0.35
   3   7 -11   -0.44    0.26
  -2   7  11   22.22    1.18
   2   7 -11   22.70    1.17
  -2   7  11   22.62    1.10
  -1   7  11   26.06    1.24
   1   7 -11   26.49    1.26
  -1   7  11   29.45    1.25
   0   7  11   54.35    1.80
   0   7 -11   54.22    1.87
   0   7  11   54.94    1.80
   1   7  11    0.50    0.33
   1   7  11   -0.63    0.24
  -1   7 -11    0.42    0.41
   2   7  11    2.21    0.50
  -2   7 -11    2.60    0.53
  -3   7 -11    2.89    0.57
   3   7  11    3.38    0.59
  -4   7 -11    0.21    0.33
   4   7  11    0.97    0.43
  -5  -7 -11    0.82    0.49
  -5   7 -11   -0.27    0.36
   5   7  11    0.35    0.44
  -6  -7 -11    1.24    0.59
   6   7  11    1.27    0.52
  -6   7 -11    1.03    0.51
  -7  -7 -11    0.39    0.49
  -7   7 -11    0.58    0.45
  -8  -7 -11   16.42    1.51
  -8   7 -11   15.66    1.41
  -9  -7 -11   -0.92    0.50
   8   8 -11    0.27    0.49
  -8   8  11    0.15    0.57
  -7   8  11    1.78    0.65
   7   8 -11    1.23    0.55
   6   8 -11   -0.14    0.33
  -6   8  11   -0.47    0.41
   5   8 -11    8.92    1.00
  -5   8  11    8.57    0.91
  -5   8  11    8.54    1.03
   4   8 -11    2.26    0.55
  -4   8  11    1.89    0.61
  -4   8  11    1.27    0.48
  -3   8  11    0.65    0.40
  -3   8  11    0.30    0.42
   3   8 -11    0.42    0.40
  -2   8  11    0.59    0.44
   2   8 -11    0.06    0.40
  -2   8  11    0.40    0.41
  -1   8  11    0.82    0.43
   1   8 -11    0.62    0.39
  -1   8  11    0.51    0.40
   0   8  11    7.76    0.84
   0   8  11   10.10    0.93
   0   8 -11    9.52    0.94
   1   8  11    0.74    0.44
  -1   8 -11    0.78    0.43
   2   8  11    4.11    0.67
  -2   8 -11    4.93    0.73
  -3   8 -11    5.33    0.75
   3   8  11    5.41    0.80
  -4   8 -11   -0.32    0.38
   4   8  11   -0.64    0.34
   5   8  11    0.41    0.50
  -5   8 -11   -0.39    0.30
   6   8  11    0.50    0.49
  -6   8 -11    0.25    0.42
  -8  -8 -11   -0.14    0.58
   7   9 -11    0.08    0.46
   6   9 -11   -0.11    0.45
  -6   9  11    0.78    0.58
   5   9 -11    4.41    0.78
  -5   9  11    5.27    0.87
  -4   9  11    1.02    0.53
   4   9 -11    0.49    0.48
  -4   9  11    0.53    0.47
   3   9 -11    0.34    0.41
  -3   9  11   -0.15    0.37
  -3   9  11    0.31    0.40
  -2   9  11    0.71    0.45
   2   9 -11    0.08    0.41
  -2   9  11    0.30    0.44
  -1   9  11    2.17    0.57
   1   9 -11    2.35    0.61
   0   9 -11   11.57    1.14
   0   9  11   12.34    1.12
   1   9  11    1.41    0.51
  -1   9 -11    1.60    0.51
   2   9  11    0.51    0.45
  -2   9 -11    0.51    0.48
  -3   9 -11    2.88    0.70
   3   9  11    3.14    0.70
   4   9  11    8.60    1.04
  -4   9 -11    8.69    1.06
  -5   9 -11    2.69    0.68
   5   9  11    4.88    0.84
   6   9  11    2.68    0.76
  -4  10  11   16.14    1.44
   4  10 -11   10.72    1.21
   3  10 -11    0.61    0.51
  -3  10  11    0.77    0.50
  -3  10  11    0.28    0.47
   2  10 -11    4.48    0.81
  -2  10  11    3.93    0.75
  -1  10  11    2.20    0.62
   1  10 -11    2.24    0.62
   0  10  11   -0.20    0.37
   0  10 -11   -0.14    0.39
  -1  10 -11    0.52    0.48
   1  10  11    0.57    0.52
  -2  10 -11    0.45    0.55
   2  10  11    1.52    0.64
  -3  10 -11    0.62    0.51
   3  10  11    0.32    0.56
 -13   0  12    0.83    0.67
  11   0 -12   -0.36    0.42
  10   0 -12    4.25    0.71
   9   0 -12   -0.60    0.36
   8   0 -12   15.56    1.02
  -8   0  12   15.91    0.82
   7   0 -12    0.61    0.38
  -7   0  12    0.12    0.25
   6   0 -12   28.41    1.15
  -6   0  12   27.19    0.94
  -5   0  12   -0.27    0.16
   5   0 -12   -0.18    0.22
   4   0 -12  415.63    7.91
  -4   0  12  412.98    7.52
   3   0 -12   -0.18    0.22
  -3   0  12   -0.23    0.19
  -2   0  12  217.94    4.19
   2   0 -12  223.16    4.41
  -1   0  12   -0.36    0.14
   1   0 -12   -0.06    0.19
   1   0 -12   -0.13    0.06
   0   0 -12   23.04    0.82
  -1   0 -12    0.14    0.20
  -2   0 -12   54.17    1.52
  -3   0 -12   -0.20    0.23
  -4   0 -12    3.19    0.45
  -5   0 -12   -0.10    0.29
  -6   0 -12   10.05    0.87
  -7   0 -12   -0.18    0.33
  -8   0 -12    0.74    0.49
  -9   0 -12    0.63    0.49
 -10   0 -12    0.37    0.55
 -11   0 -12   -0.02    0.50
 -12   0 -12    5.14    0.96
 -13  -1  12   -0.83    0.55
  12   1 -12    6.64    0.98
  11  -1 -12    3.26    0.69
  11   1 -12    2.04    0.61
  10  -1 -12    0.95    0.43
  10   1 -12    1.33    0.52
   9  -1 -12    0.55    0.41
   9   1 -12    0.11    0.40
  -9   1  12    0.27    0.33
   8  -1 -12   -0.24    0.33
  -8   1  12    0.63    0.34
   8   1 -12    0.33    0.42
   7  -1 -12    5.94    0.66
  -7  -1  12    6.14    0.50
  -7   1  12    6.97    0.64
   7   1 -12    5.93    0.69
  -6  -1  12   15.80    0.64
   6  -1 -12   16.13    0.83
   6   1 -12   16.16    0.90
  -6   1  12   16.51    0.78
   5  -1 -12   78.58    2.02
  -5  -1  12   75.01    1.71
  -5   1  12   76.17    1.90
   5   1 -12   75.34    2.09
   4  -1 -12    0.14    0.25
  -4  -1  12    0.28    0.17
  -4   1  12    0.08    0.21
   4   1 -12    0.03    0.24
   3  -1 -12   34.90    1.11
  -3  -1  12   34.77    0.94
  -3   1  12   33.92    1.04
   3   1 -12   35.79    0.87
   3   1 -12   34.06    1.15
  -3   1  12   34.05    0.75
   2  -1 -12   15.50    0.68
  -2   1  12   14.61    0.66
   2   1 -12   14.29    0.45
   2   1 -12   14.87    0.70
   1  -1 -12   44.04    1.25
   1   1 -12   47.99    1.31
   1   1 -12   46.30    1.00
  -1   1  12   45.51    1.24
   0  -1 -12   11.82    0.61
   0   1 -12   12.62    0.46
   0   1  12   13.72    0.59
   0   1 -12   13.70    0.64
  -1  -1 -12   84.69    2.02
  -1   1 -12   84.80    1.99
  -1   1 -12   84.02    1.79
  -2  -1 -12  203.01    4.10
  -2   1 -12  193.54    4.01
  -2   1 -12  194.17    3.80
  -3  -1 -12   15.24    0.78
  -3   1 -12   14.88    0.75
  -4  -1 -12   27.96    1.12
  -4   1 -12   27.99    1.07
  -5  -1 -12  130.99    3.23
  -5   1 -12  134.28    3.14
  -6  -1 -12   10.85    0.91
  -6   1 -12   10.72    0.86
  -7  -1 -12    2.19    0.55
  -7   1 -12    2.98    0.55
  -8  -1 -12    1.80    0.55
  -8   1 -12    1.41    0.47
  -9  -1 -12    5.24    0.87
  -9   1 -12    5.97    0.84
 -10  -1 -12    2.00    0.71
 -10   1 -12    2.68    0.69
 -11  -1 -12    0.68    0.57
 -11   1 -12    0.87    0.57
 -12  -1 -12    7.39    1.17
 -12   1 -12    8.08    1.16
  12   2 -12    0.72    0.55
  11   2 -12   17.33    1.44
  10   2 -12    2.99    0.66
 -10   2  12    3.84    0.66
   9  -2 -12   42.37    1.62
  -9   2  12   41.76    1.58
   9   2 -12   44.27    1.82
  -9   2  12   42.22    1.48
   8  -2 -12   15.80    0.95
   8   2 -12   14.80    1.02
  -8   2  12   16.67    0.84
  -8   2  12   17.29    0.95
   7  -2 -12    0.73    0.35
  -7   2  12    1.17    0.40
   7   2 -12    0.92    0.44
  -7   2  12    0.90    0.30
   6  -2 -12    0.25    0.26
   6   2 -12   -0.10    0.28
  -6   2  12    0.08    0.19
  -6   2  12   -0.11    0.25
  -5  -2  12    0.46    0.15
   5  -2 -12    0.24    0.23
  -5   2  12    0.73    0.21
   5   2 -12    0.60    0.22
  -5   2  12    0.13    0.24
   5   2 -12    0.41    0.28
   4  -2 -12   18.35    0.77
  -4   2  12   18.36    0.81
  -4   2  12   18.78    0.60
   4   2 -12   18.48    0.90
   4   2 -12   17.60    0.68
   3  -2 -12  377.93    7.03
   3   2 -12  374.81    6.70
  -3   2  12  376.39    7.00
  -3   2  12  370.83    6.52
   3   2 -12  367.38    7.22
   2  -2 -12  114.10    2.49
   2   2 -12  115.39    2.31
  -2   2  12  115.79    2.14
  -2   2  12  111.99    2.52
   2   2 -12  115.34    2.62
   1  -2 -12   33.25    1.03
  -1   2  12   33.41    0.77
  -1   2  12   31.82    1.04
   1   2 -12   32.77    1.08
   1   2 -12   31.46    0.89
   0  -2 -12  191.23    3.87
   0   2  12  192.94    3.81
   0   2  12  190.66    3.50
   0   2 -12  188.04    3.87
   0   2 -12  190.90    3.63
  -1  -2 -12  116.98    2.67
   1   2  12  119.64    2.58
  -1   2 -12  119.07    2.60
  -1   2 -12  119.07    2.47
  -2  -2 -12   21.19    0.91
  -2   2 -12   23.02    0.83
  -2   2 -12   22.98    0.86
  -3  -2 -12   20.41    0.91
  -3   2 -12   17.75    0.77
  -3   2 -12   17.80    0.79
  -4  -2 -12    8.36    0.76
  -4   2 -12    7.46    0.63
  -4   2 -12    8.19    0.56
  -5  -2 -12    0.85    0.35
  -5   2 -12    1.62    0.35
  -5   2 -12    0.55    0.30
  -6  -2 -12    0.64    0.37
  -6   2 -12    0.01    0.31
  -7  -2 -12   10.82    1.01
  -7   2 -12   10.24    0.88
  -8  -2 -12    5.34    0.85
  -8   2 -12    5.69    0.74
  -9  -2 -12   -0.34    0.39
  -9   2 -12   -0.12    0.41
 -10  -2 -12    1.88    0.66
 -10   2 -12    3.39    0.73
 -11  -2 -12    0.04    0.51
 -11   2 -12    0.15    0.47
 -11   3  12   12.07    1.14
  11   3 -12   12.41    1.31
  10   3 -12    2.18    0.66
 -10   3  12    3.52    0.65
  -9   3  12    8.04    0.84
   9   3 -12    7.91    0.93
  -8   3  12    0.85    0.44
   8   3 -12    0.51    0.41
  -8   3  12    0.76    0.34
   7  -3 -12   13.77    0.84
  -7   3  12   13.68    0.92
  -7   3  12   13.71    0.75
   7   3 -12   14.09    1.13
   6  -3 -12    2.14    0.39
   6   3 -12    1.60    0.46
  -6   3  12    1.37    0.30
  -6   3  12    1.69    0.42
   6   3 -12    2.23    0.40
   5  -3 -12   15.13    0.71
   5   3 -12   14.50    0.86
  -5   3  12   14.80    0.84
   5   3 -12   15.52    0.74
  -5   3  12   13.90    0.62
   4  -3 -12    8.71    0.51
  -4   3  12    7.17    0.43
   4   3 -12    7.99    0.52
  -4   3  12    9.01    0.71
   4   3 -12    8.45    0.71
   3  -3 -12    1.23    0.25
  -3   3  12    1.22    0.30
  -3   3  12    1.07    0.22
   3   3 -12    1.36    0.35
   3   3 -12    1.18    0.27
   2  -3 -12   36.08    1.06
  -2   3  12   35.28    1.18
   2   3 -12   36.36    1.06
  -2   3  12   35.37    0.93
   2   3 -12   35.81    1.18
   1  -3 -12    1.37    0.27
   1   3 -12    1.71    0.30
   1   3 -12    1.72    0.34
  -1   3  12    1.54    0.23
  -1   3  12    1.40    0.32
   0  -3 -12    9.23    0.56
   0   3 -12    8.24    0.49
   0   3  12    8.39    0.44
   0   3  12    8.92    0.55
   0   3 -12    7.44    0.51
  -1  -3 -12    2.22    0.38
  -1   3 -12    1.81    0.30
  -1   3 -12    2.21    0.33
   1   3  12    1.78    0.29
   1   3  12    2.64    0.38
  -2  -3 -12   26.11    1.03
   2   3  12   26.34    0.95
   2   3  12   25.73    0.91
  -2   3 -12   26.66    0.92
  -2   3 -12   27.68    0.98
  -3  -3 -12   20.12    0.96
  -3   3 -12   19.19    0.80
  -3   3 -12   20.39    0.89
  -4  -3 -12   40.59    1.48
  -4   3 -12   41.96    1.39
  -4   3 -12   39.91    1.28
  -5  -3 -12   12.48    0.86
  -5   3 -12   10.80    0.68
  -5   3 -12   11.46    0.76
  -6  -3 -12   10.49    0.97
  -6   3 -12   10.76    0.76
  -6   3 -12   11.21    0.91
  -7  -3 -12    8.20    0.92
  -7   3 -12    8.03    0.82
  -7   3 -12    9.10    0.82
  -8  -3 -12    0.84    0.47
  -8   3 -12    0.29    0.36
  -9  -3 -12    0.28    0.49
  -9   3 -12    0.36    0.41
 -10  -3 -12   -0.16    0.49
 -10   3 -12    1.55    0.53
 -11  -3 -12    0.17    0.63
 -11   3 -12   -0.19    0.41
 -12   4  12    0.41    0.55
  11   4 -12   12.03    1.28
 -11   4  12   13.91    1.29
 -10   4  12   48.53    1.93
  10   4 -12   42.15    2.00
   9   4 -12   10.37    1.12
  -9   4  12   12.26    1.09
   8   4 -12   25.46    1.39
  -8   4  12   25.17    1.33
  -7   4  12   15.67    1.03
   7   4 -12   15.45    0.92
   7   4 -12   16.09    1.05
  -7   4  12   14.87    0.83
   6   4 -12    1.07    0.48
   6   4 -12    1.97    0.44
  -6   4  12    1.48    0.44
  -6   4  12    1.64    0.35
  -5   4  12   54.52    1.51
   5   4 -12   54.98    1.85
   5   4 -12   57.77    1.68
  -5   4  12   53.09    1.77
  -4   4  12    5.31    0.46
  -4   4  12    4.98    0.58
   4   4 -12    4.91    0.60
   4   4 -12    5.16    0.55
   3  -4 -12   53.63    1.32
   3   4 -12   52.33    1.49
   3   4 -12   50.18    1.57
  -3   4  12   47.35    1.55
  -3   4  12   50.80    1.35
   2  -4 -12  105.69    2.27
  -2   4  12  101.69    2.49
  -2   4  12  104.65    2.24
   2   4 -12  101.64    2.39
   2   4 -12  101.63    2.47
   1  -4 -12   14.88    0.66
  -1   4  12   15.38    0.64
   1   4 -12   15.46    0.73
   1   4 -12   15.62    0.73
  -1   4  12   14.53    0.77
   0  -4 -12    1.55    0.30
   0   4 -12    1.14    0.27
   0   4  12    1.03    0.31
   0   4 -12    1.66    0.33
  -1  -4 -12    3.60    0.44
  -1   4 -12    2.61    0.34
   1   4  12    3.90    0.46
  -1   4 -12    3.81    0.44
   1   4  12    3.24    0.40
  -2  -4 -12   17.99    0.88
  -2   4 -12   18.11    0.74
   2   4  12   18.08    0.81
  -2   4 -12   20.46    0.89
   2   4  12   18.53    0.81
  -3  -4 -12   46.43    1.56
  -3   4 -12   48.73    1.55
  -3   4 -12   46.27    1.32
   3   4  12   46.60    1.46
  -4  -4 -12   56.34    1.88
  -4   4 -12   57.82    1.78
  -4   4 -12   56.67    1.56
  -5  -4 -12    0.92    0.42
  -5   4 -12    0.93    0.36
  -6  -4 -12    7.41    0.86
  -6   4 -12   10.05    0.93
  -7  -4 -12    0.69    0.48
  -7   4 -12    2.01    0.51
  -8  -4 -12    2.94    0.72
  -8   4 -12    1.69    0.51
  -9  -4 -12   -0.02    0.45
  -9   4 -12   -0.94    0.34
 -10  -4 -12   -0.39    0.48
 -10   4 -12    0.53    0.48
 -11  -4 -12    1.59    0.76
 -11   4 -12    1.06    0.58
 -11   5  12    1.18    0.64
  11   5 -12    0.52    0.58
 -10   5  12    0.67    0.53
  10   5 -12    2.85    0.76
   9   5 -12    6.87    0.93
  -9   5  12    8.98    1.01
  -8   5  12    5.61    0.83
   8   5 -12    4.73    0.79
   7   5 -12   -0.13    0.41
   7   5 -12    0.06    0.30
  -7   5  12    0.39    0.32
  -7   5  12   -0.11    0.40
  -6   5  12    9.78    0.91
  -6   5  12   10.08    0.70
   6   5 -12   10.23    0.89
   6   5 -12   10.42    0.97
   5   5 -12   27.12    1.18
  -5   5  12   23.39    1.00
   5   5 -12   27.64    1.26
  -5   5  12   26.05    1.23
   4   5 -12    3.39    0.52
   4   5 -12    3.23    0.56
  -4   5  12    2.41    0.48
  -4   5  12    3.91    0.48
  -3   5  12    2.96    0.49
   3   5 -12    3.06    0.50
   3   5 -12    2.29    0.45
  -3   5  12    2.57    0.40
  -2   5  12   14.60    0.86
   2   5 -12   16.00    0.81
   2   5 -12   14.76    0.80
  -2   5  12   15.81    0.73
   1  -5 -12   -0.09    0.17
  -1   5  12   -0.11    0.20
   1   5 -12   -0.05    0.21
  -1   5  12   -0.03    0.23
   1   5 -12    0.06    0.23
   0  -5 -12   17.09    0.78
   0   5 -12   18.75    0.78
   0   5  12   17.53    0.88
   0   5 -12   17.11    0.88
   0   5  12   17.25    0.80
  -1  -5 -12   12.61    0.74
   1   5  12   13.01    0.75
  -1   5 -12   13.18    0.63
   1   5  12   13.65    0.72
  -1   5 -12   12.87    0.77
  -2  -5 -12   10.20    0.71
   2   5  12    9.98    0.69
   2   5  12   10.94    0.68
  -2   5 -12    9.31    0.78
  -3  -5 -12   67.65    2.02
   3   5  12   69.06    1.96
  -3   5 -12   66.23    2.01
   3   5  12   62.60    1.78
  -4  -5 -12    0.24    0.32
   4   5  12    0.07    0.31
  -4   5 -12    0.38    0.32
  -5  -5 -12    2.86    0.59
  -5   5 -12    1.72    0.45
  -6  -5 -12    0.30    0.44
  -6   5 -12    0.45    0.39
  -7  -5 -12    0.13    0.41
  -7   5 -12   -0.43    0.26
  -8  -5 -12   -0.14    0.53
  -8   5 -12    0.02    0.36
  -9  -5 -12    5.95    0.96
  -9   5 -12    6.32    0.90
 -10  -5 -12   11.78    1.36
 -10   5 -12   11.35    1.24
  10   6 -12    0.10    0.46
 -10   6  12   -0.75    0.41
  -9   6  12    0.92    0.56
   9   6 -12    0.61    0.50
   8   6 -12    1.64    0.63
  -8   6  12    2.81    0.69
   8   6 -12    2.16    0.55
   7   6 -12    7.05    0.81
   7   6 -12    6.61    0.88
  -7   6  12    6.71    0.87
   6   6 -12    4.88    0.69
  -6   6  12    6.42    0.81
  -6   6  12    4.22    0.59
   6   6 -12    5.22    0.77
  -5   6  12    6.52    0.78
   5   6 -12    6.00    0.73
  -5   6  12    8.90    0.77
   5   6 -12    7.42    0.78
  -4   6  12    2.21    0.55
   4   6 -12    0.84    0.42
   4   6 -12    1.86    0.48
  -4   6  12    1.86    0.43
  -3   6  12   13.35    1.04
   3   6 -12   11.76    0.82
   3   6 -12   12.17    0.84
  -3   6  12   10.24    0.70
  -2   6  12   -0.33    0.33
  -2   6  12    0.03    0.28
   2   6 -12   -0.19    0.28
   2   6 -12   -0.08    0.31
   1   6 -12    3.18    0.44
  -1   6  12    3.99    0.51
  -1   6  12    3.60    0.58
   1   6 -12    3.77    0.57
   0   6 -12    4.55    0.60
   0   6  12    4.84    0.62
   0   6  12    5.23    0.57
   1   6  12   -0.15    0.27
  -1   6 -12   -0.50    0.23
   1   6  12   -0.03    0.26
  -2  -6 -12   15.30    0.89
  -2   6 -12   16.44    0.97
   2   6  12   16.42    0.89
   2   6  12   15.71    0.92
  -3  -6 -12  109.97    2.89
   3   6  12  110.85    2.88
  -3   6 -12  109.73    2.93
  -4  -6 -12    3.58    0.59
   4   6  12    4.00    0.62
  -4   6 -12    5.20    0.70
  -5  -6 -12   12.87    1.12
   5   6  12   14.62    1.03
  -5   6 -12   13.98    0.98
  -6  -6 -12    1.76    0.59
  -6   6 -12    3.03    0.63
  -7  -6 -12    1.53    0.62
  -7   6 -12    0.29    0.41
  -8  -6 -12    3.44    0.77
  -8   6 -12    4.13    0.76
  -9  -6 -12    0.33    0.55
  -9   6 -12    0.22    0.44
  -9   7  12   10.33    1.17
   9   7 -12   12.15    1.24
   8   7 -12   -0.78    0.34
   8   7 -12    0.08    0.43
  -8   7  12   -0.07    0.48
   7   7 -12    1.70    0.55
  -7   7  12    0.80    0.50
   7   7 -12    1.46    0.51
  -6   7  12    0.92    0.46
   6   7 -12    0.79    0.46
   6   7 -12   -0.14    0.38
   5   7 -12   -0.19    0.30
   5   7 -12    0.27    0.40
  -5   7  12   -0.11    0.32
  -5   7  12    0.61    0.45
   4   7 -12    0.38    0.36
  -4   7  12   -0.07    0.31
   4   7 -12    0.25    0.37
  -4   7  12    0.37    0.41
  -3   7  12   18.64    1.10
   3   7 -12   19.67    1.11
  -3   7  12   21.37    1.05
   2   7 -12   -0.09    0.32
  -2   7  12    0.39    0.34
  -2   7  12    0.14    0.33
  -1   7  12   15.86    0.93
  -1   7  12   16.24    1.00
   1   7 -12   15.30    0.97
   0   7  12   56.36    1.82
   0   7  12   53.83    1.81
   0   7 -12   54.21    1.90
   1   7  12   17.89    0.98
   1   7  12   19.09    1.06
  -1   7 -12   18.36    1.07
  -2   7 -12    4.23    0.64
   2   7  12    4.58    0.68
   3   7  12    0.22    0.32
  -3   7 -12    0.51    0.39
   4   7  12    0.46    0.43
  -4   7 -12    1.22    0.47
  -5  -7 -12    8.15    0.96
   5   7  12    5.86    0.83
  -5   7 -12    7.91    0.90
  -6  -7 -12   19.79    1.31
  -6   7 -12   19.56    1.26
  -7  -7 -12   -0.58    0.46
  -7   7 -12   -0.15    0.37
  -8  -7 -12    0.06    0.55
  -8   7 -12    0.46    0.49
  -9  -7 -12    0.24    0.64
   8   8 -12    0.36    0.49
  -8   8  12    0.67    0.54
  -7   8  12    0.55    0.56
   7   8 -12    1.63    0.58
   7   8 -12   -0.09    0.38
  -6   8  12    0.34    0.50
   6   8 -12    0.90    0.46
  -5   8  12    0.48    0.53
   5   8 -12    0.55    0.49
   4   8 -12    1.22    0.48
  -4   8  12    1.25    0.47
  -4   8  12    1.19    0.56
   3   8 -12    0.62    0.43
  -3   8  12    0.92    0.40
  -3   8  12    0.25    0.40
  -2   8  12   26.15    1.28
  -2   8  12   26.53    1.33
   2   8 -12   26.59    1.38
  -1   8  12    2.97    0.63
   1   8 -12    1.66    0.50
  -1   8  12    2.65    0.54
   0   8  12   19.92    1.12
   0   8  12   21.03    1.13
   0   8 -12   18.69    1.15
  -1   8 -12   20.49    1.20
   1   8  12   18.26    1.10
   2   8  12    0.48    0.41
  -2   8 -12    1.03    0.44
  -3   8 -12    4.07    0.69
   3   8  12    3.29    0.62
  -4   8 -12   -0.03    0.38
   4   8  12   -0.37    0.33
   5   8  12    1.33    0.58
  -5   8 -12    0.92    0.53
  -6   8 -12   -0.12    0.39
   6   8  12    0.23    0.49
  -7   8 -12    0.27    0.46
   7   9 -12   -0.39    0.46
   6   9 -12    0.92    0.50
  -6   9  12    0.30    0.61
   5   9 -12    1.84    0.64
  -5   9  12    2.20    0.71
  -4   9  12    2.38    0.66
   4   9 -12    1.69    0.58
  -3   9  12    2.98    0.63
   3   9 -12    2.48    0.61
  -3   9  12    2.08    0.60
   2   9 -12    1.09    0.50
  -2   9  12    0.96    0.49
  -2   9  12    0.72    0.51
  -1   9  12    4.40    0.71
   1   9 -12    5.42    0.84
   0   9 -12    2.94    0.63
   0   9  12    3.31    0.65
  -1   9 -12    3.88    0.75
   1   9  12    7.65    0.95
   2   9  12   11.92    1.12
  -2   9 -12   11.73    1.17
  -3   9 -12    1.25    0.51
   3   9  12    0.53    0.50
   4   9  12    0.11    0.46
  -4   9 -12    0.20    0.42
   5   9  12    1.57    0.62
  -5   9 -12    1.14    0.53
   6   9  12    2.59    0.74
  -4  10  12    5.58    0.97
   3  10 -12    9.81    1.13
  -3  10  12   11.79    1.24
   2  10 -12    0.33    0.53
  -2  10  12    0.52    0.46
   1  10 -12    0.37    0.45
  -1  10  12    0.52    0.53
   0  10  12    0.41    0.53
   0  10 -12   -0.22    0.39
   1  10  12    0.00    0.46
  -1  10 -12    0.55    0.48
  -2  10 -12    5.24    0.85
   2  10  12    3.48    0.77
   3  10  12    1.22    0.62
 -13   0  13   10.51    1.29
  12   0 -13    0.42    0.46
  11   0 -13    4.15    0.73
  10   0 -13   -0.13    0.42
   9   0 -13   26.55    1.34
  -8   0  13    0.21    0.30
   8   0 -13   -0.34    0.31
  -7   0  13   26.16    0.98
   7   0 -13   25.98    1.22
   6   0 -13   -0.18    0.23
  -6   0  13    0.09    0.20
  -5   0  13    1.99    0.31
   5   0 -13    1.84    0.38
   4   0 -13   -0.11    0.23
  -4   0  13   -0.03    0.19
  -3   0  13  138.22    2.83
   3   0 -13  137.09    3.04
   2   0 -13    0.25    0.26
  -2   0  13   -0.23    0.20
   1   0 -13  227.32    3.80
  -1   0  13  215.06    4.21
   1   0 -13  218.23    4.41
   0   0 -13    0.14    0.11
   0   0 -13   -0.23    0.18
  -1   0 -13    1.54    0.33
  -2   0 -13   -0.32    0.24
  -3   0 -13    8.37    0.69
  -4   0 -13   -0.37    0.24
  -5   0 -13    2.43    0.44
  -6   0 -13    0.08    0.32
  -7   0 -13   27.35    1.32
  -8   0 -13    0.35    0.45
  -9   0 -13   11.83    1.13
 -10   0 -13    0.39    0.55
 -11   0 -13   -0.21    0.48
 -12   0 -13   -0.12    0.52
  12   1 -13    7.11    0.99
  11  -1 -13   -0.34    0.40
  11   1 -13    1.70    0.64
  10  -1 -13    3.09    0.62
  10   1 -13    3.12    0.66
   9  -1 -13    4.46    0.65
   9   1 -13    6.17    0.84
  -9   1  13    5.44    0.65
   8  -1 -13    2.02    0.51
  -8   1  13    2.86    0.50
   8   1 -13    1.97    0.52
   7  -1 -13    0.70    0.39
  -7  -1  13    0.89    0.28
  -7   1  13    0.53    0.32
   7   1 -13   -0.05    0.38
   6  -1 -13   46.17    1.51
  -6  -1  13   45.20    1.22
  -6   1  13   45.58    1.39
   6   1 -13   41.37    1.52
   5  -1 -13    0.90    0.30
  -5  -1  13    0.82    0.21
  -5   1  13    0.45    0.23
   5   1 -13    0.18    0.29
  -4  -1  13  127.78    2.64
   4  -1 -13  131.89    2.94
  -4   1  13  131.73    2.83
   4   1 -13  132.86    3.05
   3  -1 -13    9.34    0.59
  -3  -1  13    8.73    0.46
   3   1 -13    6.76    0.58
  -3   1  13    8.62    0.53
   3   1 -13    8.97    0.38
  -3   1  13    8.86    0.28
   2  -1 -13   51.58    1.41
   2   1 -13   49.68    1.44
   2   1 -13   51.75    1.09
  -2   1  13   48.91    1.35
   1  -1 -13   11.81    0.63
   1   1 -13   11.32    0.41
  -1   1  13   11.71    0.59
   1   1 -13   12.39    0.63
   0  -1 -13   77.44    1.89
   0   1 -13   76.32    1.88
   0   1  13   76.67    1.82
   0   1 -13   76.66    1.59
  -1  -1 -13    0.64    0.28
  -1   1 -13    0.60    0.28
  -1   1 -13    1.06    0.21
  -2  -1 -13   41.64    1.33
  -2   1 -13   39.92    1.12
  -2   1 -13   40.62    1.26
  -3  -1 -13   32.19    1.17
  -3   1 -13   30.61    1.10
  -4  -1 -13   10.20    0.70
  -4   1 -13   10.52    0.67
  -5  -1 -13   24.76    1.16
  -5   1 -13   22.43    1.02
  -6  -1 -13    9.87    0.92
  -6   1 -13    9.91    0.83
  -7  -1 -13    4.96    0.73
  -7   1 -13    5.88    0.71
  -8  -1 -13    4.49    0.74
  -8   1 -13    4.91    0.71
  -9  -1 -13    1.03    0.53
  -9   1 -13    0.96    0.49
 -10  -1 -13    0.94    0.56
 -10   1 -13    1.84    0.66
 -11  -1 -13    1.97    0.74
 -11   1 -13    1.04    0.66
 -12  -1 -13    3.03    0.86
 -12   1 -13    0.98    0.67
  12   2 -13    2.28    0.76
  11   2 -13    0.62    0.52
 -10   2  13   20.91    1.16
  10   2 -13   18.50    1.32
   9  -2 -13    0.49    0.36
  -9   2  13    0.97    0.41
   9   2 -13    0.34    0.42
   8  -2 -13   49.09    1.69
  -8   2  13   48.10    1.48
  -8   2  13   50.28    1.69
   8   2 -13   47.57    1.87
   7  -2 -13   -0.08    0.30
  -7   2  13    0.30    0.24
  -7   2  13    0.44    0.35
   7   2 -13    0.61    0.40
   6  -2 -13    8.68    0.63
  -6   2  13    8.74    0.63
  -6   2  13    9.21    0.52
   6   2 -13    9.56    0.84
  -5  -2  13   14.96    0.54
   5  -2 -13   16.52    0.77
   5   2 -13   16.52    0.89
   5   2 -13   15.27    0.67
  -5   2  13   15.27    0.59
  -5   2  13   15.19    0.80
   4  -2 -13   10.52    0.60
   4   2 -13   10.33    0.67
  -4   2  13   10.05    0.42
   4   2 -13   10.80    0.52
  -4   2  13    9.68    0.61
   3  -2 -13    1.26    0.28
   3   2 -13    1.29    0.33
   3   2 -13    1.29    0.23
  -3   2  13    2.08    0.36
  -3   2  13    1.29    0.17
   2  -2 -13    9.06    0.53
   2   2 -13   10.30    0.63
  -2   2  13    9.54    0.34
   2   2 -13    9.69    0.45
  -2   2  13    9.68    0.60
   1  -2 -13  217.14    4.34
   1   2 -13  216.66    4.40
   1   2 -13  213.80    4.04
  -1   2  13  214.60    4.30
  -1   2  13  223.46    3.88
   0  -2 -13  100.50    2.31
   0   2 -13   97.31    2.08
   0   2  13   99.13    1.95
   0   2 -13   96.18    2.27
   0   2  13   95.80    2.24
  -1  -2 -13   33.74    1.17
  -1   2 -13   34.67    1.01
   1   2  13   34.75    1.10
  -1   2 -13   35.43    1.12
  -2  -2 -13   17.71    0.83
  -2   2 -13   18.02    0.73
  -2   2 -13   17.26    0.76
  -3  -2 -13    6.58    0.61
  -3   2 -13    7.15    0.57
  -3   2 -13    6.14    0.53
  -4  -2 -13    0.42    0.30
  -4   2 -13    0.17    0.25
  -4   2 -13    0.19    0.23
  -5  -2 -13   16.70    0.99
  -5   2 -13   15.60    0.84
  -5   2 -13   15.92    0.85
  -6  -2 -13    0.09    0.35
  -6   2 -13    1.26    0.39
  -7  -2 -13    0.51    0.43
  -7   2 -13    0.73    0.41
  -8  -2 -13   34.70    1.67
  -8   2 -13   36.17    1.55
  -9  -2 -13   -0.16    0.47
  -9   2 -13    0.02    0.42
 -10  -2 -13   14.58    1.42
 -10   2 -13   13.84    1.23
 -11  -2 -13    3.04    0.82
 -11   2 -13    4.27    0.82
  12   3 -13    0.85    0.57
  11   3 -13    0.33    0.52
 -11   3  13    0.31    0.46
  10   3 -13    1.10    0.59
 -10   3  13    0.50    0.45
  -9   3  13   24.00    1.22
   9   3 -13   22.02    1.33
   8   3 -13    0.33    0.39
  -8   3  13    0.59    0.43
   7  -3 -13    6.38    0.65
  -7   3  13    7.45    0.63
  -7   3  13    7.06    0.73
   7   3 -13    6.28    0.75
   6  -3 -13    1.23    0.33
  -6   3  13    1.16    0.37
   6   3 -13    0.98    0.31
  -6   3  13    0.16    0.23
   6   3 -13    0.64    0.39
   5  -3 -13   17.38    0.78
  -5   3  13   18.20    0.93
  -5   3  13   18.80    0.72
   5   3 -13   18.71    0.81
   5   3 -13   19.18    0.99
   4  -3 -13    5.56    0.47
   4   3 -13    4.72    0.55
  -4   3  13    4.92    0.39
   4   3 -13    5.10    0.48
  -4   3  13    4.75    0.54
   3  -3 -13   28.11    0.94
  -3   3  13   28.25    0.80
   3   3 -13   27.70    0.93
   3   3 -13   26.28    1.07
  -3   3  13   28.00    1.08
   2  -3 -13   -0.41    0.15
   2   3 -13   -0.05    0.17
  -2   3  13    0.12    0.14
   2   3 -13    0.01    0.20
  -2   3  13    0.04    0.22
   1  -3 -13    0.29    0.20
  -1   3  13    0.12    0.22
   1   3 -13    0.46    0.19
  -1   3  13    0.10    0.15
   1   3 -13    0.27    0.23
   0  -3 -13   28.24    1.00
   0   3  13   28.86    0.86
   0   3  13   29.96    1.05
   0   3 -13   28.64    1.00
   0   3 -13   28.45    0.94
  -1  -3 -13    2.21    0.36
  -1   3 -13    2.45    0.35
  -1   3 -13    2.71    0.35
   1   3  13    2.18    0.30
   1   3  13    2.08    0.35
  -2  -3 -13    0.71    0.28
   2   3  13    0.93    0.27
  -2   3 -13    0.30    0.21
  -2   3 -13    0.72    0.25
   2   3  13    0.91    0.27
  -3  -3 -13   81.90    2.22
  -3   3 -13   80.60    2.01
  -3   3 -13   79.98    2.07
  -4  -3 -13   20.66    1.03
  -4   3 -13   20.49    0.88
  -4   3 -13   19.75    0.93
  -5  -3 -13    0.32    0.38
  -5   3 -13    0.39    0.27
  -5   3 -13   -0.28    0.27
  -6  -3 -13   -0.06    0.34
  -6   3 -13    0.24    0.30
  -6   3 -13    0.47    0.34
  -7  -3 -13    3.37    0.69
  -7   3 -13    4.07    0.61
  -7   3 -13    2.88    0.55
  -8  -3 -13    0.75    0.49
  -8   3 -13    0.28    0.36
  -9  -3 -13   10.10    1.13
  -9   3 -13   11.56    1.13
 -10  -3 -13    0.75    0.58
 -10   3 -13    1.01    0.51
 -11  -3 -13    3.62    0.96
 -11   3 -13    2.36    0.68
 -12   4  13   -0.64    0.45
  11   4 -13    3.17    0.84
 -11   4  13    3.36    0.74
 -10   4  13    6.09    0.87
  10   4 -13    6.39    0.97
  -9   4  13   15.53    1.23
   9   4 -13   13.09    1.23
  -8   4  13   -0.17    0.34
   8   4 -13    0.30    0.43
   7   4 -13    1.59    0.39
  -7   4  13    2.26    0.42
   7   4 -13    1.09    0.50
  -7   4  13    2.42    0.56
  -6   4  13    3.64    0.57
   6   4 -13    5.05    0.68
   6   4 -13    3.20    0.51
  -6   4  13    3.67    0.46
   5   4 -13    8.10    0.70
  -5   4  13    7.12    0.57
  -5   4  13    8.28    0.75
   5   4 -13    6.04    0.70
   4   4 -13    0.72    0.35
  -4   4  13    0.08    0.19
  -4   4  13    0.21    0.32
   4   4 -13    0.24    0.26
   3  -4 -13    1.95    0.30
  -3   4  13    1.61    0.37
  -3   4  13    1.60    0.27
   3   4 -13    1.68    0.37
   3   4 -13    2.42    0.38
   2  -4 -13    5.99    0.44
  -2   4  13    6.18    0.43
  -2   4  13    5.87    0.57
   2   4 -13    4.95    0.48
   2   4 -13    6.26    0.59
   1  -4 -13   27.95    0.97
  -1   4  13   28.54    0.91
   1   4 -13   29.42    1.05
  -1   4  13   27.63    1.08
   1   4 -13   30.49    1.06
   0  -4 -13   48.36    1.42
   0   4 -13   49.65    1.45
   0   4  13   48.27    1.32
   0   4 -13   49.03    1.41
   0   4  13   48.03    1.47
  -1  -4 -13    6.94    0.62
   1   4  13    6.20    0.57
  -1   4 -13    5.86    0.50
  -1   4 -13    5.16    0.53
   1   4  13    6.17    0.52
  -2  -4 -13    1.92    0.40
   2   4  13    1.23    0.29
  -2   4 -13    1.32    0.33
   2   4  13    1.31    0.32
  -2   4 -13    1.70    0.31
  -3  -4 -13   36.56    1.37
   3   4  13   35.94    1.26
  -3   4 -13   34.31    1.12
  -3   4 -13   34.08    1.27
  -4  -4 -13   19.62    1.06
  -4   4 -13   20.99    1.01
  -4   4 -13   19.74    0.86
  -5  -4 -13    6.48    0.77
  -5   4 -13    6.02    0.68
  -6  -4 -13   24.14    1.32
  -6   4 -13   24.75    1.22
  -7  -4 -13    6.14    0.88
  -7   4 -13    4.46    0.67
  -8  -4 -13    0.66    0.54
  -8   4 -13    1.67    0.54
  -9  -4 -13    2.32    0.69
  -9   4 -13    2.70    0.62
 -10  -4 -13   -0.14    0.49
 -10   4 -13    0.03    0.48
  11   5 -13    1.63    0.69
 -11   5  13    2.25    0.74
 -10   5  13    2.16    0.64
  10   5 -13    2.75    0.79
   9   5 -13    2.23    0.63
  -9   5  13    3.60    0.73
  -8   5  13    0.18    0.40
   8   5 -13    0.48    0.48
  -7   5  13   -0.77    0.28
   7   5 -13    0.39    0.36
   7   5 -13   -0.84    0.36
  -6   5  13    1.26    0.49
  -6   5  13    0.62    0.33
   6   5 -13    1.33    0.43
   6   5 -13    0.32    0.41
   5   5 -13   13.30    1.06
  -5   5  13   11.92    0.97
  -5   5  13   13.79    0.77
   5   5 -13   13.64    0.86
   4   5 -13   26.77    1.22
  -4   5  13   25.69    1.00
  -4   5  13   26.78    1.21
   4   5 -13   25.75    1.12
   3   5 -13   35.22    1.33
  -3   5  13   38.70    1.21
  -3   5  13   35.12    1.37
   3   5 -13   38.51    1.35
   2   5 -13    2.17    0.41
   2   5 -13    2.01    0.39
  -2   5  13    2.66    0.47
  -2   5  13    2.43    0.36
   1  -5 -13    3.44    0.40
  -1   5  13    2.65    0.39
   1   5 -13    2.72    0.41
  -1   5  13    2.07    0.43
   1   5 -13    3.31    0.47
   0  -5 -13   22.75    0.93
   0   5  13   22.61    1.01
   0   5 -13   22.00    0.89
   0   5  13   24.15    0.93
   0   5 -13   22.09    1.01
  -1  -5 -13   16.30    0.83
   1   5  13   15.78    0.79
  -1   5 -13   15.42    0.71
  -1   5 -13   16.17    0.86
   1   5  13   17.20    0.86
  -2  -5 -13    1.67    0.41
   2   5  13    2.96    0.45
  -2   5 -13    3.50    0.53
   2   5  13    2.36    0.43
  -3  -5 -13   39.87    1.52
  -3   5 -13   41.93    1.52
   3   5  13   42.58    1.39
   3   5  13   40.52    1.44
  -4  -5 -13    4.40    0.65
  -4   5 -13    3.13    0.54
   4   5  13    4.30    0.63
  -5  -5 -13   -0.16    0.38
  -5   5 -13    0.17    0.31
  -6  -5 -13    9.51    1.03
  -6   5 -13    8.20    0.88
  -7  -5 -13    1.97    0.64
  -7   5 -13    1.93    0.52
  -8  -5 -13   11.01    1.18
  -8   5 -13   12.50    1.15
  -9  -5 -13    1.49    0.66
  -9   5 -13    0.65    0.48
 -10  -5 -13   -0.67    0.49
 -10   5 -13    0.23    0.51
  10   6 -13    0.13    0.57
 -10   6  13   -0.08    0.52
   9   6 -13    1.05    0.60
  -9   6  13   -0.05    0.47
  -8   6  13    6.38    0.87
   8   6 -13    5.62    0.79
   8   6 -13    6.38    0.89
  -7   6  13    3.09    0.65
   7   6 -13    3.38    0.63
   7   6 -13    3.10    0.70
   6   6 -13   -0.37    0.32
   6   6 -13   -0.36    0.33
  -6   6  13    0.09    0.42
   5   6 -13    4.28    0.68
  -5   6  13    4.36    0.57
  -5   6  13    6.12    0.76
   5   6 -13    4.74    0.64
  -4   6  13    2.35    0.44
   4   6 -13    2.16    0.51
  -4   6  13    2.94    0.60
   4   6 -13    2.23    0.52
   3   6 -13   14.66    0.92
  -3   6  13   15.49    0.83
  -3   6  13   14.97    0.98
   3   6 -13   15.49    0.91
   2   6 -13   13.40    0.87
   2   6 -13   13.44    0.79
  -2   6  13   11.22    0.72
  -2   6  13   12.48    0.89
   1   6 -13   10.87    0.69
  -1   6  13   11.51    0.82
  -1   6  13    9.80    0.66
   1   6 -13   11.04    0.77
   0   6 -13   38.68    1.49
   0   6  13   39.81    1.38
   0   6  13   40.68    1.47
   1   6  13    1.07    0.39
   1   6  13    1.23    0.40
  -1   6 -13    0.82    0.36
  -2  -6 -13    0.29    0.33
   2   6  13    0.41    0.32
  -2   6 -13   -0.03    0.31
   2   6  13    0.01    0.33
  -3  -6 -13   -0.02    0.34
  -3   6 -13    0.12    0.30
   3   6  13    0.08    0.35
  -4  -6 -13    0.50    0.38
  -4   6 -13   -0.08    0.31
   4   6  13    0.05    0.38
  -5  -6 -13    5.92    0.78
  -5   6 -13    6.68    0.80
   5   6  13    6.40    0.78
  -6  -6 -13    1.11    0.51
  -6   6 -13    0.62    0.41
  -7  -6 -13    0.28    0.47
  -7   6 -13   -0.27    0.34
  -8  -6 -13    4.98    0.88
  -8   6 -13    5.27    0.84
  -9  -6 -13    0.74    0.60
  -9   6 -13    0.38    0.46
  -9   7  13    1.64    0.61
   9   7 -13    0.79    0.58
  -8   7  13    0.59    0.52
   8   7 -13    0.50    0.44
   8   7 -13   -0.38    0.46
  -7   7  13   -0.39    0.38
   7   7 -13   -0.72    0.34
   7   7 -13    0.65    0.45
   6   7 -13    5.30    0.76
   6   7 -13    3.78    0.70
  -6   7  13    5.38    0.80
  -5   7  13    4.67    0.74
   5   7 -13    2.34    0.53
   5   7 -13    3.41    0.64
  -4   7  13   10.22    1.03
   4   7 -13   12.31    1.00
  -4   7  13   12.31    0.83
   4   7 -13   11.00    0.99
  -3   7  13    2.20    0.47
   3   7 -13    1.62    0.46
  -3   7  13    2.37    0.58
   2   7 -13    3.44    0.59
  -2   7  13    2.46    0.53
  -2   7  13    3.40    0.55
  -1   7  13    0.01    0.31
   1   7 -13    0.48    0.36
  -1   7  13    0.54    0.32
   0   7 -13    1.07    0.42
   0   7  13    1.18    0.42
   0   7  13    1.62    0.44
   1   7  13   42.32    1.56
   1   7  13   45.53    1.64
  -1   7 -13   43.42    1.68
   2   7  13   10.04    0.90
  -2   7 -13    9.06    0.93
   3   7  13    3.98    0.67
  -3   7 -13    3.58    0.63
   4   7  13    1.66    0.53
  -4   7 -13    1.48    0.47
  -5  -7 -13    1.15    0.49
  -5   7 -13    1.19    0.49
   5   7  13    2.27    0.56
  -6  -7 -13    9.33    1.07
  -6   7 -13    7.18    0.90
  -7  -7 -13    0.35    0.55
  -7   7 -13   -0.21    0.40
  -8  -7 -13    0.00    0.57
  -8   7 -13    0.66    0.48
   8   8 -13    1.30    0.57
  -8   8  13    2.33    0.71
   8   8 -13    1.12    0.57
   7   8 -13    7.87    0.99
   7   8 -13    5.47    0.87
  -7   8  13    4.67    0.84
   6   8 -13    4.74    0.78
  -6   8  13    6.04    0.93
   5   8 -13    2.67    0.63
  -5   8  13    4.08    0.82
   4   8 -13    6.07    0.81
  -4   8  13    6.41    0.76
  -4   8  13    6.69    0.87
  -3   8  13   12.69    1.14
   3   8 -13   14.52    1.22
  -3   8  13   11.52    0.97
  -2   8  13   24.13    1.31
  -2   8  13   23.61    1.20
   2   8 -13   22.52    1.26
  -1   8  13    9.59    0.95
  -1   8  13    7.63    0.81
   1   8 -13    9.49    0.97
   0   8  13    5.07    0.67
   0   8  13    3.31    0.58
   0   8 -13    4.53    0.74
  -1   8 -13    9.49    0.94
   1   8  13   10.60    0.97
   2   8  13    5.87    0.79
  -2   8 -13    4.42    0.72
   3   8  13    5.38    0.80
  -3   8 -13    5.66    0.77
   4   8  13    9.62    1.02
  -4   8 -13    8.50    1.02
   5   8  13    7.60    0.97
  -5   8 -13    7.84    0.98
  -6   8 -13    0.53    0.56
  -7   8 -13   10.07    1.17
  -6   9  13    2.30    0.77
   6   9 -13    0.79    0.53
  -5   9  13    4.06    0.83
   5   9 -13    3.02    0.69
   4   9 -13    1.00    0.51
  -4   9  13    0.54    0.54
   3   9 -13    0.31    0.47
  -3   9  13    0.70    0.47
  -3   9  13    0.37    0.47
  -2   9  13    2.09    0.57
  -2   9  13    2.54    0.65
   2   9 -13    2.02    0.56
   1   9 -13    3.10    0.66
  -1   9  13    2.42    0.58
   0   9 -13    0.81    0.46
   0   9  13    0.80    0.49
  -1   9 -13    0.09    0.38
   1   9  13    0.50    0.40
   2   9  13    2.60    0.63
  -2   9 -13    3.58    0.71
   3   9  13    8.16    0.96
  -3   9 -13    8.86    1.05
   4   9  13    5.37    0.84
  -4   9 -13    4.86    0.85
   5   9  13    0.81    0.54
  -5   9 -13    1.26    0.59
   6   9  13    3.63    0.85
  -4  10  13   -0.54    0.51
  -3  10  13    0.29    0.59
   3  10 -13    1.53    0.57
   2  10 -13    0.21    0.49
  -1  10  13    0.08    0.44
   1  10 -13    1.18    0.59
   0  10  13    4.18    0.81
   0  10 -13    4.80    0.87
   1  10  13    3.51    0.72
  -1  10 -13    1.25    0.54
   2  10  13   10.65    1.14
  -2  10 -13   13.28    1.33
   3  10  13    0.86    0.57
  12   0 -14    1.99    0.68
  11   0 -14   -0.22    0.38
  10   0 -14    4.38    0.73
   9   0 -14   -0.55    0.29
  -8   0  14  150.79    3.34
   8   0 -14  154.12    3.80
  -7   0  14    0.09    0.25
   7   0 -14   -0.36    0.28
  -6   0  14    3.70    0.42
   6   0 -14    2.47    0.45
   5   0 -14   -0.07    0.26
  -5   0  14   -0.01    0.20
  -4   0  14    6.97    0.47
   4   0 -14    7.00    0.60
   3   0 -14   -0.03    0.24
  -3   0  14    0.18    0.20
   2   0 -14  392.96    7.45
  -2   0  14  391.29    7.18
   1   0 -14   -0.26    0.09
  -1   0  14   -0.43    0.23
   1   0 -14   -0.55    0.24
   0   0 -14   61.68    1.67
   0   0 -14   66.72    1.32
  -1   0 -14    0.08    0.27
  -2   0 -14   28.32    1.05
  -3   0 -14    0.56    0.28
  -4   0 -14   -0.08    0.24
  -5   0 -14   -0.08    0.30
  -6   0 -14    9.64    0.86
  -7   0 -14   -0.12    0.35
  -8   0 -14   26.18    1.41
  -9   0 -14   -0.18    0.46
 -10   0 -14   14.85    1.33
 -11   0 -14   -0.06    0.49
 -12   0 -14   18.61    1.70
  12   1 -14    2.58    0.78
  11  -1 -14    0.78    0.55
  11   1 -14    1.36    0.61
  10  -1 -14    0.54    0.44
  10   1 -14    2.06    0.62
   9  -1 -14    0.95    0.43
   9   1 -14    0.62    0.47
  -9   1  14    0.35    0.36
   8  -1 -14    0.93    0.44
  -8   1  14    1.14    0.40
   8   1 -14    0.79    0.44
   7  -1 -14   83.74    2.39
  -7  -1  14   86.56    2.05
  -7   1  14   86.04    2.23
   7   1 -14   88.17    2.52
  -6  -1  14    3.29    0.36
   6  -1 -14    2.67    0.45
  -6   1  14    3.58    0.44
   6   1 -14    3.61    0.53
  -5  -1  14    1.03    0.24
   5  -1 -14    1.40    0.35
   5   1 -14    0.89    0.35
  -5   1  14    0.89    0.27
   4  -1 -14    8.65    0.60
  -4  -1  14   10.17    0.50
  -4   1  14    9.99    0.60
   4   1 -14   10.01    0.70
  -4   1  14    9.39    0.36
  -3  -1  14   71.28    1.64
   3  -1 -14   69.85    1.82
   3   1 -14   71.31    1.47
   3   1 -14   72.69    1.93
  -3   1  14   70.66    1.30
  -3   1  14   68.38    1.75
   2  -1 -14   43.59    1.30
  -2   1  14   42.22    1.26
   2   1 -14   42.78    1.35
   2   1 -14   43.79    0.96
   1  -1 -14   52.90    1.48
  -1   1  14   51.61    1.42
   1   1 -14   52.84    1.14
   1   1 -14   51.24    1.48
   0  -1 -14   73.80    1.85
   0   1  14   71.54    1.76
   0   1 -14   72.21    1.53
   0   1 -14   71.30    1.83
  -1  -1 -14   29.81    1.07
  -1   1 -14   29.79    0.87
  -1   1 -14   29.49    1.04
  -2  -1 -14    0.51    0.29
  -2   1 -14   -0.02    0.25
  -2   1 -14    0.57    0.23
  -3  -1 -14    0.37    0.27
  -3   1 -14   -0.02    0.22
  -4  -1 -14   18.10    0.92
  -4   1 -14   17.42    0.89
  -5  -1 -14   34.24    1.36
  -5   1 -14   33.76    1.31
  -6  -1 -14    0.18    0.34
  -6   1 -14   -0.36    0.33
  -7  -1 -14   -0.04    0.37
  -7   1 -14   -0.11    0.32
  -8  -1 -14    4.10    0.72
  -8   1 -14    3.88    0.68
  -9  -1 -14   -0.39    0.45
  -9   1 -14    0.46    0.47
 -10  -1 -14    2.84    0.72
 -10   1 -14    2.42    0.70
 -11  -1 -14    9.83    1.27
 -11   1 -14   11.08    1.26
 -12  -1 -14    0.02    0.54
 -12   1 -14   -0.58    0.57
  12   2 -14    0.15    0.51
  11   2 -14    0.77    0.59
 -10   2  14   12.17    1.02
  10   2 -14   12.04    1.20
   9  -2 -14   -0.01    0.34
   9   2 -14    0.38    0.41
  -9   2  14    0.36    0.37
   8  -2 -14    0.32    0.35
  -8   2  14    0.09    0.35
   8   2 -14    0.34    0.41
   7  -2 -14    0.62    0.37
   7   2 -14    1.07    0.49
  -7   2  14    0.31    0.26
  -7   2  14    0.92    0.39
   6  -2 -14    7.35    0.65
  -6   2  14    7.53    0.47
  -6   2  14    6.39    0.64
   6   2 -14    7.12    0.74
  -5  -2  14   27.74    0.81
   5  -2 -14   27.85    1.06
  -5   2  14   28.18    1.08
   5   2 -14   28.04    1.20
  -5   2  14   26.95    0.81
   5   2 -14   27.64    0.92
   4  -2 -14   28.41    1.02
  -4   2  14   28.81    0.76
  -4   2  14   27.69    1.05
   4   2 -14   30.29    0.91
   4   2 -14   27.40    1.14
   3  -2 -14    3.81    0.42
   3   2 -14    4.66    0.50
   3   2 -14    4.12    0.35
  -3   2  14    3.80    0.44
  -3   2  14    4.32    0.24
   2  -2 -14  184.61    3.74
  -2   2  14  178.43    3.19
  -2   2  14  176.97    3.71
   2   2 -14  176.67    3.82
   2   2 -14  181.00    3.41
   1  -2 -14   20.13    0.82
  -1   2  14   21.28    0.56
  -1   2  14   21.59    0.86
   1   2 -14   20.15    0.69
   1   2 -14   20.40    0.87
   0  -2 -14   45.43    1.36
   0   2  14   43.03    1.30
   0   2 -14   45.62    1.35
   0   2  14   44.29    1.05
   0   2 -14   45.27    1.17
  -1  -2 -14   16.96    0.83
  -1   2 -14   17.04    0.76
   1   2  14   18.39    0.79
  -1   2 -14   17.21    0.67
  -2  -2 -14   10.45    0.66
  -2   2 -14    8.96    0.55
  -2   2 -14    9.41    0.60
  -3  -2 -14    2.20    0.43
  -3   2 -14    2.85    0.39
  -3   2 -14    2.52    0.39
  -4  -2 -14   32.49    1.27
  -4   2 -14   30.15    1.13
  -4   2 -14   28.72    1.11
  -5  -2 -14    7.33    0.75
  -5   2 -14   10.78    0.86
  -5   2 -14   10.26    0.81
  -6  -2 -14    5.21    0.72
  -6   2 -14    7.62    0.77
  -6   2 -14    5.33    0.63
  -7  -2 -14    0.60    0.46
  -7   2 -14    0.59    0.40
  -8  -2 -14    3.37    0.68
  -8   2 -14    6.02    0.77
  -9  -2 -14    9.86    1.13
  -9   2 -14   12.58    1.12
 -10  -2 -14    0.33    0.59
 -10   2 -14    0.14    0.46
 -10   2 -14    0.26    0.43
 -11  -2 -14    1.41    0.66
 -11   2 -14    2.78    0.74
  12   3 -14   -0.05    0.57
  11   3 -14    9.16    1.14
 -11   3  14    9.93    1.05
  10   3 -14    5.03    0.85
 -10   3  14    5.31    0.79
  -9   3  14    0.08    0.35
   9   3 -14   -0.22    0.37
  -8   3  14   18.43    1.09
   8   3 -14   16.88    1.12
   7  -3 -14   -0.43    0.28
  -7   3  14    0.17    0.36
   7   3 -14    0.80    0.46
   6  -3 -14   21.57    0.95
   6   3 -14   24.11    1.20
  -6   3  14   24.13    0.87
  -6   3  14   22.93    1.11
   6   3 -14   22.42    0.96
   5  -3 -14   -0.16    0.21
   5   3 -14    0.18    0.34
  -5   3  14    0.08    0.32
   5   3 -14    0.03    0.20
  -5   3  14    0.21    0.18
   4  -3 -14   11.16    0.62
  -4   3  14   11.03    0.50
   4   3 -14   11.72    0.61
  -4   3  14   11.31    0.71
   4   3 -14   12.36    0.77
   3  -3 -14   98.77    2.28
   3   3 -14   99.48    2.21
  -3   3  14   97.93    2.01
   3   3 -14   98.56    2.49
  -3   3  14   97.44    2.41
   2  -3 -14   93.95    2.23
  -2   3  14   93.42    1.94
   2   3 -14   99.65    2.16
   2   3 -14   99.58    2.38
  -2   3  14   94.99    2.33
   1  -3 -14   50.92    1.44
  -1   3  14   51.71    1.52
   1   3 -14   51.58    1.37
  -1   3  14   53.21    1.22
   1   3 -14   49.96    1.49
   0  -3 -14   -0.12    0.20
   0   3 -14    0.01    0.20
   0   3  14    0.10    0.21
   0   3 -14    0.15    0.18
   0   3  14    0.09    0.16
  -1  -3 -14    7.75    0.65
   1   3  14    7.76    0.47
  -1   3 -14    7.72    0.53
  -1   3 -14    7.41    0.52
   1   3  14    7.42    0.53
  -2  -3 -14   30.13    1.17
   2   3  14   29.97    1.07
  -2   3 -14   30.11    1.06
  -2   3 -14   28.53    1.03
  -3  -3 -14    0.77    0.33
  -3   3 -14    0.80    0.27
  -3   3 -14    0.78    0.26
  -4  -3 -14   20.36    1.04
  -4   3 -14   22.42    0.94
  -4   3 -14   20.21    0.98
  -5  -3 -14    8.06    0.82
  -5   3 -14    6.62    0.68
  -5   3 -14    7.47    0.67
  -6  -3 -14    0.13    0.38
  -6   3 -14    0.31    0.34
  -6   3 -14    0.05    0.29
  -7  -3 -14    1.45    0.53
  -7   3 -14    1.60    0.49
  -7   3 -14    0.91    0.43
  -8  -3 -14    6.38    0.94
  -8   3 -14    8.75    0.92
  -9  -3 -14    0.52    0.58
  -9   3 -14    0.98    0.46
 -10  -3 -14    1.52    0.66
 -10   3 -14    0.45    0.49
 -11  -3 -14    2.79    0.88
 -11   3 -14    3.63    0.78
 -12   4  14    5.76    0.95
  11   4 -14    5.76    0.94
 -11   4  14    6.05    0.88
 -10   4  14    8.58    1.01
  10   4 -14    6.23    0.91
   9   4 -14   11.19    1.13
  -9   4  14   15.58    1.24
  -8   4  14   30.53    1.44
   8   4 -14   32.59    1.61
   7   4 -14    0.31    0.32
   7   4 -14   -0.69    0.35
  -7   4  14    0.80    0.46
   6   4 -14   21.34    0.99
   6   4 -14   22.73    1.21
  -6   4  14   21.67    0.89
  -6   4  14   23.60    1.16
   5   4 -14   18.35    1.06
  -5   4  14   16.37    0.75
   5   4 -14   18.38    0.89
  -5   4  14   18.46    1.03
   4  -4 -14    2.58    0.39
   4   4 -14    3.47    0.52
  -4   4  14    3.28    0.37
  -4   4  14    3.19    0.49
   4   4 -14    3.37    0.45
   3  -4 -14    4.92    0.45
   3   4 -14    3.59    0.43
  -3   4  14    3.81    0.38
   3   4 -14    3.61    0.49
  -3   4  14    4.28    0.54
   2  -4 -14    1.79    0.31
   2   4 -14    1.63    0.32
   2   4 -14    1.91    0.39
  -2   4  14    1.90    0.28
  -2   4  14    1.87    0.40
   1  -4 -14   15.98    0.73
  -1   4  14   16.35    0.84
  -1   4  14   15.74    0.65
   1   4 -14   15.92    0.78
   1   4 -14   17.34    0.79
   0  -4 -14   72.50    1.92
   0   4  14   74.87    1.99
   0   4  14   75.51    1.79
   0   4 -14   74.32    1.92
   0   4 -14   75.29    1.94
  -1  -4 -14   17.76    0.86
  -1   4 -14   15.43    0.73
  -1   4 -14   17.12    0.83
   1   4  14   18.29    0.77
   1   4  14   17.25    0.84
  -2  -4 -14  125.38    3.02
  -2   4 -14  125.22    2.81
   2   4  14  125.78    2.82
   2   4  14  125.59    2.87
  -2   4 -14  122.82    2.90
  -3  -4 -14    0.08    0.27
  -3   4 -14    0.13    0.21
   3   4  14    0.20    0.25
  -3   4 -14    0.04    0.24
  -4  -4 -14    0.87    0.43
  -4   4 -14    0.70    0.31
  -4   4 -14    0.64    0.28
  -5  -4 -14   12.76    1.06
  -5   4 -14   13.15    0.90
  -6  -4 -14   21.29    1.26
  -6   4 -14   22.41    1.18
  -7  -4 -14    6.07    0.83
  -7   4 -14    3.77    0.64
  -8  -4 -14    7.66    1.01
  -8   4 -14    8.22    0.92
  -9  -4 -14   -0.14    0.47
  -9   4 -14    0.14    0.45
 -10  -4 -14    4.35    0.90
 -10   4 -14    4.52    0.83
  11   5 -14    0.03    0.62
 -11   5  14    1.35    0.63
  10   5 -14    0.50    0.52
 -10   5  14    0.40    0.49
  -9   5  14   -0.43    0.40
   9   5 -14    0.36    0.54
   8   5 -14    0.65    0.45
  -8   5  14   -0.27    0.43
   7   5 -14    6.23    0.74
   7   5 -14    5.95    0.82
  -7   5  14    5.16    0.74
   6   5 -14   13.81    0.87
   6   5 -14   14.56    1.02
  -6   5  14   13.82    1.11
  -5   5  14    2.91    0.44
  -5   5  14    3.35    0.58
   5   5 -14    2.85    0.50
   5   5 -14    2.60    0.53
   4   5 -14    2.56    0.47
   4   5 -14    2.75    0.50
  -4   5  14    3.30    0.57
  -4   5  14    3.26    0.44
  -3   5  14   26.52    1.19
   3   5 -14   25.84    1.11
  -3   5  14   28.06    1.00
   3   5 -14   26.78    1.15
   2   5 -14    0.14    0.27
  -2   5  14   -0.26    0.26
  -2   5  14   -0.11    0.21
   2   5 -14   -0.19    0.21
   1  -5 -14   68.87    1.79
  -1   5  14   68.32    1.77
   1   5 -14   68.34    1.92
   1   5 -14   70.14    1.90
  -1   5  14   67.04    1.98
   0  -5 -14   39.38    1.30
   0   5  14   37.12    1.37
   0   5  14   39.58    1.26
   0   5 -14   41.00    1.28
   0   5 -14   39.29    1.38
  -1  -5 -14    0.26    0.28
   1   5  14    0.41    0.24
  -1   5 -14    0.57    0.32
   1   5  14    0.22    0.28
  -1   5 -14    0.44    0.26
  -2  -5 -14   16.79    0.94
   2   5  14   18.07    0.89
   2   5  14   16.69    0.86
  -2   5 -14   16.90    0.92
  -2   5 -14   17.25    0.81
  -3  -5 -14    8.66    0.80
   3   5  14    8.30    0.70
   3   5  14    8.86    0.80
  -3   5 -14    8.28    0.78
  -4  -5 -14    0.83    0.46
  -4   5 -14    0.11    0.31
   4   5  14    1.03    0.42
  -5  -5 -14    1.66    0.53
  -5   5 -14    1.39    0.46
  -6  -5 -14    0.83    0.48
  -6   5 -14    0.78    0.41
  -7  -5 -14    0.08    0.42
  -7   5 -14    0.37    0.37
  -8  -5 -14    5.51    0.89
  -8   5 -14    5.72    0.81
  -9  -5 -14    0.84    0.60
  -9   5 -14    0.70    0.47
 -10  -5 -14   -0.50    0.47
 -10   5 -14    0.42    0.48
  10   6 -14    6.66    1.01
 -10   6  14    7.27    1.07
  -9   6  14    5.30    0.89
   9   6 -14    5.60    0.90
   8   6 -14    0.36    0.39
  -8   6  14    0.19    0.45
   8   6 -14   -0.38    0.38
   7   6 -14    0.00    0.32
  -7   6  14    0.44    0.46
   7   6 -14   -0.01    0.45
   6   6 -14    0.49    0.42
  -6   6  14    0.52    0.41
   6   6 -14    0.47    0.35
   5   6 -14    3.50    0.64
  -5   6  14    3.29    0.65
   5   6 -14    3.31    0.55
  -4   6  14   12.62    1.04
   4   6 -14   13.93    0.92
   4   6 -14   14.11    0.94
  -4   6  14   13.11    0.79
   3   6 -14   12.05    0.82
  -3   6  14   12.77    0.75
  -3   6  14   10.96    0.99
   3   6 -14   11.49    0.82
  -2   6  14   29.07    1.30
  -2   6  14   25.24    1.06
   2   6 -14   28.18    1.24
   2   6 -14   27.34    1.15
  -1   6  14   10.90    0.89
   1   6 -14   11.40    0.73
   1   6 -14   10.20    0.84
  -1   6  14   10.85    0.71
   0   6  14   24.17    1.04
   0   6  14   23.19    1.09
   0   6 -14   21.04    1.07
   1   6  14   45.78    1.58
   1   6  14   47.54    1.56
  -1   6 -14   47.30    1.67
  -2  -6 -14   45.01    1.61
   2   6  14   46.22    1.56
   2   6  14   46.30    1.61
  -2   6 -14   48.53    1.72
  -3  -6 -14    5.81    0.72
  -3   6 -14    5.92    0.75
   3   6  14    6.35    0.75
  -4  -6 -14    4.52    0.66
   4   6  14    4.25    0.66
  -4   6 -14    3.85    0.63
  -5  -6 -14    2.27    0.59
  -5   6 -14    1.47    0.48
  -6  -6 -14    7.69    0.98
  -6   6 -14    7.93    0.92
  -7  -6 -14    0.19    0.53
  -7   6 -14    0.13    0.38
  -8  -6 -14    2.73    0.79
  -8   6 -14    2.87    0.71
  -9  -6 -14   11.92    1.37
  -9   6 -14   13.84    1.32
   9   7 -14    0.12    0.54
  -9   7  14    0.53    0.54
  -8   7  14    5.98    0.97
   8   7 -14    4.11    0.76
   8   7 -14    4.03    0.80
   7   7 -14    3.48    0.66
   7   7 -14    4.69    0.79
  -7   7  14    3.51    0.70
   6   7 -14   10.02    0.97
   6   7 -14   10.62    1.04
  -6   7  14    9.03    1.01
   5   7 -14    5.54    0.75
  -5   7  14    5.92    0.84
   5   7 -14    6.37    0.80
  -4   7  14    2.38    0.48
   4   7 -14    1.97    0.55
   4   7 -14    2.19    0.53
  -4   7  14    2.05    0.56
  -3   7  14   12.00    1.04
  -3   7  14   11.85    0.81
   3   7 -14   12.41    1.02
  -2   7  14    5.34    0.61
  -2   7  14    4.67    0.71
   2   7 -14    4.65    0.65
  -1   7  14   46.15    1.72
   1   7 -14   45.15    1.71
  -1   7  14   45.49    1.58
   0   7 -14   -0.18    0.30
   0   7  14    0.18    0.36
   0   7  14    0.24    0.32
   1   7  14    1.37    0.42
  -1   7 -14    1.01    0.46
   1   7  14    0.71    0.37
   2   7  14    9.47    0.89
  -2   7 -14    9.47    0.92
  -3   7 -14    0.64    0.40
   3   7  14    1.04    0.43
  -4   7 -14    3.46    0.67
   4   7  14    3.43    0.68
  -5  -7 -14    1.58    0.56
  -5   7 -14    1.49    0.50
   5   7  14    2.12    0.57
  -6  -7 -14    3.24    0.72
  -6   7 -14    3.20    0.69
  -7  -7 -14    6.15    1.00
  -7   7 -14    4.69    0.83
  -8  -7 -14   -0.04    0.58
  -8   7 -14    0.03    0.42
  -8   8  14    1.10    0.66
   8   8 -14    0.33    0.51
   8   8 -14   -0.13    0.56
   7   8 -14    2.16    0.65
  -7   8  14    2.57    0.68
   7   8 -14    1.82    0.57
  -6   8  14    3.38    0.75
   6   8 -14    4.32    0.75
  -5   8  14    0.65    0.52
   5   8 -14    0.08    0.39
  -4   8  14   13.47    1.21
   4   8 -14   13.91    1.21
  -3   8  14    5.37    0.70
   3   8 -14    4.75    0.74
  -3   8  14    4.43    0.77
   2   8 -14    2.66    0.58
  -2   8  14    3.50    0.68
  -2   8  14    2.31    0.54
  -1   8  14    0.63    0.38
   1   8 -14    0.29    0.38
  -1   8  14    0.61    0.43
   0   8  14    2.06    0.52
   0   8  14    2.67    0.57
   0   8 -14    1.15    0.43
   1   8  14    0.13    0.37
  -1   8 -14   -0.12    0.29
  -2   8 -14    6.41    0.82
   2   8  14    5.87    0.76
  -3   8 -14    1.08    0.49
   3   8  14   -0.32    0.33
  -4   8 -14    3.83    0.71
   4   8  14    3.03    0.67
   5   8  14    2.74    0.66
  -5   8 -14    1.05    0.49
  -6   8 -14    0.96    0.48
  -7   8 -14    1.78    0.63
  -6   9  14    1.20    0.65
   6   9 -14    1.06    0.58
  -5   9  14    2.75    0.74
   5   9 -14    2.97    0.69
  -4   9  14    1.96    0.66
   4   9 -14    2.21    0.64
   3   9 -14   15.60    1.32
  -3   9  14   14.15    1.23
  -2   9  14    0.71    0.53
  -2   9  14    0.85    0.44
   2   9 -14    0.24    0.42
   1   9 -14   -0.30    0.39
  -1   9  14    0.10    0.42
   0   9 -14    0.42    0.47
   0   9  14   -0.37    0.33
  -1   9 -14    2.69    0.65
   1   9  14    2.13    0.61
  -2   9 -14    0.71    0.45
   2   9  14    0.27    0.42
  -3   9 -14    0.09    0.40
   3   9  14    0.88    0.49
   4   9  14    0.97    0.52
  -4   9 -14    0.67    0.49
  -5   9 -14   -0.26    0.38
   5   9  14    0.52    0.50
  -3  10  14    1.50    0.66
   3  10 -14    2.13    0.69
   2  10 -14    0.46    0.48
   1  10 -14    1.66    0.60
  -1  10  14    2.21    0.66
   0  10 -14    0.48    0.46
   0  10  14    1.91    0.63
   1  10  14    6.82    0.96
  -1  10 -14    5.04    0.85
  -2  10 -14   -0.24    0.41
   2  10  14    0.30    0.46
   3  10  14    4.70    0.89
  12   0 -15   -0.13    0.49
  11   0 -15    1.33    0.58
  10   0 -15    0.17    0.46
   9   0 -15   13.14    1.13
  -8   0  15    0.20    0.29
   8   0 -15    0.60    0.40
   7   0 -15    0.56    0.39
  -7   0  15    0.47    0.29
  -6   0  15    0.40    0.24
   6   0 -15    0.22    0.28
   5   0 -15  135.16    3.24
  -5   0  15  142.36    2.98
   4   0 -15   -0.21    0.21
  -4   0  15    0.33    0.22
  -3   0  15   23.48    0.85
   3   0 -15   24.96    0.99
   2   0 -15    0.16    0.30
  -2   0  15   -0.33    0.19
   1   0 -15    0.07    0.09
   1   0 -15    0.22    0.25
  -1   0  15    0.23    0.22
   0   0 -15    0.11    0.25
   0   0 -15    0.42    0.14
  -1   0 -15  278.26    5.54
  -2   0 -15   -0.06    0.25
  -3   0 -15    0.98    0.34
  -4   0 -15   -0.06    0.27
  -5   0 -15   16.54    0.93
  -6   0 -15   -0.44    0.37
  -7   0 -15    4.59    0.69
  -8   0 -15    0.24    0.41
  -9   0 -15    1.49    0.56
 -10   0 -15   -0.17    0.52
 -11   0 -15    8.67    1.13
  12   1 -15    4.08    0.84
  11  -1 -15    8.44    0.98
  11   1 -15   10.98    1.16
  10  -1 -15    1.80    0.56
  10   1 -15    1.12    0.55
   9  -1 -15    0.74    0.45
   9   1 -15    0.54    0.46
  -9   1  15    1.18    0.41
   8  -1 -15    1.19    0.43
  -8   1  15    0.73    0.37
   8   1 -15    0.99    0.48
   7  -1 -15    3.68    0.59
  -7   1  15    3.93    0.54
   7   1 -15    3.95    0.62
  -6  -1  15    3.64    0.40
   6  -1 -15    3.70    0.50
   6   1 -15    3.77    0.58
  -6   1  15    3.89    0.50
   5  -1 -15   36.20    1.29
  -5  -1  15   35.90    1.06
  -5   1  15   35.37    1.19
   5   1 -15   33.13    1.29
   4  -1 -15   30.10    1.11
  -4  -1  15   29.48    0.92
  -4   1  15   29.74    0.71
   4   1 -15   28.57    1.15
  -4   1  15   30.07    1.06
   3  -1 -15   21.74    0.90
  -3  -1  15   22.15    0.79
   3   1 -15   22.34    0.62
  -3   1  15   23.76    0.91
   3   1 -15   24.03    0.98
   2  -1 -15   43.17    1.31
   2   1 -15   42.68    1.36
  -2   1  15   43.25    1.27
   2   1 -15   42.76    0.95
   1  -1 -15   18.66    0.83
   1   1 -15   20.11    0.59
  -1   1  15   21.22    0.83
   1   1 -15   18.61    0.84
   0  -1 -15   66.72    1.79
   0   1 -15   68.50    1.47
   0   1 -15   67.04    1.80
   0   1  15   68.24    1.73
  -1  -1 -15   46.43    1.41
  -1   1 -15   44.12    1.37
  -1   1 -15   44.53    1.15
  -2  -1 -15  230.75    4.78
  -2   1 -15  227.68    4.39
  -2   1 -15  230.23    4.72
  -3  -1 -15   36.62    1.33
  -3   1 -15   40.41    1.33
  -4  -1 -15   14.54    0.86
  -4   1 -15   15.74    0.86
  -5  -1 -15    9.30    0.84
  -5   1 -15    8.38    0.78
  -6  -1 -15   77.22    2.39
  -6   1 -15   80.84    2.35
  -7  -1 -15   44.52    1.79
  -7   1 -15   43.28    1.69
  -8  -1 -15    5.14    0.81
  -8   1 -15    3.96    0.71
  -9  -1 -15    3.66    0.74
  -9   1 -15    4.19    0.74
 -10  -1 -15    0.14    0.52
 -10   1 -15    0.34    0.50
 -11  -1 -15    3.80    0.93
 -11   1 -15    2.00    0.77
  12   2 -15    8.36    1.11
  11   2 -15    4.19    0.82
 -10   2  15    7.03    0.83
  10   2 -15    5.21    0.80
   9  -2 -15    4.27    0.65
  -9   2  15    4.43    0.66
   9   2 -15    5.24    0.82
   8  -2 -15   -0.05    0.33
   8   2 -15   -0.36    0.35
  -8   2  15    0.16    0.32
   7  -2 -15   11.32    0.81
   7   2 -15   11.26    0.99
  -7   2  15   11.58    0.82
   6  -2 -15    6.28    0.63
   6   2 -15    7.37    0.76
  -6   2  15    7.19    0.67
  -6   2  15    7.56    0.46
  -5  -2  15   31.04    0.90
   5  -2 -15   29.89    1.14
   5   2 -15   32.00    1.00
   5   2 -15   30.99    1.28
  -5   2  15   31.91    1.17
  -5   2  15   31.73    0.87
   4  -2 -15    1.75    0.33
  -4   2  15    2.05    0.37
   4   2 -15    2.03    0.28
  -4   2  15    1.57    0.20
   4   2 -15    1.84    0.39
   3  -2 -15    4.33    0.46
  -3   2  15    4.24    0.23
   3   2 -15    4.35    0.36
  -3   2  15    4.14    0.46
   3   2 -15    3.58    0.47
   2  -2 -15    0.35    0.26
   2   2 -15    0.21    0.16
  -2   2  15    0.35    0.26
   2   2 -15    0.48    0.27
  -2   2  15    0.21    0.11
   1  -2 -15    2.34    0.35
  -1   2  15    2.76    0.40
   1   2 -15    3.13    0.31
  -1   2  15    2.84    0.22
   1   2 -15    3.27    0.44
   0  -2 -15   18.13    0.82
   0   2 -15   18.27    0.84
   0   2 -15   18.96    0.69
   0   2  15   18.57    0.81
  -1  -2 -15   12.88    0.71
  -1   2 -15   12.42    0.69
   1   2  15   11.27    0.64
  -1   2 -15   13.49    0.59
  -2  -2 -15   72.31    1.99
  -2   2 -15   70.40    1.77
  -2   2 -15   72.29    1.90
  -3  -2 -15   13.92    0.81
  -3   2 -15   15.87    0.75
  -3   2 -15   15.42    0.79
  -4  -2 -15   16.10    0.92
  -4   2 -15   18.47    0.89
  -4   2 -15   17.84    0.86
  -5  -2 -15    0.12    0.31
  -5   2 -15   -0.33    0.25
  -5   2 -15    0.26    0.29
  -6  -2 -15   37.63    1.60
  -6   2 -15   39.10    1.50
  -6   2 -15   38.59    1.48
  -7  -2 -15   35.79    1.69
  -7   2 -15   41.57    1.61
  -8  -2 -15    4.90    0.81
  -8   2 -15    4.72    0.70
  -9  -2 -15    0.02    0.44
  -9   2 -15    0.47    0.47
 -10  -2 -15    6.13    1.03
 -10   2 -15    7.98    0.98
 -10   2 -15    5.91    0.90
 -11  -2 -15    0.82    0.63
 -11   2 -15   -0.02    0.46
  12   3 -15    0.31    0.57
  11   3 -15   26.26    1.61
 -11   3  15   25.15    1.42
  10   3 -15   14.79    1.35
 -10   3  15   11.69    1.06
  -9   3  15   -0.26    0.33
   9   3 -15   -0.30    0.42
   8   3 -15    0.44    0.41
  -8   3  15    0.41    0.37
   7  -3 -15    0.15    0.32
  -7   3  15    0.71    0.39
   7   3 -15    0.35    0.40
   6  -3 -15    3.85    0.50
  -6   3  15    3.66    0.43
  -6   3  15    4.05    0.56
   6   3 -15    4.16    0.64
   6   3 -15    4.00    0.49
   5  -3 -15   43.00    1.37
   5   3 -15   41.25    1.29
  -5   3  15   44.49    1.50
  -5   3  15   43.00    1.15
   5   3 -15   42.45    1.57
   4  -3 -15    7.31    0.52
  -4   3  15    6.53    0.63
  -4   3  15    7.38    0.40
   4   3 -15    6.59    0.68
   4   3 -15    7.02    0.50
   3  -3 -15   49.73    1.44
  -3   3  15   51.20    1.18
  -3   3  15   50.28    1.56
   3   3 -15   49.22    1.61
   3   3 -15   50.82    1.36
   2  -3 -15  149.85    3.20
  -2   3  15  148.34    3.30
  -2   3  15  145.22    2.80
   2   3 -15  143.68    3.02
   2   3 -15  152.20    3.37
   1  -3 -15   13.08    0.68
  -1   3  15   12.44    0.50
   1   3 -15   13.64    0.73
   1   3 -15   11.80    0.59
  -1   3  15   12.27    0.70
   0  -3 -15   57.72    1.66
   0   3  15   59.56    1.68
   0   3  15   61.15    1.42
   0   3 -15   59.96    1.66
   0   3 -15   60.37    1.55
  -1  -3 -15   31.82    1.16
   1   3  15   31.96    1.12
  -1   3 -15   31.95    1.11
   1   3  15   31.30    0.98
  -1   3 -15   31.58    1.06
  -2  -3 -15   12.44    0.75
  -2   3 -15   10.72    0.64
  -2   3 -15   11.74    0.65
  -3  -3 -15    1.19    0.39
  -3   3 -15    1.55    0.33
  -3   3 -15    0.36    0.24
  -4  -3 -15    3.49    0.57
  -4   3 -15    3.36    0.49
  -4   3 -15    2.86    0.44
  -5  -3 -15   61.62    2.06
  -5   3 -15   61.56    1.93
  -5   3 -15   62.22    1.85
  -6  -3 -15    3.52    0.63
  -6   3 -15    2.68    0.52
  -6   3 -15    3.85    0.56
  -7  -3 -15   56.44    2.16
  -7   3 -15   59.22    2.03
  -7   3 -15   57.69    1.93
  -8  -3 -15    5.77    0.87
  -8   3 -15    5.77    0.81
  -9  -3 -15    0.44    0.59
  -9   3 -15   -0.11    0.34
 -10  -3 -15    0.09    0.52
 -10   3 -15    0.29    0.45
 -11  -3 -15    0.62    0.69
 -11   3 -15    1.25    0.56
  11   4 -15    0.16    0.53
 -11   4  15    0.68    0.49
 -10   4  15   -0.36    0.36
  10   4 -15    0.31    0.50
  -9   4  15    1.68    0.52
   9   4 -15    1.45    0.60
   8   4 -15   -0.22    0.39
  -8   4  15   -0.57    0.37
  -7   4  15    0.60    0.43
   7   4 -15   -0.03    0.42
   7   4 -15    0.46    0.30
   6   4 -15    5.46    0.60
  -6   4  15    4.53    0.69
   6   4 -15    4.79    0.72
  -5   4  15    7.35    0.51
  -5   4  15    8.78    0.82
   5   4 -15    6.78    0.64
   5   4 -15    7.07    0.76
   4  -4 -15    0.33    0.24
  -4   4  15    0.40    0.22
   4   4 -15    0.36    0.31
  -4   4  15    0.05    0.33
   4   4 -15    0.47    0.27
   3  -4 -15    4.68    0.47
   3   4 -15    4.52    0.48
   3   4 -15    5.14    0.57
  -3   4  15    6.43    0.42
  -3   4  15    5.85    0.62
   2  -4 -15   22.23    0.88
  -2   4  15   22.62    0.77
   2   4 -15   21.63    0.90
  -2   4  15   22.33    1.00
   2   4 -15   23.96    1.03
   1  -4 -15    0.40    0.22
   1   4 -15    0.61    0.27
  -1   4  15    0.19    0.18
  -1   4  15    0.47    0.26
   1   4 -15    0.77    0.28
   0  -4 -15   52.91    1.56
   0   4 -15   52.27    1.53
   0   4 -15   52.35    1.53
   0   4  15   52.96    1.40
   0   4  15   51.98    1.60
  -1  -4 -15    2.76    0.46
   1   4  15    2.24    0.38
  -1   4 -15    2.00    0.37
   1   4  15    2.29    0.35
  -1   4 -15    2.83    0.39
  -2  -4 -15   11.44    0.76
  -2   4 -15   12.61    0.74
   2   4  15   12.50    0.70
  -2   4 -15   13.07    0.70
   2   4  15   13.56    0.76
  -3  -4 -15    0.68    0.36
  -3   4 -15    0.30    0.29
  -3   4 -15   -0.01    0.22
  -4  -4 -15    0.17    0.38
  -4   4 -15    0.22    0.30
  -4   4 -15   -0.18    0.24
  -5  -4 -15    0.74    0.43
  -5   4 -15    0.78    0.37
  -6  -4 -15    6.70    0.86
  -6   4 -15    7.04    0.78
  -7  -4 -15   -0.28    0.41
  -7   4 -15    0.04    0.32
  -8  -4 -15    4.42    0.85
  -8   4 -15    4.82    0.75
  -9  -4 -15   -0.40    0.52
  -9   4 -15    0.47    0.41
 -10  -4 -15    3.95    0.86
 -10   4 -15    3.90    0.79
 -11   5  15   -0.57    0.47
  11   5 -15   -0.84    0.54
  10   5 -15    0.47    0.52
 -10   5  15    0.69    0.57
  -9   5  15   12.76    1.18
   9   5 -15   12.20    1.22
  -8   5  15    3.14    0.63
   8   5 -15    1.76    0.58
   8   5 -15    3.13    0.55
  -7   5  15    3.39    0.66
   7   5 -15    2.03    0.48
   7   5 -15    2.93    0.62
   6   5 -15   53.07    1.79
   6   5 -15   57.04    2.03
  -6   5  15   54.81    1.96
   5   5 -15    7.66    0.73
   5   5 -15   12.32    1.03
  -5   5  15   10.58    0.93
   4   5 -15    0.46    0.38
  -4   5  15    0.75    0.29
  -4   5  15    1.05    0.43
   4   5 -15    0.48    0.32
   3   5 -15    4.49    0.60
  -3   5  15    5.94    0.52
  -3   5  15    7.02    0.73
   3   5 -15    4.95    0.59
  -2   5  15    0.58    0.34
   2   5 -15    1.14    0.35
   2   5 -15    0.99    0.34
  -2   5  15    1.01    0.29
   1  -5 -15   38.37    1.24
   1   5 -15   38.86    1.36
   1   5 -15   36.01    1.30
  -1   5  15   40.40    1.43
  -1   5  15   37.59    1.19
   0  -5 -15   21.36    0.94
   0   5 -15   22.29    1.00
   0   5  15   20.75    0.89
   0   5 -15   21.64    0.92
   0   5  15   22.04    1.04
  -1  -5 -15    3.35    0.51
  -1   5 -15    4.16    0.48
  -1   5 -15    4.41    0.55
   1   5  15    5.18    0.54
   1   5  15    3.34    0.50
  -2  -5 -15   14.06    0.89
   2   5  15   15.81    0.85
  -2   5 -15   13.91    0.73
  -2   5 -15   13.44    0.84
   2   5  15   14.53    0.82
  -3  -5 -15    1.99    0.47
   3   5  15    2.15    0.45
  -3   5 -15    2.25    0.47
  -4  -5 -15   -0.04    0.38
  -4   5 -15   -0.09    0.27
  -5  -5 -15    2.25    0.55
  -5   5 -15    1.69    0.49
  -6  -5 -15   24.62    1.42
  -6   5 -15   21.50    1.21
  -7  -5 -15    2.39    0.66
  -7   5 -15    3.14    0.64
  -8  -5 -15    1.10    0.63
  -8   5 -15    0.15    0.44
  -9  -5 -15    5.77    1.01
  -9   5 -15    5.52    0.89
 -10  -5 -15   -0.05    0.55
 -10   5 -15    0.40    0.57
 -10   6  15    4.30    0.90
  10   6 -15    5.62    0.96
   9   6 -15    3.13    0.75
  -9   6  15    2.92    0.73
   8   6 -15    5.60    0.81
   8   6 -15    4.61    0.84
  -8   6  15    6.09    0.88
   7   6 -15    5.08    0.72
   7   6 -15    4.71    0.77
  -7   6  15    5.16    0.79
   6   6 -15   20.38    1.12
   6   6 -15   21.52    1.24
  -6   6  15   22.13    1.26
  -5   6  15    7.34    0.84
   5   6 -15    8.56    0.88
   5   6 -15    7.74    0.80
  -4   6  15   13.37    0.78
   4   6 -15   13.39    0.95
  -4   6  15   14.61    0.99
   4   6 -15   14.02    0.89
   3   6 -15   19.44    1.03
   3   6 -15   21.13    1.10
  -3   6  15   20.84    0.94
  -3   6  15   20.84    1.13
   2   6 -15    2.82    0.50
  -2   6  15    1.75    0.45
   2   6 -15    2.78    0.48
  -2   6  15    2.37    0.43
  -1   6  15    0.48    0.33
   1   6 -15   -0.38    0.25
  -1   6  15   -0.01    0.26
   1   6 -15    0.46    0.30
   0   6  15    5.81    0.69
   0   6  15    5.67    0.61
   0   6 -15    5.43    0.64
   1   6  15   11.40    0.77
   1   6  15   10.41    0.84
  -1   6 -15    8.52    0.81
  -2  -6 -15   17.75    1.00
   2   6  15   16.75    0.93
  -2   6 -15   17.24    1.04
   2   6  15   18.43    0.97
  -3  -6 -15    0.11    0.35
  -3   6 -15    0.62    0.36
   3   6  15   -0.03    0.35
  -4  -6 -15   -0.40    0.34
  -4   6 -15   -0.04    0.34
   4   6  15    0.39    0.35
  -5  -6 -15   13.91    1.21
  -5   6 -15   14.61    1.19
  -6  -6 -15    1.03    0.51
  -6   6 -15    1.91    0.50
  -7  -6 -15    1.28    0.60
  -7   6 -15    0.70    0.50
  -8  -6 -15    5.20    0.94
  -8   6 -15    3.14    0.67
  -9  -6 -15    0.24    0.53
  -9   6 -15    0.60    0.54
  -9   7  15   -0.04    0.52
   9   7 -15   -0.86    0.39
   9   7 -15   -0.44    0.38
   8   7 -15   10.77    1.10
   8   7 -15    9.28    1.14
  -8   7  15   11.52    1.25
  -7   7  15    2.03    0.60
   7   7 -15    2.11    0.66
   7   7 -15    1.77    0.55
   6   7 -15   -0.20    0.39
  -6   7  15   -0.05    0.46
   6   7 -15    0.67    0.42
   5   7 -15    6.38    0.80
   5   7 -15    7.91    0.86
  -5   7  15    8.09    0.92
  -4   7  15   15.52    1.28
   4   7 -15   13.20    0.97
   4   7 -15   13.80    0.95
  -3   7  15   25.19    1.35
  -3   7  15   24.48    1.13
   3   7 -15   27.18    1.32
   2   7 -15    3.17    0.60
  -2   7  15    2.78    0.50
  -2   7  15    2.83    0.57
   1   7 -15   31.62    1.41
  -1   7  15   31.80    1.29
  -1   7  15   30.43    1.38
   0   7  15   21.56    1.10
   0   7  15   24.28    1.22
   0   7 -15   22.66    1.22
  -1   7 -15    4.43    0.64
   1   7  15    4.67    0.62
   1   7  15    5.31    0.67
  -2   7 -15    5.77    0.78
   2   7  15    5.67    0.74
  -3   7 -15    0.90    0.45
   3   7  15    0.74    0.39
  -4   7 -15   14.60    1.21
   4   7  15   19.27    1.14
  -5  -7 -15    0.85    0.48
  -5   7 -15   -0.09    0.40
   5   7  15    0.21    0.41
  -6  -7 -15    2.00    0.67
  -6   7 -15    2.28    0.59
  -7  -7 -15   11.93    1.30
  -7   7 -15    8.16    1.03
  -8  -7 -15    1.98    0.79
  -8   7 -15    1.40    0.59
   8   8 -15    1.41    0.63
   8   8 -15    0.10    0.48
   7   8 -15    0.57    0.46
   7   8 -15    0.39    0.54
  -7   8  15    0.27    0.47
  -6   8  15    3.13    0.73
   6   8 -15    2.61    0.60
   5   8 -15    0.09    0.41
  -5   8  15    1.06    0.58
   4   8 -15    2.53    0.60
  -4   8  15    3.19    0.68
   3   8 -15    0.86    0.44
  -3   8  15    0.72    0.49
   2   8 -15    0.12    0.43
  -2   8  15   -0.10    0.42
  -2   8  15    0.10    0.35
   1   8 -15   -0.30    0.32
  -1   8  15   -0.22    0.38
  -1   8  15    0.09    0.34
   0   8  15    6.67    0.79
   0   8 -15    6.69    0.86
   0   8  15    7.23    0.84
  -1   8 -15    4.60    0.72
   1   8  15    3.78    0.67
   2   8  15    8.12    0.91
  -2   8 -15    6.36    0.83
  -3   8 -15    1.18    0.51
   3   8  15    0.75    0.48
   4   8  15    0.53    0.46
  -4   8 -15    0.65    0.44
   5   8  15    0.75    0.47
  -5   8 -15   -0.09    0.43
  -6   8 -15    0.45    0.45
   6   9 -15    1.25    0.57
  -6   9  15    1.23    0.64
   5   9 -15    0.90    0.59
  -5   9  15   -0.40    0.47
   4   9 -15   19.75    1.30
  -4   9  15   22.39    1.45
   3   9 -15    0.41    0.49
  -3   9  15    0.32    0.44
  -2   9  15    0.99    0.55
   2   9 -15    1.66    0.55
  -1   9  15    8.54    0.91
   1   9 -15    7.83    0.96
  -1   9  15    6.95    0.96
   0   9 -15   17.48    1.20
   0   9  15   18.22    1.19
  -1   9 -15    5.42    0.83
   1   9  15    5.53    0.78
   2   9  15    0.06    0.43
  -2   9 -15   -0.04    0.41
  -3   9 -15    1.48    0.53
   3   9  15    0.51    0.49
   4   9  15    5.38    0.92
  -4   9 -15    2.98    0.70
  -5   9 -15    2.28    0.67
   5   9  15    2.79    0.72
   3  10 -15   -0.08    0.43
  -3  10  15    0.07    0.50
   2  10 -15    0.28    0.54
   1  10 -15    1.07    0.58
   0  10  15    3.73    0.73
   0  10 -15    3.77    0.80
  -1  10 -15    0.44    0.44
   1  10  15   -0.01    0.45
   2  10  15   10.02    1.18
  12   0 -16    5.10    0.91
  11   0 -16    0.41    0.51
  10   0 -16    6.00    0.85
   9   0 -16   -0.36    0.39
  -8   0  16   29.71    1.15
   8   0 -16   31.50    1.43
  -7   0  16   -0.16    0.26
   7   0 -16   -0.08    0.32
   6   0 -16   35.84    1.42
  -6   0  16   37.20    1.21
   5   0 -16    0.14    0.26
  -5   0  16   -0.06    0.19
   4   0 -16    0.40    0.27
  -4   0  16    1.04    0.27
   3   0 -16    0.04    0.23
  -3   0  16   -0.14    0.20
  -2   0  16    0.79    0.27
   2   0 -16    0.75    0.30
   1   0 -16    0.08    0.09
   1   0 -16   -0.32    0.25
   0   0 -16   89.46    2.26
   0   0 -16   93.16    1.81
  -1   0 -16   -0.18    0.23
  -2   0 -16  104.77    2.57
  -3   0 -16    0.06    0.25
  -4   0 -16  187.47    4.20
  -5   0 -16   -0.24    0.27
  -6   0 -16   87.97    2.58
  -7   0 -16   -0.16    0.37
  -8   0 -16   20.17    1.29
  -9   0 -16    0.20    0.51
 -10   0 -16    8.70    1.13
 -11   0 -16   -0.17    0.58
  12   1 -16    0.70    0.62
  11  -1 -16    0.32    0.42
  11   1 -16   -0.46    0.46
  10  -1 -16    0.82    0.50
  10   1 -16    0.43    0.45
   9  -1 -16   15.51    1.03
   9   1 -16   15.47    1.27
  -9   1  16   14.45    0.89
   8  -1 -16    6.42    0.78
   8   1 -16    6.74    0.84
  -8   1  16    5.15    0.63
   7  -1 -16   21.90    1.09
  -7   1  16   21.49    1.00
   7   1 -16   22.78    1.21
   6  -1 -16   18.47    0.96
  -6  -1  16   16.13    0.72
  -6   1  16   16.60    0.82
   6   1 -16   15.22    0.93
   5  -1 -16    4.04    0.53
  -5  -1  16    3.70    0.39
   5   1 -16    3.64    0.52
  -5   1  16    4.05    0.46
   4  -1 -16  225.32    4.72
  -4  -1  16  222.21    4.36
   4   1 -16  229.83    4.81
  -4   1  16  221.13    3.96
  -4   1  16  228.78    4.55
   3  -1 -16   48.61    1.49
  -3  -1  16   49.01    1.31
  -3   1  16   50.59    1.45
   3   1 -16   50.78    1.55
   3   1 -16   48.63    1.09
   2  -1 -16   12.87    0.73
   2   1 -16   13.77    0.44
   2   1 -16   14.95    0.80
  -2   1  16   13.68    0.71
   1  -1 -16    1.67    0.35
  -1   1  16    2.68    0.39
   1   1 -16    2.12    0.22
   1   1 -16    1.40    0.34
   0  -1 -16    5.70    0.55
   0   1  16    4.67    0.47
   0   1 -16    4.44    0.49
   0   1 -16    5.30    0.34
  -1  -1 -16   34.99    1.24
  -1   1 -16   35.78    0.99
  -1   1 -16   35.56    1.21
  -2  -1 -16    7.26    0.66
  -2   1 -16    6.78    0.60
  -2   1 -16    6.49    0.45
  -3  -1 -16   40.64    1.42
  -3   1 -16   39.12    1.35
  -4  -1 -16   94.06    2.53
  -4   1 -16   91.81    2.45
  -5  -1 -16    0.83    0.41
  -5   1 -16    0.30    0.34
  -6  -1 -16   12.17    1.03
  -6   1 -16   13.93    0.92
  -7  -1 -16    0.18    0.44
  -7   1 -16    0.67    0.44
  -8  -1 -16    0.78    0.50
  -8   1 -16    1.16    0.49
  -9  -1 -16   22.00    1.41
  -9   1 -16   23.56    1.42
 -10  -1 -16    4.15    0.89
 -10   1 -16    5.40    0.87
 -11  -1 -16    1.20    0.75
 -11   1 -16    1.86    0.75
  12   2 -16    0.11    0.59
  11   2 -16   -0.32    0.51
  10   2 -16    0.38    0.53
 -10   2  16    0.63    0.46
   9  -2 -16    1.83    0.51
  -9   2  16    1.53    0.45
   9   2 -16    1.56    0.55
   8  -2 -16    5.17    0.65
   8   2 -16    4.73    0.77
  -8   2  16    4.29    0.64
   7  -2 -16   35.50    1.39
   7   2 -16   36.82    1.57
  -7   2  16   36.00    1.37
   6  -2 -16    4.05    0.53
  -6   2  16    2.87    0.47
   6   2 -16    3.48    0.57
   5  -2 -16    0.25    0.25
  -5  -2  16   -0.14    0.14
   5   2 -16    0.37    0.33
   5   2 -16    0.07    0.16
  -5   2  16    0.42    0.15
  -5   2  16    0.38    0.27
   4  -2 -16    7.50    0.63
  -4   2  16    8.29    0.60
   4   2 -16   10.47    0.84
   4   2 -16    8.43    0.45
  -4   2  16    7.52    0.34
   3  -2 -16   12.85    0.70
  -3   2  16   12.18    0.36
   3   2 -16   11.76    0.51
  -3   2  16   12.26    0.70
   3   2 -16   12.42    0.76
   2  -2 -16    7.85    0.57
   2   2 -16    6.99    0.39
   2   2 -16    8.37    0.69
  -2   2  16    7.74    0.27
  -2   2  16    8.67    0.61
   1  -2 -16   21.55    0.91
  -1   2  16   21.86    0.91
   1   2 -16   24.03    0.75
   0  -2 -16  262.30    5.25
   0   2 -16  265.31    4.84
   0   2 -16  248.27    5.20
   0   2  16  257.49    5.12
  -1  -2 -16   10.01    0.66
  -1   2 -16   10.93    0.55
   1   2  16   10.01    0.62
  -1   2 -16   10.70    0.66
  -2  -2 -16   53.99    1.68
  -2   2 -16   54.60    1.48
  -2   2 -16   53.69    1.60
  -3  -2 -16    0.65    0.32
  -3   2 -16    0.65    0.27
  -3   2 -16    0.47    0.24
  -4  -2 -16   15.50    0.94
  -4   2 -16   14.64    0.81
  -4   2 -16   14.39    0.78
  -5  -2 -16   13.45    0.91
  -5   2 -16   12.03    0.81
  -5   2 -16   12.33    0.81
  -6  -2 -16    2.36    0.55
  -6   2 -16    2.96    0.56
  -6   2 -16    1.80    0.45
  -7  -2 -16    0.78    0.48
  -7   2 -16    1.00    0.43
  -7   2 -16    0.88    0.43
  -8  -2 -16    4.95    0.80
  -8   2 -16    4.17    0.71
  -8   2 -16    4.34    0.70
  -9  -2 -16    1.27    0.64
  -9   2 -16    0.60    0.45
  -9   2 -16    0.16    0.46
 -10  -2 -16   -0.37    0.47
 -10   2 -16    0.50    0.53
 -10   2 -16    0.68    0.49
 -11  -2 -16   -0.63    0.49
 -11   2 -16    0.22    0.49
  12   3 -16    0.65    0.59
 -11   3  16   -0.10    0.48
  11   3 -16    2.42    0.72
  10   3 -16    0.21    0.48
 -10   3  16    0.57    0.48
   9   3 -16    1.23    0.50
  -9   3  16    2.49    0.59
  -8   3  16    7.72    0.81
   8   3 -16    5.34    0.76
   7  -3 -16    9.64    0.81
   7   3 -16    7.21    0.84
  -7   3  16    7.93    0.79
   6  -3 -16    0.11    0.27
   6   3 -16    0.61    0.39
   6   3 -16    0.46    0.26
  -6   3  16   -0.02    0.35
   5  -3 -16   -0.06    0.23
   5   3 -16    0.26    0.33
  -5   3  16   -0.19    0.28
   5   3 -16    0.17    0.21
   4  -3 -16   10.60    0.64
  -4   3  16   11.73    0.77
   4   3 -16   11.05    0.75
  -4   3  16   11.19    0.48
   4   3 -16   10.34    0.59
   3  -3 -16    2.26    0.36
   3   3 -16    3.10    0.37
   3   3 -16    2.10    0.42
  -3   3  16    2.15    0.40
  -3   3  16    2.68    0.26
   2  -3 -16   18.84    0.82
   2   3 -16   18.82    0.73
  -2   3  16   17.76    0.58
  -2   3  16   18.71    0.88
   2   3 -16   19.77    0.94
   1  -3 -16    0.34    0.22
   1   3 -16    0.32    0.21
   1   3 -16   -0.10    0.20
  -1   3  16    0.15    0.24
  -1   3  16   -0.12    0.13
   0  -3 -16   37.08    1.26
   0   3 -16   36.28    1.11
   0   3  16   34.48    1.22
   0   3 -16   35.02    1.21
   0   3  16   34.35    0.97
  -1  -3 -16    5.40    0.56
   1   3  16    5.55    0.45
   1   3  16    4.26    0.48
  -1   3 -16    5.42    0.50
  -1   3 -16    6.65    0.57
  -2  -3 -16   24.02    1.07
  -2   3 -16   23.83    0.97
  -2   3 -16   23.76    0.95
  -3  -3 -16    0.65    0.33
  -3   3 -16    1.08    0.31
  -3   3 -16    1.12    0.31
  -4  -3 -16    0.96    0.41
  -4   3 -16    1.09    0.36
  -4   3 -16    1.20    0.35
  -5  -3 -16   -0.13    0.33
  -5   3 -16    0.28    0.31
  -5   3 -16    0.17    0.32
  -6  -3 -16   10.50    1.00
  -6   3 -16    9.82    0.89
  -6   3 -16   12.77    0.85
  -7  -3 -16    6.78    0.92
  -7   3 -16    6.02    0.75
  -7   3 -16    6.50    0.76
  -8  -3 -16    0.50    0.47
  -8   3 -16    1.59    0.50
  -9  -3 -16    8.26    1.06
  -9   3 -16    7.06    0.93
 -10  -3 -16    4.24    0.88
 -10   3 -16    3.66    0.78
 -11  -3 -16   -0.33    0.64
 -11   4  16    1.88    0.66
  11   4 -16    1.31    0.70
  10   4 -16    0.87    0.61
 -10   4  16    2.34    0.68
  -9   4  16    9.61    1.05
   9   4 -16    6.32    0.90
  -8   4  16    3.00    0.64
   8   4 -16    3.08    0.66
   7   4 -16   21.89    1.06
  -7   4  16   21.52    1.22
   7   4 -16   21.59    1.30
   6   4 -16   53.33    1.65
  -6   4  16   49.06    1.82
   6   4 -16   52.20    1.94
   5   4 -16    1.47    0.45
  -5   4  16    2.27    0.49
   5   4 -16    1.14    0.34
   4  -4 -16    3.39    0.42
  -4   4  16    2.67    0.49
  -4   4  16    3.02    0.36
   4   4 -16    3.45    0.46
   4   4 -16    2.32    0.48
   3  -4 -16    1.70    0.32
   3   4 -16    1.32    0.39
  -3   4  16    1.20    0.24
  -3   4  16    1.55    0.39
   3   4 -16    1.31    0.30
   2  -4 -16   34.88    1.14
  -2   4  16   36.32    1.31
  -2   4  16   31.74    0.96
   2   4 -16   32.94    1.14
   2   4 -16   33.20    1.25
   1  -4 -16    9.57    0.61
  -1   4  16    9.02    0.50
   1   4 -16    9.84    0.66
   1   4 -16    9.56    0.61
  -1   4  16    9.55    0.68
   0  -4 -16    3.94    0.49
   0   4  16    2.98    0.47
   0   4  16    3.34    0.37
   0   4 -16    3.59    0.45
   0   4 -16    3.24    0.42
  -1  -4 -16    0.98    0.34
   1   4  16    1.00    0.28
  -1   4 -16    1.15    0.30
  -1   4 -16    0.85    0.28
   1   4  16    0.71    0.30
  -2  -4 -16   17.54    0.93
   2   4  16   16.79    0.86
  -2   4 -16   17.14    0.86
  -2   4 -16   16.99    0.82
   2   4  16   17.31    0.81
  -3  -4 -16   37.36    1.47
  -3   4 -16   35.17    1.35
  -3   4 -16   37.41    1.27
  -4  -4 -16    3.40    0.62
  -4   4 -16    3.20    0.47
  -4   4 -16    2.61    0.48
  -5  -4 -16    5.02    0.72
  -5   4 -16    4.66    0.65
  -6  -4 -16    0.05    0.43
  -6   4 -16   -0.39    0.28
  -7  -4 -16    1.97    0.60
  -7   4 -16    0.80    0.45
  -8  -4 -16   13.02    1.29
  -8   4 -16   11.61    1.11
  -9  -4 -16    3.76    0.89
  -9   4 -16    2.64    0.69
 -10  -4 -16    3.41    0.85
 -10   4 -16    1.80    0.63
 -11   5  16    0.11    0.56
  11   5 -16    0.85    0.66
  10   5 -16    3.37    0.83
 -10   5  16    1.89    0.67
  -9   5  16    5.59    0.89
   9   5 -16    4.39    0.84
  -8   5  16    4.92    0.81
   8   5 -16    3.72    0.63
   8   5 -16    4.14    0.80
  -7   5  16    5.22    0.74
   7   5 -16    5.50    0.79
   7   5 -16    5.49    0.69
   6   5 -16   12.64    1.08
   6   5 -16   12.02    0.85
  -6   5  16   11.53    1.01
  -5   5  16    3.40    0.59
   5   5 -16    5.69    0.65
   5   5 -16    5.82    0.77
  -4   5  16   11.75    0.98
   4   5 -16   10.96    0.81
   4   5 -16    9.68    0.79
   3   5 -16   19.72    1.04
  -3   5  16   17.74    1.03
   3   5 -16   18.92    0.94
  -3   5  16   17.12    0.77
  -2   5  16   70.72    1.81
   2   5 -16   76.95    2.13
   2   5 -16   73.84    2.03
  -2   5  16   74.78    2.17
   1  -5 -16   55.31    1.62
   1   5 -16   57.07    1.72
   1   5 -16   56.86    1.72
  -1   5  16   57.29    1.55
  -1   5  16   55.75    1.80
   0  -5 -16    3.84    0.51
   0   5  16    2.86    0.48
   0   5  16    4.47    0.49
   0   5 -16    3.76    0.49
   0   5 -16    5.18    0.60
  -1  -5 -16   42.65    1.49
  -1   5 -16   40.09    1.46
   1   5  16   41.64    1.47
  -1   5 -16   40.37    1.33
   1   5  16   41.33    1.35
  -2  -5 -16    7.98    0.77
   2   5  16    8.35    0.74
  -2   5 -16    7.73    0.77
   2   5  16    9.61    0.79
  -2   5 -16    8.64    0.68
  -3  -5 -16   18.69    1.04
  -3   5 -16   17.13    0.98
   3   5  16   16.69    0.91
  -4  -5 -16   15.37    1.05
  -4   5 -16   16.82    1.00
  -5  -5 -16    2.42    0.56
  -5   5 -16    2.73    0.59
  -6  -5 -16    1.43    0.53
  -6   5 -16    1.16    0.44
  -7  -5 -16    0.57    0.50
  -7   5 -16    0.59    0.39
  -8  -5 -16    1.83    0.71
  -8   5 -16    3.30    0.71
  -9  -5 -16   12.52    1.37
  -9   5 -16   12.12    1.21
  10   6 -16   -0.14    0.57
 -10   6  16   -0.70    0.47
   9   6 -16    1.82    0.68
  -9   6  16    2.40    0.74
   8   6 -16    6.05    0.88
   8   6 -16    6.48    0.82
  -8   6  16    5.91    0.90
   7   6 -16    2.49    0.57
   7   6 -16    0.98    0.50
  -7   6  16    2.41    0.60
  -6   6  16    0.66    0.45
   6   6 -16    0.73    0.41
   6   6 -16    0.76    0.47
   5   6 -16   31.01    1.44
  -5   6  16   30.69    1.48
   5   6 -16   27.76    1.31
  -4   6  16   32.39    1.49
   4   6 -16   30.82    1.38
   4   6 -16   30.68    1.32
  -3   6  16    2.40    0.43
  -3   6  16    2.00    0.51
   3   6 -16    2.32    0.47
   3   6 -16    1.72    0.48
   2   6 -16   24.19    1.11
  -2   6  16   22.80    0.98
   2   6 -16   24.28    1.13
  -2   6  16   22.01    1.15
  -1   6  16    1.66    0.48
   1   6 -16    2.02    0.42
  -1   6  16    1.55    0.38
   1   6 -16    1.85    0.46
   0   6 -16    8.62    0.82
   0   6  16    7.32    0.74
   0   6  16    9.13    0.75
   1   6  16    4.29    0.61
   1   6  16    3.82    0.54
  -1   6 -16    4.98    0.66
  -2  -6 -16    0.56    0.38
  -2   6 -16    0.83    0.37
   2   6  16    0.58    0.36
   2   6  16    0.87    0.39
  -3  -6 -16   -0.15    0.29
  -3   6 -16    0.50    0.37
   3   6  16   -0.03    0.33
  -4  -6 -16    2.83    0.60
   4   6  16    3.54    0.59
  -4   6 -16    3.27    0.61
  -5  -6 -16    2.40    0.58
  -5   6 -16    1.52    0.53
  -6  -6 -16    3.66    0.74
  -6   6 -16    3.86    0.70
  -7  -6 -16    1.50    0.61
  -7   6 -16    1.02    0.51
  -8  -6 -16    5.25    0.98
  -8   6 -16    4.42    0.81
  -9  -6 -16   -0.06    0.53
  -9   6 -16   -0.45    0.35
  -9   7  16    0.27    0.62
   9   7 -16    0.18    0.60
   9   7 -16    0.51    0.48
   8   7 -16    0.22    0.48
  -8   7  16    0.88    0.57
   8   7 -16    0.17    0.43
   7   7 -16    0.48    0.46
   7   7 -16    0.63    0.42
  -7   7  16   -0.07    0.44
  -6   7  16    0.90    0.53
   6   7 -16    1.34    0.51
   6   7 -16    1.16    0.45
   5   7 -16    7.88    0.85
   5   7 -16    7.14    0.86
  -5   7  16    7.38    0.92
  -4   7  16    1.98    0.54
   4   7 -16    2.12    0.53
   4   7 -16    1.84    0.53
  -3   7  16   14.16    1.02
   3   7 -16   14.17    0.96
   2   7 -16   72.28    2.27
  -2   7  16   73.08    2.09
  -2   7  16   72.47    2.33
  -1   7  16   14.91    1.04
   1   7 -16   16.44    1.01
  -1   7  16   16.61    0.94
   0   7 -16    1.34    0.46
   0   7  16    1.03    0.41
   0   7  16    1.15    0.45
  -1   7 -16   10.95    1.00
   1   7  16   10.00    0.89
   1   7  16   10.83    0.92
   2   7  16    5.17    0.69
  -2   7 -16    4.77    0.69
  -3   7 -16   14.31    1.03
   3   7  16   14.48    0.98
   4   7  16    1.32    0.52
  -4   7 -16    0.28    0.38
  -5  -7 -16    2.55    0.68
  -5   7 -16    1.51    0.57
  -6  -7 -16    4.73    0.87
  -6   7 -16    4.38    0.76
  -7  -7 -16    5.88    0.94
  -7   7 -16    5.33    0.86
  -8  -7 -16    0.04    0.59
  -8   7 -16   -0.02    0.41
   8   8 -16    1.02    0.65
   8   8 -16    0.20    0.43
  -7   8  16    0.82    0.53
   7   8 -16    1.36    0.64
   7   8 -16    0.83    0.51
   6   8 -16    4.33    0.75
  -6   8  16    5.22    0.85
   5   8 -16    8.24    0.94
  -5   8  16    9.87    1.11
   4   8 -16    2.19    0.59
  -4   8  16    0.76    0.49
  -3   8  16    1.35    0.51
   3   8 -16    1.28    0.52
   2   8 -16    0.83    0.45
  -2   8  16    1.63    0.50
   1   8 -16    2.30    0.57
  -1   8  16    1.57    0.54
  -1   8  16    2.25    0.53
   0   8  16    6.70    0.78
   0   8 -16    5.64    0.76
   0   8  16    5.61    0.77
   1   8  16    1.69    0.51
  -1   8 -16    0.43    0.42
  -2   8 -16    0.48    0.46
   2   8  16    0.09    0.41
  -3   8 -16    2.38    0.58
   3   8  16    1.66    0.51
   4   8  16    1.61    0.60
  -4   8 -16    0.08    0.39
   5   8  16    1.66    0.62
  -5   8 -16    0.76    0.52
  -6   8 -16    0.43    0.49
  -6   9  16    3.24    0.85
   6   9 -16    3.87    0.74
   5   9 -16    2.26    0.63
  -5   9  16    4.36    0.84
  -4   9  16   -0.51    0.46
   4   9 -16    0.27    0.44
   3   9 -16    1.96    0.59
  -3   9  16    2.53    0.69
   2   9 -16   -0.13    0.43
  -2   9  16    0.12    0.47
  -1   9  16   12.31    1.17
   1   9 -16   10.20    1.08
   0   9  16    0.72    0.50
   0   9 -16    0.31    0.44
   1   9  16    1.47    0.55
  -1   9 -16    1.80    0.59
  -2   9 -16   10.70    1.10
   2   9  16   13.76    1.18
   3   9  16    1.75    0.55
  -3   9 -16    1.90    0.65
  -4   9 -16    1.59    0.63
   4   9  16    0.27    0.50
   5   9  16    0.32    0.47
  -3  10  16    0.49    0.57
   2  10 -16    0.50    0.50
   1  10 -16    2.20    0.66
   0  10 -16    0.45    0.49
   1  10  16    0.13    0.50
  -1  10 -16    0.12    0.46
   2  10  16    1.85    0.65
  12   0 -17    0.41    0.55
  11   0 -17    0.35    0.46
  10   0 -17   -0.36    0.38
   9   0 -17   47.54    1.90
   8   0 -17   -0.42    0.30
  -8   0  17   -0.44    0.24
   7   0 -17    0.01    0.33
  -7   0  17    0.15    0.27
   6   0 -17    0.70    0.33
  -6   0  17   -0.17    0.22
  -5   0  17    6.69    0.57
   5   0 -17    6.87    0.67
  -4   0  17    0.03    0.22
   4   0 -17   -0.14    0.23
  -3   0  17   47.94    1.37
   3   0 -17   47.42    1.51
  -2   0  17   -0.19    0.19
   2   0 -17   -0.05    0.23
   1   0 -17  197.39    3.43
   1   0 -17  192.10    4.13
   0   0 -17    0.49    0.27
   0   0 -17    0.30    0.14
  -1   0 -17    7.07    0.62
  -2   0 -17    0.27    0.29
  -3   0 -17    8.16    0.71
  -4   0 -17   -0.12    0.31
  -5   0 -17   28.84    1.28
  -6   0 -17    0.50    0.42
  -7   0 -17   13.80    1.17
  -8   0 -17   -0.63    0.33
  -9   0 -17   12.36    1.19
 -10   0 -17    0.05    0.57
 -11   0 -17    2.05    0.80
  12   1 -17    0.48    0.61
  11  -1 -17   -0.12    0.44
  11   1 -17    0.97    0.56
  10  -1 -17    1.76    0.57
  10   1 -17    1.42    0.54
   9  -1 -17    1.58    0.49
  -9   1  17    1.74    0.44
   9   1 -17    1.36    0.51
   8  -1 -17    2.96    0.60
   8   1 -17    3.33    0.65
  -8   1  17    4.36    0.58
   7  -1 -17   -0.13    0.34
  -7   1  17    0.26    0.30
   7   1 -17    0.86    0.45
  -6  -1  17    4.21    0.45
   6  -1 -17    3.21    0.50
  -6   1  17    3.36    0.46
   6   1 -17    4.04    0.60
   5  -1 -17    4.55    0.56
  -5  -1  17    3.90    0.42
  -5   1  17    3.29    0.45
  -5   1  17    3.84    0.27
   5   1 -17    3.76    0.55
   4  -1 -17    1.03    0.34
  -4  -1  17    1.59    0.30
  -4   1  17    1.27    0.13
   4   1 -17    1.60    0.41
  -4   1  17    1.40    0.35
   3  -1 -17  110.97    2.65
  -3  -1  17  107.74    2.40
  -3   1  17  111.12    2.54
   3   1 -17  104.87    2.67
   3   1 -17  108.81    2.09
   2  -1 -17   32.53    1.18
   2   1 -17   34.50    1.23
   2   1 -17   32.85    0.78
  -2   1  17   31.66    1.11
   1  -1 -17   14.85    0.79
   1   1 -17   14.19    0.49
   1   1 -17   13.81    0.75
  -1   1  17   14.26    0.71
   0  -1 -17   36.96    1.28
   0   1 -17   37.11    1.26
   0   1 -17   35.27    0.93
   0   1  17   36.72    1.21
  -1  -1 -17   28.37    1.12
  -1   1 -17   27.88    1.10
  -1   1 -17   29.81    0.89
  -2  -1 -17   -0.09    0.24
  -2   1 -17    0.10    0.18
  -2   1 -17    0.02    0.22
  -3  -1 -17    1.10    0.36
  -3   1 -17    1.60    0.40
  -4  -1 -17   -0.01    0.32
  -4   1 -17    0.05    0.27
  -5  -1 -17   41.43    1.62
  -5   1 -17   43.12    1.59
  -6  -1 -17    0.88    0.49
  -6   1 -17    1.01    0.43
  -7  -1 -17   -0.03    0.38
  -7   1 -17    0.28    0.42
  -8  -1 -17    0.46    0.49
  -8   1 -17    0.41    0.46
  -9  -1 -17   -0.03    0.52
  -9   1 -17    0.14    0.43
 -10  -1 -17    5.16    0.93
 -10   1 -17    4.75    0.89
 -11  -1 -17    3.27    0.89
 -11   1 -17    4.18    0.89
  12   2 -17    6.07    0.99
  11   2 -17    4.09    0.84
 -10   2  17    1.70    0.53
  10   2 -17    0.93    0.50
   9  -2 -17    1.19    0.45
  -9   2  17    1.58    0.47
   9   2 -17    2.17    0.60
   8  -2 -17    0.53    0.39
   8   2 -17    1.02    0.49
  -8   2  17    0.48    0.38
   7  -2 -17    4.04    0.57
  -7   2  17    3.43    0.58
   7   2 -17    4.45    0.67
   6  -2 -17   17.49    0.92
  -6   2  17   15.07    0.86
   6   2 -17   13.09    0.92
   5  -2 -17   -0.09    0.24
  -5   2  17    0.15    0.27
   5   2 -17   -0.05    0.29
   5   2 -17    0.38    0.19
   4  -2 -17  279.55    5.53
  -4   2  17  266.33    4.77
   4   2 -17  276.82    5.72
   4   2 -17  270.56    5.03
  -4   2  17  265.40    5.44
   3  -2 -17    0.07    0.25
   3   2 -17    0.70    0.19
  -3   2  17    0.67    0.10
  -3   2  17    0.67    0.28
   3   2 -17    1.05    0.34
   2  -2 -17    3.73    0.47
  -2   2  17    3.28    0.17
   2   2 -17    3.47    0.32
  -2   2  17    4.08    0.48
   2   2 -17    4.44    0.51
   1  -2 -17    0.79    0.30
  -1   2  17    1.19    0.31
   1   2 -17    1.33    0.23
   1   2 -17    1.47    0.34
   0  -2 -17   47.62    1.49
   0   2  17   47.77    1.45
   0   2 -17   47.56    1.25
   0   2 -17   48.67    1.51
  -1  -2 -17   41.00    1.41
  -1   2 -17   43.31    1.39
  -1   2 -17   43.95    1.22
  -2  -2 -17    5.54    0.60
  -2   2 -17    5.92    0.52
  -2   2 -17    5.50    0.58
  -3  -2 -17    1.08    0.37
  -3   2 -17    1.30    0.36
  -3   2 -17    1.03    0.29
  -4  -2 -17   57.78    1.90
  -4   2 -17   56.03    1.69
  -4   2 -17   55.47    1.76
  -5  -2 -17    1.66    0.49
  -5   2 -17    1.84    0.44
  -5   2 -17    2.45    0.51
  -6  -2 -17   44.60    1.79
  -6   2 -17   45.60    1.67
  -6   2 -17   44.77    1.65
  -7  -2 -17   -0.04    0.37
  -7   2 -17    0.36    0.40
  -7   2 -17    0.50    0.42
  -8  -2 -17   25.68    1.48
  -8   2 -17   24.39    1.32
  -8   2 -17   25.47    1.35
  -9  -2 -17   -0.45    0.48
  -9   2 -17    1.25    0.50
  -9   2 -17    0.07    0.47
 -10  -2 -17    7.24    1.08
 -10   2 -17    7.29    0.94
 -10   2 -17    7.88    1.07
 -11  -2 -17    3.15    0.88
 -11   2 -17    1.24    0.62
  12   3 -17    0.88    0.64
 -11   3  17    2.71    0.66
  11   3 -17    2.21    0.74
  10   3 -17    4.46    0.84
 -10   3  17    4.47    0.77
   9   3 -17    1.06    0.52
  -9   3  17    1.11    0.50
  -8   3  17    5.72    0.72
   8   3 -17    4.79    0.79
   7  -3 -17    0.38    0.32
   7   3 -17    0.77    0.45
  -7   3  17    0.30    0.40
   6  -3 -17   23.80    1.04
   6   3 -17   22.92    0.95
   6   3 -17   22.82    1.21
  -6   3  17   22.46    1.11
   5  -3 -17   21.88    0.97
   5   3 -17   22.79    1.15
  -5   3  17   20.61    1.03
   5   3 -17   22.57    0.89
   4  -3 -17   11.18    0.66
   4   3 -17    9.11    0.80
   4   3 -17    9.59    0.57
  -4   3  17    7.15    0.66
   3  -3 -17    0.40    0.24
  -3   3  17    0.16    0.14
   3   3 -17    0.08    0.18
  -3   3  17   -0.05    0.24
   3   3 -17    0.42    0.27
   2  -3 -17    9.26    0.61
   2   3 -17    8.64    0.64
  -2   3  17    8.76    0.73
  -2   3  17    7.84    0.37
   2   3 -17    8.50    0.51
   1  -3 -17   45.46    1.42
   1   3 -17   44.44    1.26
  -1   3  17   44.92    1.45
   1   3 -17   43.83    1.45
  -1   3  17   44.35    1.08
   0  -3 -17    0.24    0.26
   0   3 -17    0.40    0.27
   0   3  17    0.22    0.17
   0   3  17    0.10    0.27
   0   3 -17    0.54    0.24
  -1  -3 -17   22.75    1.02
  -1   3 -17   22.27    0.95
   1   3  17   23.82    1.01
  -1   3 -17   23.86    0.92
  -2  -3 -17    0.61    0.33
  -2   3 -17    1.09    0.31
  -2   3 -17    1.23    0.32
  -3  -3 -17   13.36    0.87
  -3   3 -17   14.80    0.81
  -3   3 -17   16.15    0.82
  -4  -3 -17   11.56    0.98
  -4   3 -17   12.96    0.80
  -4   3 -17   11.52    0.76
  -5  -3 -17   35.36    1.54
  -5   3 -17   37.40    1.41
  -5   3 -17   36.45    1.42
  -6  -3 -17   18.81    1.22
  -6   3 -17   18.41    1.10
  -6   3 -17   19.36    1.05
  -7  -3 -17    7.16    0.91
  -7   3 -17    7.94    0.85
  -7   3 -17    6.32    0.81
  -8  -3 -17    2.47    0.72
  -8   3 -17    2.79    0.61
  -9  -3 -17    1.21    0.60
  -9   3 -17    0.22    0.42
 -10  -3 -17    3.66    0.89
 -10   3 -17    1.63    0.64
  11   4 -17    4.02    0.87
 -11   4  17    4.20    0.86
 -10   4  17    8.23    0.97
  10   4 -17    8.53    1.06
  -9   4  17   -0.18    0.36
   9   4 -17    0.34    0.53
   8   4 -17   25.88    1.48
  -8   4  17   23.74    1.29
   7   4 -17    0.72    0.36
   7   4 -17    1.23    0.48
  -7   4  17    1.57    0.49
   6   4 -17    4.49    0.54
   6   4 -17    4.89    0.71
  -6   4  17    4.26    0.69
   5   4 -17   11.51    0.72
   5   4 -17   10.77    0.95
  -5   4  17   10.92    0.91
   4  -4 -17   10.70    0.66
   4   4 -17   10.98    0.81
  -4   4  17    9.61    0.83
   4   4 -17   11.48    0.69
   3  -4 -17   81.34    2.07
  -3   4  17   80.65    1.82
   3   4 -17   82.82    2.32
  -3   4  17   81.98    2.28
   3   4 -17   82.27    2.06
   2  -4 -17   60.01    1.66
   2   4 -17   55.71    1.75
  -2   4  17   58.46    1.81
   2   4 -17   55.48    1.58
  -2   4  17   56.87    1.39
   1  -4 -17    3.14    0.44
  -1   4  17    3.36    0.36
   1   4 -17    2.92    0.40
   1   4 -17    3.69    0.50
  -1   4  17    3.71    0.51
   0  -4 -17   45.20    1.50
   0   4 -17   47.01    1.49
   0   4 -17   45.91    1.44
   0   4  17   47.08    1.29
   0   4  17   48.35    1.55
  -1  -4 -17   12.55    0.79
   1   4  17   12.45    0.67
  -1   4 -17   12.43    0.74
   1   4  17   12.45    0.75
  -1   4 -17   12.66    0.73
  -2  -4 -17   10.33    0.76
  -2   4 -17   10.03    0.67
   2   4  17   12.62    0.78
   2   4  17   10.29    0.65
  -2   4 -17   11.33    0.72
  -3  -4 -17   51.52    1.80
  -3   4 -17   50.69    1.66
  -3   4 -17   49.21    1.57
  -4  -4 -17   16.91    1.08
  -4   4 -17   14.81    0.92
  -4   4 -17   16.21    0.86
  -5  -4 -17    0.08    0.35
  -5   4 -17   -0.58    0.30
  -5   4 -17    0.36    0.31
  -6  -4 -17    2.34    0.59
  -6   4 -17    3.31    0.61
  -7  -4 -17    2.11    0.65
  -7   4 -17    2.91    0.59
  -8  -4 -17   21.15    1.44
  -8   4 -17   20.68    1.32
  -9  -4 -17    0.39    0.59
  -9   4 -17    0.09    0.43
 -10  -4 -17    1.38    0.69
 -10   4 -17   -0.22    0.49
 -11   5  17   10.61    1.18
 -10   5  17    0.66    0.60
  10   5 -17    0.33    0.57
   9   5 -17   12.13    1.25
  -9   5  17   10.55    1.13
   8   5 -17   11.25    0.99
   8   5 -17    9.22    1.04
  -8   5  17    8.59    0.99
  -7   5  17    0.69    0.48
   7   5 -17    0.36    0.37
   7   5 -17    1.02    0.52
   6   5 -17    1.39    0.40
   6   5 -17    1.39    0.50
  -6   5  17    1.67    0.54
  -5   5  17   13.74    0.97
   5   5 -17   13.87    1.13
   5   5 -17   12.91    0.84
  -4   5  17   11.41    0.94
   4   5 -17   12.59    0.88
   4   5 -17   11.22    0.77
  -3   5  17    0.08    0.24
   3   5 -17    0.34    0.35
  -3   5  17   -0.13    0.34
   3   5 -17    0.56    0.30
   2   5 -17    1.02    0.37
  -2   5  17    1.52    0.43
   2   5 -17    0.83    0.36
  -2   5  17    1.33    0.31
   1  -5 -17   22.93    0.99
  -1   5  17   24.42    1.16
   1   5 -17   23.94    1.06
   1   5 -17   23.41    1.04
  -1   5  17   24.22    0.92
   0  -5 -17   16.06    0.89
   0   5 -17   16.17    0.85
   0   5  17   17.54    0.81
   0   5 -17   17.06    0.89
   0   5  17   16.27    0.95
  -1  -5 -17   20.94    1.03
  -1   5 -17   18.60    0.97
  -1   5 -17   19.99    0.93
   1   5  17   20.68    1.05
   1   5  17   21.72    0.94
  -2  -5 -17   15.41    0.96
   2   5  17   15.34    0.86
  -2   5 -17   16.67    0.96
   2   5  17   15.77    0.91
  -2   5 -17   16.09    0.83
  -3  -5 -17   16.81    1.05
  -3   5 -17   16.51    0.97
   3   5  17   17.54    0.96
  -4  -5 -17    1.93    0.51
  -4   5 -17    2.45    0.52
  -5  -5 -17    0.09    0.44
  -5   5 -17    0.33    0.37
  -6  -5 -17    0.94    0.54
  -6   5 -17    0.41    0.41
  -7  -5 -17   -0.37    0.41
  -7   5 -17   -0.21    0.34
  -8  -5 -17    5.64    0.93
  -8   5 -17    5.88    0.86
  -9  -5 -17    8.55    1.18
  -9   5 -17    9.35    1.11
 -10   6  17    1.28    0.68
  10   6 -17    0.22    0.62
  -9   6  17    2.42    0.76
   9   6 -17    2.18    0.66
   8   6 -17    1.53    0.63
   8   6 -17    1.91    0.52
  -8   6  17    0.75    0.59
   7   6 -17    2.51    0.67
  -7   6  17    1.67    0.63
   7   6 -17    2.25    0.51
   6   6 -17    6.66    0.88
   6   6 -17    6.07    0.71
  -6   6  17    7.85    0.90
   5   6 -17    8.87    0.83
   5   6 -17   10.23    0.97
  -5   6  17   10.81    1.01
   4   6 -17  120.34    3.10
   4   6 -17  126.34    3.28
  -4   6  17  121.16    3.27
   3   6 -17    2.52    0.52
   3   6 -17    2.48    0.52
  -3   6  17    3.40    0.63
  -2   6  17    8.21    0.88
  -2   6  17    7.77    0.66
   2   6 -17    8.22    0.80
   2   6 -17    9.19    0.82
   1   6 -17   33.74    1.36
  -1   6  17   34.16    1.23
   1   6 -17   36.08    1.33
  -1   6  17   32.04    1.39
   0   6 -17    5.94    0.70
   0   6  17    8.66    0.72
   0   6  17    8.57    0.83
   1   6  17    1.90    0.47
  -1   6 -17    0.71    0.39
   1   6  17    0.82    0.36
  -2  -6 -17    6.37    0.73
   2   6  17    8.75    0.80
   2   6  17    6.06    0.66
  -2   6 -17    6.77    0.75
  -3  -6 -17    0.62    0.44
   3   6  17    0.56    0.39
  -3   6 -17    0.57    0.37
  -4  -6 -17   58.01    2.08
  -4   6 -17   55.85    2.02
  -5  -6 -17    0.01    0.44
  -5   6 -17   -0.13    0.31
  -6  -6 -17    5.39    0.89
  -6   6 -17    5.53    0.78
  -7  -6 -17    0.29    0.50
  -7   6 -17    0.34    0.44
  -8  -6 -17   -0.18    0.54
  -8   6 -17   -0.25    0.44
  -9  -6 -17    0.61    0.62
   9   7 -17   -0.39    0.38
  -9   7  17   -0.39    0.57
   9   7 -17   -0.27    0.54
   8   7 -17    1.22    0.53
   8   7 -17    1.12    0.63
  -8   7  17    1.30    0.60
   7   7 -17    1.72    0.56
  -7   7  17    2.07    0.61
   7   7 -17    0.86    0.56
  -6   7  17    0.15    0.45
   6   7 -17   -0.51    0.31
   6   7 -17   -0.51    0.40
   5   7 -17   15.00    1.05
  -5   7  17   14.78    1.30
   5   7 -17   14.75    1.05
   4   7 -17    3.09    0.62
   4   7 -17    3.70    0.65
  -4   7  17    2.97    0.62
   3   7 -17    0.30    0.38
  -3   7  17   -0.57    0.30
  -2   7  17    0.97    0.48
   2   7 -17    0.96    0.43
  -1   7  17    9.08    0.80
  -1   7  17   10.50    0.99
   1   7 -17   12.35    1.04
   0   7  17    3.79    0.58
   0   7  17    2.83    0.56
   0   7 -17    5.41    0.75
   1   7  17    9.77    0.89
   1   7  17   11.21    0.92
  -1   7 -17    8.52    0.87
  -2   7 -17    1.10    0.44
   2   7  17    1.21    0.46
   3   7  17    1.04    0.48
  -3   7 -17    0.35    0.38
  -4   7 -17    4.21    0.71
   4   7  17    5.89    0.81
  -5  -7 -17    0.15    0.46
  -5   7 -17    0.08    0.41
  -6  -7 -17    0.11    0.51
  -6   7 -17   -0.12    0.36
  -7  -7 -17   -0.46    0.43
  -7   7 -17    0.14    0.45
  -8  -7 -17    0.53    0.63
   8   8 -17    2.85    0.79
   8   8 -17    1.71    0.65
  -7   8  17    7.79    1.10
   7   8 -17    7.75    1.01
   7   8 -17    9.39    1.07
  -6   8  17    0.42    0.47
   6   8 -17    0.13    0.42
   5   8 -17   14.96    1.28
  -5   8  17   15.38    1.36
   4   8 -17    6.68    0.86
  -4   8  17    5.73    0.87
  -3   8  17   25.96    1.41
   3   8 -17   22.27    1.29
  -2   8  17   10.93    1.05
   2   8 -17   11.04    1.09
   1   8 -17   13.34    1.12
  -1   8  17   14.20    1.18
   0   8 -17    5.35    0.79
   0   8  17    4.00    0.69
   0   8  17    3.18    0.58
  -1   8 -17    3.70    0.70
   1   8  17    4.66    0.69
  -2   8 -17    0.24    0.40
   2   8  17    0.69    0.47
   3   8  17    1.21    0.52
  -3   8 -17    1.65    0.53
   4   8  17   -0.01    0.39
  -4   8 -17   -0.12    0.43
  -5   8 -17    9.36    1.10
  -6   8 -17    0.19    0.45
   6   9 -17    7.69    1.03
  -5   9  17    0.58    0.54
   5   9 -17    0.64    0.51
  -4   9  17    0.21    0.51
   4   9 -17    0.33    0.43
  -3   9  17    1.46    0.61
   3   9 -17    2.03    0.62
   2   9 -17    3.51    0.71
  -2   9  17    2.64    0.69
   1   9 -17    1.36    0.53
  -1   9  17    1.50    0.58
   0   9 -17    0.64    0.45
  -1   9 -17    2.60    0.63
   1   9  17    1.05    0.52
  -2   9 -17    1.65    0.58
   2   9  17    0.90    0.54
   3   9  17    0.27    0.49
  -3   9 -17   -0.02    0.41
  -4   9 -17    0.19    0.50
   4   9  17    1.50    0.58
   5   9  17    3.71    0.83
   2  10 -17    3.44    0.82
   1  10 -17    1.17    0.63
   0  10 -17    2.60    0.74
  12   0 -18    2.12    0.69
  11   0 -18   -0.03    0.46
  10   0 -18    5.90    0.82
   9   0 -18    0.74    0.44
   8   0 -18   27.08    1.36
  -8   0  18   29.51    1.17
  -7   0  18    0.05    0.27
   7   0 -18    0.13    0.33
  -6   0  18    0.19    0.26
   6   0 -18    0.61    0.33
   5   0 -18    0.09    0.27
  -5   0  18    0.10    0.22
   4   0 -18   99.21    2.58
  -4   0  18  100.32    2.36
  -3   0  18    0.05    0.21
   3   0 -18   -0.01    0.27
  -2   0  18  419.00    7.78
   2   0 -18  415.98    8.07
   1   0 -18    0.45    0.27
   0   0 -18   99.34    1.93
   0   0 -18   94.81    2.43
  -1   0 -18   -0.07    0.22
  -2   0 -18    4.29    0.54
  -3   0 -18   -0.50    0.21
  -4   0 -18    6.06    0.67
  -5   0 -18    0.35    0.39
  -6   0 -18  185.60    4.43
  -7   0 -18    0.31    0.40
  -8   0 -18    0.58    0.50
  -9   0 -18   -0.04    0.43
 -10   0 -18    5.47    0.96
 -11   0 -18   -0.90    0.52
  12   1 -18    0.22    0.53
  11  -1 -18   -0.18    0.46
  11   1 -18   -0.23    0.48
  10  -1 -18    1.13    0.53
  10   1 -18    0.98    0.56
   9  -1 -18    0.54    0.42
   9   1 -18    0.80    0.46
  -9   1  18    0.71    0.39
   8  -1 -18   -0.49    0.32
  -8   1  18    0.31    0.33
   8   1 -18   -0.14    0.36
   7  -1 -18    1.74    0.49
   7   1 -18    1.00    0.49
  -7   1  18    1.05    0.39
  -6  -1  18    7.05    0.57
   6  -1 -18    6.69    0.70
   6   1 -18    7.83    0.79
  -6   1  18    7.09    0.64
   5  -1 -18   46.21    1.57
  -5  -1  18   48.26    1.36
  -5   1  18   48.84    1.51
   5   1 -18   46.70    1.65
  -4  -1  18   14.86    0.68
   4  -1 -18   14.92    0.81
   4   1 -18   14.76    0.84
  -4   1  18   14.40    0.78
   3  -1 -18   10.99    0.72
  -3  -1  18   10.11    0.57
   3   1 -18   11.45    0.73
  -3   1  18   10.70    0.67
   3   1 -18   10.56    0.39
   2  -1 -18   53.48    1.61
  -2   1  18   50.76    1.53
   2   1 -18   51.44    1.13
   2   1 -18   57.11    1.68
   1  -1 -18   28.67    1.11
   1   1 -18   28.80    1.12
  -1   1  18   28.41    1.05
   1   1 -18   28.84    0.76
   0  -1 -18    7.07    0.63
   0   1 -18    7.22    0.39
   0   1 -18    8.48    0.69
  -1  -1 -18   35.27    1.29
  -1   1 -18   34.77    1.26
  -1   1 -18   37.03    1.03
  -2  -1 -18   11.03    0.74
  -2   1 -18   11.77    0.60
  -2   1 -18   11.75    0.76
  -3  -1 -18   43.57    1.54
  -3   1 -18   39.75    1.45
  -4  -1 -18   25.09    1.18
  -4   1 -18   25.50    1.16
  -5  -1 -18    9.17    0.87
  -5   1 -18    7.86    0.78
  -6  -1 -18   10.27    0.98
  -6   1 -18   11.92    1.02
  -7  -1 -18   42.35    1.80
  -7   1 -18   41.47    1.71
  -8  -1 -18   16.97    1.22
  -8   1 -18   19.55    1.22
  -9  -1 -18    2.89    0.71
  -9   1 -18    3.09    0.68
 -10  -1 -18    0.10    0.60
 -10   1 -18    0.52    0.59
 -11  -1 -18    3.55    0.94
 -11   1 -18    3.72    0.89
  12   2 -18   -0.49    0.46
  11   2 -18    8.62    1.10
  10   2 -18    2.77    0.71
 -10   2  18    3.78    0.65
   9  -2 -18    0.02    0.37
  -9   2  18   -0.60    0.31
   9   2 -18   -0.04    0.45
   8  -2 -18    2.67    0.54
   8   2 -18    2.23    0.58
  -8   2  18    2.29    0.49
   7  -2 -18   40.35    1.55
   7   2 -18   44.98    1.78
  -7   2  18   41.77    1.52
   6  -2 -18    3.48    0.53
   6   2 -18    4.44    0.64
  -6   2  18    3.55    0.56
   5  -2 -18    1.89    0.39
   5   2 -18    1.42    0.26
   5   2 -18    1.51    0.44
  -5   2  18    2.73    0.48
   4  -2 -18    0.09    0.23
   4   2 -18    0.31    0.31
  -4   2  18   -0.11    0.28
   4   2 -18    0.27    0.17
   3  -2 -18    0.25    0.23
  -3   2  18    0.15    0.29
   3   2 -18    0.25    0.16
   3   2 -18    0.33    0.28
   2  -2 -18   29.36    1.11
   2   2 -18   29.27    1.16
  -2   2  18   28.24    1.10
   2   2 -18   31.07    0.87
   1  -2 -18    7.42    0.64
  -1   2  18    6.45    0.62
   1   2 -18    5.91    0.39
   1   2 -18    5.21    0.55
   0  -2 -18    0.22    0.25
   0   2 -18   -0.07    0.16
   0   2  18   -0.28    0.22
   0   2 -18    0.01    0.22
  -1  -2 -18    0.91    0.33
  -1   2 -18    1.65    0.35
  -1   2 -18    1.44    0.27
  -2  -2 -18   10.86    0.77
  -2   2 -18   10.74    0.62
  -2   2 -18   11.23    0.70
  -3  -2 -18   49.86    1.70
  -3   2 -18   48.90    1.49
  -3   2 -18   50.11    1.62
  -4  -2 -18   76.31    2.32
  -4   2 -18   75.53    2.08
  -4   2 -18   77.58    2.20
  -5  -2 -18    3.91    0.63
  -5   2 -18    5.16    0.67
  -5   2 -18    4.39    0.58
  -6  -2 -18    0.16    0.41
  -6   2 -18    0.31    0.39
  -6   2 -18    0.34    0.37
  -7  -2 -18   54.27    2.11
  -7   2 -18   53.34    1.91
  -7   2 -18   49.47    1.88
  -8  -2 -18    0.93    0.53
  -8   2 -18   -0.18    0.31
  -8   2 -18    0.31    0.46
  -9  -2 -18   19.25    1.39
  -9   2 -18   20.40    1.32
  -9   2 -18   20.67    1.29
 -10  -2 -18   -0.15    0.50
 -10   2 -18    0.30    0.45
 -11  -2 -18    2.07    0.81
 -11   2 -18    1.52    0.70
  11   3 -18    0.15    0.55
 -11   3  18   -0.38    0.42
 -10   3  18    3.52    0.65
  10   3 -18    4.13    0.81
   9   3 -18    1.55    0.56
  -9   3  18    2.31    0.57
   8   3 -18    0.50    0.42
  -8   3  18    0.72    0.40
   7  -3 -18    7.03    0.73
   7   3 -18    6.37    0.86
  -7   3  18    6.98    0.80
   6  -3 -18    1.21    0.37
  -6   3  18    1.69    0.47
   6   3 -18    1.01    0.31
   6   3 -18    0.55    0.41
   5  -3 -18   13.31    0.78
   5   3 -18   13.45    0.70
  -5   3  18   12.54    0.98
   5   3 -18   14.14    0.94
   4  -3 -18    3.53    0.45
   4   3 -18    3.59    0.59
  -4   3  18    3.70    0.56
   4   3 -18    3.27    0.39
   3  -3 -18    8.89    0.62
   3   3 -18    8.89    0.52
  -3   3  18    9.66    0.69
   3   3 -18   10.23    0.75
   2  -3 -18    4.16    0.50
   2   3 -18    3.05    0.36
  -2   3  18    3.24    0.48
   2   3 -18    3.76    0.54
  -2   3  18    3.92    0.27
   1  -3 -18    3.48    0.48
  -1   3  18    3.18    0.29
   1   3 -18    3.02    0.36
  -1   3  18    2.73    0.43
   1   3 -18    2.62    0.43
   0  -3 -18   -0.09    0.22
   0   3 -18   -0.09    0.18
   0   3  18    0.17    0.25
   0   3  18   -0.04    0.15
   0   3 -18   -0.19    0.22
  -1  -3 -18   55.52    1.75
   1   3  18   52.70    1.64
  -1   3 -18   56.30    1.68
  -1   3 -18   54.54    1.54
  -2  -3 -18    8.18    0.78
  -2   3 -18    7.90    0.65
  -2   3 -18    6.90    0.62
  -3  -3 -18    0.41    0.37
  -3   3 -18    0.33    0.25
  -3   3 -18    0.07    0.25
  -4  -3 -18    9.33    0.90
  -4   3 -18    7.30    0.70
  -4   3 -18    7.88    0.73
  -5  -3 -18    0.99    0.48
  -5   3 -18    1.23    0.40
  -5   3 -18    2.22    0.49
  -6  -3 -18    0.35    0.42
  -6   3 -18    0.72    0.39
  -6   3 -18    1.50    0.44
  -7  -3 -18    0.55    0.49
  -7   3 -18    0.02    0.37
  -7   3 -18    0.63    0.41
  -8  -3 -18    3.09    0.69
  -8   3 -18    5.04    0.79
  -9  -3 -18   -0.06    0.48
  -9   3 -18   -0.22    0.37
 -10  -3 -18    6.10    1.05
 -10   3 -18    5.10    0.86
  11   4 -18    1.02    0.64
 -11   4  18    1.43    0.62
 -10   4  18    0.65    0.54
  10   4 -18    0.86    0.58
  -9   4  18    6.13    0.85
   9   4 -18    5.42    0.86
   8   4 -18    2.26    0.60
  -8   4  18    3.21    0.63
  -7   4  18   -0.68    0.29
   7   4 -18    0.13    0.28
   7   4 -18    0.55    0.44
   6   4 -18    2.76    0.46
  -6   4  18    1.19    0.49
   6   4 -18    1.09    0.47
  -5   4  18    3.47    0.58
   5   4 -18    4.08    0.51
   5   4 -18    4.84    0.67
   4  -4 -18    5.07    0.54
   4   4 -18    4.08    0.60
  -4   4  18    4.22    0.61
   4   4 -18    4.86    0.52
   3  -4 -18   26.01    1.03
   3   4 -18   28.26    1.04
   3   4 -18   27.96    1.24
  -3   4  18   26.58    1.19
   2  -4 -18   60.39    1.74
  -2   4  18   62.66    1.90
  -2   4  18   61.84    1.46
   2   4 -18   58.70    1.65
   2   4 -18   58.95    1.84
   1  -4 -18    0.60    0.27
   1   4 -18    0.39    0.28
   1   4 -18    0.45    0.27
  -1   4  18    0.19    0.19
  -1   4  18    0.36    0.33
   0  -4 -18    0.58    0.30
   0   4 -18    1.23    0.33
   0   4  18    1.31    0.39
   0   4 -18    0.37    0.27
   0   4  18    1.13    0.27
  -1  -4 -18    8.60    0.75
  -1   4 -18    9.13    0.65
   1   4  18    8.64    0.57
   1   4  18    8.00    0.71
  -1   4 -18    9.49    0.67
  -2  -4 -18   32.58    1.37
  -2   4 -18   30.99    1.21
  -2   4 -18   33.90    1.27
   2   4  18   33.73    1.30
  -3  -4 -18    7.44    0.78
  -3   4 -18    8.13    0.71
  -3   4 -18    8.67    0.76
  -4  -4 -18    0.17    0.36
  -4   4 -18    0.59    0.33
  -4   4 -18    0.09    0.27
  -5  -4 -18   24.59    1.35
  -5   4 -18   21.96    1.13
  -5   4 -18   21.66    1.14
  -6  -4 -18   67.79    2.41
  -6   4 -18   65.16    2.19
  -7  -4 -18    0.37    0.43
  -7   4 -18   -0.18    0.39
  -8  -4 -18   15.86    1.43
  -8   4 -18   15.59    1.30
  -9  -4 -18   -1.02    0.49
  -9   4 -18   -0.59    0.39
 -10  -4 -18    1.46    0.70
 -10   4 -18    1.22    0.55
 -11   5  18    1.59    0.69
 -10   5  18   -0.84    0.43
  10   5 -18   -0.14    0.48
  -9   5  18    9.37    1.06
   9   5 -18    9.35    1.12
   8   5 -18    7.36    0.82
  -8   5  18    6.43    0.86
   8   5 -18    8.56    1.05
  -7   5  18    6.18    0.82
   7   5 -18    6.73    0.87
   7   5 -18    5.61    0.66
   6   5 -18   50.97    1.72
   6   5 -18   50.82    1.98
  -6   5  18   50.34    1.91
   5   5 -18   79.40    2.48
   5   5 -18   75.59    2.18
  -5   5  18   81.48    2.47
   4   5 -18   15.83    0.89
  -4   5  18   14.13    0.97
   4   5 -18   16.96    1.02
   3   5 -18    9.51    0.86
   3   5 -18   11.05    0.75
  -3   5  18   11.04    0.93
   2   5 -18    1.30    0.39
  -2   5  18    0.53    0.27
  -2   5  18    0.99    0.38
   2   5 -18    0.88    0.38
   1  -5 -18   13.89    0.81
   1   5 -18   13.88    0.84
   1   5 -18   14.44    0.84
  -1   5  18   15.14    0.92
  -1   5  18   14.44    0.73
   0  -5 -18   59.99    1.84
   0   5 -18   63.18    1.87
   0   5  18   60.52    1.66
   0   5 -18   57.97    1.79
   0   5  18   61.02    1.91
  -1  -5 -18   57.59    1.85
  -1   5 -18   56.45    1.72
  -1   5 -18   57.44    1.81
   1   5  18   58.27    1.86
   1   5  18   57.61    1.66
  -2  -5 -18  118.77    3.12
  -2   5 -18  124.53    2.91
   2   5  18  120.70    2.87
   2   5  18  121.39    3.01
  -2   5 -18  114.75    2.99
  -3  -5 -18    3.91    0.64
  -3   5 -18    3.31    0.56
  -4  -5 -18    0.71    0.46
  -4   5 -18    0.83    0.40
  -5  -5 -18    0.00    0.37
  -5   5 -18    0.13    0.34
  -6  -5 -18    2.40    0.63
  -6   5 -18    1.60    0.50
  -7  -5 -18   12.02    1.27
  -7   5 -18   15.16    1.26
  -8  -5 -18    0.10    0.47
  -8   5 -18    0.54    0.45
  -9  -5 -18    1.41    0.65
  -9   5 -18    0.24    0.43
  10   6 -18    0.67    0.63
 -10   6  18    0.87    0.67
  -9   6  18    4.35    0.89
   9   6 -18    3.71    0.80
   8   6 -18    2.02    0.63
  -8   6  18    1.64    0.65
   8   6 -18    1.63    0.53
   7   6 -18    2.55    0.65
   7   6 -18    2.66    0.56
  -7   6  18    2.49    0.66
  -6   6  18   30.25    1.55
   6   6 -18   32.22    1.56
   6   6 -18   29.98    1.38
   5   6 -18   -0.22    0.35
  -5   6  18    0.10    0.42
   5   6 -18   -0.43    0.30
  -4   6  18   15.34    1.09
   4   6 -18   15.99    1.04
   4   6 -18   13.55    0.89
  -3   6  18    0.88    0.42
   3   6 -18    1.94    0.49
   3   6 -18    1.39    0.42
   2   6 -18   30.99    1.33
  -2   6  18   32.31    1.43
   2   6 -18   36.41    1.39
  -1   6  18   97.83    2.79
   1   6 -18   97.25    2.62
   1   6 -18  102.50    2.70
  -1   6  18  104.90    2.50
   0   6  18    0.32    0.33
   0   6  18    0.89    0.43
   0   6 -18    0.05    0.33
   1   6  18   23.46    1.20
  -1   6 -18   27.59    1.25
   1   6  18   27.83    1.16
  -2  -6 -18    2.89    0.55
  -2   6 -18    2.60    0.53
   2   6  18    2.45    0.52
   2   6  18    2.65    0.53
  -3  -6 -18   -0.09    0.35
  -3   6 -18   -0.02    0.31
   3   6  18    0.93    0.36
   3   6  18    0.56    0.35
  -4  -6 -18    0.77    0.48
  -4   6 -18    1.10    0.46
  -5  -6 -18   26.05    1.43
  -5   6 -18   24.03    1.33
  -6  -6 -18    4.31    0.80
  -6   6 -18    4.81    0.77
  -7  -6 -18    1.86    0.65
  -7   6 -18    3.19    0.69
  -8  -6 -18   -0.24    0.53
  -8   6 -18   -0.17    0.39
  -9  -6 -18    0.86    0.66
   9   7 -18    1.52    0.71
  -8   7  18    3.85    0.79
   8   7 -18    4.08    0.71
   8   7 -18    3.65    0.81
   7   7 -18    0.76    0.46
  -7   7  18    0.00    0.43
   7   7 -18   -0.33    0.41
   6   7 -18   13.15    1.11
  -6   7  18   11.03    1.11
   6   7 -18   11.16    1.12
   5   7 -18    2.34    0.59
  -5   7  18    2.22    0.64
   5   7 -18    2.81    0.60
   4   7 -18    6.91    0.82
   4   7 -18    6.32    0.77
  -4   7  18    6.48    0.91
   3   7 -18   -0.50    0.26
  -3   7  18   -0.24    0.40
   2   7 -18    0.13    0.33
  -2   7  18    0.33    0.41
   1   7 -18   21.06    1.15
  -1   7  18   23.63    1.29
   0   7  18    3.76    0.62
   0   7  18    3.07    0.53
   0   7 -18    4.25    0.64
  -1   7 -18    0.21    0.36
   1   7  18   -0.06    0.33
   1   7  18    0.46    0.36
   2   7  18    4.96    0.68
  -2   7 -18    6.28    0.79
   3   7  18    6.49    0.80
  -3   7 -18    5.20    0.76
   4   7  18    0.24    0.38
  -4   7 -18    0.22    0.39
  -5  -7 -18    4.40    0.77
  -5   7 -18    5.74    0.86
  -6  -7 -18   -0.09    0.47
  -6   7 -18   -0.43    0.35
  -7  -7 -18   -0.76    0.44
  -7   7 -18    0.09    0.42
  -8  -7 -18    2.78    0.82
   7   8 -18   -0.46    0.50
  -7   8  18    0.34    0.60
   7   8 -18    0.01    0.49
  -6   8  18    0.08    0.45
   6   8 -18    0.72    0.46
  -5   8  18    1.19    0.60
   5   8 -18    1.28    0.54
  -4   8  18    2.94    0.72
   4   8 -18    2.28    0.61
   3   8 -18    8.36    0.96
  -3   8  18    8.25    0.97
  -2   8  18    9.99    1.03
   2   8 -18   11.95    1.07
  -1   8  18    2.10    0.61
   1   8 -18    1.64    0.52
   0   8  18    0.30    0.43
   0   8  18   -0.04    0.38
   0   8 -18    0.32    0.40
  -1   8 -18   -0.33    0.34
   1   8  18    0.40    0.42
  -2   8 -18    5.47    0.80
   2   8  18    5.59    0.78
  -3   8 -18    0.61    0.41
   3   8  18    0.16    0.47
  -4   8 -18    3.35    0.75
   4   8  18    3.34    0.75
  -5   8 -18    3.06    0.73
  -6   8 -18    6.06    0.90
   6   9 -18    1.59    0.57
  -5   9  18    3.69    0.88
   5   9 -18    4.12    0.80
  -4   9  18    0.75    0.52
   4   9 -18    0.57    0.48
  -3   9  18    0.55    0.54
   3   9 -18    0.63    0.45
  -2   9  18    1.29    0.60
   2   9 -18    1.17    0.54
  -1   9  18    1.22    0.53
   1   9 -18    0.78    0.51
   0   9 -18    1.84    0.59
  -1   9 -18    0.05    0.39
   2   9  18    2.86    0.68
  -2   9 -18    2.32    0.66
  -3   9 -18    0.89    0.51
   3   9  18    0.34    0.46
   4   9  18    0.95    0.58
  -4   9 -18    0.87    0.54
  12   0 -19   -0.42    0.42
  11   0 -19    1.09    0.54
  10   0 -19   -0.17    0.42
   9   0 -19    2.93    0.65
   8   0 -19   -0.56    0.30
  -7   0  19    6.15    0.62
   7   0 -19    6.57    0.76
  -6   0  19   -0.38    0.23
   6   0 -19    0.05    0.34
  -5   0  19   10.23    0.65
   5   0 -19   11.91    0.83
  -4   0  19    0.16    0.25
   4   0 -19    0.11    0.27
  -3   0  19   57.16    1.59
   3   0 -19   55.98    1.74
   2   0 -19   -0.12    0.24
  -2   0  19    0.58    0.26
   1   0 -19   15.59    0.83
   1   0 -19   16.47    0.45
   0   0 -19    0.88    0.31
   0   0 -19    0.82    0.16
  -1   0 -19    5.66    0.60
  -2   0 -19    0.13    0.25
  -3   0 -19   34.34    1.34
  -4   0 -19   -0.17    0.26
  -5   0 -19   23.63    1.21
  -6   0 -19    0.22    0.46
  -7   0 -19    0.13    0.44
  -8   0 -19    0.00    0.40
  -9   0 -19   22.58    1.48
 -10   0 -19    0.32    0.53
 -11   0 -19    4.58    0.93
  12   1 -19   -0.18    0.46
  11  -1 -19    0.09    0.41
  11   1 -19    0.15    0.51
  10  -1 -19    1.15    0.49
  10   1 -19    1.46    0.59
   9  -1 -19    0.16    0.39
   9   1 -19    0.05    0.43
  -9   1  19    0.52    0.39
   8  -1 -19    4.41    0.69
  -8   1  19    4.57    0.61
   8   1 -19    4.16    0.70
   7  -1 -19   84.95    2.49
   7   1 -19   82.54    2.55
  -7   1  19   85.05    2.30
  -6  -1  19    8.60    0.60
   6  -1 -19    9.23    0.83
   6   1 -19    8.97    0.88
  -6   1  19    9.55    0.78
   5  -1 -19   19.39    1.00
  -5  -1  19   18.10    0.79
  -5   1  19   17.32    0.88
   5   1 -19   17.48    1.02
  -4  -1  19   57.40    1.57
   4  -1 -19   58.86    1.80
   4   1 -19   59.14    1.86
  -4   1  19   58.12    1.69
   3  -1 -19    0.40    0.26
   3   1 -19    0.09    0.23
  -3   1  19    0.82    0.32
   3   1 -19    0.56    0.14
   2  -1 -19    0.05    0.23
  -2   1  19   -0.15    0.20
   2   1 -19   -0.39    0.22
   2   1 -19   -0.04    0.10
   1  -1 -19   18.48    0.92
   1  -1 -19   19.05    0.44
  -1   1  19   18.03    0.85
   1   1 -19   19.58    0.93
   1   1 -19   19.10    0.59
   0  -1 -19    0.39    0.27
   0   1 -19    0.50    0.17
   0   1 -19    0.69    0.30
  -1  -1 -19   43.49    1.51
  -1   1 -19   45.42    1.50
  -1   1 -19   43.10    1.17
  -2  -1 -19   10.98    0.75
  -2   1 -19    9.33    0.55
  -2   1 -19    8.11    0.71
  -3  -1 -19   16.17    0.94
  -3   1 -19   17.49    0.95
  -3   1 -19   17.76    0.81
  -4  -1 -19   40.90    1.57
  -4   1 -19   40.57    1.52
  -5  -1 -19   26.91    1.32
  -5   1 -19   24.73    1.25
  -6  -1 -19    4.01    0.67
  -6   1 -19    3.04    0.59
  -7  -1 -19    2.30    0.64
  -7   1 -19    1.96    0.58
  -8  -1 -19   11.47    1.15
  -8   1 -19   11.05    1.08
  -9  -1 -19   10.80    1.19
  -9   1 -19   12.50    1.23
 -10  -1 -19   14.85    1.49
 -10   1 -19   14.38    1.39
 -11  -1 -19    0.81    0.66
 -11   1 -19    2.54    0.80
  12   2 -19   -0.10    0.51
  11   2 -19    0.16    0.55
 -10   2  19    0.95    0.48
  10   2 -19    0.42    0.48
   9  -2 -19    0.91    0.46
   9   2 -19    0.43    0.43
  -9   2  19    0.87    0.44
   8  -2 -19   -0.17    0.34
   8   2 -19    0.45    0.46
  -8   2  19    0.16    0.36
   7  -2 -19   -0.14    0.32
  -7   2  19    0.11    0.35
   7   2 -19   -0.05    0.38
   6  -2 -19   36.38    1.43
  -6   2  19   36.30    1.39
   6   2 -19   40.52    1.64
   5  -2 -19   13.45    0.80
   5   2 -19   12.77    0.60
   5   2 -19   13.06    0.89
  -5   2  19   13.62    0.82
   4  -2 -19   22.64    1.02
  -4   2  19   21.05    0.98
   4   2 -19   21.58    0.74
   4   2 -19   21.51    1.07
   3  -2 -19   63.76    1.82
   3   2 -19   59.07    1.86
   3   2 -19   62.06    1.43
  -3   2  19   60.66    1.79
   2  -2 -19    2.17    0.39
  -2   2  19    2.03    0.40
   2   2 -19    2.95    0.30
   2   2 -19    2.48    0.45
   1  -2 -19    0.50    0.29
   1   2 -19    0.16    0.16
  -1   2  19   -0.10    0.23
   1   2 -19   -0.02    0.23
   0  -2 -19   11.84    0.74
   0   2 -19   11.21    0.72
   0   2 -19   12.06    0.56
   0   2  19   10.98    0.70
  -1  -2 -19    0.34    0.29
  -1   2 -19    0.65    0.22
  -1   2 -19    0.37    0.27
  -2  -2 -19  102.03    2.71
  -2   2 -19  107.72    2.68
  -2   2 -19  105.03    2.43
  -3  -2 -19    0.01    0.29
  -3   2 -19   -0.16    0.27
  -3   2 -19   -0.04    0.20
  -4  -2 -19    0.24    0.34
  -4   2 -19   -0.04    0.24
  -4   2 -19    0.29    0.30
  -5  -2 -19    2.24    0.55
  -5   2 -19    2.00    0.47
  -5   2 -19    1.90    0.45
  -6  -2 -19   -0.32    0.36
  -6   2 -19    0.00    0.36
  -6   2 -19   -0.64    0.29
  -7  -2 -19    1.61    0.57
  -7   2 -19    2.11    0.56
  -7   2 -19    2.56    0.57
  -8  -2 -19   14.72    1.32
  -8   2 -19   15.60    1.08
  -8   2 -19   16.07    1.15
  -9  -2 -19   16.75    1.48
  -9   2 -19   16.13    1.18
  -9   2 -19   13.03    1.21
 -10  -2 -19    1.72    0.70
 -10   2 -19    0.86    0.51
  11   3 -19    8.53    1.10
 -11   3  19   10.02    1.06
  10   3 -19    8.51    1.05
 -10   3  19   10.42    1.04
  -9   3  19    5.12    0.75
   9   3 -19    6.13    0.93
  -8   3  19    3.53    0.62
   8   3 -19    1.96    0.63
   7  -3 -19   54.02    1.81
  -7   3  19   51.79    1.85
   7   3 -19   52.92    2.02
   6  -3 -19    0.46    0.33
   6   3 -19    0.84    0.45
   6   3 -19    0.26    0.27
  -6   3  19    0.39    0.39
   5  -3 -19   12.24    0.77
   5   3 -19    9.70    0.87
  -5   3  19   12.20    0.83
   5   3 -19   10.49    0.62
   4  -3 -19   65.18    1.87
   4   3 -19   62.57    2.03
   4   3 -19   65.52    1.66
  -4   3  19   64.83    1.96
   3  -3 -19    0.36    0.28
   3   3 -19    0.44    0.22
  -3   3  19    0.44    0.28
   3   3 -19    0.05    0.26
   2  -3 -19    6.71    0.63
  -2   3  19    5.40    0.30
   2   3 -19    5.78    0.63
   2   3 -19    4.83    0.44
  -2   3  19    5.69    0.62
   1  -3 -19   36.13    1.31
   1   3 -19   35.57    1.10
  -1   3  19   33.36    1.29
   1   3 -19   35.54    1.33
  -1   3  19   36.18    0.93
   0  -3 -19    0.76    0.28
   0   3  19    0.74    0.30
   0   3 -19    0.66    0.31
   0   3 -19    0.57    0.23
  -1  -3 -19   38.63    1.43
  -1   3 -19   35.44    1.19
  -1   3 -19   36.34    1.32
   1   3  19   38.71    1.37
  -2  -3 -19    2.17    0.45
  -2   3 -19    1.95    0.36
  -2   3 -19    1.82    0.38
  -3  -3 -19   58.18    1.95
  -3   3 -19   60.44    1.78
  -3   3 -19   59.46    1.83
  -4  -3 -19   13.74    0.96
  -4   3 -19   12.86    0.82
  -4   3 -19   13.41    0.85
  -5  -3 -19    1.56    0.49
  -5   3 -19    1.39    0.45
  -5   3 -19    1.10    0.42
  -6  -3 -19    0.12    0.42
  -6   3 -19   -0.31    0.27
  -6   3 -19   -0.50    0.32
  -7  -3 -19   19.50    1.29
  -7   3 -19   19.91    1.16
  -7   3 -19   16.15    1.09
  -8  -3 -19    5.64    0.91
  -8   3 -19    5.03    0.80
  -9  -3 -19   -0.18    0.45
  -9   3 -19    0.57    0.48
 -10  -3 -19    0.65    0.62
 -10   3 -19   -0.19    0.42
 -11   4  19    6.77    0.91
  11   4 -19    3.47    0.82
 -10   4  19   10.71    1.12
  10   4 -19    9.01    1.17
   9   4 -19    1.52    0.60
  -9   4  19    1.59    0.52
  -8   4  19    1.15    0.53
   8   4 -19    1.54    0.58
   7   4 -19    4.47    0.72
  -7   4  19    4.66    0.72
  -6   4  19   29.49    1.37
   6   4 -19   29.00    1.47
   6   4 -19   29.92    1.17
   5   4 -19   16.50    0.84
   5   4 -19   18.02    1.08
  -5   4  19   16.17    1.01
   4  -4 -19    0.22    0.28
  -4   4  19    0.86    0.38
   4   4 -19    0.69    0.29
   4   4 -19    0.88    0.40
   3  -4 -19   11.97    0.74
  -3   4  19   13.60    0.87
   3   4 -19   12.93    0.86
   3   4 -19   13.21    0.72
   2  -4 -19   15.89    0.83
   2   4 -19   15.63    0.89
  -2   4  19   15.39    0.92
   2   4 -19   16.81    0.79
   1  -4 -19    8.09    0.68
  -1   4  19    7.75    0.46
   1   4 -19    8.88    0.77
   1   4 -19    9.07    0.59
  -1   4  19    6.73    0.68
   0  -4 -19    0.40    0.32
   0   4 -19    0.85    0.33
   0   4 -19    0.04    0.23
   0   4  19    0.32    0.22
   0   4  19    0.45    0.33
  -1  -4 -19    4.22    0.57
  -1   4 -19    3.93    0.52
   1   4  19    3.72    0.55
  -1   4 -19    3.93    0.52
   1   4  19    4.93    0.48
  -2  -4 -19    5.76    0.68
  -2   4 -19    6.48    0.66
  -2   4 -19    7.75    0.72
   2   4  19    7.94    0.75
  -3  -4 -19    4.68    0.69
  -3   4 -19    5.99    0.67
  -3   4 -19    4.23    0.55
  -4  -4 -19   10.00    0.95
  -4   4 -19   11.91    0.79
  -4   4 -19   10.64    0.91
  -5  -4 -19    2.63    0.60
  -5   4 -19    3.31    0.58
  -5   4 -19    3.58    0.56
  -6  -4 -19   -0.15    0.43
  -6   4 -19    0.44    0.36
  -7  -4 -19    7.30    0.96
  -7   4 -19    7.49    0.90
  -8  -4 -19   -0.10    0.52
  -8   4 -19    0.20    0.40
  -9  -4 -19   11.06    1.33
  -9   4 -19    9.41    1.10
 -10  -4 -19    0.22    0.62
 -10   4 -19   -0.31    0.45
  10   5 -19   -0.25    0.47
 -10   5  19    0.34    0.47
   9   5 -19    2.07    0.65
  -9   5  19    1.12    0.55
  -8   5  19   -0.05    0.48
   8   5 -19    0.11    0.49
  -7   5  19   -0.06    0.42
   7   5 -19    0.39    0.48
   7   5 -19   -0.03    0.32
   6   5 -19    3.07    0.63
   6   5 -19    1.35    0.42
  -6   5  19    1.61    0.49
   5   5 -19    0.16    0.29
   5   5 -19    0.00    0.36
  -5   5  19   -0.46    0.33
   4   5 -19   11.09    0.73
   4   5 -19   12.47    1.03
  -4   5  19   11.82    0.99
  -3   5  19    0.27    0.35
   3   5 -19    0.20    0.35
   3   5 -19    0.47    0.32
   2   5 -19   12.31    0.79
  -2   5  19   12.83    1.02
   2   5 -19   11.65    0.85
   1  -5 -19    5.83    0.63
  -1   5  19    5.60    0.52
   1   5 -19    4.35    0.55
   1   5 -19    5.35    0.62
  -1   5  19    4.41    0.64
   0  -5 -19   21.67    1.07
   0   5  19   21.47    0.90
   0   5 -19   20.38    1.02
   0   5 -19   21.10    1.03
   0   5  19   22.30    1.10
  -1  -5 -19   16.06    0.96
  -1   5 -19   13.21    0.81
  -1   5 -19   15.03    0.88
   1   5  19   14.08    0.88
   1   5  19   14.90    0.80
  -2  -5 -19    8.01    0.81
   2   5  19    7.35    0.69
   2   5  19    7.96    0.79
  -2   5 -19    7.94    0.79
  -2   5 -19    6.86    0.66
  -3  -5 -19    9.33    0.93
  -3   5 -19   12.10    0.86
  -4  -5 -19   30.62    1.47
  -4   5 -19   29.13    1.37
  -5  -5 -19    3.04    0.69
  -5   5 -19    4.55    0.71
  -6  -5 -19    0.14    0.48
  -6   5 -19    0.40    0.37
  -7  -5 -19    7.85    1.05
  -7   5 -19    5.63    0.80
  -8  -5 -19    0.62    0.54
  -8   5 -19   -0.49    0.34
  -9  -5 -19    1.48    0.67
  -9   5 -19    0.83    0.57
  10   6 -19    0.13    0.60
 -10   6  19    0.80    0.61
  -9   6  19    0.72    0.58
   9   6 -19    0.02    0.51
  -8   6  19   -0.29    0.38
   8   6 -19   -0.18    0.41
   7   6 -19    5.82    0.75
  -7   6  19    7.71    0.97
   7   6 -19    8.26    1.02
  -6   6  19    5.94    0.80
   6   6 -19    5.37    0.80
   6   6 -19    4.55    0.66
  -5   6  19    0.25    0.39
   5   6 -19    0.97    0.41
   5   6 -19    0.95    0.49
  -4   6  19    5.30    0.74
   4   6 -19    5.76    0.73
   4   6 -19    6.32    0.74
  -3   6  19   37.53    1.61
   3   6 -19   33.56    1.46
   3   6 -19   36.83    1.45
   2   6 -19   10.29    0.90
   2   6 -19    8.95    0.84
  -2   6  19    9.68    0.95
   1   6 -19    3.03    0.51
  -1   6  19    1.65    0.47
   1   6 -19    1.88    0.45
   0   6  19    6.66    0.78
   0   6  19    6.20    0.62
   0   6 -19    6.38    0.74
  -1   6 -19    0.24    0.30
   1   6  19    0.35    0.34
   1   6  19    0.40    0.35
  -2  -6 -19    3.61    0.62
   2   6  19    4.12    0.60
  -2   6 -19    3.83    0.61
   2   6  19    4.32    0.64
  -3  -6 -19    6.46    0.81
   3   6  19    7.65    0.79
  -3   6 -19    7.70    0.84
  -4  -6 -19    4.07    0.71
  -4   6 -19    4.07    0.67
  -5  -6 -19    4.48    0.78
  -5   6 -19    3.07    0.63
  -6  -6 -19    0.93    0.51
  -6   6 -19    1.30    0.50
  -7  -6 -19    9.96    1.20
  -7   6 -19    8.66    1.04
  -8  -6 -19    7.15    1.10
  -8   6 -19    5.21    0.86
   9   7 -19    0.98    0.63
  -8   7  19    1.81    0.64
   8   7 -19    1.10    0.59
  -7   7  19    2.06    0.65
   7   7 -19    1.28    0.49
   7   7 -19    1.47    0.63
   6   7 -19    0.74    0.44
  -6   7  19    1.21    0.54
   6   7 -19    1.56    0.58
   5   7 -19    1.42    0.48
  -5   7  19    1.47    0.54
   5   7 -19    1.27    0.53
   4   7 -19   13.77    1.15
   4   7 -19    9.50    0.96
  -4   7  19   13.63    1.24
  -3   7  19   21.23    1.26
   3   7 -19   21.93    1.21
  -2   7  19    4.43    0.72
   2   7 -19    5.64    0.75
  -1   7  19    2.26    0.54
   1   7 -19    1.88    0.50
   0   7 -19   22.42    1.20
   0   7  19   23.72    1.24
   0   7  19   22.50    1.12
   1   7  19    6.93    0.83
  -1   7 -19    6.13    0.76
   1   7  19    6.57    0.74
   2   7  19    1.12    0.42
  -2   7 -19    2.05    0.53
   3   7  19   23.56    1.26
  -3   7 -19   25.90    1.37
  -4   7 -19    5.16    0.78
  -5  -7 -19    2.92    0.69
  -5   7 -19    2.55    0.64
  -6  -7 -19    1.85    0.65
  -6   7 -19    2.10    0.65
  -7  -7 -19    0.04    0.50
  -7   7 -19    0.52    0.47
  -7   8  19    0.79    0.53
   7   8 -19   -0.26    0.54
   7   8 -19    0.03    0.40
   6   8 -19    0.67    0.52
  -6   8  19    0.51    0.50
  -5   8  19    5.34    0.92
   5   8 -19    2.28    0.58
  -4   8  19    1.48    0.58
   4   8 -19    0.83    0.46
   3   8 -19    2.43    0.61
  -3   8  19    2.18    0.58
   2   8 -19    0.49    0.42
  -2   8  19    0.39    0.43
  -1   8  19    2.66    0.65
   1   8 -19    2.20    0.58
   0   8 -19    2.65    0.59
   0   8  19    1.80    0.53
   1   8  19    4.81    0.72
  -1   8 -19    3.97    0.71
  -2   8 -19    1.95    0.56
   2   8  19    2.88    0.60
   3   8  19    3.38    0.72
  -3   8 -19    3.15    0.65
   4   8  19    2.71    0.63
  -4   8 -19    2.06    0.64
  -5   8 -19   -0.77    0.35
  -6   8 -19    1.90    0.61
   5   9 -19    3.41    0.74
  -5   9  19    3.95    0.88
  -4   9  19    8.37    1.07
   4   9 -19   11.68    1.20
   3   9 -19    0.11    0.45
  -3   9  19    0.36    0.56
   2   9 -19   -0.60    0.37
  -2   9  19    0.12    0.43
  -1   9  19    2.15    0.60
   1   9 -19    1.78    0.58
   0   9 -19    8.44    1.03
  -1   9 -19    0.99    0.53
  -2   9 -19    0.55    0.52
   3   9  19    1.04    0.55
  -3   9 -19    1.81    0.59
   4   9  19   12.69    1.22
  12   0 -20    6.20    0.98
  11   0 -20   -0.22    0.47
  10   0 -20    1.50    0.55
   9   0 -20   -0.75    0.36
   8   0 -20   24.62    1.34
   7   0 -20    0.24    0.36
  -7   0  20   -0.07    0.29
   6   0 -20    1.89    0.48
  -6   0  20    1.34    0.35
   5   0 -20    0.34    0.31
  -5   0  20   -0.05    0.24
  -4   0  20  126.19    2.88
   4   0 -20  125.25    3.11
   3   0 -20   -0.12    0.24
  -3   0  20    0.03    0.23
   2   0 -20    1.35    0.38
  -2   0  20    1.58    0.36
   1   0 -20   -0.09    0.09
   1   0 -20    0.19    0.29
   0   0 -20   52.53    1.19
   0   0 -20   53.19    1.68
  -1   0 -20    0.48    0.31
  -2   0 -20    1.69    0.41
  -3   0 -20   -0.09    0.27
  -4   0 -20   10.41    0.89
  -5   0 -20   -0.14    0.40
  -6   0 -20   31.14    1.47
  -7   0 -20    0.34    0.44
  -8   0 -20    8.81    1.01
  -9   0 -20   -0.21    0.51
 -10   0 -20    1.36    0.65
 -11   0 -20   -0.09    0.54
  12   1 -20    3.30    0.79
  11  -1 -20    2.57    0.70
  11   1 -20    2.18    0.64
  10  -1 -20    1.28    0.55
  10   1 -20    1.74    0.58
   9  -1 -20   -0.07    0.41
   9   1 -20   -0.46    0.32
  -9   1  20    0.44    0.38
   8  -1 -20   11.48    1.00
  -8   1  20   10.83    0.89
   8   1 -20    9.49    0.99
   7  -1 -20    2.96    0.58
   7   1 -20    2.65    0.57
  -7   1  20    1.61    0.43
  -6  -1  20    5.63    0.55
   6  -1 -20    5.44    0.65
   6   1 -20    4.44    0.64
  -6   1  20    5.07    0.59
   5  -1 -20   15.31    0.89
  -5  -1  20   15.77    0.76
   5   1 -20   16.29    0.97
  -5   1  20   12.90    0.81
  -4  -1  20    6.88    0.57
   4  -1 -20    7.25    0.71
  -4   1  20    6.27    0.61
   4   1 -20    7.11    0.72
   3  -1 -20    0.31    0.31
   3   1 -20    0.09    0.27
  -3   1  20    0.84    0.32
   2  -1 -20    6.32    0.63
   2   1 -20    7.57    0.72
   2   1 -20    6.87    0.31
  -2   1  20    7.77    0.67
   1  -1 -20   11.83    0.75
   1  -1 -20   11.39    0.32
   1   1 -20    9.98    0.73
   1   1 -20   10.88    0.44
  -1   1  20   11.01    0.68
   0  -1 -20   31.34    1.24
   0   1 -20   30.70    0.88
   0   1 -20   30.27    1.21
  -1  -1 -20   19.14    0.98
  -1   1 -20   19.85    0.97
  -1   1 -20   20.92    0.75
  -2  -1 -20   43.94    1.54
  -2   1 -20   41.78    1.48
  -2   1 -20   40.59    1.23
  -3  -1 -20    4.58    0.63
  -3   1 -20    3.76    0.47
  -3   1 -20    4.77    0.62
  -4  -1 -20   13.24    0.96
  -4   1 -20   15.08    0.93
  -5  -1 -20  111.37    3.09
  -5   1 -20  109.43    3.00
  -6  -1 -20   26.16    1.38
  -6   1 -20   28.69    1.38
  -7  -1 -20   -0.22    0.39
  -7   1 -20   -0.04    0.43
  -8  -1 -20    4.91    0.84
  -8   1 -20    4.48    0.80
  -9  -1 -20    0.11    0.49
  -9   1 -20    0.44    0.55
 -10  -1 -20   -0.04    0.57
 -10   1 -20    0.37    0.57
 -11  -1 -20   -0.63    0.50
 -11   1 -20    0.34    0.66
  12   2 -20   -0.06    0.51
  11   2 -20    0.60    0.60
  10   2 -20    7.79    1.00
 -10   2  20   10.69    1.02
   9  -2 -20   20.67    1.22
   9   2 -20   20.75    1.33
  -9   2  20   20.73    1.17
   8  -2 -20    6.72    0.78
  -8   2  20    7.44    0.81
   8   2 -20    7.70    0.91
   7  -2 -20    0.45    0.38
  -7   2  20    0.56    0.39
   7   2 -20    0.68    0.47
   6  -2 -20   10.72    0.89
  -6   2  20   11.36    0.92
   6   2 -20    9.97    0.92
   5  -2 -20    9.36    0.80
   5   2 -20    9.95    0.91
  -5   2  20   11.02    0.87
   4  -2 -20    0.21    0.29
   4   2 -20    0.36    0.17
   4   2 -20    0.10    0.29
  -4   2  20    0.35    0.29
   3  -2 -20    6.56    0.65
   3   2 -20    3.66    0.52
   3   2 -20    4.16    0.35
  -3   2  20    4.93    0.59
   2  -2 -20    9.01    0.75
   2   2 -20    9.70    0.46
  -2   2  20    9.34    0.75
   2   2 -20   10.02    0.71
   1  -2 -20    1.02    0.33
  -1   2  20    0.23    0.26
   1   2 -20   -0.03    0.25
   1   2 -20    0.57    0.19
   0  -2 -20   34.72    1.32
   0   2 -20   33.01    1.28
   0   2 -20   34.89    1.04
   0   2  20   33.64    1.25
  -1  -2 -20   41.63    1.50
  -1   2 -20   41.90    1.23
  -1   2 -20   42.08    1.48
  -2  -2 -20   20.66    1.05
  -2   2 -20   20.77    1.02
  -2   2 -20   20.50    0.86
  -3  -2 -20    0.71    0.36
  -3   2 -20    0.54    0.30
  -3   2 -20    1.05    0.32
  -4  -2 -20    0.10    0.35
  -4   2 -20   -0.17    0.28
  -4   2 -20    0.32    0.33
  -5  -2 -20   33.30    1.52
  -5   2 -20   33.89    1.37
  -5   2 -20   34.25    1.45
  -6  -2 -20    8.27    0.97
  -6   2 -20    8.25    0.85
  -6   2 -20    6.67    0.81
  -7  -2 -20    0.21    0.43
  -7   2 -20    0.53    0.40
  -7   2 -20    0.68    0.48
  -8  -2 -20   -0.21    0.45
  -8   2 -20   -0.08    0.43
  -8   2 -20   -0.24    0.35
  -9  -2 -20    0.21    0.54
  -9   2 -20    0.16    0.49
  -9   2 -20   -0.43    0.42
 -10  -2 -20   -0.31    0.53
 -10   2 -20   -0.04    0.43
  11   3 -20    0.82    0.58
 -11   3  20    0.32    0.50
 -10   3  20    2.83    0.66
  10   3 -20    4.50    0.84
  -9   3  20    0.42    0.42
   9   3 -20   -0.35    0.37
  -8   3  20    8.46    0.90
   8   3 -20    9.02    1.00
   7  -3 -20   -0.07    0.31
  -7   3  20    0.46    0.44
   7   3 -20    0.52    0.46
   6  -3 -20    0.77    0.35
  -6   3  20    1.35    0.46
   6   3 -20    0.87    0.43
   5  -3 -20   35.19    1.31
  -5   3  20   32.79    1.36
   5   3 -20   33.68    1.45
   5   3 -20   31.13    1.09
   4  -3 -20   97.43    2.51
   4   3 -20   96.66    2.23
  -4   3  20   97.55    2.60
   4   3 -20   97.09    2.73
   3  -3 -20   20.05    0.96
  -3   3  20   19.79    1.00
   3   3 -20   18.97    1.01
   3   3 -20   18.42    0.76
   2  -3 -20    3.08    0.47
   2   3 -20    2.60    0.34
  -2   3  20    2.92    0.47
   2   3 -20    2.77    0.50
   1  -3 -20    7.72    0.69
   1   3 -20    8.27    0.52
   1   3 -20    8.04    0.72
  -1   3  20    9.18    0.42
  -1   3  20    9.67    0.70
   0  -3 -20   -0.14    0.26
   0   3  20    0.09    0.27
   0   3 -20    0.11    0.20
   0   3 -20   -0.24    0.22
  -1  -3 -20    2.07    0.45
  -1   3 -20    1.81    0.34
   1   3  20    2.04    0.41
  -1   3 -20    2.30    0.42
  -2  -3 -20   51.63    1.77
  -2   3 -20   54.72    1.60
  -2   3 -20   50.52    1.67
  -3  -3 -20   53.33    1.89
  -3   3 -20   55.37    1.70
  -3   3 -20   54.29    1.76
  -4  -3 -20   28.07    1.38
  -4   3 -20   30.15    1.27
  -4   3 -20   31.78    1.32
  -5  -3 -20   12.17    1.10
  -5   3 -20   12.50    1.01
  -5   3 -20   10.79    0.93
  -6  -3 -20   17.82    1.20
  -6   3 -20   18.81    1.11
  -6   3 -20   19.64    1.12
  -7  -3 -20    4.91    0.80
  -7   3 -20    6.69    0.83
  -7   3 -20    5.07    0.73
  -8  -3 -20   -0.19    0.45
  -8   3 -20    0.08    0.45
  -9  -3 -20   -0.37    0.47
  -9   3 -20    1.21    0.55
 -10  -3 -20    3.36    0.87
 -10   3 -20    2.71    0.72
 -11   4  20    1.83    0.69
  11   4 -20    2.23    0.71
 -10   4  20   15.37    1.30
  10   4 -20   15.14    1.47
   9   4 -20    1.15    0.61
  -9   4  20    0.27    0.47
   8   4 -20    6.76    0.91
  -8   4  20    4.90    0.75
  -7   4  20    0.51    0.45
   7   4 -20    1.97    0.60
   6   4 -20    9.61    0.96
  -6   4  20    7.11    0.80
   5   4 -20    5.23    0.57
   5   4 -20    4.83    0.70
  -5   4  20    4.20    0.64
   4  -4 -20   31.90    1.23
   4   4 -20   33.17    1.46
  -4   4  20   34.42    1.43
   4   4 -20   34.57    1.19
   3  -4 -20   18.01    0.92
  -3   4  20   19.56    1.05
   3   4 -20   20.33    0.88
   3   4 -20   18.08    1.06
   2  -4 -20    0.41    0.32
  -2   4  20    0.84    0.37
   2   4 -20    0.02    0.32
   2   4 -20    0.27    0.25
   1  -4 -20   34.83    1.33
  -1   4  20   34.20    1.04
   1   4 -20   35.40    1.21
  -1   4  20   35.25    1.41
   1   4 -20   35.72    1.38
   0  -4 -20   45.42    1.58
   0   4  20   44.66    1.27
   0   4 -20   46.12    1.58
   0   4  20   44.16    1.58
   0   4 -20   47.09    1.47
  -1  -4 -20   15.21    0.91
   1   4  20   16.38    0.92
  -1   4 -20   15.96    0.89
  -1   4 -20   14.11    0.82
  -2  -4 -20    0.39    0.39
  -2   4 -20    0.09    0.29
  -2   4 -20   -0.18    0.25
  -3  -4 -20    0.11    0.33
  -3   4 -20   -0.28    0.27
  -3   4 -20    0.24    0.29
  -4  -4 -20    8.41    0.93
  -4   4 -20    9.59    0.84
  -4   4 -20    7.10    0.75
  -5  -4 -20    9.51    1.02
  -5   4 -20    9.04    0.88
  -5   4 -20    8.45    0.90
  -6  -4 -20    0.56    0.47
  -6   4 -20    1.41    0.50
  -7  -4 -20    1.87    0.69
  -7   4 -20    2.17    0.56
  -8  -4 -20    3.74    0.84
  -8   4 -20    2.93    0.72
  -9  -4 -20    2.51    0.82
  -9   4 -20    2.98    0.70
 -10   5  20   11.00    1.17
  10   5 -20   11.75    1.28
  -9   5  20   -0.09    0.48
   9   5 -20   -0.11    0.51
  -8   5  20    0.88    0.51
   8   5 -20    1.10    0.52
   7   5 -20    1.65    0.55
  -7   5  20    1.70    0.55
  -6   5  20    8.63    0.95
   6   5 -20    7.39    0.74
   6   5 -20    6.07    0.87
   5   5 -20   79.26    2.17
  -5   5  20   72.01    2.36
   5   5 -20   70.93    2.40
   4   5 -20    4.14    0.57
  -4   5  20    3.49    0.67
   4   5 -20    4.44    0.68
  -3   5  20   12.64    1.04
   3   5 -20   11.85    0.96
   3   5 -20   11.18    0.76
   2   5 -20   37.19    1.49
  -2   5  20   38.44    1.55
   2   5 -20   39.73    1.40
   1  -5 -20    1.70    0.42
  -1   5  20    2.13    0.50
   1   5 -20    1.94    0.41
   1   5 -20    2.26    0.47
   0  -5 -20    9.81    0.83
   0   5 -20    8.68    0.78
   0   5  20   10.50    0.65
   0   5 -20    7.86    0.72
   0   5  20    8.08    0.80
  -1  -5 -20   -0.02    0.32
   1   5  20    0.21    0.27
  -1   5 -20   -0.05    0.29
  -1   5 -20    0.51    0.32
   1   5  20    0.32    0.33
  -2  -5 -20    0.23    0.35
   2   5  20    0.07    0.34
   2   5  20    0.21    0.30
  -2   5 -20    0.78    0.35
  -2   5 -20    0.53    0.37
  -3  -5 -20   12.68    1.09
  -3   5 -20   13.14    1.03
  -4  -5 -20   24.25    1.37
  -4   5 -20   22.28    1.19
  -5  -5 -20   37.01    1.71
  -5   5 -20   35.92    1.59
  -6  -5 -20    6.82    0.97
  -6   5 -20    7.53    0.92
  -7  -5 -20    1.09    0.58
  -7   5 -20    1.29    0.50
  -8  -5 -20    2.99    0.81
  -8   5 -20    3.22    0.70
  -9  -5 -20   -0.16    0.54
  -9   5 -20    1.29    0.57
 -10   6  20    0.92    0.60
   9   6 -20    9.33    1.19
  -9   6  20   12.80    1.31
   8   6 -20    7.29    1.03
  -8   6  20    6.78    0.95
   7   6 -20    0.84    0.56
   7   6 -20    0.93    0.50
  -7   6  20    1.25    0.55
   6   6 -20   -0.01    0.40
  -6   6  20    0.62    0.45
   6   6 -20    0.83    0.40
   5   6 -20    0.26    0.40
   5   6 -20    0.26    0.31
  -5   6  20    0.34    0.41
   4   6 -20    1.52    0.51
  -4   6  20    3.57    0.68
   4   6 -20    2.29    0.50
   3   6 -20   10.31    0.89
  -3   6  20   11.21    1.03
   3   6 -20   10.73    0.98
   2   6 -20    0.49    0.36
   2   6 -20    1.07    0.42
  -2   6  20    0.38    0.39
  -1   6  20    6.28    0.75
   1   6 -20    7.12    0.73
   1   6 -20    7.28    0.75
   0   6 -20    1.25    0.42
   0   6  20    0.73    0.44
   0   6  20    0.79    0.35
   1   6  20   34.41    1.35
  -1   6 -20   38.30    1.51
   1   6  20   36.98    1.53
  -2  -6 -20   30.11    1.40
   2   6  20   31.62    1.38
   2   6  20   29.66    1.28
  -2   6 -20   32.33    1.41
  -3  -6 -20   -0.36    0.36
  -3   6 -20    0.57    0.37
  -4  -6 -20    0.23    0.41
  -4   6 -20    1.07    0.46
  -5  -6 -20    0.19    0.47
  -5   6 -20    0.18    0.41
  -6  -6 -20    1.57    0.64
  -6   6 -20    2.34    0.59
  -7  -6 -20   -0.25    0.51
  -7   6 -20    0.71    0.47
  -8  -6 -20    0.42    0.67
  -8   6 -20    0.31    0.56
   8   7 -20    0.00    0.47
  -8   7  20    0.65    0.53
   7   7 -20    4.02    0.71
  -7   7  20    3.10    0.73
   7   7 -20    3.72    0.79
   6   7 -20    6.69    0.93
  -6   7  20    7.97    0.99
   6   7 -20    6.53    0.84
  -5   7  20    0.14    0.43
   5   7 -20    0.45    0.40
   5   7 -20    0.54    0.43
   4   7 -20    3.62    0.66
  -4   7  20    3.80    0.69
   4   7 -20    3.12    0.61
  -3   7  20    0.26    0.42
   3   7 -20    1.11    0.45
   2   7 -20    5.73    0.75
  -2   7  20    3.88    0.70
   1   7 -20   12.35    1.07
  -1   7  20   11.67    1.04
   0   7 -20    3.87    0.67
   0   7  20    3.32    0.62
  -1   7 -20    1.75    0.53
   1   7  20    2.47    0.51
   1   7  20    1.50    0.49
   2   7  20    8.93    0.86
  -2   7 -20    8.00    0.89
   3   7  20   17.69    1.10
  -3   7 -20   16.91    1.13
  -4   7 -20   -0.31    0.37
  -5  -7 -20    3.04    0.73
  -5   7 -20    3.25    0.69
  -6  -7 -20   11.91    1.24
  -6   7 -20   11.36    1.21
  -7  -7 -20    0.12    0.50
  -7   7 -20    0.42    0.52
  -7   8  20    3.79    0.82
   7   8 -20    2.37    0.76
   7   8 -20    3.85    0.77
   6   8 -20    3.31    0.70
  -6   8  20    3.57    0.79
  -5   8  20    6.44    0.97
   5   8 -20    6.17    0.90
   4   8 -20    1.85    0.54
  -4   8  20    1.23    0.58
  -3   8  20    2.19    0.61
   3   8 -20    2.46    0.60
  -2   8  20    1.09    0.52
   2   8 -20    1.03    0.52
  -1   8  20    4.91    0.79
   1   8 -20    5.98    0.82
   0   8 -20    5.78    0.82
   0   8  20    5.24    0.80
  -1   8 -20    0.49    0.41
  -2   8 -20    3.07    0.66
   2   8  20    4.49    0.74
   3   8  20    1.77    0.56
  -3   8 -20    2.15    0.61
  -4   8 -20    0.75    0.55
   4   8  20    0.67    0.53
  -5   8 -20    2.59    0.72
  -5   9  20    1.19    0.62
   5   9 -20    2.03    0.60
   4   9 -20   -0.43    0.35
  -4   9  20    0.19    0.51
  -3   9  20    0.80    0.54
   3   9 -20    0.36    0.47
   2   9 -20    2.51    0.63
  -2   9  20    4.51    0.85
  -1   9  20    2.62    0.72
   1   9 -20    1.95    0.60
   0   9 -20    0.41    0.50
  -1   9 -20   -0.17    0.46
  -2   9 -20    0.38    0.51
  -3   9 -20   10.25    1.13
   4   9  20    4.44    0.84
  12   0 -21   -0.10    0.55
  11   0 -21    0.13    0.50
  10   0 -21    0.43    0.47
   9   0 -21    1.65    0.57
   8   0 -21    0.29    0.36
   7   0 -21   68.09    2.26
  -7   0  21   69.87    1.97
  -6   0  21   -0.32    0.25
   6   0 -21    0.47    0.40
   5   0 -21    0.87    0.37
  -5   0  21    1.06    0.34
  -4   0  21    0.10    0.21
   4   0 -21   -0.10    0.25
   3   0 -21   37.05    1.41
  -3   0  21   38.67    1.28
  -2   0  21   -0.06    0.21
   2   0 -21   -0.11    0.24
   1   0 -21    1.41    0.16
   1   0 -21    1.77    0.40
   0   0 -21    0.25    0.13
   0   0 -21    0.67    0.34
  -1   0 -21   97.86    2.09
  -1   0 -21   96.04    2.59
  -2   0 -21    0.31    0.31
  -3   0 -21   15.59    0.95
  -4   0 -21   -0.05    0.33
  -5   0 -21    2.32    0.56
  -6   0 -21   -0.31    0.37
  -7   0 -21   10.75    1.06
  -8   0 -21   -0.68    0.41
  -9   0 -21   15.58    1.44
 -10   0 -21    0.62    0.57
  12   1 -21    1.16    0.65
  11  -1 -21    0.38    0.49
  11   1 -21    1.75    0.63
  10  -1 -21    0.70    0.46
  10   1 -21    0.85    0.55
   9  -1 -21    0.36    0.42
   9   1 -21    0.56    0.46
   8  -1 -21    3.70    0.64
   8   1 -21    3.37    0.65
  -8   1  21    3.63    0.56
   7  -1 -21   15.26    0.99
   7   1 -21   15.73    1.07
  -7   1  21   16.79    0.95
  -6  -1  21    2.84    0.44
   6  -1 -21    1.80    0.51
  -6   1  21    2.46    0.50
   6   1 -21    3.46    0.62
   5  -1 -21    0.26    0.33
  -5  -1  21   -0.04    0.22
   5   1 -21    0.69    0.38
  -5   1  21    0.67    0.33
   4  -1 -21   24.14    1.13
  -4  -1  21   24.28    0.96
  -4   1  21   24.58    1.05
   4   1 -21   24.24    1.16
   3  -1 -21    6.77    0.69
   3   1 -21    4.90    0.60
  -3   1  21    4.40    0.53
   2  -1 -21   72.12    2.10
   2   1 -21   75.62    2.15
  -2   1  21   72.20    1.99
   2   1 -21   72.07    1.48
   1  -1 -21    1.79    0.40
   1   1 -21    1.85    0.44
  -1   1  21    1.85    0.40
   1   1 -21    2.08    0.24
   0  -1 -21    0.05    0.25
   0   1 -21    0.27    0.17
   0   1 -21    0.81    0.34
  -1  -1 -21   22.05    1.07
  -1   1 -21   20.04    1.02
  -1   1 -21   19.86    0.75
  -2  -1 -21    0.16    0.31
  -2   1 -21    0.10    0.20
  -2   1 -21    0.40    0.30
  -3  -1 -21    6.41    0.71
  -3   1 -21    8.05    0.65
  -3   1 -21    6.42    0.70
  -4  -1 -21   26.41    1.30
  -4   1 -21   27.62    1.28
  -5  -1 -21   39.00    1.66
  -5   1 -21   41.50    1.65
  -6  -1 -21   17.51    1.16
  -6   1 -21   16.79    1.14
  -7  -1 -21    2.52    0.63
  -7   1 -21    1.41    0.51
  -8  -1 -21    9.24    1.11
  -8   1 -21    6.26    0.92
  -9  -1 -21   -0.38    0.46
  -9   1 -21    1.12    0.63
 -10  -1 -21   -0.17    0.56
 -10   1 -21    0.56    0.62
  12   2 -21    5.43    1.00
  11   2 -21    1.18    0.62
 -10   2  21   10.80    1.05
  10   2 -21    9.95    1.14
   9  -2 -21    0.82    0.41
   9   2 -21    1.17    0.57
  -9   2  21    0.58    0.44
   8  -2 -21   37.82    1.60
   8   2 -21   38.73    1.79
  -8   2  21   41.74    1.60
   7  -2 -21    5.97    0.73
   7   2 -21    5.97    0.79
  -7   2  21    6.15    0.74
   6  -2 -21    2.54    0.50
   6   2 -21    2.69    0.61
  -6   2  21    3.82    0.60
   5  -2 -21  135.88    3.36
   5   2 -21  139.96    3.55
  -5   2  21  139.96    3.34
   4  -2 -21    2.49    0.45
  -4   2  21    3.18    0.51
   4   2 -21    2.36    0.49
   3  -2 -21    1.61    0.40
   3   2 -21    2.33    0.47
   3   2 -21    2.05    0.26
  -3   2  21    2.14    0.45
   2  -2 -21    2.90    0.49
   2   2 -21    3.43    0.54
  -2   2  21    2.93    0.47
   2   2 -21    2.84    0.30
   1  -2 -21    1.36    0.38
   1   2 -21    1.70    0.27
   1   2 -21    0.96    0.37
  -1   2  21    1.72    0.38
   0  -2 -21   15.17    0.88
   0   2  21   15.76    0.85
   0   2 -21   16.48    0.90
   0   2 -21   15.52    0.66
  -1  -2 -21    7.47    0.73
  -1   2 -21    8.86    0.78
  -1   2 -21    6.83    0.49
  -2  -2 -21    0.43    0.33
  -2   2 -21    0.00    0.26
  -2   2 -21    0.01    0.21
  -3  -2 -21    3.11    0.58
  -3   2 -21    2.15    0.47
  -3   2 -21    2.92    0.45
  -4  -2 -21    6.23    0.76
  -4   2 -21    8.94    0.77
  -4   2 -21    9.12    0.88
  -5  -2 -21    0.49    0.48
  -5   2 -21    1.96    0.49
  -5   2 -21    1.67    0.50
  -6  -2 -21    0.46    0.43
  -6   2 -21    0.33    0.41
  -6   2 -21   -0.45    0.26
  -7  -2 -21    0.18    0.48
  -7   2 -21    0.82    0.42
  -7   2 -21    1.35    0.54
  -8  -2 -21    1.52    0.62
  -8   2 -21    3.64    0.70
  -8   2 -21    2.62    0.66
  -9  -2 -21    2.53    0.75
  -9   2 -21    2.07    0.61
  -9   2 -21    2.94    0.73
 -10  -2 -21    0.92    0.59
 -10   2 -21    2.03    0.68
  11   3 -21   12.86    1.37
 -10   3  21    0.14    0.47
  10   3 -21    0.16    0.55
  -9   3  21    8.98    0.96
   9   3 -21    7.08    0.95
  -8   3  21   -0.23    0.40
   8   3 -21    0.11    0.42
   7  -3 -21   21.86    1.14
   7   3 -21   21.45    1.28
  -7   3  21   23.52    1.24
   6  -3 -21   11.50    0.83
   6   3 -21   10.72    1.00
  -6   3  21   10.87    0.97
   5  -3 -21   12.50    0.83
   5   3 -21   13.60    0.99
  -5   3  21   11.90    0.86
   4  -3 -21    5.55    0.62
   4   3 -21    5.21    0.70
   4   3 -21    6.54    0.54
  -4   3  21    5.67    0.67
   3  -3 -21    1.87    0.41
   3   3 -21    2.06    0.47
  -3   3  21    1.73    0.43
   3   3 -21    1.68    0.30
   2  -3 -21    1.09    0.34
  -2   3  21    1.35    0.39
   2   3 -21    0.65    0.34
   2   3 -21    1.07    0.27
   1  -3 -21    9.25    0.79
   1   3 -21   10.07    0.59
  -1   3  21   10.68    0.75
   1   3 -21    8.34    0.75
   0  -3 -21    0.45    0.33
   0   3 -21    0.20    0.31
   0   3 -21   -0.07    0.18
   0   3  21    0.27    0.27
  -1  -3 -21    2.17    0.45
  -1   3 -21    2.36    0.38
   1   3  21    2.83    0.48
  -1   3 -21    2.34    0.46
  -2  -3 -21   20.27    1.12
  -2   3 -21   18.76    0.98
  -2   3 -21   17.87    0.89
  -3  -3 -21    2.44    0.55
  -3   3 -21    2.16    0.42
  -3   3 -21    2.39    0.50
  -4  -3 -21    8.89    0.91
  -4   3 -21   10.26    0.87
  -4   3 -21    8.23    0.82
  -5  -3 -21    7.09    0.87
  -5   3 -21    7.88    0.82
  -5   3 -21    9.87    0.89
  -6  -3 -21    9.68    1.07
  -6   3 -21    9.01    0.89
  -6   3 -21    9.21    0.89
  -7  -3 -21    1.05    0.56
  -7   3 -21    0.05    0.39
  -7   3 -21    0.34    0.38
  -8  -3 -21   17.26    1.53
  -8   3 -21   18.11    1.26
  -9  -3 -21    0.08    0.55
  -9   3 -21   -0.21    0.37
 -10  -3 -21    0.34    0.61
 -10   3 -21   -0.07    0.45
 -11   4  21   -0.16    0.50
  11   4 -21   -0.84    0.41
 -10   4  21    0.66    0.55
  10   4 -21   -0.17    0.52
   9   4 -21   15.99    1.44
  -9   4  21   16.21    1.15
  -8   4  21   17.72    1.20
   8   4 -21   15.38    1.33
  -7   4  21   29.31    1.43
   7   4 -21   26.13    1.47
   6   4 -21    0.82    0.48
  -6   4  21    0.49    0.40
  -5   4  21    3.84    0.68
   5   4 -21    3.56    0.67
   5   4 -21    4.72    0.54
   4  -4 -21    0.16    0.27
  -4   4  21    0.01    0.33
   4   4 -21    0.85    0.45
   4   4 -21   -0.28    0.22
   3  -4 -21    8.66    0.74
   3   4 -21    7.11    0.79
   3   4 -21    6.75    0.60
  -3   4  21    7.38    0.79
   2  -4 -21    1.48    0.39
   2   4 -21    0.42    0.37
  -2   4  21    1.70    0.50
   2   4 -21    1.25    0.32
   1  -4 -21   12.35    0.84
   1   4 -21   14.87    0.78
  -1   4  21   14.48    0.90
   1   4 -21   14.02    0.90
   0  -4 -21   45.47    1.58
   0   4 -21   41.74    1.40
   0   4  21   43.54    1.60
   0   4 -21   42.13    1.54
   0   4  21   44.59    1.25
  -1  -4 -21   28.26    1.25
   1   4  21   24.82    1.20
  -1   4 -21   25.88    1.16
  -1   4 -21   25.67    1.10
  -2  -4 -21   35.57    1.51
  -2   4 -21   35.55    1.40
  -2   4 -21   38.19    1.38
  -3  -4 -21   31.07    1.45
  -3   4 -21   28.83    1.25
  -3   4 -21   27.90    1.24
  -4  -4 -21    0.28    0.40
  -4   4 -21    0.00    0.27
  -4   4 -21   -0.08    0.32
  -5  -4 -21    2.73    0.64
  -5   4 -21    3.53    0.62
  -5   4 -21    3.18    0.58
  -6  -4 -21    0.01    0.44
  -6   4 -21   -0.07    0.31
  -7  -4 -21    1.23    0.61
  -7   4 -21    1.38    0.53
  -8  -4 -21    0.87    0.62
  -8   4 -21    1.46    0.53
  -9  -4 -21    0.83    0.68
  -9   4 -21    0.44    0.49
 -10   5  21    0.81    0.55
  10   5 -21    0.87    0.62
  -9   5  21    0.36    0.52
   9   5 -21    0.98    0.61
  -8   5  21    4.25    0.75
   8   5 -21    4.24    0.77
  -7   5  21    1.51    0.57
   7   5 -21    1.19    0.54
  -6   5  21   -0.35    0.36
   6   5 -21    0.15    0.41
   5   5 -21    0.05    0.27
   5   5 -21    0.38    0.43
  -5   5  21   -0.40    0.38
  -4   5  21    0.69    0.43
   4   5 -21    0.82    0.46
   4   5 -21    1.20    0.38
  -3   5  21    8.11    0.84
   3   5 -21    9.29    0.76
   3   5 -21    8.57    0.84
   2   5 -21   29.50    1.33
  -2   5  21   31.25    1.41
   2   5 -21   28.62    1.19
   1  -5 -21   10.60    0.86
  -1   5  21    9.24    0.87
   1   5 -21    9.57    0.79
   1   5 -21   10.43    0.91
   0  -5 -21   31.68    1.34
   0   5  21   32.67    1.40
   0   5 -21   32.23    1.33
   0   5 -21   33.49    1.30
  -1  -5 -21   32.13    1.39
  -1   5 -21   31.38    1.29
   1   5  21   29.93    1.15
  -1   5 -21   31.45    1.29
   1   5  21   30.40    1.36
  -2  -5 -21    7.67    0.82
   2   5  21    8.45    0.81
  -2   5 -21    6.56    0.73
  -2   5 -21    8.88    0.79
  -3  -5 -21    0.25    0.44
  -3   5 -21    0.09    0.36
  -4  -5 -21    7.80    0.90
  -4   5 -21    6.93    0.79
  -5  -5 -21   24.01    1.41
  -5   5 -21   23.48    1.31
  -6  -5 -21    5.46    0.86
  -6   5 -21    5.95    0.80
  -7  -5 -21    0.43    0.54
  -7   5 -21    0.03    0.43
  -8  -5 -21   15.37    1.48
  -8   5 -21   14.11    1.34
  -9  -5 -21    0.09    0.58
  -9   5 -21    1.49    0.66
   9   6 -21    0.36    0.58
  -9   6  21    0.93    0.62
  -8   6  21    1.86    0.61
   8   6 -21    1.58    0.66
   7   6 -21    1.72    0.60
  -7   6  21    3.44    0.72
   6   6 -21   14.11    0.96
   6   6 -21   15.52    1.30
  -6   6  21   14.17    1.26
   5   6 -21    0.36    0.38
  -5   6  21    0.57    0.49
   5   6 -21    0.08    0.43
  -4   6  21    3.78    0.67
   4   6 -21    3.96    0.58
   4   6 -21    3.71    0.65
  -3   6  21    4.66    0.75
   3   6 -21    4.73    0.70
   3   6 -21    4.27    0.60
   2   6 -21   26.61    1.20
  -2   6  21   25.68    1.34
   2   6 -21   26.61    1.27
  -1   6  21    6.28    0.78
   1   6 -21    6.26    0.70
   1   6 -21    8.00    0.79
   0   6  21    8.36    0.87
   0   6 -21    6.02    0.69
  -1   6 -21    1.02    0.39
   1   6  21    0.92    0.37
   1   6  21    1.43    0.46
  -2  -6 -21    1.02    0.44
   2   6  21    1.14    0.41
   2   6  21    1.95    0.49
  -2   6 -21    1.96    0.47
  -3  -6 -21   17.71    1.17
  -3   6 -21   16.21    1.08
  -4  -6 -21    4.69    0.79
  -4   6 -21    5.60    0.79
  -5  -6 -21    4.98    0.85
  -5   6 -21    4.11    0.73
  -6  -6 -21    0.48    0.56
  -6   6 -21    0.86    0.52
  -7  -6 -21    6.21    1.01
  -7   6 -21    8.21    1.02
  -8  -6 -21    2.11    0.81
  -8   6 -21    1.94    0.67
   8   7 -21    2.39    0.72
  -8   7  21    3.55    0.81
   7   7 -21    2.49    0.73
  -7   7  21    2.78    0.69
   6   7 -21   16.52    1.11
   6   7 -21   17.69    1.44
  -6   7  21   14.43    1.31
  -5   7  21    6.99    0.93
   5   7 -21    7.90    0.97
   5   7 -21    8.78    0.93
   4   7 -21    5.46    0.74
   4   7 -21    6.23    0.83
  -4   7  21    6.05    0.86
  -3   7  21   16.70    1.17
   3   7 -21   20.03    1.13
  -2   7  21    7.57    0.96
   2   7 -21    7.33    0.81
   1   7 -21    6.43    0.80
  -1   7  21    8.79    0.94
   0   7  21    7.21    0.87
   0   7 -21    7.21    0.84
  -1   7 -21    1.32    0.52
   1   7  21    1.08    0.46
   2   7  21    1.02    0.47
  -2   7 -21    0.54    0.41
  -3   7 -21    8.81    0.95
   3   7  21    6.94    0.82
  -4   7 -21    4.20    0.77
  -5  -7 -21    2.13    0.71
  -5   7 -21    0.65    0.45
  -6  -7 -21    1.96    0.67
  -6   7 -21    2.61    0.68
  -7  -7 -21    0.62    0.56
  -7   7 -21   -0.08    0.49
  -6   8  21    2.74    0.77
   6   8 -21    1.54    0.56
   5   8 -21    2.59    0.67
  -5   8  21    4.28    0.88
  -4   8  21    1.13    0.54
   4   8 -21    1.40    0.55
   3   8 -21    2.86    0.63
  -3   8  21    2.22    0.62
  -2   8  21    1.34    0.55
   2   8 -21    1.13    0.49
  -1   8  21    2.12    0.60
   1   8 -21    1.53    0.49
   0   8  21    1.94    0.61
   0   8 -21    2.45    0.61
  -1   8 -21    5.01    0.77
  -2   8 -21    0.73    0.46
   3   8  21    0.99    0.47
  -3   8 -21    2.36    0.58
  -4   8 -21    3.12    0.71
  -5   8 -21    0.19    0.52
   5   9 -21    0.95    0.58
  -4   9  21   -1.16    0.45
   4   9 -21   -0.31    0.39
  -3   9  21   -0.18    0.44
   3   9 -21   -0.11    0.46
  -2   9  21    0.37    0.54
   2   9 -21    0.66    0.43
   1   9 -21    0.30    0.43
  -1   9  21    0.85    0.56
   0   9 -21    0.38    0.49
  -1   9 -21    9.59    1.11
  -2   9 -21    1.05    0.56
  -3   9 -21    1.92    0.63
  12   0 -22    0.66    0.64
  11   0 -22   -0.16    0.44
  10   0 -22   -0.03    0.44
   9   0 -22   -0.17    0.36
   8   0 -22    3.45    0.67
  -7   0  22   -0.59    0.26
   7   0 -22   -0.03    0.41
  -6   0  22   24.61    1.08
   6   0 -22   24.07    1.24
   5   0 -22   -0.07    0.28
  -5   0  22    0.25    0.30
   4   0 -22   54.60    1.84
  -4   0  22   57.56    1.69
  -3   0  22   -0.03    0.21
   3   0 -22   -0.14    0.29
   2   0 -22    2.32    0.47
   1   0 -22   -0.04    0.26
   0   0 -22    1.76    0.44
   0   0 -22    1.07    0.19
  -1   0 -22    0.61    0.20
  -1   0 -22    0.60    0.35
  -2   0 -22  167.12    3.94
  -3   0 -22    0.16    0.33
  -4   0 -22    0.41    0.42
  -5   0 -22    0.12    0.40
  -6   0 -22   43.29    1.84
  -7   0 -22   -0.60    0.33
  -8   0 -22    0.19    0.54
  -9   0 -22    0.68    0.60
 -10   0 -22    0.51    0.64
  12   1 -22    0.85    0.64
  11  -1 -22    0.50    0.46
  11   1 -22    0.64    0.51
  10  -1 -22   -0.05    0.42
  10   1 -22    0.60    0.54
   9  -1 -22   11.33    1.12
   9   1 -22    9.95    1.10
   8  -1 -22    0.02    0.40
  -8   1  22    0.02    0.34
   8   1 -22   -0.19    0.36
   7  -1 -22   17.54    1.11
  -7   1  22   19.46    1.03
   7   1 -22   17.49    1.17
   6  -1 -22    0.44    0.36
  -6  -1  22    0.60    0.29
  -6   1  22    1.23    0.42
   6   1 -22    0.96    0.44
  -5  -1  22   13.59    0.77
   5  -1 -22   14.06    0.92
  -5   1  22   11.86    0.82
   5   1 -22   12.14    0.89
   4  -1 -22    0.75    0.35
  -4  -1  22    1.04    0.33
   4   1 -22    0.90    0.41
  -4   1  22    1.18    0.35
   3  -1 -22    4.21    0.58
   3   1 -22    2.80    0.50
  -3   1  22    2.48    0.45
   2  -1 -22   39.00    1.47
  -2   1  22   40.07    1.38
   1  -1 -22    3.91    0.57
  -1   1  22    4.04    0.52
   1   1 -22    3.67    0.56
   1   1 -22    4.08    0.29
   0  -1 -22   99.88    2.66
   0   1 -22  100.98    2.12
   0   1 -22  100.15    2.66
  -1  -1 -22    0.25    0.29
  -1   1 -22    0.00    0.16
  -1   1 -22    0.28    0.30
  -2  -1 -22   35.57    1.45
  -2   1 -22   36.56    1.44
  -2   1 -22   32.37    1.09
  -3  -1 -22    5.64    0.70
  -3   1 -22    6.03    0.57
  -3   1 -22    6.75    0.75
  -4  -1 -22   30.24    1.41
  -4   1 -22   30.44    1.39
  -4   1 -22   28.77    1.17
  -5  -1 -22   -0.45    0.33
  -5   1 -22   -0.12    0.35
  -6  -1 -22    1.90    0.56
  -6   1 -22    3.19    0.65
  -7  -1 -22    0.47    0.49
  -7   1 -22    0.31    0.41
  -8  -1 -22    0.46    0.50
  -8   1 -22    0.28    0.51
  -9  -1 -22    5.70    0.97
  -9   1 -22    9.13    1.16
 -10  -1 -22    0.99    0.72
 -10   1 -22    0.33    0.64
  11   2 -22    0.50    0.59
  10   2 -22    2.22    0.69
   9  -2 -22    2.92    0.65
  -9   2  22    3.75    0.65
   9   2 -22    4.00    0.80
   8  -2 -22    0.61    0.43
  -8   2  22    0.28    0.41
   8   2 -22    0.01    0.44
   7  -2 -22   22.28    1.18
   7   2 -22   22.22    1.29
  -7   2  22   22.06    1.16
   6  -2 -22    0.23    0.35
  -6   2  22    0.41    0.39
   6   2 -22    0.74    0.46
   5  -2 -22   45.93    1.67
   5   2 -22   44.35    1.74
  -5   2  22   45.93    1.64
   4  -2 -22    2.63    0.50
   4   2 -22    2.72    0.52
  -4   2  22    3.03    0.51
   3  -2 -22    0.19    0.28
  -3   2  22   -0.05    0.27
   3   2 -22    0.14    0.33
   2  -2 -22   16.32    0.90
   2   2 -22   14.53    0.92
  -2   2  22   15.60    0.90
   2   2 -22   15.87    0.60
   1  -2 -22    3.40    0.53
   1   2 -22    2.81    0.48
  -1   2  22    1.97    0.40
   1   2 -22    3.43    0.35
   0  -2 -22    3.59    0.55
   0   2 -22    3.64    0.39
   0   2 -22    3.54    0.55
   0   2  22    4.00    0.55
  -1  -2 -22   14.74    0.92
  -1   2 -22   16.22    0.95
  -1   2 -22   16.58    0.73
  -2  -2 -22   10.04    0.88
  -2   2 -22   11.27    0.65
  -2   2 -22   12.47    0.85
  -3  -2 -22   79.10    2.38
  -3   2 -22   76.20    2.29
  -3   2 -22   75.03    2.05
  -4  -2 -22    4.30    0.72
  -4   2 -22    4.59    0.63
  -4   2 -22    5.02    0.59
  -5  -2 -22    7.77    0.89
  -5   2 -22    9.52    0.93
  -5   2 -22   10.03    0.87
  -6  -2 -22    4.66    0.76
  -6   2 -22    4.78    0.75
  -6   2 -22    4.72    0.69
  -7  -2 -22   12.66    1.21
  -7   2 -22   14.81    1.23
  -7   2 -22   12.66    1.13
  -8  -2 -22   10.21    1.18
  -8   2 -22    8.62    1.02
  -8   2 -22   11.16    1.11
  -9  -2 -22    4.45    0.89
  -9   2 -22    4.88    0.83
  -9   2 -22    4.79    0.82
 -10  -2 -22    1.41    0.76
 -10   2 -22    0.31    0.56
  11   3 -22    1.03    0.61
 -10   3  22   -0.10    0.48
  10   3 -22    0.81    0.61
  -9   3  22    2.39    0.62
   9   3 -22    1.52    0.58
  -8   3  22    2.72    0.57
   8   3 -22    0.76    0.52
   7  -3 -22    4.63    0.66
  -7   3  22    4.27    0.67
   7   3 -22    6.66    0.84
   6  -3 -22   72.01    2.15
   6   3 -22   63.45    2.30
  -6   3  22   69.82    2.22
   5  -3 -22    8.17    0.76
   5   3 -22    7.68    0.86
  -5   3  22    8.53    0.83
   4  -3 -22   19.79    1.02
  -4   3  22   21.36    1.14
   4   3 -22   20.85    1.15
   3  -3 -22    9.72    0.81
   3   3 -22    7.86    0.79
   3   3 -22    8.64    0.53
  -3   3  22    7.89    0.76
   2  -3 -22    1.35    0.38
   2   3 -22    2.27    0.50
   2   3 -22    1.79    0.31
  -2   3  22    2.20    0.49
   1  -3 -22   23.92    1.13
   1   3 -22   24.78    0.92
  -1   3  22   23.94    1.12
   1   3 -22   23.22    1.13
   0  -3 -22    0.84    0.39
   0   3 -22    0.82    0.27
   0   3  22    0.84    0.37
   0   3 -22    0.62    0.32
  -1  -3 -22   11.62    0.85
   1   3  22   11.85    0.84
  -1   3 -22   10.91    0.81
  -1   3 -22   11.36    0.67
  -2  -3 -22    3.00    0.58
  -2   3 -22    2.83    0.45
  -2   3 -22    2.43    0.48
  -3  -3 -22    3.08    0.63
  -3   3 -22    3.00    0.47
  -3   3 -22    2.59    0.54
  -4  -3 -22   21.43    1.29
  -4   3 -22   24.89    1.23
  -4   3 -22   24.09    1.15
  -5  -3 -22   14.57    1.08
  -5   3 -22   13.84    0.96
  -5   3 -22   15.08    1.01
  -6  -3 -22    2.33    0.64
  -6   3 -22    2.27    0.56
  -6   3 -22    1.54    0.47
  -7  -3 -22    2.51    0.69
  -7   3 -22    1.88    0.54
  -7   3 -22    1.95    0.54
  -8  -3 -22    4.34    0.87
  -8   3 -22    1.88    0.63
  -9  -3 -22    0.24    0.53
  -9   3 -22   -0.30    0.37
 -10   3 -22    3.46    0.76
 -11   4  22    0.54    0.57
 -10   4  22    1.51    0.64
  10   4 -22    2.26    0.79
  -9   4  22    9.11    1.05
   9   4 -22   10.92    1.22
   8   4 -22    8.75    1.05
  -8   4  22    7.23    0.90
  -7   4  22   -0.12    0.42
   7   4 -22    0.04    0.40
   6   4 -22    5.24    0.81
  -6   4  22    6.03    0.82
   5   4 -22   24.83    1.32
  -5   4  22   24.53    1.29
   4  -4 -22    4.56    0.58
   4   4 -22    5.11    0.73
   4   4 -22    3.80    0.48
  -4   4  22    5.42    0.76
   3  -4 -22    9.19    0.79
   3   4 -22   11.67    0.99
   3   4 -22   10.73    0.66
  -3   4  22    9.90    0.88
   2  -4 -22    1.60    0.42
   2   4 -22    1.69    0.45
   2   4 -22    2.41    0.40
  -2   4  22    2.37    0.50
   1  -4 -22    1.03    0.40
   1   4 -22    0.96    0.32
   1   4 -22    0.49    0.35
  -1   4  22    1.05    0.40
   0  -4 -22    9.36    0.85
   0   4 -22   10.73    0.71
   0   4  22   11.32    0.95
   0   4 -22   11.31    0.92
  -1  -4 -22    1.85    0.52
   1   4  22    1.45    0.41
  -1   4 -22    1.80    0.45
  -1   4 -22    2.17    0.41
  -2  -4 -22   25.90    1.32
  -2   4 -22   26.93    1.17
  -2   4 -22   26.65    1.22
  -3  -4 -22   30.42    1.50
  -3   4 -22   35.30    1.38
  -3   4 -22   35.43    1.42
  -4  -4 -22   19.03    1.20
  -4   4 -22   17.43    1.03
  -4   4 -22   17.89    1.05
  -5  -4 -22    1.36    0.54
  -5   4 -22    1.61    0.48
  -6  -4 -22    2.58    0.65
  -6   4 -22    3.25    0.63
  -7  -4 -22   15.85    1.46
  -7   4 -22   14.82    1.27
  -8  -4 -22    1.55    0.67
  -8   4 -22    0.93    0.52
  -9  -4 -22    0.29    0.63
  -9   4 -22    0.34    0.53
 -10   5  22    9.92    1.12
  10   5 -22    9.57    1.19
  -9   5  22    7.39    0.95
   9   5 -22   10.22    1.22
   8   5 -22    0.42    0.50
  -8   5  22    0.62    0.56
  -7   5  22    1.35    0.54
   7   5 -22    1.47    0.59
   6   5 -22    4.03    0.71
  -6   5  22    4.18    0.72
  -5   5  22    0.66    0.42
   5   5 -22    1.19    0.49
   5   5 -22    0.95    0.36
   4   5 -22   18.88    1.13
  -4   5  22   16.88    1.12
   4   5 -22   17.49    0.92
   3   5 -22    0.20    0.29
   3   5 -22    0.51    0.40
  -3   5  22   -0.06    0.40
  -2   5  22    5.23    0.72
   2   5 -22    5.13    0.60
   2   5 -22    6.87    0.78
   1  -5 -22    2.07    0.45
  -1   5  22    0.83    0.40
   1   5 -22    2.05    0.43
   1   5 -22    1.82    0.48
   0  -5 -22    1.52    0.47
   0   5  22    1.47    0.46
   0   5 -22    1.50    0.39
   0   5 -22    0.94    0.41
  -1  -5 -22    0.89    0.43
  -1   5 -22    0.22    0.33
  -1   5 -22    0.38    0.34
   1   5  22    0.71    0.32
   1   5  22    0.48    0.35
  -2  -5 -22    0.51    0.43
  -2   5 -22    0.42    0.33
   2   5  22    0.58    0.37
  -2   5 -22    0.24    0.35
  -3  -5 -22   12.33    1.12
  -3   5 -22   13.85    0.93
  -4  -5 -22    3.23    0.67
  -4   5 -22    3.44    0.61
  -5  -5 -22   11.71    1.15
  -5   5 -22   12.03    1.07
  -6  -5 -22    8.26    1.02
  -6   5 -22    7.21    0.90
  -7  -5 -22    5.26    0.90
  -7   5 -22    5.30    0.80
  -8  -5 -22    5.57    0.97
  -8   5 -22    5.17    0.82
   9   6 -22    5.42    0.98
  -9   6  22    3.99    0.86
   8   6 -22    0.02    0.57
  -8   6  22   -0.13    0.43
  -7   6  22    1.06    0.57
   7   6 -22    0.74    0.52
  -6   6  22   16.61    1.36
   6   6 -22   15.63    1.33
  -5   6  22   11.73    1.11
   5   6 -22   11.58    0.98
   5   6 -22    9.06    1.00
   4   6 -22    0.93    0.50
  -4   6  22    0.41    0.44
   4   6 -22    1.55    0.46
   3   6 -22    0.94    0.46
   3   6 -22    1.57    0.46
  -3   6  22    2.27    0.60
  -2   6  22    4.54    0.68
   2   6 -22    5.83    0.67
   2   6 -22    5.12    0.70
  -1   6  22    0.98    0.44
   1   6 -22    0.85    0.41
   1   6 -22    1.07    0.42
   0   6 -22   21.52    1.12
   0   6  22   22.26    1.24
  -1   6 -22    0.89    0.39
   1   6  22    0.38    0.41
  -2  -6 -22    1.94    0.56
  -2   6 -22    2.12    0.51
   2   6  22    0.70    0.42
   2   6  22    1.47    0.43
  -3  -6 -22   24.97    1.36
  -3   6 -22   23.99    1.30
  -4  -6 -22    1.69    0.60
  -4   6 -22    1.60    0.50
  -5   6 -22    5.83    0.80
  -6  -6 -22    0.16    0.52
  -6   6 -22    0.18    0.41
  -7  -6 -22    0.27    0.57
  -7   6 -22   -0.27    0.35
  -8  -6 -22    3.33    0.90
  -8   6 -22    3.48    0.83
   8   7 -22    5.85    0.98
  -8   7  22    5.78    0.94
  -7   7  22    0.75    0.54
   7   7 -22    1.21    0.61
  -6   7  22    2.03    0.62
   5   7 -22    4.59    0.78
  -5   7  22    4.52    0.80
   5   7 -22    4.07    0.69
   4   7 -22    0.36    0.35
  -4   7  22   -0.46    0.38
   4   7 -22   -0.08    0.41
  -3   7  22    2.59    0.63
   3   7 -22    1.49    0.49
  -2   7  22    0.53    0.50
   2   7 -22    2.10    0.52
   1   7 -22   -0.28    0.35
  -1   7  22    0.33    0.39
   0   7 -22    1.70    0.52
   0   7  22    1.10    0.50
  -1   7 -22    9.02    0.94
   1   7  22    9.57    0.98
   2   7  22   -0.15    0.38
  -2   7 -22    0.23    0.37
  -3   7 -22    0.21    0.39
  -4   7 -22    2.06    0.57
  -5  -7 -22   -0.17    0.51
  -5   7 -22    0.70    0.49
  -6  -7 -22    1.43    0.65
  -6   7 -22    2.28    0.67
  -7  -7 -22    3.83    0.94
   6   8 -22    1.07    0.49
  -6   8  22    1.21    0.66
   5   8 -22    0.28    0.44
  -5   8  22    0.21    0.54
  -4   8  22    6.08    0.91
   4   8 -22    8.62    0.98
   3   8 -22    0.88    0.50
  -3   8  22    0.38    0.46
  -2   8  22    1.56    0.61
   2   8 -22    1.25    0.47
  -1   8  22    0.62    0.52
   1   8 -22    1.30    0.49
   0   8  22    6.81    0.88
   0   8 -22    7.43    0.93
  -1   8 -22    7.83    0.95
  -2   8 -22    0.74    0.43
  -3   8 -22    1.80    0.57
  -4   8 -22    4.03    0.78
  -5   8 -22   -0.15    0.42
   4   9 -22    1.19    0.59
  -4   9  22    2.16    0.71
  -3   9  22    0.86    0.59
   3   9 -22   -0.03    0.41
   2   9 -22    3.37    0.74
  -2   9  22    2.66    0.75
   1   9 -22    0.68    0.50
  -1   9  22    1.87    0.59
   0   9 -22    2.86    0.69
  -1   9 -22    3.51    0.76
  -2   9 -22   -0.53    0.42
  -3   9 -22    0.40    0.49
  12   0 -23    0.26    0.58
  11   0 -23    2.10    0.68
  10   0 -23   -0.34    0.44
   9   0 -23    5.24    0.82
   8   0 -23   -0.27    0.39
   7   0 -23   -0.11    0.34
  -7   0  23   -0.20    0.29
   6   0 -23    0.31    0.39
  -6   0  23    0.23    0.31
   5   0 -23   32.85    1.41
  -5   0  23   33.34    1.25
  -4   0  23    0.16    0.27
   4   0 -23   -0.19    0.29
   3   0 -23  109.26    2.90
  -3   0  23  109.96    2.68
   2   0 -23    0.43    0.31
   1   0 -23    2.60    0.49
   0   0 -23    0.19    0.28
   0   0 -23    0.23    0.14
  -1   0 -23    8.54    0.78
  -1   0 -23    8.66    0.48
  -2   0 -23    0.82    0.39
  -3   0 -23   55.34    1.92
  -4   0 -23   -0.31    0.37
  -5   0 -23  291.96    6.42
  -6   0 -23   -0.11    0.42
  -7   0 -23   17.10    1.25
  -8   0 -23   -0.85    0.43
  -9   0 -23    0.29    0.57
 -10   0 -23   -0.69    0.53
  12   1 -23    0.48    0.57
  11  -1 -23    1.34    0.61
  11   1 -23    0.75    0.53
  10  -1 -23   10.56    1.12
  10   1 -23   11.53    1.24
   9  -1 -23    3.10    0.69
   9   1 -23    2.28    0.67
   8  -1 -23   -0.18    0.40
   8   1 -23   -0.13    0.37
  -8   1  23    0.05    0.34
   7  -1 -23   10.80    0.98
   7   1 -23   12.19    1.10
  -7   1  23   13.93    0.92
  -6  -1  23   14.60    0.82
   6  -1 -23   14.90    0.99
  -6   1  23   17.74    0.99
   6   1 -23   15.67    1.05
   5  -1 -23   -0.22    0.29
  -5  -1  23    0.31    0.29
  -5   1  23   -0.04    0.32
   5   1 -23    0.11    0.34
   4  -1 -23   32.71    1.40
   4   1 -23   35.75    1.47
  -4   1  23   36.97    1.37
   3  -1 -23   31.73    1.33
   3   1 -23   31.15    1.32
  -3   1  23   30.04    1.21
   2  -1 -23   15.23    0.91
   2   1 -23   16.00    0.94
  -2   1  23   16.61    0.91
   1  -1 -23    6.47    0.69
  -1   1  23    6.24    0.64
   1   1 -23    6.79    0.73
   0  -1 -23  147.39    3.67
   0   1 -23  160.35    3.72
   0   1 -23  156.45    3.06
  -1  -1 -23    7.63    0.76
  -1   1 -23    7.73    0.49
  -1   1 -23    9.62    0.86
  -2  -1 -23   35.29    1.47
  -2   1 -23   34.59    1.45
  -2   1 -23   35.89    1.16
  -3  -1 -23    1.18    0.44
  -3   1 -23    0.83    0.31
  -3   1 -23    1.26    0.43
  -4  -1 -23    5.10    0.73
  -4   1 -23    6.72    0.68
  -4   1 -23    6.48    0.79
  -5  -1 -23    0.57    0.44
  -5   1 -23    0.48    0.43
  -6  -1 -23    0.23    0.40
  -6   1 -23   -0.12    0.43
  -7  -1 -23    0.50    0.54
  -7   1 -23    1.99    0.58
  -8  -1 -23    5.77    0.93
  -8   1 -23    7.20    0.99
  -9  -1 -23    3.28    0.84
  -9   1 -23    4.73    0.92
 -10  -1 -23   -0.07    0.66
 -10   1 -23   -0.42    0.52
  11   2 -23    0.48    0.58
  10   2 -23    8.06    1.10
   9  -2 -23    1.19    0.49
  -9   2  23   -0.12    0.36
   9   2 -23   -0.25    0.38
   8  -2 -23    0.58    0.44
   8   2 -23    0.03    0.46
  -8   2  23    1.06    0.45
   7  -2 -23   -0.40    0.30
  -7   2  23    0.47    0.40
   7   2 -23    0.31    0.39
   6  -2 -23   -0.07    0.35
   6   2 -23   -0.15    0.36
  -6   2  23    0.10    0.37
   5  -2 -23   19.91    1.09
  -5   2  23   19.20    1.08
   5   2 -23   20.10    1.17
   4  -2 -23   10.84    0.78
   4   2 -23    9.10    0.86
  -4   2  23   10.05    0.84
   3  -2 -23   53.70    1.76
  -3   2  23   51.04    1.70
   3   2 -23   50.38    1.79
   2  -2 -23    4.80    0.59
  -2   2  23    3.35    0.53
   2   2 -23    6.24    0.72
   1  -2 -23    0.07    0.31
   1   2 -23    0.52    0.34
  -1   2  23    0.10    0.26
   1   2 -23   -0.02    0.16
   0  -2 -23    7.94    0.78
   0   2  23    7.33    0.72
   0   2 -23    6.60    0.71
   0   2 -23    7.34    0.49
  -1  -2 -23   15.95    0.97
  -1   2 -23   16.94    0.75
  -1   2 -23   15.57    0.96
  -2  -2 -23    1.00    0.41
  -2   2 -23    0.40    0.26
  -2   2 -23    0.78    0.38
  -3  -2 -23   35.19    1.52
  -3   2 -23   33.94    1.26
  -3   2 -23   36.21    1.50
  -4  -2 -23   34.77    1.60
  -4   2 -23   36.45    1.54
  -4   2 -23   34.10    1.35
  -5  -2 -23    9.09    0.96
  -5   2 -23   11.11    0.97
  -5   2 -23   11.52    0.94
  -6  -2 -23    5.46    0.82
  -6   2 -23    4.13    0.64
  -6   2 -23    5.14    0.79
  -7  -2 -23    6.27    0.93
  -7   2 -23    7.48    0.92
  -7   2 -23    6.69    0.83
  -8  -2 -23    7.48    1.07
  -8   2 -23    8.01    0.96
  -8   2 -23    8.63    1.04
  -9  -2 -23   -0.26    0.52
  -9   2 -23    0.58    0.50
  -9   2 -23    0.35    0.52
 -10  -2 -23   -0.59    0.60
 -10   2 -23   -0.16    0.49
  11   3 -23    9.71    1.21
 -10   3  23   17.16    1.36
  10   3 -23   16.58    1.48
  -9   3  23    0.34    0.43
   9   3 -23    0.79    0.52
  -8   3  23    5.01    0.74
   8   3 -23    7.06    0.94
   7  -3 -23   -0.29    0.31
  -7   3  23    0.06    0.36
   7   3 -23    1.12    0.50
   6  -3 -23    6.35    0.73
   6   3 -23    5.42    0.80
  -6   3  23    3.62    0.62
   5  -3 -23    0.31    0.34
  -5   3  23    1.27    0.49
   5   3 -23    1.06    0.46
   4  -3 -23    2.65    0.47
  -4   3  23    3.32    0.56
   4   3 -23    2.81    0.56
   3  -3 -23    3.23    0.53
   3   3 -23    1.97    0.51
  -3   3  23    2.53    0.51
   2  -3 -23    8.67    0.80
  -2   3  23    8.99    0.83
   2   3 -23    7.57    0.52
   2   3 -23    8.03    0.80
   1  -3 -23   28.99    1.28
  -1   3  23   29.04    1.26
   1   3 -23   29.70    1.03
   1   3 -23   30.69    1.33
   0  -3 -23    2.12    0.49
   0   3 -23    1.50    0.41
   0   3 -23    1.52    0.31
   0   3  23    1.47    0.42
  -1  -3 -23    0.38    0.40
  -1   3 -23    0.31    0.27
  -1   3 -23    0.25    0.31
  -2  -3 -23    3.08    0.61
  -2   3 -23    3.63    0.56
  -3  -3 -23   20.55    1.20
  -3   3 -23   19.48    1.07
  -3   3 -23   18.73    0.95
  -4  -3 -23    1.88    0.55
  -4   3 -23    0.91    0.45
  -4   3 -23    1.36    0.43
  -5  -3 -23    0.46    0.49
  -5   3 -23    0.23    0.39
  -5   3 -23    0.25    0.39
  -6  -3 -23    2.63    0.67
  -6   3 -23    2.31    0.58
  -6   3 -23    2.22    0.55
  -7  -3 -23    1.48    0.63
  -7   3 -23    2.29    0.60
  -7   3 -23    2.95    0.65
  -8  -3 -23    2.55    0.78
  -8   3 -23    3.15    0.71
  -9  -3 -23    0.25    0.56
  -9   3 -23    0.84    0.51
 -11   4  23    0.25    0.57
  10   4 -23   11.54    1.34
 -10   4  23   11.19    1.21
   9   4 -23    6.22    1.01
  -9   4  23    6.28    0.93
   8   4 -23   -0.55    0.37
  -8   4  23   -0.76    0.40
   7   4 -23   -0.12    0.38
  -7   4  23    0.53    0.44
   6   4 -23    0.26    0.46
  -6   4  23    0.47    0.40
   5   4 -23   11.66    1.06
  -5   4  23   10.48    0.96
   4  -4 -23   55.44    1.79
   4   4 -23   55.03    2.02
  -4   4  23   54.05    1.92
   3  -4 -23   13.98    0.89
  -3   4  23   16.11    1.04
   3   4 -23   15.51    0.79
   3   4 -23   15.94    1.04
   2  -4 -23    0.86    0.39
   2   4 -23    1.22    0.45
   2   4 -23    1.28    0.34
  -2   4  23    0.93    0.41
   1  -4 -23  109.59    2.93
   1   4 -23  112.04    2.66
  -1   4  23  113.50    2.99
   1   4 -23  115.58    3.01
   0  -4 -23    0.35    0.38
   0   4 -23    0.67    0.40
   0   4 -23    0.14    0.29
   0   4  23   -0.13    0.30
  -1  -4 -23    0.72    0.40
   1   4  23    0.75    0.41
  -1   4 -23   -0.08    0.27
  -1   4 -23    0.81    0.39
  -2  -4 -23    1.43    0.51
  -2   4 -23    0.57    0.36
  -2   4 -23    1.04    0.42
  -3  -4 -23   -0.20    0.32
  -3   4 -23   -0.38    0.31
  -3   4 -23    0.41    0.34
  -4  -4 -23    6.16    0.82
  -4   4 -23    4.38    0.65
  -4   4 -23    6.65    0.75
  -5  -4 -23   42.76    1.93
  -5   4 -23   44.75    1.75
  -6  -4 -23    3.10    0.68
  -6   4 -23    3.15    0.63
  -7  -4 -23    0.40    0.52
  -7   4 -23   -0.12    0.42
  -8  -4 -23    2.14    0.75
  -8   4 -23    2.50    0.65
  -9  -4 -23    0.87    0.70
  -9   4 -23    1.80    0.66
 -10   5  23   14.34    1.36
  10   5 -23   16.45    1.57
  -9   5  23    1.00    0.56
   9   5 -23    0.72    0.58
   8   5 -23   -0.12    0.42
  -8   5  23    0.47    0.53
   7   5 -23    2.13    0.67
  -7   5  23    1.97    0.57
   6   5 -23    9.65    1.02
  -6   5  23   10.88    1.08
  -5   5  23   22.20    1.28
   5   5 -23   21.13    1.27
  -4   5  23    2.53    0.57
   4   5 -23    2.96    0.59
   4   5 -23    3.36    0.52
  -3   5  23    0.63    0.42
   3   5 -23    0.58    0.33
   3   5 -23    1.96    0.51
   2   5 -23   10.75    0.84
  -2   5  23    9.41    0.92
   2   5 -23    7.73    0.83
   1  -5 -23    2.27    0.49
   1   5 -23    2.83    0.49
   1   5 -23    3.06    0.56
  -1   5  23    2.67    0.56
   0  -5 -23   10.47    0.91
   0   5 -23   10.23    0.84
   0   5 -23    9.41    0.87
   0   5  23   10.83    0.95
  -1  -5 -23   11.32    1.01
   1   5  23   10.48    0.97
  -1   5 -23   12.28    0.89
  -1   5 -23   11.70    0.94
  -2  -5 -23   18.71    1.14
  -2   5 -23   17.47    1.01
  -2   5 -23   19.40    1.07
   2   5  23   19.48    1.09
  -3  -5 -23    0.01    0.41
  -3   5 -23   -0.09    0.36
  -4  -5 -23    0.41    0.44
  -4   5 -23    1.33    0.47
  -5  -5 -23    2.34    0.66
  -5   5 -23    2.02    0.54
  -6  -5 -23   10.00    1.15
  -6   5 -23   10.28    1.09
  -7  -5 -23    1.20    0.61
  -7   5 -23    0.45    0.47
  -8  -5 -23    6.42    1.05
  -8   5 -23    6.07    0.92
  -9   6  23    0.75    0.64
   9   6 -23    1.09    0.68
  -8   6  23    3.15    0.75
   8   6 -23    3.02    0.81
  -7   6  23    3.49    0.77
   7   6 -23    1.59    0.59
  -6   6  23    1.26    0.53
   6   6 -23    1.64    0.59
  -5   6  23   -0.21    0.38
   5   6 -23   -0.31    0.35
  -4   6  23   10.69    1.08
   4   6 -23   10.92    0.93
   4   6 -23    8.94    0.97
  -3   6  23   11.99    1.11
   3   6 -23   13.77    1.12
   3   6 -23   12.39    0.87
  -2   6  23   -0.23    0.38
   2   6 -23    0.11    0.38
   2   6 -23    0.07    0.33
  -1   6  23    3.19    0.60
   1   6 -23    3.69    0.62
   1   6 -23    4.04    0.63
   0   6 -23    0.11    0.33
   0   6  23   -0.23    0.31
   1   6  23    0.37    0.41
  -1   6 -23    0.21    0.33
  -2  -6 -23    3.17    0.65
   2   6  23    3.44    0.66
  -2   6 -23    2.48    0.57
  -3  -6 -23   12.70    1.13
  -3   6 -23   14.01    1.14
  -4  -6 -23   14.52    1.30
  -4   6 -23   11.91    1.08
  -5  -6 -23    2.75    0.74
  -5   6 -23    3.39    0.68
  -6  -6 -23   -0.10    0.51
  -6   6 -23    0.16    0.48
  -7  -6 -23    1.29    0.70
  -7   6 -23    1.02    0.59
  -8  -6 -23    0.35    0.61
   8   7 -23   11.69    1.27
  -8   7  23   12.77    1.46
  -7   7  23    1.12    0.59
   7   7 -23    1.28    0.65
   6   7 -23    8.88    1.08
  -6   7  23    8.90    1.05
   5   7 -23    2.17    0.56
  -5   7  23    1.91    0.64
   5   7 -23    4.11    0.74
  -4   7  23    0.11    0.44
   4   7 -23    0.25    0.37
   4   7 -23    0.84    0.49
  -3   7  23    5.90    0.85
   3   7 -23    7.85    0.87
  -2   7  23   10.04    1.06
   2   7 -23    9.72    0.95
   1   7 -23    0.68    0.43
  -1   7  23    0.57    0.47
   0   7 -23   10.19    0.99
   0   7  23    8.63    0.94
   1   7  23   16.49    1.14
  -1   7 -23   15.19    1.04
  -2   7 -23   14.85    1.05
   2   7  23   15.22    1.10
  -3   7 -23    2.15    0.61
  -4   7 -23    1.06    0.46
  -5  -7 -23    0.59    0.56
  -5   7 -23    0.62    0.45
  -6  -7 -23    0.20    0.59
  -6   7 -23    0.41    0.54
  -6   8  23    2.61    0.79
  -5   8  23    3.43    0.77
   5   8 -23    3.16    0.68
  -4   8  23   -0.23    0.44
   4   8 -23   -0.09    0.40
   3   8 -23    0.99    0.49
  -3   8  23    0.14    0.48
  -2   8  23    7.00    0.98
   2   8 -23    6.46    0.85
   1   8 -23   -0.33    0.32
  -1   8  23    0.56    0.49
   0   8 -23    1.59    0.56
   0   8  23    1.81    0.63
  -1   8 -23   -0.01    0.37
  -2   8 -23    0.22    0.43
  -3   8 -23    3.14    0.66
  -4   8 -23    9.03    1.08
  -5   8 -23    4.29    0.83
   4   9 -23    3.33    0.75
  -4   9  23    2.48    0.78
   3   9 -23    2.75    0.67
  -3   9  23    1.28    0.63
  -2   9  23   -0.69    0.35
   2   9 -23   -0.04    0.45
   1   9 -23    0.51    0.55
  -1   9  23    1.34    0.62
   0   9 -23    5.10    0.83
  -1   9 -23   -0.07    0.43
  -2   9 -23    0.05    0.48
  12   0 -24   10.09    1.25
  11   0 -24   -0.37    0.48
  10   0 -24    0.80    0.53
   9   0 -24   -0.36    0.42
   8   0 -24   10.28    1.06
   7   0 -24   -0.26    0.31
  -7   0  24    0.45    0.34
  -6   0  24   28.39    1.21
   6   0 -24   28.34    1.39
  -5   0  24    0.40    0.31
   5   0 -24    0.26    0.35
  -4   0  24   11.08    0.72
   4   0 -24    9.77    0.90
  -3   0  24    0.02    0.28
   3   0 -24    0.10    0.29
   2   0 -24  117.92    3.05
   1   0 -24    0.32    0.31
   0   0 -24   40.03    1.53
  -1   0 -24    0.06    0.30
  -1   0 -24   -0.06    0.17
  -2   0 -24    6.18    0.73
  -3   0 -24   -0.28    0.33
  -4   0 -24    4.92    0.72
  -5   0 -24    0.10    0.39
  -6   0 -24    6.17    0.87
  -7   0 -24    0.38    0.51
  -8   0 -24    5.07    0.90
  -9   0 -24    0.17    0.58
 -10   0 -24   -0.22    0.59
  11  -1 -24   -0.45    0.48
  11   1 -24    1.27    0.61
  10  -1 -24    0.12    0.47
  10   1 -24    0.75    0.58
   9  -1 -24    0.80    0.46
   9   1 -24    0.38    0.51
   8  -1 -24    5.92    0.77
  -8   1  24    7.10    0.77
   8   1 -24    5.37    0.80
   7  -1 -24    7.78    0.86
  -7   1  24    8.93    0.84
   7   1 -24    9.44    1.00
  -6  -1  24    7.20    0.68
   6  -1 -24    6.26    0.77
   6   1 -24    6.28    0.82
  -6   1  24    7.42    0.78
   5  -1 -24    8.30    0.87
  -5  -1  24    7.96    0.68
   5   1 -24    7.10    0.80
  -5   1  24    7.43    0.73
   4  -1 -24    0.44    0.37
   4   1 -24   -0.12    0.34
  -4   1  24    0.44    0.32
   3  -1 -24    1.23    0.42
   3   1 -24    1.61    0.43
  -3   1  24    1.06    0.35
   2  -1 -24    0.61    0.34
  -2   1  24    0.76    0.36
   2   1 -24   -0.10    0.31
   1  -1 -24    5.32    0.65
   1   1 -24    6.55    0.75
   0  -1 -24   26.58    1.25
   0   1 -24   29.46    1.29
   0   1 -24   29.04    0.88
  -1  -1 -24    9.68    0.88
  -1   1 -24   11.99    0.60
  -1   1 -24   11.79    0.85
  -2  -1 -24   34.03    1.46
  -2   1 -24   32.56    1.13
  -2   1 -24   34.47    1.46
  -3  -1 -24   36.79    1.60
  -3   1 -24   39.66    1.61
  -3   1 -24   39.34    1.33
  -4  -1 -24    9.27    0.94
  -4   1 -24    9.37    0.91
  -4   1 -24    9.38    0.78
  -5  -1 -24    1.14    0.53
  -5   1 -24    0.96    0.48
  -6  -1 -24    1.76    0.58
  -6   1 -24    0.68    0.49
  -7  -1 -24    4.28    0.84
  -7   1 -24    4.96    0.79
  -8  -1 -24    0.11    0.49
  -8   1 -24    1.26    0.64
  -9  -1 -24    0.05    0.53
  -9   1 -24    0.70    0.58
 -10  -1 -24   11.78    1.38
 -10   1 -24   10.67    1.27
  11   2 -24    0.84    0.66
  10   2 -24    0.70    0.53
   9  -2 -24    0.13    0.45
   9   2 -24    0.47    0.55
  -9   2  24    0.55    0.45
   8  -2 -24    0.65    0.38
  -8   2  24    1.07    0.43
   8   2 -24    1.11    0.55
   7  -2 -24   38.20    1.61
  -7   2  24   39.86    1.60
   7   2 -24   38.90    1.76
   6  -2 -24   14.52    1.12
  -6   2  24   12.70    1.03
   6   2 -24   12.74    1.15
   5  -2 -24   38.55    1.55
   5   2 -24   40.11    1.70
  -5   2  24   38.41    1.51
   4  -2 -24    9.84    0.86
   4   2 -24   11.33    1.02
  -4   2  24   12.92    1.01
   3  -2 -24    5.37    0.68
   3   2 -24    4.71    0.66
  -3   2  24    5.48    0.66
   2  -2 -24    1.01    0.40
   2   2 -24    1.31    0.44
  -2   2  24    1.02    0.38
   1  -2 -24   -0.09    0.30
  -1   2  24    0.63    0.35
   1   2 -24    0.16    0.33
   0  -2 -24   11.39    0.84
   0   2 -24   12.37    0.62
   0   2 -24   11.75    0.85
  -1  -2 -24   52.64    1.87
  -1   2 -24   50.46    1.46
  -1   2 -24   52.22    1.82
  -2  -2 -24    0.31    0.40
  -2   2 -24    0.18    0.33
  -2   2 -24   -0.06    0.22
  -3  -2 -24    0.08    0.38
  -3   2 -24    0.26    0.40
  -3   2 -24    0.42    0.30
  -4  -2 -24   12.59    1.11
  -4   2 -24   11.19    0.77
  -4   2 -24   13.06    0.94
  -5  -2 -24    0.74    0.45
  -5   2 -24    0.80    0.39
  -5   2 -24    1.36    0.51
  -6  -2 -24    1.13    0.58
  -6   2 -24    1.15    0.52
  -6   2 -24    0.56    0.38
  -7  -2 -24   11.86    1.22
  -7   2 -24    9.78    0.98
  -7   2 -24   10.56    1.05
  -8  -2 -24    2.61    0.79
  -8   2 -24    3.64    0.70
  -8   2 -24    3.30    0.75
  -9  -2 -24    5.07    0.97
  -9   2 -24    3.65    0.81
  -9   2 -24    4.65    0.81
 -10   2 -24    0.31    0.60
  11   3 -24    0.85    0.65
  10   3 -24    1.07    0.61
 -10   3  24    2.24    0.65
   9   3 -24    1.70    0.63
  -9   3  24    1.64    0.58
  -8   3  24   37.99    1.69
   8   3 -24   40.45    1.87
   7  -3 -24    3.92    0.64
  -7   3  24    3.17    0.65
   7   3 -24    4.37    0.75
   6  -3 -24    0.27    0.34
   6   3 -24   -0.22    0.39
  -6   3  24   -0.77    0.27
   5  -3 -24    8.98    0.84
  -5   3  24    8.86    0.87
   5   3 -24    9.25    0.98
   4  -3 -24    3.18    0.53
  -4   3  24    3.28    0.58
   4   3 -24    2.65    0.59
   3  -3 -24   30.58    1.32
  -3   3  24   29.54    1.33
   3   3 -24   31.43    1.41
   2  -3 -24    4.96    0.62
  -2   3  24    5.65    0.67
   2   3 -24    6.31    0.73
   1  -3 -24    2.22    0.47
  -1   3  24    1.20    0.42
   1   3 -24    2.64    0.38
   1   3 -24    1.76    0.52
   0  -3 -24    3.54    0.60
   0   3 -24    2.47    0.50
   0   3  24    2.32    0.51
   0   3 -24    3.29    0.44
  -1  -3 -24    0.20    0.33
  -1   3 -24    0.16    0.25
  -1   3 -24    0.07    0.36
  -2  -3 -24   66.11    2.20
  -2   3 -24   68.28    2.14
  -2   3 -24   66.34    1.90
  -3  -3 -24   18.32    1.19
  -3   3 -24   20.34    1.13
  -3   3 -24   19.17    0.96
  -4  -3 -24    4.55    0.74
  -4   3 -24    5.18    0.73
  -4   3 -24    5.22    0.66
  -5  -3 -24    1.49    0.54
  -5   3 -24    1.07    0.44
  -5   3 -24    0.60    0.41
  -6  -3 -24    2.65    0.69
  -6   3 -24    2.20    0.58
  -6   3 -24    3.46    0.64
  -7  -3 -24    7.23    1.03
  -7   3 -24   10.82    1.07
  -7   3 -24    8.32    0.99
  -8  -3 -24    0.12    0.57
  -8   3 -24    0.05    0.46
  -9  -3 -24    3.59    0.86
  -9   3 -24    3.95    0.79
  10   4 -24    1.78    0.69
 -10   4  24    1.49    0.59
   9   4 -24    0.52    0.58
  -9   4  24   -0.20    0.44
   8   4 -24   -0.50    0.39
  -8   4  24   -0.14    0.42
   7   4 -24    3.41    0.70
  -7   4  24    3.93    0.73
   6   4 -24    1.18    0.54
  -6   4  24    0.91    0.50
   5   4 -24    0.44    0.42
  -5   4  24    0.24    0.41
   4  -4 -24    1.06    0.40
  -4   4  24    0.42    0.43
   4   4 -24    0.74    0.48
   3  -4 -24   21.32    1.09
   3   4 -24   22.15    1.20
  -3   4  24   22.55    1.20
   2  -4 -24    0.01    0.33
  -2   4  24   -0.03    0.39
   2   4 -24    0.21    0.25
   2   4 -24   -0.04    0.30
   1  -4 -24    9.03    0.83
   1   4 -24   11.32    0.97
   1   4 -24    9.13    0.65
  -1   4  24    9.58    0.89
   0  -4 -24    0.53    0.39
   0   4 -24    0.78    0.32
   0   4 -24    0.64    0.37
   0   4  24    0.25    0.34
  -1  -4 -24    7.05    0.80
  -1   4 -24    6.12    0.63
   1   4  24    6.20    0.77
  -1   4 -24    5.60    0.70
  -2  -4 -24    2.05    0.57
  -2   4 -24    2.81    0.52
  -2   4 -24    2.64    0.48
  -3  -4 -24    0.00    0.37
  -3   4 -24    0.28    0.34
  -3   4 -24    0.10    0.36
  -4  -4 -24    0.91    0.51
  -4   4 -24   -0.16    0.34
  -4   4 -24    0.13    0.30
  -5  -4 -24    4.42    0.82
  -5   4 -24    4.54    0.70
  -6  -4 -24    3.67    0.76
  -6   4 -24    1.20    0.50
  -7  -4 -24    0.83    0.54
  -7   4 -24    1.12    0.49
  -8  -4 -24    6.80    1.08
  -8   4 -24    5.52    0.86
  -9  -4 -24    3.40    0.89
  -9   4 -24    4.55    0.86
 -10   5  24    0.38    0.60
  10   5 -24    1.13    0.72
   9   5 -24    1.33    0.62
  -9   5  24    1.83    0.61
   8   5 -24    0.04    0.48
  -8   5  24    0.46    0.50
  -7   5  24    8.60    1.03
   7   5 -24    8.42    1.05
   6   5 -24    1.19    0.50
  -6   5  24    1.12    0.50
  -5   5  24   -0.45    0.39
   5   5 -24   -0.11    0.39
  -4   5  24    4.24    0.69
   4   5 -24    5.63    0.77
   3   5 -24    4.92    0.71
  -3   5  24    4.41    0.69
   3   5 -24    5.77    0.63
  -2   5  24   -0.07    0.32
   2   5 -24    0.82    0.38
   2   5 -24    0.58    0.33
   1  -5 -24   16.34    1.00
   1   5 -24   15.67    0.90
   1   5 -24   15.70    1.02
  -1   5  24   17.11    1.07
   0  -5 -24    2.49    0.52
   0   5  24    2.82    0.59
   0   5 -24    2.03    0.50
   0   5 -24    3.53    0.54
  -1  -5 -24    6.96    0.83
  -1   5 -24    7.21    0.80
  -1   5 -24    7.67    0.78
   1   5  24    7.00    0.80
  -2  -5 -24   21.20    1.23
  -2   5 -24   21.86    1.13
  -2   5 -24   24.56    1.20
  -3  -5 -24    6.89    0.89
  -3   5 -24    4.78    0.68
  -4  -5 -24    8.04    0.99
  -4   5 -24    6.96    0.82
  -5  -5 -24    4.98    0.88
  -5   5 -24    4.71    0.76
  -6  -5 -24    2.82    0.73
  -6   5 -24    3.67    0.69
  -7  -5 -24   -0.18    0.45
  -7   5 -24   -0.22    0.44
  -8  -5 -24    8.19    1.21
  -8   5 -24    8.50    1.11
   9   6 -24    0.66    0.60
  -9   6  24    0.35    0.59
  -8   6  24    2.02    0.64
   8   6 -24    1.80    0.72
  -7   6  24    0.08    0.49
   7   6 -24    0.93    0.56
   6   6 -24   -0.55    0.43
  -6   6  24   -0.14    0.43
  -5   6  24    1.00    0.49
   5   6 -24    0.34    0.43
   4   6 -24   15.46    1.27
  -4   6  24   16.34    1.36
   3   6 -24    4.13    0.68
  -3   6  24    4.01    0.72
   3   6 -24    4.75    0.64
   2   6 -24   13.22    0.98
   2   6 -24   13.00    0.89
  -2   6  24   12.17    1.13
  -1   6  24    1.73    0.52
   1   6 -24    2.61    0.53
   1   6 -24    2.14    0.49
   0   6 -24    3.95    0.62
   0   6  24    3.45    0.64
  -1   6 -24   27.89    1.33
   1   6  24   28.71    1.42
  -2  -6 -24   -0.40    0.37
  -2   6 -24    0.35    0.40
   2   6  24    0.72    0.47
  -3  -6 -24    0.60    0.46
  -3   6 -24    1.39    0.50
  -4  -6 -24   -0.38    0.41
  -4   6 -24    0.37    0.45
  -5  -6 -24    3.08    0.78
  -5   6 -24    1.34    0.56
  -6  -6 -24    2.80    0.80
  -6   6 -24    2.65    0.64
  -7  -6 -24    0.28    0.55
  -7   6 -24    0.78    0.53
   8   7 -24    9.92    1.18
   7   7 -24    3.62    0.84
  -7   7  24    4.41    0.86
  -6   7  24    0.47    0.50
   6   7 -24    0.41    0.53
  -5   7  24    8.25    1.03
   5   7 -24    7.73    0.95
   4   7 -24    6.88    0.91
   4   7 -24    4.63    0.70
  -4   7  24    5.45    0.86
  -3   7  24   -0.20    0.38
   3   7 -24   -0.56    0.33
  -2   7  24    0.63    0.45
   2   7 -24   -0.16    0.37
   1   7 -24   11.19    1.05
  -1   7  24    8.12    1.01
   0   7 -24   21.03    1.22
   0   7  24   21.49    1.31
   1   7  24    4.49    0.73
  -1   7 -24    3.14    0.61
  -2   7 -24    9.85    1.01
   2   7  24   10.31    1.04
  -3   7 -24   -0.50    0.31
  -4   7 -24    0.09    0.41
  -5  -7 -24    1.78    0.69
  -5   7 -24    1.37    0.58
  -6  -7 -24   -0.11    0.61
  -6   7 -24    0.34    0.46
  -6   8  24    4.11    0.91
  -5   8  24    0.12    0.53
   4   8 -24    2.25    0.61
  -4   8  24    3.30    0.74
  -3   8  24    3.84    0.80
   3   8 -24    4.30    0.77
   2   8 -24    0.26    0.39
  -2   8  24    0.37    0.51
  -1   8  24    1.75    0.60
   1   8 -24    1.32    0.51
   0   8  24    0.41    0.47
   0   8 -24   -0.27    0.39
  -1   8 -24    1.59    0.54
  -2   8 -24    2.63    0.64
  -3   8 -24    2.99    0.68
  -4   8 -24    3.50    0.79
   3   9 -24    0.12    0.43
  -3   9  24   -0.42    0.40
  -2   9  24    4.43    0.88
   2   9 -24    2.95    0.72
   1   9 -24   11.97    1.22
  -1   9  24   12.29    1.23
   0   9 -24    0.15    0.45
  -1   9 -24    0.94    0.57
  -2   9 -24    0.34    0.50
  11   0 -25   15.27    1.44
  10   0 -25    0.15    0.52
   9   0 -25    3.91    0.76
   8   0 -25    0.85    0.50
   7   0 -25    1.71    0.54
  -7   0  25    1.61    0.45
   6   0 -25    0.49    0.43
  -6   0  25    0.20    0.33
   5   0 -25   12.63    1.05
  -5   0  25   12.58    0.83
   4   0 -25   -0.09    0.31
  -4   0  25    0.04    0.28
  -3   0  25  102.32    2.66
   3   0 -25  107.15    2.90
   2   0 -25    0.71    0.35
   1   0 -25   -0.28    0.28
   0   0 -25    0.13    0.32
  -1   0 -25   44.22    1.68
  -2   0 -25   -0.32    0.31
  -3   0 -25   35.20    1.57
  -4   0 -25   -0.37    0.34
  -5   0 -25    0.63    0.45
  -6   0 -25    0.02    0.43
  -7   0 -25   -0.09    0.49
  -8   0 -25    0.95    0.55
  -9   0 -25    1.71    0.72
 -10   0 -25   -0.39    0.58
  11  -1 -25    0.56    0.58
  11   1 -25    0.31    0.56
  10  -1 -25   -0.41    0.39
  10   1 -25    0.16    0.54
   9  -1 -25    0.00    0.36
   9   1 -25   -0.42    0.42
   8  -1 -25    2.32    0.58
  -8   1  25    2.86    0.55
   8   1 -25    2.69    0.64
   7  -1 -25    4.44    0.69
   7   1 -25    3.55    0.67
  -7   1  25    4.03    0.60
  -6  -1  25   30.08    1.21
   6  -1 -25   30.26    1.44
  -6   1  25   29.52    1.31
   6   1 -25   29.87    1.50
  -5  -1  25    8.91    0.74
   5  -1 -25    8.04    0.84
  -5   1  25   10.44    0.88
   5   1 -25    9.50    0.91
   4  -1 -25   54.08    1.90
   4   1 -25   54.20    1.93
  -4   1  25   54.53    1.80
   3  -1 -25   21.56    1.16
  -3   1  25   22.63    1.08
   3   1 -25   22.33    1.16
   2  -1 -25   29.15    1.34
   2   1 -25   27.35    1.31
  -2   1  25   29.95    1.24
   1  -1 -25    5.45    0.67
   1   1 -25    4.44    0.63
   0  -1 -25    1.26    0.42
   0   1 -25    1.35    0.43
  -1  -1 -25    1.93    0.49
  -1   1 -25    1.55    0.30
  -1   1 -25    1.30    0.43
  -2  -1 -25    2.15    0.51
  -2   1 -25    1.60    0.34
  -2   1 -25    1.37    0.47
  -3  -1 -25    1.38    0.50
  -3   1 -25    2.13    0.56
  -3   1 -25    2.13    0.39
  -4  -1 -25  124.04    3.42
  -4   1 -25  122.84    3.38
  -4   1 -25  123.67    3.00
  -5  -1 -25    0.34    0.47
  -5   1 -25    0.28    0.41
  -5   1 -25    0.01    0.32
  -6  -1 -25    1.17    0.52
  -6   1 -25    1.85    0.58
  -7  -1 -25    6.32    0.96
  -7   1 -25    9.18    1.05
  -8  -1 -25    0.35    0.59
  -8   1 -25    0.15    0.53
  -9  -1 -25   -0.22    0.50
  -9   1 -25    0.51    0.56
 -10  -1 -25    0.58    0.64
 -10   1 -25    1.12    0.69
 -10   1 -25    1.08    0.62
  11   2 -25   -0.03    0.50
  10   2 -25    5.62    0.92
   9  -2 -25    2.25    0.61
   9   2 -25    2.88    0.75
  -9   2  25    2.30    0.57
   8  -2 -25    0.43    0.43
  -8   2  25    0.19    0.41
   8   2 -25   -0.10    0.47
   7  -2 -25    4.31    0.71
   7   2 -25    3.73    0.70
  -7   2  25    4.02    0.68
   6  -2 -25    0.24    0.39
   6   2 -25   -0.13    0.37
  -6   2  25    0.45    0.37
   5  -2 -25   16.44    1.04
  -5   2  25   17.93    1.04
   5   2 -25   16.73    1.11
   4  -2 -25   18.50    1.05
  -4   2  25   18.52    1.04
   4   2 -25   19.91    1.17
   3  -2 -25   -0.04    0.33
   3   2 -25    0.85    0.41
  -3   2  25   -0.18    0.30
   2  -2 -25   10.47    0.92
  -2   2  25   10.00    0.85
   2   2 -25    9.67    0.92
   1  -2 -25    0.64    0.37
   1   2 -25    0.12    0.32
  -1   2  25    0.40    0.34
   0  -2 -25   23.94    1.23
   0   2 -25   29.22    0.97
   0   2 -25   28.06    1.32
  -1  -2 -25   59.16    2.03
  -1   2 -25   60.83    2.04
  -1   2 -25   61.64    1.65
  -2  -2 -25    0.75    0.42
  -2   2 -25    0.02    0.38
  -2   2 -25    0.36    0.26
  -3  -2 -25   18.60    1.19
  -3   2 -25   15.33    0.87
  -3   2 -25   15.81    1.05
  -4  -2 -25    5.85    0.79
  -4   2 -25    7.36    0.75
  -4   2 -25    7.35    0.83
  -5  -2 -25    3.59    0.73
  -5   2 -25    2.46    0.60
  -5   2 -25    3.51    0.56
  -6  -2 -25    2.99    0.72
  -6   2 -25    3.98    0.67
  -6   2 -25    4.64    0.71
  -7  -2 -25    0.96    0.57
  -7   2 -25    0.87    0.49
  -7   2 -25    0.32    0.47
  -8  -2 -25    5.92    1.01
  -8   2 -25    6.83    0.92
  -8   2 -25    6.02    0.89
  -9  -2 -25    3.27    0.81
  -9   2 -25    2.45    0.73
  -9   2 -25    2.49    0.75
  11   3 -25    0.75    0.70
 -10   3  25    1.49    0.60
  10   3 -25    1.64    0.68
  -9   3  25    3.55    0.71
   9   3 -25    3.89    0.79
   8   3 -25    2.90    0.66
  -8   3  25    3.17    0.65
   7  -3 -25    1.83    0.50
   7   3 -25    2.54    0.64
  -7   3  25    0.87    0.44
   6  -3 -25    0.96    0.43
   6   3 -25    0.76    0.47
  -6   3  25    0.36    0.41
   5  -3 -25    6.04    0.71
   5   3 -25    6.35    0.84
  -5   3  25    6.11    0.76
   4  -3 -25    1.30    0.41
  -4   3  25    1.49    0.48
   4   3 -25    0.69    0.42
   3  -3 -25    0.07    0.34
   3   3 -25    0.11    0.36
  -3   3  25    0.19    0.36
   2  -3 -25    1.38    0.45
  -2   3  25    0.64    0.39
   2   3 -25    1.76    0.48
   1  -3 -25    1.29    0.41
   1   3 -25    1.14    0.44
   1   3 -25    1.21    0.31
  -1   3  25    0.74    0.36
   0  -3 -25    0.13    0.33
   0   3 -25    0.65    0.38
   0   3 -25    0.24    0.25
   0   3  25    0.61    0.38
  -1  -3 -25    2.71    0.56
  -1   3 -25    3.09    0.56
  -1   3 -25    2.98    0.45
  -2  -3 -25    3.53    0.62
  -2   3 -25    2.67    0.53
  -2   3 -25    3.09    0.48
  -3  -3 -25    7.88    0.91
  -3   3 -25    6.04    0.73
  -3   3 -25    5.71    0.64
  -4  -3 -25    0.63    0.44
  -4   3 -25    0.98    0.38
  -4   3 -25    0.04    0.36
  -5  -3 -25    3.24    0.68
  -5   3 -25    4.34    0.64
  -5   3 -25    5.42    0.74
  -6  -3 -25   -0.06    0.43
  -6   3 -25   -0.40    0.35
  -6   3 -25   -0.01    0.42
  -7  -3 -25    0.12    0.53
  -7   3 -25   -0.01    0.46
  -7   3 -25    0.23    0.45
  -8  -3 -25    1.18    0.62
  -8   3 -25    0.69    0.46
  -9  -3 -25    0.16    0.60
  -9   3 -25    0.64    0.52
  10   4 -25   -0.59    0.47
   9   4 -25    6.35    0.99
  -9   4  25    4.28    0.79
  -8   4  25    1.64    0.56
   8   4 -25    2.17    0.67
  -7   4  25   -0.30    0.36
   7   4 -25    0.03    0.40
   6   4 -25    4.21    0.78
  -6   4  25    3.95    0.68
   5   4 -25    2.06    0.60
  -5   4  25    2.27    0.56
   4  -4 -25    0.26    0.33
  -4   4  25    0.29    0.38
   4   4 -25   -0.23    0.34
   3  -4 -25   29.68    1.31
  -3   4  25   29.25    1.39
   3   4 -25   29.77    1.44
   2  -4 -25   -0.13    0.31
   2   4 -25    0.60    0.40
  -2   4  25    0.21    0.41
   1  -4 -25   -0.37    0.29
  -1   4  25   -0.06    0.32
   1   4 -25    0.09    0.26
   1   4 -25    0.90    0.42
   0  -4 -25    0.11    0.36
   0   4 -25    0.30    0.29
   0   4  25   -0.10    0.36
   0   4 -25    0.01    0.39
  -1  -4 -25    0.18    0.35
  -1   4 -25    2.21    0.45
   1   4  25    1.68    0.48
  -1   4 -25    1.40    0.47
  -2  -4 -25    3.06    0.58
  -2   4 -25    2.21    0.47
  -2   4 -25    2.03    0.51
  -3  -4 -25    4.46    0.72
  -3   4 -25    5.02    0.66
  -3   4 -25    5.64    0.74
  -4  -4 -25    4.38    0.77
  -4   4 -25    3.88    0.65
  -4   4 -25    3.89    0.61
  -5  -4 -25   12.10    1.22
  -5   4 -25   10.48    0.99
  -6  -4 -25    9.33    1.09
  -6   4 -25   11.58    1.09
  -7  -4 -25    6.19    1.02
  -7   4 -25    6.31    0.87
  -8  -4 -25    0.34    0.61
  -8   4 -25    0.94    0.51
 -10   5  25    0.72    0.60
  -9   5  25    3.69    0.78
   9   5 -25    1.94    0.70
  -8   5  25    1.22    0.56
   8   5 -25    1.30    0.62
  -7   5  25    0.21    0.51
   7   5 -25    0.29    0.47
   6   5 -25   17.49    1.25
  -6   5  25   17.46    1.20
  -5   5  25    2.28    0.58
   5   5 -25    1.15    0.51
  -4   5  25    1.36    0.57
   4   5 -25    0.79    0.49
  -3   5  25    0.28    0.39
   3   5 -25    0.57    0.44
   2   5 -25   11.80    1.03
   2   5 -25   12.68    0.80
  -2   5  25    9.49    0.95
   1  -5 -25   25.71    1.28
   1   5 -25   26.35    1.14
   1   5 -25   26.91    1.33
  -1   5  25   28.64    1.39
   0  -5 -25   27.30    1.33
   0   5 -25   24.35    1.14
   0   5  25   24.03    1.28
   0   5 -25   25.43    1.27
  -1  -5 -25   14.91    1.06
  -1   5 -25   13.79    0.97
   1   5  25   14.78    1.01
  -1   5 -25   14.18    0.91
  -2  -5 -25   -0.25    0.39
  -2   5 -25   -0.17    0.34
  -2   5 -25    0.37    0.38
  -3  -5 -25    8.48    0.99
  -3   5 -25    9.27    0.91
  -4  -5 -25    6.38    0.88
  -4   5 -25    7.60    0.87
  -5  -5 -25    3.29    0.76
  -5   5 -25    3.52    0.64
  -6  -5 -25    0.16    0.51
  -6   5 -25   -0.16    0.35
  -7  -5 -25    0.30    0.59
  -7   5 -25    0.31    0.43
  -8  -5 -25    2.77    0.93
  -8   5 -25    2.17    0.69
   9   6 -25   13.43    1.41
  -9   6  25   13.06    1.44
  -8   6  25    0.27    0.51
   8   6 -25    0.08    0.52
  -7   6  25    0.91    0.60
   7   6 -25    0.20    0.53
  -6   6  25   -0.14    0.43
   6   6 -25   -0.34    0.46
  -5   6  25   -0.12    0.42
   5   6 -25    0.35    0.48
  -4   6  25   -0.06    0.45
   4   6 -25   -0.17    0.43
   3   6 -25   15.79    1.12
   3   6 -25   17.13    1.01
  -3   6  25   16.77    1.16
   2   6 -25    8.30    0.89
  -2   6  25   10.58    1.06
   2   6 -25   10.53    0.90
   1   6 -25    9.45    0.87
  -1   6  25    7.42    0.86
   1   6 -25    9.36    0.91
   0   6  25   11.61    1.09
   0   6 -25   13.80    1.09
   1   6  25   13.33    1.13
  -1   6 -25   13.72    0.97
  -2  -6 -25    2.54    0.60
  -2   6 -25    2.89    0.58
   2   6  25    2.24    0.58
  -3  -6 -25   15.71    1.31
  -3   6 -25   15.09    1.05
  -4  -6 -25    1.67    0.61
  -4   6 -25    1.65    0.54
  -5  -6 -25   -0.04    0.51
  -5   6 -25   -0.04    0.38
  -6  -6 -25    1.88    0.67
  -6   6 -25    1.98    0.61
  -7  -6 -25    0.44    0.59
  -7   6 -25    0.39    0.53
  -7   7  25    3.14    0.77
   7   7 -25    4.45    0.91
  -6   7  25    0.21    0.47
   6   7 -25    0.19    0.54
  -5   7  25    1.20    0.57
   5   7 -25    0.12    0.50
   4   7 -25    1.97    0.64
  -4   7  25    2.95    0.70
   3   7 -25    1.75    0.50
  -3   7  25    0.25    0.45
   2   7 -25    2.07    0.55
  -2   7  25    2.48    0.63
  -1   7  25    0.31    0.44
   1   7 -25    0.78    0.45
   0   7  25    8.21    0.98
   0   7 -25    7.76    0.87
   1   7  25    1.86    0.58
  -1   7 -25    2.25    0.58
  -2   7 -25    3.03    0.64
   2   7  25    3.50    0.69
  -3   7 -25    2.58    0.63
  -4   7 -25   -0.20    0.35
  -5  -7 -25    2.04    0.68
  -5   7 -25    2.57    0.66
  -6  -7 -25    0.10    0.60
  -6   7 -25    0.98    0.59
  -5   8  25    0.24    0.49
  -4   8  25   -0.18    0.54
  -3   8  25    2.87    0.73
   3   8 -25    2.77    0.66
   2   8 -25    1.47    0.53
  -2   8  25    1.07    0.53
  -1   8  25    8.90    1.06
   1   8 -25    8.53    0.97
   0   8 -25    0.03    0.38
   0   8  25   -0.16    0.48
  -1   8 -25    2.41    0.64
  -2   8 -25    1.68    0.57
  -3   8 -25    0.64    0.54
  -4   8 -25   -0.20    0.40
   3   9 -25    0.81    0.49
  -2   9  25    0.84    0.57
   2   9 -25   -0.04    0.49
  -1   9  25    0.76    0.58
   1   9 -25   -0.19    0.41
   0   9 -25    0.21    0.52
  -1   9 -25    1.03    0.50
  11   0 -26   -0.19    0.53
  10   0 -26    4.52    0.86
   9   0 -26    0.53    0.44
   8   0 -26   29.48    1.58
  -7   0  26    0.24    0.34
   7   0 -26    0.54    0.46
  -6   0  26    4.64    0.62
   6   0 -26    4.77    0.72
  -5   0  26    0.13    0.29
   5   0 -26   -0.01    0.39
   4   0 -26   37.55    1.58
  -4   0  26   37.44    1.41
  -3   0  26    0.36    0.34
   3   0 -26    0.50    0.38
   2   0 -26   33.96    1.45
   1   0 -26   -0.38    0.27
   0   0 -26   89.53    2.63
  -1   0 -26    0.34    0.39
  -2   0 -26   30.69    1.06
  -2   0 -26   29.71    1.41
  -3   0 -26    0.15    0.36
  -4   0 -26   -0.32    0.36
  -5   0 -26    0.84    0.47
  -6   0 -26    6.08    0.91
  -7   0 -26    0.19    0.44
  -8   0 -26    0.91    0.54
  -9   0 -26   -0.31    0.49
  11  -1 -26    1.01    0.63
  11   1 -26    1.94    0.73
  10  -1 -26    4.04    0.80
   9  -1 -26    0.24    0.43
   9   1 -26    1.52    0.57
   8  -1 -26    6.16    0.83
   8   1 -26    5.99    0.85
  -8   1  26    8.12    0.86
   7  -1 -26   13.10    1.18
  -7   1  26   12.38    1.02
   7   1 -26   11.24    1.07
   6  -1 -26   22.45    1.24
  -6  -1  26   22.52    1.06
  -6   1  26   22.49    1.16
   6   1 -26   22.37    1.30
   5  -1 -26   13.39    1.10
  -5  -1  26   11.53    0.79
  -5   1  26   12.88    0.87
   5   1 -26   14.20    1.04
   4  -1 -26    2.67    0.58
   4   1 -26    2.76    0.55
  -4   1  26    3.57    0.58
   3  -1 -26   13.79    0.94
   3   1 -26   12.67    0.93
  -3   1  26   14.23    0.89
   2  -1 -26    6.01    0.74
   2   1 -26    7.17    0.79
  -2   1  26    7.02    0.78
   1  -1 -26    2.07    0.50
   1   1 -26    1.37    0.45
   0  -1 -26    0.54    0.38
   0   1 -26    0.58    0.43
  -1  -1 -26    1.21    0.44
  -1   1 -26    1.01    0.42
  -2  -1 -26    2.63    0.61
  -2   1 -26    2.33    0.52
  -2   1 -26    2.86    0.41
  -3  -1 -26    1.38    0.49
  -3   1 -26    1.05    0.33
  -3   1 -26    0.95    0.45
  -4  -1 -26    9.99    1.01
  -4   1 -26   12.13    0.80
  -4   1 -26   10.36    1.00
  -5  -1 -26    6.57    0.90
  -5   1 -26    5.66    0.70
  -5   1 -26    5.74    0.79
  -6  -1 -26    8.77    1.03
  -6   1 -26   10.43    1.05
  -6   1 -26   12.40    1.04
  -7  -1 -26    0.82    0.59
  -7   1 -26   -0.30    0.46
  -8  -1 -26    2.08    0.77
  -8   1 -26    0.35    0.48
  -9  -1 -26    3.18    0.84
  -9   1 -26    5.22    0.92
  -9   1 -26    6.44    0.92
  11   2 -26    8.16    1.15
  10   2 -26    1.13    0.62
   9  -2 -26   19.62    1.29
   9   2 -26   20.19    1.41
  -9   2  26   20.53    1.25
   8  -2 -26   -0.01    0.41
   8   2 -26   -0.39    0.39
  -8   2  26    0.26    0.40
   7  -2 -26    0.24    0.40
   7   2 -26    0.42    0.42
  -7   2  26    0.15    0.39
   6  -2 -26    7.63    0.83
   6   2 -26    6.66    0.83
  -6   2  26    8.79    0.91
   5  -2 -26    0.02    0.31
   5   2 -26    0.07    0.42
  -5   2  26   -0.18    0.37
   4  -2 -26    2.28    0.54
  -4   2  26    1.44    0.47
   4   2 -26    1.88    0.52
   3  -2 -26    6.40    0.74
   3   2 -26    5.89    0.76
  -3   2  26    5.53    0.71
   2  -2 -26   23.21    1.20
   2   2 -26   25.32    1.26
  -2   2  26   20.98    1.13
   1  -2 -26  162.40    3.93
   1   2 -26  154.25    3.88
  -1   2  26  159.91    3.81
   0  -2 -26   13.54    1.09
   0   2 -26    9.84    0.92
  -1  -2 -26    0.00    0.34
  -1   2 -26    0.10    0.37
  -1   2 -26    0.37    0.25
  -2  -2 -26    0.78    0.43
  -2   2 -26    0.66    0.29
  -2   2 -26    0.54    0.38
  -3  -2 -26   12.08    1.08
  -3   2 -26   13.07    0.81
  -3   2 -26   13.94    1.02
  -4  -2 -26    1.78    0.58
  -4   2 -26    2.25    0.45
  -4   2 -26    1.98    0.56
  -5  -2 -26    2.74    0.64
  -5   2 -26    2.96    0.68
  -5   2 -26    1.31    0.45
  -6  -2 -26    6.71    0.95
  -6   2 -26    5.19    0.73
  -6   2 -26    6.47    0.90
  -7  -2 -26   11.06    1.22
  -7   2 -26   12.45    1.13
  -7   2 -26   11.60    1.19
  -8  -2 -26    0.13    0.53
  -8   2 -26    0.58    0.43
  -8   2 -26   -0.12    0.50
  -9  -2 -26   21.18    1.82
  -9   2 -26   15.38    1.43
  -9   2 -26   18.97    1.53
 -10   3  26   14.68    1.28
  10   3 -26   13.93    1.45
  -9   3  26    0.38    0.46
   9   3 -26   -0.21    0.47
  -8   3  26    0.39    0.49
   8   3 -26   -0.12    0.39
   7  -3 -26    3.93    0.68
   7   3 -26    3.03    0.73
  -7   3  26    2.74    0.64
   6  -3 -26    6.44    0.77
  -6   3  26    5.16    0.75
   6   3 -26    6.86    0.87
   5  -3 -26    4.98    0.68
   5   3 -26    4.44    0.71
  -5   3  26    5.09    0.72
   4  -3 -26   29.14    1.35
  -4   3  26   27.51    1.37
   4   3 -26   28.00    1.41
   3  -3 -26   -0.31    0.33
  -3   3  26    0.03    0.34
   3   3 -26    0.25    0.37
   2  -3 -26    8.49    0.84
   2   3 -26    7.55    0.86
  -2   3  26    7.51    0.79
   1  -3 -26    0.23    0.39
   1   3 -26   -0.40    0.35
  -1   3  26    0.51    0.36
   0  -3 -26   19.85    1.13
   0   3 -26   18.00    1.07
   0   3 -26   17.66    0.83
   0   3  26   18.14    1.06
  -1  -3 -26    4.82    0.71
  -1   3 -26    4.27    0.67
  -1   3 -26    4.02    0.51
  -2  -3 -26    0.97    0.51
  -2   3 -26    1.21    0.44
  -2   3 -26    0.90    0.34
  -3  -3 -26    0.52    0.44
  -3   3 -26   -0.10    0.29
  -3   3 -26    0.80    0.45
  -4  -3 -26    1.87    0.56
  -4   3 -26    1.36    0.50
  -4   3 -26    1.09    0.41
  -5  -3 -26    0.85    0.51
  -5   3 -26    0.33    0.45
  -5   3 -26    0.59    0.39
  -6  -3 -26    0.03    0.44
  -6   3 -26    0.08    0.44
  -6   3 -26    0.71    0.42
  -7  -3 -26    3.78    0.83
  -7   3 -26    3.09    0.67
  -7   3 -26    4.35    0.81
  -8  -3 -26    8.02    1.11
  -8   3 -26    7.47    0.97
  -9  -3 -26   -0.38    0.61
  -9   3 -26   -0.53    0.39
  10   4 -26    0.87    0.67
 -10   4  26    1.18    0.61
  -9   4  26    4.92    0.85
   9   4 -26    4.01    0.83
  -8   4  26    6.59    0.92
   8   4 -26    7.69    1.08
  -7   4  26    1.10    0.54
   7   4 -26    0.96    0.56
   6   4 -26    1.26    0.55
  -6   4  26    0.18    0.40
  -5   4  26    2.99    0.62
   5   4 -26    3.30    0.66
   4  -4 -26    0.45    0.39
   4   4 -26    0.74    0.47
  -4   4  26    0.24    0.40
   3  -4 -26    0.09    0.34
  -3   4  26    0.11    0.36
   3   4 -26   -0.02    0.39
   2  -4 -26    5.17    0.71
  -2   4  26    4.82    0.74
   2   4 -26    4.61    0.67
   1  -4 -26    3.18    0.60
   1   4 -26    2.49    0.53
   1   4 -26    2.90    0.46
  -1   4  26    3.04    0.57
   0  -4 -26    7.17    0.81
   0   4  26    8.74    0.88
   0   4 -26    8.10    0.85
   0   4 -26    8.37    0.72
  -1  -4 -26    2.43    0.59
  -1   4 -26    1.88    0.44
  -1   4 -26    1.86    0.51
   1   4  26    1.47    0.47
  -2  -4 -26   10.90    1.06
  -2   4 -26    9.32    0.92
  -2   4 -26   10.85    0.88
  -3  -4 -26   11.47    1.13
  -3   4 -26    9.66    0.88
  -3   4 -26   11.33    1.01
  -4  -4 -26    1.96    0.60
  -4   4 -26    0.79    0.42
  -4   4 -26    1.36    0.43
  -5  -4 -26    1.03    0.58
  -5   4 -26    0.13    0.39
  -6  -4 -26    3.05    0.75
  -6   4 -26    3.01    0.65
  -7  -4 -26   -0.87    0.48
  -7   4 -26   -0.29    0.39
  -8  -4 -26    1.79    0.72
  -8   4 -26    1.32    0.59
  -9   5  26    1.44    0.66
   9   5 -26    0.86    0.68
  -8   5  26    0.56    0.52
   8   5 -26   -0.21    0.50
  -7   5  26    0.87    0.51
   7   5 -26    1.23    0.53
   6   5 -26    5.46    0.92
  -6   5  26    7.54    0.97
   5   5 -26    8.33    1.00
  -5   5  26    7.48    0.92
  -4   5  26    6.99    0.90
   4   5 -26    6.20    0.83
  -3   5  26    0.15    0.38
   3   5 -26    0.17    0.41
   2   5 -26    6.39    0.82
  -2   5  26    6.48    0.81
   1  -5 -26    3.33    0.61
  -1   5  26    2.66    0.59
   1   5 -26    3.24    0.63
   1   5 -26    3.82    0.55
   0  -5 -26    4.75    0.72
   0   5 -26    4.65    0.60
   0   5 -26    4.25    0.65
   0   5  26    4.44    0.71
  -1  -5 -26    0.52    0.41
  -1   5 -26    1.29    0.50
   1   5  26    1.09    0.51
  -1   5 -26    0.80    0.39
  -2  -5 -26    5.62    0.82
  -2   5 -26    5.42    0.70
  -2   5 -26    8.07    0.87
  -3  -5 -26    1.86    0.61
  -3   5 -26    2.45    0.57
  -4  -5 -26   15.01    1.30
  -4   5 -26   15.56    1.08
  -5  -5 -26    1.28    0.63
  -5   5 -26    1.62    0.53
  -6  -5 -26   -0.74    0.40
  -6   5 -26   -0.21    0.35
  -7  -5 -26    0.67    0.64
  -7   5 -26   -0.07    0.43
  -8   5 -26    1.02    0.58
   8   6 -26    1.24    0.59
  -8   6  26    0.86    0.57
  -7   6  26    6.00    0.98
   7   6 -26    4.27    0.86
  -6   6  26   11.86    1.21
   6   6 -26   13.71    1.30
   5   6 -26    2.28    0.67
  -5   6  26    1.40    0.60
  -4   6  26    0.30    0.49
   4   6 -26    0.72    0.47
  -3   6  26    3.78    0.73
   3   6 -26    5.06    0.75
   2   6 -26    0.93    0.48
   2   6 -26    0.19    0.33
  -2   6  26    0.26    0.43
   1   6 -26   30.48    1.34
   1   6 -26   32.60    1.49
  -1   6  26   31.76    1.58
   0   6  26    1.96    0.55
   0   6 -26    3.02    0.56
  -1   6 -26    3.01    0.56
   1   6  26    3.29    0.68
  -2  -6 -26    7.83    0.95
  -2   6 -26    8.49    0.93
  -3  -6 -26    5.24    0.85
  -3   6 -26    4.80    0.75
  -4  -6 -26    1.31    0.55
  -4   6 -26   -0.13    0.34
  -5  -6 -26    0.91    0.67
  -5   6 -26    0.42    0.50
  -6  -6 -26    1.07    0.60
  -6   6 -26    1.46    0.61
  -7  -6 -26    2.90    0.89
  -7   6 -26    2.25    0.68
   7   7 -26    8.97    1.17
  -7   7  26    9.42    1.22
  -6   7  26    4.43    0.85
   6   7 -26    7.22    1.03
   5   7 -26    0.68    0.53
  -5   7  26   -0.10    0.44
  -4   7  26   -0.28    0.42
   4   7 -26    0.27    0.47
  -3   7  26    0.09    0.45
   2   7 -26    0.45    0.37
  -2   7  26    0.30    0.46
  -1   7  26    2.13    0.60
   1   7 -26    1.73    0.52
   0   7  26    7.10    0.92
   0   7 -26    7.71    0.88
  -1   7 -26    8.76    0.97
   1   7  26    9.25    1.02
  -2   7 -26    1.50    0.48
   2   7  26    0.96    0.50
  -3   7 -26    6.51    0.91
  -4   7 -26    0.82    0.52
  -5  -7 -26    1.40    0.68
  -5   7 -26    0.78    0.55
  -5   8  26    0.27    0.60
  -4   8  26    3.50    0.82
  -3   8  26    1.56    0.61
   2   8 -26    4.97    0.79
  -2   8  26    6.65    0.97
  -1   8  26    2.24    0.69
   1   8 -26    2.83    0.68
   0   8  26    4.86    0.80
   0   8 -26    4.43    0.74
  -1   8 -26    3.12    0.69
  -2   8 -26    2.74    0.64
  -3   8 -26    5.34    0.84
  -4   8 -26   -0.60    0.42
  -1   9  26    0.29    0.45
   1   9 -26    0.13    0.44
  11   0 -27   23.22    1.60
  10   0 -27   -0.01    0.50
   9   0 -27    0.10    0.44
   8   0 -27    0.13    0.42
   7   0 -27    9.21    0.98
   6   0 -27    0.41    0.44
  -6   0  27    0.10    0.33
  -5   0  27   24.45    1.14
   5   0 -27   25.32    1.34
   4   0 -27   -0.47    0.35
  -4   0  27    0.64    0.39
   3   0 -27    0.64    0.41
   2   0 -27    0.37    0.36
   1   0 -27    2.29    0.54
   0   0 -27    1.32    0.48
  -1   0 -27   21.45    1.20
  -2   0 -27   -0.12    0.36
  -3   0 -27    0.45    0.44
  -4   0 -27    0.23    0.40
  -5   0 -27    0.66    0.53
  -6   0 -27   -0.47    0.36
  -7   0 -27    9.75    1.10
  -8   0 -27   -0.24    0.46
  -9   0 -27    6.85    1.06
  11  -1 -27    2.92    0.77
  11   1 -27    2.34    0.80
  10  -1 -27   10.96    1.20
  10   1 -27   11.29    1.24
   9  -1 -27    0.53    0.49
   9   1 -27   -0.35    0.39
   8  -1 -27    0.01    0.46
  -8   1  27    0.67    0.44
   8   1 -27    0.34    0.49
   7  -1 -27    0.72    0.45
  -7   1  27    0.15    0.36
   7   1 -27    0.64    0.48
   6  -1 -27   20.61    1.25
  -6  -1  27   19.47    1.01
   6   1 -27   20.20    1.29
  -6   1  27   17.97    1.08
   5  -1 -27   19.40    1.17
  -5   1  27   19.04    1.09
   5   1 -27   16.66    1.11
   4  -1 -27   -0.01    0.35
  -4   1  27    0.15    0.36
   4   1 -27    0.56    0.42
   3  -1 -27  132.37    3.44
   3   1 -27  132.03    3.47
  -3   1  27  128.23    3.26
   2  -1 -27   30.66    1.42
  -2   1  27   31.98    1.36
   2   1 -27   30.38    1.42
   1  -1 -27    3.51    0.60
   1   1 -27    4.49    0.70
   0  -1 -27    0.04    0.36
   0   1 -27    0.26    0.40
  -1  -1 -27    3.49    0.62
  -1   1 -27    3.27    0.60
  -2  -1 -27    8.54    0.90
  -2   1 -27    8.12    0.65
  -2   1 -27    6.28    0.79
  -3  -1 -27   16.45    1.16
  -3   1 -27   16.72    1.10
  -3   1 -27   17.14    0.87
  -4  -1 -27   18.26    1.24
  -4   1 -27   18.15    1.20
  -4   1 -27   17.13    0.96
  -5  -1 -27    0.59    0.46
  -5   1 -27    0.45    0.36
  -5   1 -27    1.05    0.56
  -6  -1 -27    0.45    0.47
  -6   1 -27   -0.44    0.34
  -6   1 -27    0.03    0.40
  -7  -1 -27    0.39    0.50
  -7   1 -27    0.36    0.53
  -7   1 -27    0.89    0.49
  -8  -1 -27    6.90    1.08
  -8   1 -27    5.55    0.84
  -8   1 -27    3.77    0.79
  -9  -1 -27   -0.78    0.53
  -9   1 -27    0.81    0.65
  -9   1 -27    0.02    0.50
  11   2 -27    0.15    0.63
  10   2 -27    0.77    0.66
   9  -2 -27    0.54    0.48
  -9   2  27    0.02    0.44
   9   2 -27    0.81    0.53
   8  -2 -27    5.48    0.77
  -8   2  27    7.05    0.85
   8   2 -27    8.21    1.01
   7  -2 -27    5.85    0.79
  -7   2  27    4.17    0.69
   7   2 -27    4.26    0.76
   6  -2 -27    3.48    0.62
  -6   2  27    3.67    0.62
   6   2 -27    3.89    0.70
   5  -2 -27   15.34    1.02
   5   2 -27   17.49    1.15
  -5   2  27   17.53    1.08
   4  -2 -27    3.47    0.63
  -4   2  27    4.26    0.69
   4   2 -27    3.95    0.67
   3  -2 -27   44.48    1.70
   3   2 -27   41.73    1.72
  -3   2  27   41.30    1.63
   2  -2 -27    4.56    0.69
   2   2 -27    3.90    0.66
  -2   2  27    4.34    0.62
   1  -2 -27   18.34    1.11
   1   2 -27   22.06    1.22
  -1   2  27   19.17    1.09
   0  -2 -27    2.57    0.56
   0   2 -27    2.14    0.56
  -1  -2 -27    8.20    0.88
  -1   2 -27    8.82    0.93
  -2  -2 -27   20.38    1.21
  -2   2 -27   19.38    0.91
  -2   2 -27   20.33    1.20
  -3  -2 -27    7.91    0.91
  -3   2 -27    7.78    0.88
  -3   2 -27    7.73    0.72
  -4  -2 -27    1.60    0.57
  -4   2 -27    2.26    0.49
  -4   2 -27    2.77    0.63
  -5  -2 -27    0.35    0.44
  -5   2 -27    0.32    0.42
  -5   2 -27    0.62    0.40
  -6  -2 -27    2.82    0.74
  -6   2 -27    3.98    0.70
  -6   2 -27    3.18    0.67
  -7  -2 -27    0.87    0.57
  -7   2 -27    1.22    0.52
  -7   2 -27    1.68    0.58
  -8  -2 -27    0.22    0.54
  -8   2 -27    0.46    0.47
  -8   2 -27    0.85    0.60
  -9  -2 -27    0.73    0.69
  -9   2 -27    0.24    0.46
  -9   2 -27    0.24    0.59
  10   3 -27    1.23    0.64
 -10   3  27    1.78    0.63
   9   3 -27    0.93    0.55
  -9   3  27   -0.38    0.43
  -8   3  27    1.55    0.57
   8   3 -27    1.72    0.62
  -7   3  27    9.58    0.99
   7   3 -27    8.16    1.00
   6  -3 -27   16.53    1.08
   6   3 -27   17.13    1.23
  -6   3  27   17.59    1.12
   5  -3 -27    8.69    0.89
  -5   3  27    9.16    0.98
   5   3 -27    8.67    0.95
   4  -3 -27    5.10    0.72
  -4   3  27    3.44    0.63
   4   3 -27    5.52    0.81
   3  -3 -27   34.55    1.51
   3   3 -27   36.13    1.60
  -3   3  27   35.73    1.56
   2  -3 -27   20.74    1.19
  -2   3  27   23.64    1.22
   2   3 -27   21.80    1.25
   1  -3 -27    0.76    0.43
   1   3 -27    0.08    0.41
  -1   3  27   -0.41    0.31
   0  -3 -27    9.81    0.96
   0   3  27   10.80    0.98
   0   3 -27    8.49    0.88
  -1  -3 -27   25.14    1.36
  -1   3 -27   26.17    1.35
  -1   3 -27   24.70    1.04
  -2  -3 -27   13.22    1.13
  -2   3 -27   13.01    0.81
  -2   3 -27   13.30    1.10
  -3  -3 -27    3.28    0.66
  -3   3 -27    3.66    0.64
  -3   3 -27    3.49    0.53
  -4  -3 -27    0.71    0.51
  -4   3 -27    1.13    0.42
  -4   3 -27    0.58    0.40
  -5  -3 -27    0.21    0.48
  -5   3 -27    1.03    0.46
  -5   3 -27    0.64    0.48
  -6  -3 -27    0.21    0.47
  -6   3 -27    0.42    0.47
  -6   3 -27    0.65    0.43
  -7  -3 -27    1.78    0.72
  -7   3 -27    1.64    0.61
  -7   3 -27    1.35    0.52
  -8  -3 -27    0.75    0.63
  -8   3 -27   -0.06    0.42
  -9   3 -27   -0.17    0.53
 -10   4  27    3.74    0.83
  10   4 -27    3.96    0.88
  -9   4  27    0.29    0.53
   9   4 -27    0.92    0.65
  -8   4  27    3.09    0.73
   8   4 -27    0.84    0.57
   7   4 -27    7.54    0.99
  -7   4  27    9.90    1.06
   6   4 -27    0.16    0.48
  -6   4  27    0.15    0.46
  -5   4  27   -0.28    0.40
   5   4 -27    0.68    0.51
   4  -4 -27   -0.10    0.34
   4   4 -27    0.39    0.42
  -4   4  27   -0.17    0.40
   3  -4 -27    1.26    0.44
  -3   4  27    0.83    0.48
   3   4 -27    0.26    0.41
   2  -4 -27   -0.22    0.31
   2   4 -27    0.28    0.39
  -2   4  27    0.26    0.39
   1  -4 -27    3.36    0.61
   1   4 -27    3.29    0.64
  -1   4  27    2.83    0.59
   0  -4 -27   -0.01    0.35
   0   4 -27    0.26    0.30
   0   4 -27    0.57    0.40
   0   4  27    1.02    0.49
  -1  -4 -27   24.39    1.35
  -1   4 -27   23.90    1.09
  -1   4 -27   23.75    1.28
  -2  -4 -27    2.13    0.56
  -2   4 -27    3.06    0.54
  -2   4 -27    3.74    0.65
  -3  -4 -27    1.46    0.56
  -3   4 -27    0.55    0.36
  -3   4 -27    0.57    0.41
  -4  -4 -27    8.33    0.98
  -4   4 -27    7.69    0.83
  -4   4 -27    9.09    0.98
  -5  -4 -27    1.21    0.56
  -5   4 -27    0.85    0.44
  -6  -4 -27   11.75    1.26
  -6   4 -27   14.20    1.21
  -7  -4 -27   -1.07    0.45
  -7   4 -27   -0.28    0.45
  -8  -4 -27    0.22    0.63
  -8   4 -27   -0.21    0.41
  -9   5  27    0.78    0.63
   9   5 -27    0.56    0.57
   8   5 -27    2.48    0.72
  -8   5  27    1.73    0.62
   7   5 -27    1.11    0.64
  -7   5  27    1.43    0.54
  -6   5  27    6.25    0.90
   6   5 -27    5.69    0.90
  -5   5  27   11.97    1.14
   5   5 -27   11.83    1.15
   4   5 -27   20.67    1.33
  -4   5  27   19.40    1.25
  -3   5  27   12.55    1.13
   3   5 -27   11.74    1.12
  -2   5  27   10.74    1.04
   2   5 -27   10.53    0.99
   1  -5 -27   -0.10    0.35
   1   5 -27    0.69    0.44
  -1   5  27    0.47    0.44
   0  -5 -27    0.07    0.32
   0   5 -27    0.39    0.33
   0   5  27   -0.14    0.34
   0   5 -27   -0.19    0.34
  -1  -5 -27    3.40    0.68
  -1   5 -27    4.55    0.64
   1   5  27    3.47    0.68
  -1   5 -27    3.09    0.61
  -2  -5 -27    3.39    0.70
  -2   5 -27    2.89    0.61
  -2   5 -27    1.91    0.49
  -3  -5 -27    0.45    0.47
  -3   5 -27    0.15    0.34
  -4  -5 -27    7.50    0.96
  -4   5 -27    7.74    0.88
  -5  -5 -27   17.30    1.47
  -5   5 -27   15.89    1.11
  -6  -5 -27   -0.40    0.49
  -6   5 -27    0.21    0.43
  -7  -5 -27   -0.19    0.56
  -7   5 -27    0.17    0.41
   8   6 -27    3.98    0.90
  -8   6  27    4.95    0.90
  -7   6  27   -0.92    0.43
   7   6 -27    0.72    0.54
   6   6 -27   13.75    1.28
  -6   6  27   15.88    1.36
  -5   6  27    7.23    1.04
   5   6 -27    6.38    0.90
  -4   6  27   28.02    1.57
   4   6 -27   27.47    1.53
  -3   6  27    0.53    0.48
   3   6 -27   -0.19    0.42
   2   6 -27    1.14    0.52
  -2   6  27    0.22    0.42
  -1   6  27    0.63    0.49
   1   6 -27   -0.26    0.37
   1   6 -27    0.52    0.38
   0   6  27    0.36    0.45
   0   6 -27    0.47    0.38
  -1   6 -27   -0.29    0.34
   1   6  27   -0.51    0.40
  -2  -6 -27    6.55    0.90
  -2   6 -27    5.23    0.74
  -3  -6 -27   -0.29    0.42
  -3   6 -27    0.24    0.36
  -4  -6 -27   10.71    1.16
  -4   6 -27   12.06    1.18
  -5  -6 -27    1.40    0.65
  -5   6 -27    1.44    0.58
  -6  -6 -27    3.00    0.83
  -6   6 -27    2.95    0.71
   7   7 -27    0.88    0.57
  -6   7  27    1.90    0.72
   6   7 -27    1.42    0.61
  -5   7  27    1.75    0.61
   5   7 -27    0.94    0.58
  -4   7  27    0.38    0.48
   4   7 -27    0.08    0.46
  -3   7  27    9.38    1.13
  -2   7  27    9.79    1.14
  -1   7  27   10.46    1.14
   1   7 -27    8.06    0.88
   0   7 -27    4.04    0.71
   0   7  27    4.04    0.76
  -1   7 -27   -0.22    0.33
   1   7  27    0.34    0.47
  -2   7 -27    0.64    0.49
  -3   7 -27   -0.04    0.37
  -4   7 -27    1.67    0.56
  -5  -7 -27    1.40    0.66
  -5   7 -27    0.58    0.49
  -4   8  27    0.88    0.56
  -3   8  27    2.11    0.72
  -2   8  27   -0.50    0.45
   2   8 -27    0.50    0.45
   1   8 -27    8.30    0.99
  -1   8  27    7.84    1.01
   0   8 -27    0.97    0.51
   0   8  27    0.51    0.54
  -1   8 -27    0.04    0.45
  -2   8 -27    4.04    0.74
  -3   8 -27    0.51    0.51
  11   0 -28    0.27    0.53
  10   0 -28    0.21    0.49
   9   0 -28   -0.06    0.47
   8   0 -28    0.39    0.49
  -7   0  28    0.24    0.35
   7   0 -28    0.66    0.49
   6   0 -28   25.37    1.36
  -6   0  28   23.11    1.16
  -5   0  28    0.18    0.31
   5   0 -28    0.09    0.38
  -4   0  28    1.18    0.43
   4   0 -28    0.74    0.44
   3   0 -28    0.03    0.37
   2   0 -28  244.36    5.52
   1   0 -28    0.52    0.38
   0   0 -28    5.28    0.72
  -1   0 -28    0.79    0.44
  -2   0 -28    0.31    0.40
  -3   0 -28   -0.10    0.37
  -4   0 -28   22.18    1.32
  -5   0 -28    1.05    0.48
  -6   0 -28    1.14    0.57
  -8   0 -28   -0.08    0.51
  -9   0 -28    0.61    0.64
  11  -1 -28    6.24    0.96
  11   1 -28    5.91    1.02
  10  -1 -28    4.99    0.90
  10   1 -28    3.95    0.86
   9  -1 -28   -0.13    0.46
   9   1 -28    0.65    0.55
   8  -1 -28    3.96    0.76
   8   1 -28    2.97    0.69
  -8   1  28    5.54    0.76
   7  -1 -28    1.05    0.55
   7   1 -28    0.29    0.42
  -7   1  28   -0.22    0.35
   6  -1 -28    2.80    0.60
  -6  -1  28    1.40    0.41
   6   1 -28    0.98    0.48
  -6   1  28    2.10    0.54
   5  -1 -28   -0.13    0.38
   5   1 -28    0.28    0.41
  -5   1  28    0.61    0.40
   4  -1 -28   18.21    1.14
  -4   1  28   16.29    1.02
   4   1 -28   16.92    1.17
   3  -1 -28   11.72    1.02
   3   1 -28   12.19    1.08
  -3   1  28   13.95    0.96
   2  -1 -28    0.56    0.44
   2   1 -28    0.75    0.42
   1  -1 -28   19.94    1.17
   1   1 -28   19.07    1.15
   0  -1 -28   -0.06    0.39
   0   1 -28    0.04    0.39
  -1  -1 -28   57.13    2.06
  -1   1 -28   56.72    2.06
  -2  -1 -28    0.40    0.41
  -3  -1 -28    1.52    0.54
  -3   1 -28    2.61    0.60
  -3   1 -28    3.03    0.48
  -4  -1 -28   15.69    1.13
  -4   1 -28   13.66    1.18
  -4   1 -28   15.77    0.92
  -5  -1 -28    0.33    0.48
  -5   1 -28    0.76    0.45
  -5   1 -28    0.28    0.34
  -6  -1 -28    9.95    1.10
  -6   1 -28   11.94    1.07
  -6   1 -28   11.54    1.18
  -7  -1 -28    2.52    0.72
  -7   1 -28    3.68    0.77
  -7   1 -28    3.35    0.66
  -8  -1 -28    0.79    0.58
  -8   1 -28    0.07    0.56
  -8   1 -28   -0.53    0.44
  -9  -1 -28    1.36    0.73
  -9   1 -28    0.57    0.65
  -9   1 -28    0.13    0.46
  10   2 -28    1.49    0.65
   9  -2 -28    0.37    0.50
   9   2 -28    0.92    0.59
  -9   2  28    1.21    0.54
   8  -2 -28   13.62    1.21
  -8   2  28   11.24    1.07
   8   2 -28   11.37    1.21
   7  -2 -28   -0.05    0.39
   7   2 -28    0.83    0.48
  -7   2  28    0.88    0.47
   6  -2 -28    7.65    0.89
   6   2 -28    7.32    0.95
  -6   2  28    6.39    0.82
   5  -2 -28    3.23    0.60
  -5   2  28    4.01    0.64
   5   2 -28    4.31    0.72
   4  -2 -28   14.36    1.00
   4   2 -28   11.97    1.07
  -4   2  28   14.68    1.02
   3  -2 -28   58.98    2.05
   3   2 -28   57.99    2.12
  -3   2  28   56.89    1.99
   2  -2 -28    0.88    0.42
   2   2 -28    1.27    0.48
  -2   2  28    0.31    0.37
   1  -2 -28    8.76    0.90
  -1   2  28    9.13    0.89
   1   2 -28   10.07    0.99
   0  -2 -28    0.68    0.43
   0   2 -28    0.24    0.36
  -1  -2 -28    3.67    0.67
  -1   2 -28    2.52    0.60
  -2  -2 -28    0.38    0.44
  -2   2 -28    0.13    0.36
  -2   2 -28    0.10    0.27
  -3  -2 -28    0.33    0.46
  -3   2 -28    0.64    0.32
  -3   2 -28   -0.10    0.34
  -4  -2 -28   -0.09    0.41
  -4   2 -28    0.30    0.34
  -4   2 -28   -0.08    0.40
  -5  -2 -28    4.34    0.77
  -5   2 -28    4.14    0.76
  -5   2 -28    4.75    0.66
  -6  -2 -28    0.42    0.51
  -6   2 -28    0.74    0.45
  -6   2 -28    0.66    0.54
  -7  -2 -28    0.85    0.62
  -7   2 -28    0.19    0.41
  -7   2 -28    0.37    0.52
  -8  -2 -28   -0.08    0.50
  -8   2 -28   -0.01    0.45
  -8   2 -28   -0.30    0.45
  -9   2 -28   -0.53    0.47
  -9   2 -28    1.11    0.70
 -10   3  28    1.22    0.59
  10   3 -28    2.29    0.80
  -9   3  28    6.35    0.92
   9   3 -28    5.02    0.93
  -8   3  28    0.00    0.41
   8   3 -28    1.03    0.54
  -7   3  28    1.71    0.59
   7   3 -28    1.53    0.63
   6  -3 -28    1.64    0.50
  -6   3  28    1.63    0.55
   6   3 -28    2.47    0.62
   5  -3 -28    3.64    0.63
   5   3 -28    3.38    0.73
  -5   3  28    3.63    0.66
   4  -3 -28   77.95    2.46
  -4   3  28   78.13    2.46
   4   3 -28   79.01    2.59
   3  -3 -28    0.74    0.42
   3   3 -28   -0.21    0.36
  -3   3  28    0.66    0.41
   2  -3 -28   30.23    1.45
   2   3 -28   29.78    1.44
  -2   3  28   29.21    1.42
   1  -3 -28   21.92    1.23
  -1   3  28   21.21    1.18
   1   3 -28   20.21    1.20
   0  -3 -28    1.85    0.55
   0   3 -28    1.63    0.54
  -1  -3 -28    0.27    0.46
  -1   3 -28    0.07    0.35
  -2  -3 -28    8.45    0.98
  -2   3 -28   11.03    1.03
  -2   3 -28    9.56    0.80
  -3  -3 -28    0.64    0.50
  -3   3 -28    1.27    0.38
  -3   3 -28    1.77    0.54
  -4  -3 -28   -0.55    0.42
  -4   3 -28   -0.12    0.36
  -4   3 -28    0.49    0.33
  -5  -3 -28   -0.18    0.45
  -5   3 -28    0.18    0.45
  -5   3 -28   -0.14    0.35
  -6  -3 -28    5.32    0.91
  -6   3 -28    6.05    0.84
  -6   3 -28    6.37    0.87
  -7  -3 -28    2.96    0.82
  -7   3 -28    1.09    0.60
  -7   3 -28    1.39    0.58
  -8  -3 -28    0.43    0.61
  -8   3 -28    1.00    0.59
 -10   4  28    1.59    0.66
  -9   4  28    0.34    0.52
   9   4 -28    0.34    0.56
   8   4 -28    0.21    0.55
  -8   4  28    0.99    0.54
  -7   4  28    0.51    0.48
   7   4 -28   -0.29    0.49
   6   4 -28    8.64    1.02
  -6   4  28   10.26    1.06
   5   4 -28   14.25    1.25
  -5   4  28   14.46    1.24
   4  -4 -28    0.32    0.40
  -4   4  28    0.58    0.46
   4   4 -28    0.80    0.48
   3  -4 -28   14.08    0.98
   3   4 -28   10.94    1.05
  -3   4  28   12.50    1.12
   2  -4 -28    7.22    0.82
  -2   4  28    8.19    0.88
   2   4 -28    7.20    0.85
   1  -4 -28    1.52    0.49
  -1   4  28    1.36    0.46
   1   4 -28    2.53    0.56
   0  -4 -28    0.55    0.44
   0   4  28    1.78    0.52
   0   4 -28    0.79    0.46
  -1  -4 -28    0.48    0.40
  -1   4 -28    0.75    0.31
  -1   4 -28    0.78    0.39
  -2  -4 -28   -0.34    0.42
  -2   4 -28   -0.29    0.29
  -2   4 -28    0.54    0.44
  -3  -4 -28   16.52    1.18
  -3   4 -28   13.69    0.94
  -3   4 -28   13.96    1.17
  -4  -4 -28    5.56    0.86
  -4   4 -28    6.44    0.84
  -4   4 -28    6.01    0.75
  -5  -4 -28    0.42    0.52
  -5   4 -28    0.78    0.45
  -6  -4 -28   11.87    1.34
  -6   4 -28   10.73    1.06
  -7  -4 -28    1.45    0.65
  -7   4 -28    2.32    0.66
  -8  -4 -28   -0.79    0.47
  -8   4 -28    1.15    0.56
  -9   5  28    0.78    0.61
   9   5 -28    0.50    0.65
   8   5 -28    2.00    0.77
  -8   5  28    1.92    0.69
  -7   5  28    0.58    0.52
   7   5 -28    1.10    0.60
   6   5 -28    0.92    0.57
  -6   5  28    1.27    0.60
   5   5 -28    0.11    0.47
  -5   5  28    0.22    0.44
  -4   5  28   17.65    1.21
   4   5 -28   20.82    1.30
  -3   5  28   30.49    1.54
   3   5 -28   32.44    1.57
  -2   5  28    0.56    0.41
   2   5 -28    0.51    0.41
   1  -5 -28   37.27    1.64
   1   5 -28   37.67    1.67
  -1   5  28   38.69    1.69
   0  -5 -28   14.55    1.07
   0   5  28   12.06    1.13
   0   5 -28   11.56    1.06
   0   5 -28   12.57    0.89
  -1  -5 -28   -0.09    0.44
  -1   5 -28    1.13    0.47
   1   5  28    1.65    0.55
  -1   5 -28    1.20    0.40
  -2  -5 -28    1.70    0.62
  -2   5 -28    1.81    0.54
  -2   5 -28    0.90    0.42
  -3  -5 -28   -0.40    0.41
  -3   5 -28    0.07    0.33
  -4  -5 -28    0.52    0.53
  -4   5 -28   -0.23    0.37
  -5  -5 -28    0.67    0.50
  -5   5 -28   -0.04    0.35
  -6  -5 -28   -0.21    0.56
  -6   5 -28    0.18    0.44
  -7  -5 -28    3.45    0.84
  -7   5 -28    3.24    0.72
   8   6 -28    3.59    0.83
  -8   6  28    3.99    0.87
   7   6 -28    1.74    0.75
  -7   6  28    2.99    0.78
   6   6 -28   -0.11    0.51
  -6   6  28    0.65    0.55
  -5   6  28   -0.30    0.48
   5   6 -28    0.19    0.49
   4   6 -28    1.22    0.55
  -4   6  28    0.05    0.49
  -3   6  28    1.90    0.61
   3   6 -28    2.36    0.59
   2   6 -28    3.05    0.66
  -2   6  28    1.56    0.53
  -1   6  28    0.34    0.42
   1   6 -28    0.01    0.38
   0   6 -28    8.96    0.90
   0   6  28    6.07    0.82
  -1   6 -28    4.85    0.71
   1   6  28    6.79    0.88
  -2  -6 -28    3.17    0.72
  -2   6 -28    5.88    0.79
  -3  -6 -28    6.21    0.93
  -3   6 -28    7.10    0.88
  -4  -6 -28   -0.01    0.52
  -4   6 -28    0.79    0.49
  -5  -6 -28    2.68    0.72
  -5   6 -28    2.07    0.57
  -6  -6 -28    0.35    0.60
  -6   6 -28    0.50    0.49
   7   7 -28    0.98    0.65
   6   7 -28    0.49    0.56
  -6   7  28    0.85    0.67
  -5   7  28    6.95    1.06
   5   7 -28    5.10    0.86
  -4   7  28    0.62    0.58
   4   7 -28    0.94    0.57
  -3   7  28    0.54    0.56
  -2   7  28    0.36    0.49
  -1   7  28    8.01    0.99
   0   7 -28   15.38    1.05
   0   7  28   15.91    1.37
   1   7  28    4.62    0.83
  -1   7 -28    5.10    0.79
  -2   7 -28    0.91    0.45
  -3   7 -28    1.07    0.55
  -4   7 -28    0.76    0.52
  -5  -7 -28    0.90    0.69
  -5   7 -28    0.08    0.52
  -4   8  28    7.31    1.05
  -3   8  28    3.98    0.87
  -2   8  28    0.30    0.49
  -1   8  28    3.76    0.81
   1   8 -28    5.13    0.79
   0   8  28    1.59    0.66
   0   8 -28    0.46    0.46
  -1   8 -28    1.06    0.53
  -2   8 -28    0.05    0.43
  -3   8 -28    1.17    0.56
  11   0 -29    7.61    1.15
  10   0 -29   -0.18    0.53
   9   0 -29    2.70    0.69
   8   0 -29    0.44    0.46
  -7   0  29   71.27    2.23
   7   0 -29   72.93    2.55
  -6   0  29    0.57    0.39
   6   0 -29   -0.09    0.34
  -5   0  29    0.16    0.34
   5   0 -29    0.34    0.45
  -4   0  29    0.67    0.38
   4   0 -29    0.14    0.37
   3   0 -29   30.13    1.48
   1   0 -29  125.54    3.44
   0   0 -29    0.04    0.37
  -1   0 -29    8.96    0.99
  -2   0 -29   -0.19    0.35
  -3   0 -29    5.86    0.79
  -4   0 -29    0.28    0.41
  -5   0 -29    7.77    0.98
  -6   0 -29   -0.17    0.50
  -7   0 -29    0.37    0.59
  -8   0 -29   -0.20    0.52
  -9   0 -29    2.74    0.86
  11  -1 -29    0.90    0.65
  11   1 -29    0.57    0.62
  10  -1 -29    0.01    0.47
  10   1 -29   -0.09    0.50
   9  -1 -29   10.39    1.11
   9   1 -29   11.68    1.22
   8  -1 -29   -0.43    0.41
   8   1 -29   -0.62    0.47
  -8   1  29    0.29    0.40
   7  -1 -29    5.16    0.78
  -7   1  29    4.29    0.68
   7   1 -29    5.20    0.84
   6  -1 -29    2.07    0.56
   6   1 -29    2.22    0.60
  -6   1  29    2.14    0.53
   5  -1 -29    0.34    0.44
   5   1 -29    0.50    0.43
  -5   1  29    0.23    0.36
   4  -1 -29   95.66    2.83
  -4   1  29   92.47    2.67
   4   1 -29   95.14    2.89
   3  -1 -29    5.72    0.75
   3   1 -29    4.64    0.71
  -3   1  29    6.14    0.74
   2  -1 -29   13.60    1.00
   2   1 -29   11.48    1.04
   1  -1 -29   37.80    1.68
   1   1 -29   40.58    1.72
   0  -1 -29    9.59    0.96
   0   1 -29   10.07    0.97
  -1  -1 -29   27.76    1.44
  -1   1 -29   27.42    1.40
  -2  -1 -29    0.05    0.37
  -2   1 -29    0.11    0.43
  -3  -1 -29    0.21    0.47
  -3   1 -29   -0.12    0.38
  -4  -1 -29    6.87    0.90
  -4   1 -29    8.71    0.79
  -4   1 -29    7.35    0.90
  -5  -1 -29    0.67    0.56
  -5   1 -29    0.42    0.38
  -5   1 -29    1.49    0.59
  -6  -1 -29   -0.27    0.49
  -6   1 -29    0.68    0.44
  -6   1 -29   -0.47    0.38
  -7  -1 -29    2.30    0.71
  -7   1 -29    4.42    0.86
  -7   1 -29    2.97    0.63
  -8  -1 -29    3.13    0.82
  -8   1 -29    4.17    0.82
  -8   1 -29    4.54    0.92
  -9  -1 -29    4.85    0.96
  -9   1 -29    6.26    1.02
  -9   1 -29    6.42    0.97
  10   2 -29    0.10    0.64
   9  -2 -29   -0.17    0.41
  -9   2  29    0.50    0.47
   9   2 -29   -0.10    0.49
   8  -2 -29    3.82    0.73
  -8   2  29    3.52    0.70
   8   2 -29    3.05    0.72
   7  -2 -29   -0.33    0.39
   7   2 -29   -0.03    0.38
  -7   2  29    0.15    0.39
   6  -2 -29   38.65    1.70
  -6   2  29   40.15    1.69
   6   2 -29   38.17    1.80
   5  -2 -29    4.36    0.68
  -5   2  29    5.16    0.73
   5   2 -29    4.83    0.76
   4  -2 -29    5.39    0.76
  -4   2  29    6.78    0.81
   4   2 -29    6.22    0.82
   3  -2 -29    2.37    0.56
   3   2 -29    1.90    0.56
  -3   2  29    2.53    0.54
   2  -2 -29    0.79    0.44
  -2   2  29    1.52    0.52
   2   2 -29    1.55    0.50
   1  -2 -29    6.04    0.79
   1   2 -29    4.55    0.69
   0  -2 -29   26.43    1.40
   0   2 -29   23.35    1.30
  -1  -2 -29   -0.27    0.38
  -1   2 -29    0.07    0.39
  -2  -2 -29    6.60    0.86
  -2   2 -29    6.89    0.84
  -3  -2 -29    1.91    0.59
  -3   2 -29    1.43    0.40
  -3   2 -29    1.07    0.48
  -4  -2 -29    1.45    0.55
  -4   2 -29    2.57    0.51
  -4   2 -29    2.50    0.63
  -5  -2 -29    5.56    0.86
  -5   2 -29    5.66    0.86
  -5   2 -29    4.43    0.68
  -6  -2 -29   -0.14    0.46
  -6   2 -29   -0.01    0.39
  -6   2 -29   -0.03    0.45
  -7  -2 -29    1.67    0.70
  -7   2 -29    2.20    0.60
  -7   2 -29    1.09    0.57
  -8  -2 -29    7.71    1.18
  -8   2 -29    8.56    1.02
  -8   2 -29    8.76    1.16
 -10   3  29    1.61    0.64
  10   3 -29    0.40    0.60
  -9   3  29    7.62    0.96
   9   3 -29    7.92    1.07
   8   3 -29    1.10    0.57
  -8   3  29    1.10    0.58
  -7   3  29    4.28    0.75
   7   3 -29    4.60    0.82
   6  -3 -29    0.21    0.39
  -6   3  29    0.15    0.41
   6   3 -29    0.53    0.46
   5  -3 -29    0.44    0.37
   5   3 -29    0.78    0.50
  -5   3  29    0.23    0.41
   4  -3 -29    9.40    0.95
  -4   3  29    7.62    0.87
   4   3 -29    9.38    1.03
   3  -3 -29    6.88    0.85
  -3   3  29    7.52    0.84
   3   3 -29    8.25    0.93
   2  -3 -29   35.10    1.60
   2   3 -29   40.62    1.73
  -2   3  29   40.80    1.66
   1  -3 -29   48.01    1.89
   1   3 -29   49.39    1.93
  -1   3  29   50.61    1.88
   0  -3 -29    0.27    0.42
   0   3 -29    0.31    0.38
  -1  -3 -29    3.39    0.68
  -1   3 -29    3.95    0.68
  -2  -3 -29    8.06    0.94
  -2   3 -29    8.16    0.94
  -3  -3 -29    2.44    0.61
  -3   3 -29    1.97    0.53
  -3   3 -29    2.62    0.51
  -4  -3 -29    0.08    0.43
  -4   3 -29   -0.11    0.31
  -4   3 -29    0.77    0.48
  -5  -3 -29   10.37    1.15
  -5   3 -29   10.33    0.98
  -5   3 -29   11.56    1.14
  -6  -3 -29    2.73    0.76
  -6   3 -29    2.68    0.71
  -6   3 -29    1.99    0.59
  -7  -3 -29   -0.30    0.46
  -7   3 -29   -0.25    0.44
  -7   3 -29   -0.44    0.46
  -8  -3 -29    3.29    0.91
  -8   3 -29    6.68    0.96
   9   4 -29    3.09    0.86
  -9   4  29    1.88    0.64
   8   4 -29    0.44    0.53
  -8   4  29    1.47    0.59
  -7   4  29    2.10    0.63
   7   4 -29    1.78    0.63
   6   4 -29    0.58    0.54
  -6   4  29    0.38    0.46
   5   4 -29    2.68    0.65
  -5   4  29    2.73    0.65
   4  -4 -29    0.48    0.41
   4   4 -29    1.35    0.56
  -4   4  29   -0.13    0.46
   3  -4 -29   33.52    1.51
   3   4 -29   28.72    1.52
  -3   4  29   33.41    1.57
   2  -4 -29    7.73    0.89
   2   4 -29    7.19    0.91
  -2   4  29    6.11    0.80
   1  -4 -29   16.89    1.16
   1   4 -29   16.59    1.13
  -1   4  29   16.93    1.15
   0  -4 -29    9.28    1.02
   0   4 -29    7.16    0.88
   0   4  29    8.80    0.94
  -1  -4 -29   10.20    1.03
  -1   4 -29   13.69    1.15
  -2  -4 -29    0.37    0.43
  -2   4 -29    0.65    0.45
  -2   4 -29    0.53    0.36
  -3  -4 -29    7.26    0.95
  -3   4 -29    5.35    0.79
  -3   4 -29    5.69    0.72
  -4  -4 -29    5.30    0.91
  -4   4 -29    3.80    0.66
  -4   4 -29    4.97    0.79
  -5  -4 -29   -0.47    0.39
  -5   4 -29    0.11    0.35
  -6  -4 -29    3.48    0.81
  -6   4 -29    4.18    0.71
  -7  -4 -29    3.80    0.85
  -7   4 -29    3.19    0.75
  -8   4 -29    2.71    0.69
   9   5 -29    1.06    0.67
  -9   5  29    0.15    0.55
   8   5 -29   -0.10    0.49
  -8   5  29    0.06    0.53
  -7   5  29    4.24    0.81
   7   5 -29    3.68    0.80
  -6   5  29    2.83    0.74
   6   5 -29    2.66    0.71
   5   5 -29    1.11    0.52
  -5   5  29    0.67    0.49
  -4   5  29    0.79    0.46
   4   5 -29    0.95    0.56
   3   5 -29    2.32    0.59
  -3   5  29    1.53    0.54
  -2   5  29    9.75    1.06
   2   5 -29    7.34    0.92
   1  -5 -29    3.57    0.69
  -1   5  29    3.78    0.72
   1   5 -29    2.72    0.62
   0  -5 -29   -0.09    0.39
   0   5 -29    0.47    0.38
   0   5  29   -0.14    0.36
  -1  -5 -29   31.08    1.60
  -1   5 -29   33.65    1.55
  -1   5 -29   27.37    1.31
  -2  -5 -29    1.45    0.56
  -2   5 -29    1.86    0.50
  -2   5 -29    1.30    0.53
  -3  -5 -29    5.48    0.88
  -3   5 -29    5.72    0.74
  -4  -5 -29    1.02    0.59
  -4   5 -29    0.02    0.35
  -5  -5 -29    0.91    0.62
  -5   5 -29    1.42    0.55
  -6  -5 -29    0.29    0.59
  -6   5 -29    0.37    0.48
  -7  -5 -29    3.62    0.88
  -7   5 -29    2.25    0.67
   8   6 -29    3.96    0.94
  -7   6  29   10.83    1.25
   7   6 -29    9.60    1.19
   6   6 -29   27.92    1.65
  -6   6  29   29.96    1.70
  -5   6  29    0.06    0.48
   5   6 -29   -0.45    0.40
  -4   6  29    5.70    0.92
   4   6 -29    4.13    0.78
  -3   6  29   15.53    1.35
   3   6 -29   12.74    1.23
   2   6 -29   12.60    1.18
  -2   6  29   12.32    1.21
   1   6 -29    4.28    0.74
  -1   6  29    3.13    0.70
   0   6  29    1.62    0.59
   1   6  29    0.71    0.49
  -1   6 -29    2.05    0.53
  -2  -6 -29   10.04    1.12
  -2   6 -29    7.50    0.90
  -3  -6 -29    0.93    0.56
  -3   6 -29    0.00    0.41
  -4  -6 -29    7.31    1.05
  -4   6 -29    8.31    0.96
  -5  -6 -29    3.32    0.85
  -5   6 -29    2.12    0.63
  -6  -6 -29    0.61    0.64
  -6   6 -29    0.44    0.47
  -6   7  29    3.22    0.85
   6   7 -29    3.74    0.85
   5   7 -29   -0.01    0.51
  -5   7  29    0.16    0.57
   4   7 -29    2.98    0.69
  -4   7  29    2.86    0.79
  -3   7  29    8.53    1.06
  -2   7  29   10.19    1.15
  -1   7  29    2.76    0.71
   0   7  29    0.85    0.50
   0   7 -29    0.35    0.44
  -1   7 -29    0.96    0.47
   1   7  29    0.05    0.49
  -2   7 -29   -0.29    0.40
  -3   7 -29    1.56    0.60
  -4   7 -29    0.26    0.46
  -3   8  29    3.69    0.81
  -2   8  29    3.12    0.81
  -1   8  29   -0.33    0.47
   0   8  29    1.49    0.65
   0   8 -29    1.08    0.49
  -1   8 -29    0.15    0.47
  -2   8 -29    0.44    0.44
  10   0 -30   -0.09    0.47
   9   0 -30   -0.42    0.45
   8   0 -30   16.13    1.41
  -7   0  30    0.32    0.38
   7   0 -30    0.25    0.45
  -6   0  30    3.83    0.65
   6   0 -30    3.07    0.66
   5   0 -30   -0.18    0.38
  -5   0  30   -0.53    0.31
   4   0 -30   61.08    2.21
   3   0 -30    0.60    0.42
   2   0 -30   41.87    1.75
   1   0 -30    1.07    0.47
   0   0 -30    1.86    0.54
  -1   0 -30   -0.03    0.39
  -2   0 -30   25.94    1.41
  -3   0 -30   -0.13    0.37
  -4   0 -30   49.75    2.05
  -5   0 -30    0.52    0.52
  -6   0 -30    0.13    0.45
  -7   0 -30   -0.56    0.40
  -8   0 -30    4.70    0.93
  10  -1 -30    0.11    0.53
  10   1 -30   -0.84    0.52
   9  -1 -30    0.37    0.53
   9   1 -30   -0.16    0.50
   8  -1 -30    8.22    0.99
  -8   1  30    6.68    0.85
   8   1 -30    7.59    1.00
   7  -1 -30   17.73    1.26
  -7   1  30   17.70    1.13
   7   1 -30   17.88    1.32
   6  -1 -30   -0.50    0.33
   6   1 -30    1.02    0.48
  -6   1  30    0.39    0.40
   5  -1 -30   12.53    1.11
  -5   1  30   11.94    1.03
   5   1 -30   11.05    1.10
   4  -1 -30    6.26    0.86
   4   1 -30    6.29    0.82
  -4   1  30    4.60    0.68
   3  -1 -30   18.35    1.17
  -3   1  30   20.18    1.17
   3   1 -30   18.52    1.19
   2  -1 -30    8.58    0.95
   2   1 -30   10.04    0.99
   1  -1 -30   20.64    1.27
   1   1 -30   20.74    1.24
   0  -1 -30    2.16    0.60
   0   1 -30    2.27    0.57
  -1  -1 -30    8.09    0.92
  -1   1 -30    7.75    0.89
  -2  -1 -30   -0.11    0.37
  -2   1 -30    0.02    0.37
  -3  -1 -30    0.41    0.45
  -3   1 -30   -0.25    0.37
  -4  -1 -30    2.16    0.66
  -4   1 -30    2.26    0.66
  -5  -1 -30    1.71    0.59
  -5   1 -30    2.10    0.61
  -5   1 -30    1.93    0.49
  -6  -1 -30    0.13    0.53
  -6   1 -30    1.01    0.57
  -6   1 -30    0.46    0.42
  -7  -1 -30    2.18    0.74
  -7   1 -30    2.05    0.64
  -7   1 -30    1.24    0.57
  -8  -1 -30    0.81    0.65
  -8   1 -30    0.51    0.46
  -8   1 -30    0.24    0.57
  10   2 -30    1.11    0.63
   9  -2 -30    9.96    1.14
  -9   2  30    9.39    1.02
   9   2 -30    9.32    1.16
   8  -2 -30    2.09    0.64
   8   2 -30    3.70    0.79
  -8   2  30    3.25    0.69
   7  -2 -30    0.02    0.44
   7   2 -30    0.41    0.51
  -7   2  30    0.43    0.46
   6  -2 -30    4.91    0.75
  -6   2  30    3.32    0.68
   6   2 -30    4.27    0.77
   5  -2 -30   30.49    1.52
  -5   2  30   27.63    1.39
   5   2 -30   27.92    1.50
   4  -2 -30    1.04    0.51
  -4   2  30    1.64    0.55
   4   2 -30    2.93    0.67
   3  -2 -30   10.84    1.03
  -3   2  30   10.00    0.95
   3   2 -30   10.09    1.05
   2  -2 -30    0.78    0.48
   2   2 -30    0.93    0.47
  -2   2  30    0.27    0.40
   1  -2 -30   16.76    1.12
   1   2 -30   14.00    1.04
   0  -2 -30   31.46    1.54
   0   2 -30   34.49    1.63
  -1  -2 -30    0.70    0.42
  -1   2 -30    0.53    0.41
  -2  -2 -30   -0.01    0.40
  -2   2 -30    0.57    0.45
  -3  -2 -30    2.00    0.62
  -3   2 -30    2.96    0.66
  -4  -2 -30    0.66    0.52
  -4   2 -30    0.40    0.49
  -4   2 -30    0.21    0.33
  -5  -2 -30    0.38    0.52
  -5   2 -30   -0.28    0.39
  -5   2 -30    0.06    0.37
  -6  -2 -30    2.92    0.73
  -6   2 -30    1.68    0.61
  -6   2 -30    2.15    0.57
  -7  -2 -30    2.40    0.71
  -7   2 -30    3.01    0.79
  -7   2 -30    4.11    0.74
  -8  -2 -30    1.55    0.76
  -8   2 -30    4.38    0.89
  -8   2 -30    2.91    0.76
 -10   3  30   -0.49    0.48
   9   3 -30    2.04    0.73
  -9   3  30    0.66    0.55
  -8   3  30    0.64    0.54
   8   3 -30    1.39    0.61
  -7   3  30    0.77    0.51
   7   3 -30    0.15    0.46
   6  -3 -30   -0.28    0.36
  -6   3  30    0.15    0.40
   6   3 -30   -0.22    0.40
   5  -3 -30    5.91    0.80
  -5   3  30    4.91    0.75
   5   3 -30    5.06    0.84
   4  -3 -30    1.23    0.52
  -4   3  30    1.13    0.48
   4   3 -30    1.38    0.57
   3  -3 -30    0.23    0.38
  -3   3  30   -0.19    0.34
   3   3 -30    0.77    0.51
   2  -3 -30    0.60    0.45
  -2   3  30    0.48    0.40
   2   3 -30   -0.32    0.39
   1  -3 -30    1.87    0.58
   1   3 -30    2.00    0.57
  -1   3  30    1.93    0.55
   0  -3 -30    6.43    0.83
   0   3 -30    8.65    0.93
  -1  -3 -30   13.50    1.18
  -1   3 -30   15.68    1.28
  -2  -3 -30   23.77    1.38
  -2   3 -30   21.53    1.32
  -3  -3 -30    6.97    0.95
  -3   3 -30    8.25    0.97
  -3   3 -30    7.47    0.79
  -4  -3 -30   17.29    1.45
  -4   3 -30   17.06    1.04
  -4   3 -30   16.72    1.22
  -5  -3 -30    1.11    0.56
  -5   3 -30    2.14    0.55
  -5   3 -30    1.34    0.58
  -6  -3 -30   -0.31    0.49
  -6   3 -30    0.01    0.51
  -6   3 -30    0.43    0.47
  -7  -3 -30   -0.23    0.49
  -7   3 -30    0.26    0.42
  -7   3 -30    0.67    0.61
  -8   3 -30    1.57    0.61
   9   4 -30    1.98    0.75
  -9   4  30    1.63    0.62
   8   4 -30   -0.06    0.56
  -8   4  30   -0.09    0.44
  -7   4  30    2.60    0.67
   7   4 -30    2.39    0.75
   6   4 -30    1.45    0.59
  -6   4  30    2.28    0.60
  -5   4  30   12.00    1.15
   5   4 -30   13.50    1.29
   4  -4 -30  101.64    2.98
   4   4 -30  102.00    3.16
  -4   4  30   99.72    3.05
   3  -4 -30   -0.33    0.32
   3   4 -30   -0.27    0.44
  -3   4  30    0.55    0.45
   2  -4 -30   -0.06    0.38
   2   4 -30    0.41    0.41
  -2   4  30    0.82    0.45
   1  -4 -30    0.32    0.44
   1   4 -30    0.32    0.45
  -1   4  30   -0.04    0.38
   0  -4 -30    5.17    0.79
   0   4  30    5.83    0.83
   0   4 -30    5.58    0.77
  -1  -4 -30   20.38    1.29
  -1   4 -30   19.60    1.23
  -2  -4 -30    0.15    0.48
  -2   4 -30    1.37    0.48
  -3  -4 -30    0.75    0.51
  -3   4 -30    0.66    0.38
  -3   4 -30    1.42    0.53
  -4  -4 -30    9.95    1.13
  -4   4 -30    9.21    1.04
  -4   4 -30    9.82    0.96
  -5  -4 -30    2.02    0.74
  -5   4 -30    2.43    0.58
  -6  -4 -30    1.71    0.64
  -6   4 -30    2.67    0.65
  -7  -4 -30    0.12    0.61
  -7   4 -30   -0.50    0.35
  -8   5  30    1.82    0.71
   8   5 -30    3.45    0.88
  -7   5  30    0.66    0.53
   7   5 -30    0.58    0.63
   6   5 -30   -0.21    0.49
  -6   5  30    0.87    0.57
  -5   5  30    3.32    0.70
   5   5 -30    3.77    0.73
  -4   5  30    9.84    1.09
   4   5 -30   11.80    1.22
  -3   5  30   16.11    1.17
   3   5 -30   15.06    1.27
   2   5 -30    0.11    0.43
  -2   5  30    0.27    0.42
   1  -5 -30    0.58    0.46
  -1   5  30    1.01    0.51
   1   5 -30    0.12    0.44
   0  -5 -30    0.38    0.42
   0   5  30    0.99    0.50
   0   5 -30    2.00    0.57
  -1  -5 -30   19.42    1.33
  -1   5 -30   20.88    1.29
  -2  -5 -30    1.03    0.49
  -2   5 -30    1.62    0.48
  -2   5 -30    2.15    0.62
  -3  -5 -30    2.56    0.66
  -3   5 -30    3.09    0.59
  -4  -5 -30    0.30    0.49
  -4   5 -30    1.65    0.50
  -5  -5 -30   11.90    1.33
  -5   5 -30    9.91    1.06
  -6  -5 -30   -0.01    0.52
  -6   5 -30    0.39    0.48
  -7   6  30    6.54    1.07
   7   6 -30    9.15    1.19
   6   6 -30    0.89    0.61
  -6   6  30    1.25    0.62
  -5   6  30    2.47    0.70
   5   6 -30    1.36    0.66
   4   6 -30    2.10    0.64
  -4   6  30    2.06    0.64
   3   6 -30   11.75    1.20
  -3   6  30   10.92    1.13
  -2   6  30    3.36    0.73
   2   6 -30    2.91    0.69
   1   6 -30    5.14    0.83
  -1   6  30    5.47    0.85
   0   6  30    3.85    0.79
   1   6  30    5.39    0.83
  -2  -6 -30    3.01    0.69
  -2   6 -30    2.74    0.61
  -3  -6 -30   10.32    1.18
  -3   6 -30   10.40    1.03
  -4  -6 -30    1.92    0.64
  -4   6 -30    1.30    0.55
  -5  -6 -30    1.60    0.72
  -5   6 -30    0.82    0.53
   6   7 -30    0.99    0.67
  -5   7  30    0.14    0.53
   5   7 -30    0.02    0.50
  -4   7  30    0.10    0.47
  -3   7  30    0.73    0.54
  -2   7  30    1.26    0.65
  -1   7  30   17.81    1.28
   0   7  30    0.40    0.58
  -1   7 -30   -0.47    0.35
   1   7  30    0.72    0.55
  -2   7 -30    0.34    0.45
  -3   7 -30    0.85    0.49
  -4   7 -30    0.30    0.46
  -3   8  30   -0.05    0.56
  -2   8  30    6.27    0.97
  -1   8  30   -0.03    0.49
   0   8  30   -0.80    0.45
  -1   8 -30   -0.11    0.44
  10   0 -31   -0.71    0.48
   9   0 -31    0.33    0.49
   8   0 -31   -0.62    0.47
   7   0 -31    0.50    0.51
  -7   0  31    0.70    0.44
   6   0 -31   -0.45    0.32
  -6   0  31    0.07    0.36
  -5   0  31    0.20    0.38
   5   0 -31    0.27    0.38
   4   0 -31   -0.04    0.45
   3   0 -31   13.51    1.17
   2   0 -31   -0.38    0.33
   1   0 -31    0.27    0.41
   0   0 -31   -0.21    0.39
  -1   0 -31   -0.46    0.33
  -2   0 -31    0.12    0.39
  -3   0 -31   14.02    1.27
  -4   0 -31    0.43    0.44
  -5   0 -31   15.11    1.33
  -6   0 -31    0.34    0.51
  -7   0 -31    0.51    0.61
  -8   0 -31   -0.35    0.55
  10  -1 -31    3.46    0.77
  10   1 -31    2.75    0.84
   9  -1 -31    2.66    0.70
   9   1 -31    3.28    0.83
   8  -1 -31    2.01    0.64
  -8   1  31    3.53    0.68
   8   1 -31    3.13    0.75
   7  -1 -31    7.64    1.01
   7   1 -31    7.63    0.99
  -7   1  31    9.06    0.94
   6  -1 -31    0.19    0.39
   6   1 -31   -0.08    0.42
  -6   1  31    0.06    0.37
   5  -1 -31    0.53    0.48
  -5   1  31    0.47    0.41
   5   1 -31   -0.06    0.44
   4  -1 -31    0.68    0.45
   4   1 -31    0.89    0.53
  -4   1  31    1.66    0.48
   3  -1 -31   24.69    1.37
  -3   1  31   25.18    1.29
   3   1 -31   26.72    1.46
   2  -1 -31   -0.20    0.35
   2   1 -31    0.69    0.49
   1  -1 -31    9.57    1.02
   1   1 -31    8.09    0.95
   0  -1 -31    3.18    0.67
   0   1 -31    3.01    0.63
  -1  -1 -31    6.87    0.86
  -1   1 -31    6.55    0.89
  -2  -1 -31    4.61    0.80
  -2   1 -31    4.14    0.74
  -3  -1 -31    1.36    0.55
  -3   1 -31    0.84    0.50
  -4  -1 -31    2.36    0.68
  -4   1 -31    3.32    0.75
  -5  -1 -31    0.44    0.47
  -5   1 -31    0.53    0.48
  -6  -1 -31    6.52    1.00
  -6   1 -31    7.05    1.01
  -6   1 -31    6.20    0.80
  -7  -1 -31    4.14    0.85
  -7   1 -31    5.34    0.83
  -7   1 -31    3.60    0.85
  -8  -1 -31    0.97    0.60
  -8   1 -31    0.15    0.45
  -8   1 -31    1.17    0.67
  10   2 -31    4.03    0.90
   9  -2 -31    1.40    0.55
   9   2 -31    1.33    0.67
  -9   2  31    1.18    0.60
   8  -2 -31    3.57    0.70
  -8   2  31    3.90    0.69
   8   2 -31    4.97    0.92
   7  -2 -31    2.84    0.68
  -7   2  31    3.55    0.70
   7   2 -31    3.12    0.78
   6  -2 -31   16.68    1.19
   6   2 -31   17.78    1.28
  -6   2  31   18.41    1.17
   5  -2 -31    3.59    0.67
   5   2 -31    4.38    0.75
  -5   2  31    4.20    0.68
   4  -2 -31    4.40    0.70
  -4   2  31    4.14    0.70
   4   2 -31    2.07    0.58
   3  -2 -31    9.82    1.04
  -3   2  31   11.99    1.08
   3   2 -31   10.19    1.04
   2  -2 -31  160.13    4.22
   2   2 -31  169.84    4.31
  -2   2  31  162.69    4.10
   1  -2 -31    1.65    0.56
   1   2 -31    1.56    0.55
   0  -2 -31    5.92    0.86
   0   2 -31    6.20    0.88
  -1  -2 -31    5.77    0.83
  -1   2 -31    5.73    0.81
  -2  -2 -31    0.68    0.48
  -2   2 -31    0.23    0.41
  -3  -2 -31   10.76    1.11
  -3   2 -31   11.97    1.14
  -4  -2 -31    0.92    0.48
  -4   2 -31    1.85    0.59
  -5  -2 -31    1.58    0.60
  -5   2 -31    1.62    0.46
  -5   2 -31    0.41    0.48
  -6  -2 -31   15.39    1.48
  -6   2 -31   15.58    1.41
  -6   2 -31   14.34    1.18
  -7  -2 -31    0.71    0.60
  -7   2 -31    0.21    0.51
  -7   2 -31    1.94    0.62
  -8  -2 -31    4.07    0.92
  -8   2 -31    6.22    1.07
  -8   2 -31    4.73    0.85
 -10   3  31    0.80    0.62
  -9   3  31    1.95    0.65
   9   3 -31    2.06    0.74
   8   3 -31    0.51    0.51
  -8   3  31    1.22    0.60
  -7   3  31    0.19    0.42
   7   3 -31   -0.23    0.49
   6  -3 -31    9.16    0.96
   6   3 -31    8.12    1.03
  -6   3  31    7.30    0.90
   5  -3 -31    2.10    0.58
   5   3 -31    3.05    0.71
  -5   3  31    2.37    0.58
   4  -3 -31   -0.19    0.40
   4   3 -31    0.12    0.41
  -4   3  31    0.65    0.44
   3  -3 -31    2.04    0.58
  -3   3  31    0.52    0.43
   3   3 -31    1.03    0.48
   2  -3 -31    0.37    0.48
   2   3 -31    0.02    0.37
  -2   3  31    0.10    0.42
   1  -3 -31    3.87    0.71
   1   3 -31    3.38    0.67
  -1   3  31    3.18    0.62
   0  -3 -31    2.32    0.64
   0   3 -31    2.65    0.65
  -1  -3 -31    0.43    0.44
  -1   3 -31    0.23    0.44
  -2  -3 -31    1.76    0.61
  -2   3 -31    2.15    0.62
  -3  -3 -31    2.81    0.68
  -3   3 -31    3.41    0.68
  -4  -3 -31    1.59    0.62
  -4   3 -31    1.53    0.53
  -4   3 -31    0.77    0.41
  -5  -3 -31   -0.05    0.53
  -5   3 -31    0.76    0.44
  -5   3 -31   -0.07    0.47
  -6  -3 -31    0.08    0.48
  -6   3 -31    0.36    0.47
  -6   3 -31    0.10    0.51
  -7  -3 -31   12.90    1.44
  -7   3 -31   11.98    1.19
  -9   4  31    0.11    0.49
   9   4 -31   -0.16    0.53
   8   4 -31    0.45    0.57
  -8   4  31    0.52    0.48
  -7   4  31    7.42    0.98
   7   4 -31    7.23    1.07
   6   4 -31    1.56    0.58
  -6   4  31    1.47    0.55
  -5   4  31    7.90    0.97
   5   4 -31    7.04    1.00
   4  -4 -31    1.24    0.51
   4   4 -31    1.24    0.52
  -4   4  31    0.40    0.48
   3  -4 -31    0.70    0.47
  -3   4  31    1.78    0.57
   3   4 -31    1.38    0.59
   2  -4 -31   12.97    1.16
  -2   4  31   14.27    1.22
   2   4 -31   13.92    1.25
   1  -4 -31   19.22    1.24
   1   4 -31   22.15    1.30
  -1   4  31   21.30    1.32
   0  -4 -31    0.08    0.39
   0   4 -31    0.05    0.40
  -1  -4 -31    5.71    0.84
  -1   4 -31    6.42    0.83
  -2  -4 -31    1.26    0.58
  -2   4 -31    1.65    0.57
  -3  -4 -31    0.14    0.49
  -3   4 -31   -0.59    0.32
  -4  -4 -31    3.17    0.75
  -4   4 -31    3.02    0.70
  -4   4 -31    2.85    0.59
  -5  -4 -31    0.33    0.55
  -5   4 -31    2.12    0.58
  -6  -4 -31    2.29    0.69
  -6   4 -31    2.14    0.65
  -7  -4 -31   -0.66    0.54
  -7   4 -31   -0.31    0.39
   8   5 -31    0.17    0.60
  -8   5  31    0.47    0.54
  -7   5  31    8.31    1.06
   7   5 -31    7.23    1.04
  -6   5  31    6.57    0.99
   6   5 -31    6.12    1.01
   5   5 -31    3.21    0.79
  -5   5  31    1.55    0.59
   4   5 -31    1.01    0.60
  -4   5  31    0.74    0.56
  -3   5  31    1.58    0.54
   3   5 -31    1.60    0.57
  -2   5  31    4.44    0.75
   2   5 -31    4.82    0.82
   1  -5 -31    0.12    0.42
  -1   5  31    0.68    0.47
   1   5 -31    0.50    0.42
   0  -5 -31   14.78    1.28
   0   5  31   10.26    1.12
   0   5 -31   12.46    1.18
  -1  -5 -31   15.38    1.33
  -1   5 -31   14.55    1.24
  -2  -5 -31    1.13    0.61
  -3  -5 -31    5.99    0.94
  -3   5 -31    4.26    0.68
  -4  -5 -31   -0.24    0.52
  -4   5 -31    0.30    0.45
  -5  -5 -31    1.09    0.62
  -5   5 -31    0.44    0.45
  -6  -5 -31    2.39    0.81
  -6   5 -31    1.86    0.60
  -7   6  31    0.52    0.57
   7   6 -31    0.82    0.63
  -6   6  31    0.22    0.57
   6   6 -31    0.01    0.56
   5   6 -31    3.09    0.80
  -5   6  31    2.89    0.73
  -4   6  31    0.41    0.47
   4   6 -31   -0.35    0.39
  -3   6  31    3.31    0.73
   3   6 -31    2.45    0.71
  -2   6  31    9.51    1.10
   2   6 -31   10.34    1.08
   1   6 -31    5.15    0.79
  -1   6  31    5.20    0.88
   0   6  31    0.51    0.49
  -2  -6 -31    4.47    0.84
  -3  -6 -31    5.84    0.98
  -3   6 -31    5.82    0.81
  -4  -6 -31    0.35    0.57
  -4   6 -31   -0.01    0.43
  -5  -6 -31    0.90    0.61
  -5   6 -31    0.93    0.58
  -5   7  31    3.20    0.77
   5   7 -31    4.07    0.88
  -4   7  31    1.24    0.66
  -3   7  31    0.71    0.59
  -2   7  31   -0.62    0.41
  -1   7  31    0.94    0.60
   0   7  31    0.74    0.59
   1   7  31    3.32    0.76
  -2   7 -31    0.45    0.42
  -3   7 -31    1.37    0.60
  -2   8  31    2.26    0.75
  -1   8  31    2.93    0.82
   0   8  31    3.37    0.84
  10   0 -32   -0.54    0.54
   9   0 -32   -0.28    0.42
   8   0 -32    7.33    0.98
   7   0 -32    0.54    0.50
  -6   0  32   14.63    1.03
   6   0 -32   17.05    1.20
   5   0 -32   -0.36    0.34
  -5   0  32    0.66    0.40
   4   0 -32    2.76    0.64
   3   0 -32    0.38    0.44
   2   0 -32   19.08    1.25
   1   0 -32   -0.08    0.38
   0   0 -32   57.16    2.19
  -1   0 -32   -0.06    0.37
  -2   0 -32   10.34    1.08
  -3   0 -32    0.23    0.49
  -4   0 -32   -0.25    0.46
  -5   0 -32    0.79    0.53
  -6   0 -32   -0.73    0.39
  -7   0 -32   -0.26    0.52
  -8   0 -32    5.86    1.01
  10  -1 -32    6.02    1.02
  10   1 -32    6.03    1.02
   9  -1 -32    1.19    0.62
   9   1 -32    1.52    0.65
   8  -1 -32    2.90    0.73
   8   1 -32    2.59    0.68
  -8   1  32    2.46    0.65
   7  -1 -32   40.18    1.90
   7   1 -32   38.27    1.89
  -7   1  32   39.68    1.70
   6  -1 -32    0.30    0.46
   6   1 -32    0.35    0.45
  -6   1  32    0.16    0.39
   5  -1 -32    5.59    0.82
   5   1 -32    4.07    0.76
  -5   1  32    3.91    0.68
   4  -1 -32    8.84    0.98
   4   1 -32    9.09    1.01
  -4   1  32    9.16    0.96
   3  -1 -32    4.26    0.72
   3   1 -32    3.92    0.74
   2  -1 -32    0.87    0.48
   2   1 -32    0.84    0.45
   1  -1 -32    0.19    0.46
   1   1 -32    0.10    0.40
   0  -1 -32    8.44    0.97
   0   1 -32   10.80    1.07
  -1  -1 -32   16.84    1.18
  -1   1 -32   16.02    1.16
  -2  -1 -32   16.91    1.40
  -2   1 -32   15.51    1.33
  -3  -1 -32   16.55    1.22
  -3   1 -32   18.63    1.26
  -4  -1 -32    4.17    0.80
  -4   1 -32    5.54    0.88
  -5  -1 -32    6.95    1.01
  -5   1 -32    8.49    1.09
  -6  -1 -32    1.38    0.67
  -6   1 -32    1.18    0.65
  -7  -1 -32    1.75    0.73
  -7   1 -32    1.08    0.55
  -7   1 -32    1.45    0.63
  -8  -1 -32    0.56    0.62
  -8   1 -32    1.95    0.67
  -8   1 -32    0.71    0.64
   9  -2 -32    5.54    0.93
  -9   2  32    4.93    0.86
   9   2 -32    6.11    1.04
   8  -2 -32    1.05    0.54
   8   2 -32    0.51    0.60
  -8   2  32   -0.06    0.39
   7  -2 -32    0.32    0.54
   7   2 -32    1.64    0.61
  -7   2  32    1.27    0.57
   6  -2 -32    0.36    0.46
   6   2 -32   -0.37    0.41
  -6   2  32   -0.18    0.35
   5  -2 -32   -0.45    0.38
  -5   2  32    0.10    0.38
   5   2 -32    0.59    0.45
   4  -2 -32    5.61    0.80
  -4   2  32    4.08    0.68
   4   2 -32    3.68    0.71
   3  -2 -32    0.55    0.44
  -3   2  32    0.39    0.41
   3   2 -32    0.50    0.43
   2  -2 -32    0.49    0.42
   2   2 -32    0.93    0.46
  -2   2  32    0.43    0.41
   1  -2 -32    9.60    1.06
   1   2 -32    8.84    0.98
   0  -2 -32    5.04    0.78
   0   2 -32    3.64    0.71
  -1  -2 -32   23.36    1.43
  -1   2 -32   22.83    1.35
  -2  -2 -32   -0.17    0.42
  -2   2 -32   -0.39    0.39
  -3  -2 -32    4.52    0.82
  -3   2 -32    4.56    0.78
  -4  -2 -32    2.65    0.69
  -4   2 -32    1.33    0.56
  -5  -2 -32    0.37    0.52
  -5   2 -32   -0.14    0.40
  -6  -2 -32    2.46    0.73
  -6   2 -32    4.55    0.71
  -6   2 -32    3.29    0.82
  -7  -2 -32    2.09    0.83
  -7   2 -32    1.19    0.58
  -7   2 -32    1.84    0.71
  -8   2 -32    1.41    0.57
  -8   2 -32    1.90    0.74
  -9   3  32    0.21    0.52
   9   3 -32    0.13    0.53
   8   3 -32    1.43    0.62
  -8   3  32    0.47    0.52
   7   3 -32    2.45    0.77
  -7   3  32    2.44    0.66
   6  -3 -32    0.44    0.40
  -6   3  32    0.88    0.49
   6   3 -32    0.26    0.48
   5  -3 -32    2.01    0.58
  -5   3  32    0.82    0.46
   5   3 -32    1.98    0.67
   4  -3 -32   25.33    1.44
  -4   3  32   28.16    1.46
   4   3 -32   26.62    1.51
   3  -3 -32    1.48    0.53
   3   3 -32    0.27    0.49
  -3   3  32    1.13    0.51
   2  -3 -32    1.55    0.57
  -2   3  32    2.10    0.55
   2   3 -32    2.44    0.62
   1  -3 -32   -0.10    0.36
   1   3 -32   -0.06    0.45
  -1   3  32   -0.08    0.37
   0  -3 -32    3.37    0.69
   0   3 -32    3.91    0.69
  -1  -3 -32    4.98    0.81
  -1   3 -32    3.37    0.67
  -2  -3 -32    2.02    0.66
  -2   3 -32    1.79    0.57
  -3  -3 -32    2.22    0.71
  -3   3 -32    3.18    0.71
  -4  -3 -32    1.59    0.61
  -4   3 -32    0.84    0.53
  -5  -3 -32    4.39    0.85
  -5   3 -32    5.63    0.90
  -6  -3 -32    0.44    0.58
  -6   3 -32   -0.02    0.49
  -6   3 -32   -0.21    0.40
  -7  -3 -32    2.97    0.83
  -7   3 -32    2.87    0.65
  -9   4  32    0.26    0.54
  -8   4  32    2.11    0.69
   8   4 -32    1.31    0.66
  -7   4  32    0.86    0.54
   7   4 -32    1.21    0.65
   6   4 -32   11.90    1.25
  -6   4  32   11.32    1.17
   5   4 -32    4.50    0.83
  -5   4  32    3.21    0.74
   4  -4 -32   -0.03    0.35
   4   4 -32    0.31    0.46
  -4   4  32    0.85    0.49
   3  -4 -32    0.71    0.44
  -3   4  32   -0.02    0.43
   3   4 -32    0.56    0.47
   2  -4 -32   28.30    1.51
   2   4 -32   25.73    1.45
  -2   4  32   23.51    1.38
   1  -4 -32   -0.21    0.43
   1   4 -32    0.71    0.47
  -1   4  32   -0.18    0.36
   0  -4 -32    7.06    0.93
   0   4 -32    7.09    0.94
  -1  -4 -32    1.54    0.55
  -1   4 -32    1.87    0.61
  -2  -4 -32    0.15    0.41
  -2   4 -32   -0.20    0.47
  -3  -4 -32    5.96    0.93
  -3   4 -32    5.43    0.85
  -4  -4 -32    0.12    0.55
  -4   4 -32    0.35    0.47
  -5  -4 -32    1.21    0.63
  -5   4 -32    1.51    0.53
  -6  -4 -32    1.92    0.79
  -6   4 -32    3.32    0.69
  -7   4 -32    3.26    0.75
   8   5 -32    0.39    0.58
  -8   5  32    0.85    0.60
  -7   5  32    9.58    1.16
   7   5 -32    8.19    1.15
   6   5 -32    3.82    0.87
  -6   5  32    3.38    0.79
  -5   5  32    3.55    0.74
   5   5 -32    3.30    0.80
  -4   5  32   12.35    1.24
   4   5 -32   12.14    1.26
  -3   5  32    8.19    1.06
   3   5 -32    6.94    0.99
  -2   5  32    3.68    0.78
   2   5 -32    2.63    0.66
   1  -5 -32    0.86    0.54
  -1   5  32    0.30    0.44
   1   5 -32    0.65    0.48
   0  -5 -32   20.57    1.37
   0   5 -32   20.52    1.31
   0   5  32   20.78    1.37
  -1  -5 -32    0.09    0.43
  -1   5 -32    0.01    0.46
  -2  -5 -32   -0.58    0.43
  -3  -5 -32   22.26    1.53
  -4  -5 -32    5.10    0.91
  -4   5 -32    5.86    0.85
  -5  -5 -32    0.85    0.66
  -5   5 -32    2.69    0.64
  -6  -5 -32   -0.17    0.53
  -6   5 -32   -0.14    0.42
   7   6 -32    1.15    0.64
   6   6 -32    2.49    0.81
  -6   6  32    3.00    0.80
   5   6 -32    7.26    1.05
  -5   6  32    5.17    0.93
   4   6 -32    2.43    0.68
  -4   6  32    4.01    0.82
  -3   6  32    3.08    0.78
   3   6 -32    3.15    0.76
   2   6 -32    8.17    0.99
  -2   6  32    9.57    1.13
   1   6 -32   -0.98    0.38
  -1   6  32    0.32    0.43
   0   6  32    0.50    0.50
  -2  -6 -32    0.45    0.58
  -3  -6 -32    0.34    0.60
  -4  -6 -32    1.42    0.68
  -4   6 -32    0.94    0.52
  -5  -6 -32   -0.09    0.64
  -5   6 -32    0.48    0.51
   5   7 -32    2.64    0.80
  -4   7  32    0.95    0.66
  -3   7  32    6.55    1.01
  -2   7  32    0.60    0.62
  -1   7  32   -0.11    0.43
   0   7  32    0.68    0.52
  10   0 -33   -0.62    0.45
   9   0 -33   12.11    1.29
   8   0 -33    0.38    0.48
   7   0 -33   22.25    1.45
   6   0 -33   -0.62    0.42
  -6   0  33   -0.05    0.37
   5   0 -33    6.67    0.92
   4   0 -33   -0.10    0.37
   3   0 -33    2.11    0.59
   2   0 -33   -0.13    0.36
   1   0 -33    3.22    0.69
   0   0 -33    1.39    0.54
  -1   0 -33    0.73    0.47
  -2   0 -33    0.95    0.55
  -3   0 -33    2.09    0.64
  -4   0 -33   -0.32    0.44
  -5   0 -33    3.85    0.83
  -6   0 -33    0.18    0.55
  -7   0 -33    3.84    0.88
  -8   0 -33   -0.14    0.56
  10  -1 -33    2.20    0.79
  10   1 -33    1.40    0.68
   9  -1 -33    2.23    0.75
   9   1 -33    3.27    0.78
   8  -1 -33    1.11    0.57
   8   1 -33    0.92    0.56
   7  -1 -33    8.39    1.07
  -7   1  33    6.47    0.84
   7   1 -33    5.71    0.95
   6  -1 -33   -0.28    0.46
   6   1 -33    0.52    0.48
  -6   1  33   -0.02    0.41
   5  -1 -33   21.78    1.39
  -5   1  33   22.90    1.26
   5   1 -33   21.21    1.38
   4  -1 -33    1.43    0.55
   4   1 -33    2.28    0.61
  -4   1  33    2.59    0.57
   3  -1 -33    1.17    0.53
   3   1 -33    3.34    0.71
   2  -1 -33    7.73    0.96
   2   1 -33    6.15    0.85
   1  -1 -33    2.14    0.62
   1   1 -33    2.49    0.63
   0  -1 -33    2.88    0.69
   0   1 -33    3.00    0.67
  -1  -1 -33    0.60    0.51
  -1   1 -33   -0.12    0.39
  -2  -1 -33   19.86    1.34
  -2   1 -33   15.38    1.31
  -3  -1 -33    8.90    1.09
  -3   1 -33    8.39    1.01
  -4  -1 -33    3.46    0.77
  -4   1 -33    1.92    0.59
  -5  -1 -33   12.93    1.31
  -5   1 -33   11.94    1.26
  -6  -1 -33    3.55    0.81
  -6   1 -33    4.38    0.88
  -7  -1 -33   -0.03    0.49
  -7   1 -33    0.12    0.60
   9  -2 -33    0.64    0.58
   9   2 -33    0.95    0.61
   8  -2 -33    5.02    0.88
  -8   2  33    5.29    0.84
   8   2 -33    4.90    0.94
   7  -2 -33    2.58    0.68
  -7   2  33    1.68    0.63
   7   2 -33    1.61    0.68
   6  -2 -33    0.55    0.43
   6   2 -33    0.10    0.46
  -6   2  33    0.58    0.51
   5  -2 -33    0.92    0.49
  -5   2  33    1.88    0.55
   5   2 -33    1.48    0.60
   4  -2 -33    5.44    0.80
   4   2 -33    5.18    0.82
  -4   2  33    5.68    0.81
   3  -2 -33    0.58    0.45
  -3   2  33    0.44    0.46
   3   2 -33    0.14    0.42
   2  -2 -33    0.15    0.48
   2   2 -33    0.06    0.40
   1  -2 -33   -0.08    0.36
   1   2 -33    0.41    0.43
   0  -2 -33    0.19    0.47
   0   2 -33    1.32    0.54
  -1  -2 -33    5.26    0.88
  -1   2 -33    4.53    0.76
  -2  -2 -33   12.64    1.27
  -2   2 -33   10.98    1.11
  -3  -2 -33   -0.58    0.42
  -3   2 -33   -0.02    0.44
  -4  -2 -33    6.24    0.95
  -4   2 -33    5.86    0.94
  -5  -2 -33    0.19    0.49
  -5   2 -33   -0.03    0.44
  -6  -2 -33    1.62    0.69
  -6   2 -33    0.83    0.56
  -7  -2 -33    1.29    0.67
  -7   2 -33    0.75    0.63
  -9   3  33    0.95    0.61
   9   3 -33   -0.03    0.55
   8   3 -33    5.06    0.93
  -8   3  33    5.85    0.92
  -7   3  33    5.91    0.87
   7   3 -33    6.12    0.98
   6  -3 -33    3.50    0.71
   6   3 -33    3.17    0.76
  -6   3  33    2.70    0.66
   5  -3 -33   20.98    1.32
   5   3 -33   20.41    1.37
  -5   3  33   18.59    1.25
   4  -3 -33    3.08    0.72
   4   3 -33    2.32    0.67
  -4   3  33    2.58    0.67
   3  -3 -33    6.05    0.84
  -3   3  33    5.99    0.82
   3   3 -33    6.44    0.95
   2  -3 -33    2.98    0.70
   2   3 -33    2.45    0.62
  -2   3  33    3.35    0.69
   1  -3 -33    0.45    0.43
   1   3 -33    0.10    0.48
   0  -3 -33    0.68    0.45
   0   3 -33   -0.31    0.40
  -1  -3 -33    8.05    1.02
  -1   3 -33    7.23    0.92
  -2  -3 -33    0.55    0.51
  -2   3 -33    0.98    0.49
  -3  -3 -33    4.57    0.83
  -3   3 -33    4.33    0.77
  -4  -3 -33    1.79    0.65
  -4   3 -33    1.90    0.65
  -5  -3 -33   11.92    1.29
  -5   3 -33   14.39    1.32
  -6  -3 -33    1.39    0.65
  -6   3 -33    1.42    0.65
  -7   3 -33   -0.72    0.43
   8   4 -33   13.67    1.40
  -8   4  33   11.02    1.18
  -7   4  33    0.34    0.49
   7   4 -33   -0.60    0.54
   6   4 -33    1.95    0.65
  -6   4  33    2.29    0.65
  -5   4  33    0.42    0.50
   5   4 -33    0.82    0.53
   4  -4 -33    0.32    0.46
   4   4 -33   -0.52    0.43
  -4   4  33    0.66    0.49
   3  -4 -33   -0.50    0.37
   3   4 -33    0.48    0.51
  -3   4  33    0.08    0.47
   2  -4 -33    5.46    0.84
  -2   4  33    6.78    0.92
   2   4 -33    7.92    0.99
   1  -4 -33    1.91    0.64
  -1   4  33    0.96    0.49
   1   4 -33    1.70    0.58
   0  -4 -33    2.09    0.67
   0   4 -33    1.72    0.61
  -1  -4 -33   26.09    1.52
  -1   4 -33   23.61    1.44
  -2  -4 -33    5.16    0.86
  -2   4 -33    5.61    0.89
  -3  -4 -33    0.57    0.56
  -3   4 -33    0.22    0.48
  -4  -4 -33    0.64    0.52
  -4   4 -33   -0.28    0.45
  -5  -4 -33    4.28    0.91
  -6  -4 -33    0.53    0.58
  -6   4 -33    0.72    0.53
   7   5 -33    1.87    0.74
  -7   5  33    0.76    0.62
   6   5 -33    3.90    0.86
  -6   5  33    3.23    0.82
  -5   5  33    1.03    0.59
   5   5 -33    0.32    0.55
  -4   5  33    9.20    1.07
   4   5 -33    9.07    1.09
   3   5 -33    0.10    0.46
  -3   5  33    0.12    0.45
  -2   5  33    5.83    0.86
   2   5 -33    6.48    0.97
   1  -5 -33   -0.26    0.42
  -1   5  33   -0.10    0.47
   1   5 -33    0.14    0.47
   0  -5 -33    0.40    0.51
   0   5 -33    0.58    0.51
   0   5  33   -0.15    0.42
  -1  -5 -33   13.35    1.29
  -1   5 -33   17.25    1.41
  -2  -5 -33    6.10    0.96
  -3  -5 -33    4.85    0.87
  -4  -5 -33    3.02    0.82
  -5  -5 -33   -0.44    0.46
   6   6 -33   -0.11    0.55
  -6   6  33    0.42    0.55
  -5   6  33    1.25    0.65
   5   6 -33   -0.24    0.51
   4   6 -33    0.78    0.54
  -4   6  33    1.02    0.63
   3   6 -33   -0.23    0.49
  -3   6  33    0.51    0.50
   2   6 -33    3.10    0.78
  -2   6  33    2.36    0.67
  -1   6  33    6.58    0.99
   0   6  33   16.49    1.45
  -2  -6 -33    0.45    0.56
  -3  -6 -33    0.00    0.50
  -4  -6 -33   -0.04    0.60
  -3   7  33    3.57    0.85
  -2   7  33    7.93    1.07
  -1   7  33   -0.66    0.49
   0   7  33    2.09    0.68
  10   0 -34    5.09    0.97
   9   0 -34    0.77    0.65
   8   0 -34   29.04    1.68
   7   0 -34   -0.18    0.44
   6   0 -34   16.31    1.38
  -6   0  34   16.33    1.28
   5   0 -34   -0.49    0.40
   4   0 -34   18.78    1.28
   3   0 -34   -0.19    0.37
   2   0 -34   11.02    1.13
   1   0 -34    0.36    0.48
   0   0 -34   28.81    1.56
  -1   0 -34    0.08    0.43
  -2   0 -34   52.49    2.21
  -3   0 -34   -0.15    0.50
  -4   0 -34   29.92    1.68
  -5   0 -34    0.25    0.49
  -6   0 -34    2.85    0.76
  -7   0 -34   -0.64    0.49
   9  -1 -34    5.94    1.01
   9   1 -34    6.37    1.02
   8  -1 -34    0.14    0.53
   8   1 -34   -0.40    0.42
   7  -1 -34    0.29    0.46
   7   1 -34    0.31    0.55
  -7   1  34    0.69    0.47
   6  -1 -34    0.33    0.45
   6   1 -34    1.02    0.55
  -6   1  34    2.07    0.60
   5  -1 -34   -0.10    0.41
   5   1 -34    0.58    0.50
  -5   1  34    0.45    0.45
   4  -1 -34    0.47    0.44
  -4   1  34    0.32    0.46
   4   1 -34   -0.66    0.36
   3  -1 -34   35.03    1.72
   3   1 -34   35.84    1.78
   2  -1 -34   19.87    1.31
   2   1 -34   20.84    1.37
   1  -1 -34    4.00    0.79
   1   1 -34    3.41    0.74
   0  -1 -34   15.42    1.33
   0   1 -34   18.67    1.31
  -1  -1 -34    0.90    0.49
  -1   1 -34    0.92    0.52
  -2  -1 -34    0.51    0.51
  -2   1 -34   -0.14    0.40
  -3  -1 -34    6.25    0.97
  -3   1 -34    6.64    0.96
  -4  -1 -34   11.20    1.21
  -4   1 -34   10.58    1.16
  -5  -1 -34    1.15    0.61
  -5   1 -34    0.57    0.53
  -6  -1 -34    1.12    0.66
  -6   1 -34    0.07    0.50
  -7  -1 -34    2.54    0.79
  -7   1 -34    3.30    0.81
   9  -2 -34    0.37    0.62
   9   2 -34   -0.41    0.48
   8  -2 -34    4.98    0.92
   8   2 -34    4.54    0.91
  -8   2  34    4.80    0.83
   7  -2 -34   11.11    1.20
   7   2 -34   10.51    1.24
  -7   2  34   11.23    1.15
   6  -2 -34    3.22    0.73
  -6   2  34    2.75    0.67
   6   2 -34    1.43    0.64
   5  -2 -34    0.19    0.45
   5   2 -34    0.42    0.45
  -5   2  34    0.32    0.43
   4  -2 -34    2.40    0.64
   4   2 -34    1.27    0.58
  -4   2  34    3.07    0.66
   3  -2 -34    8.64    1.03
   3   2 -34   10.23    1.10
  -3   2  34    8.65    0.98
   2  -2 -34    2.42    0.67
   2   2 -34    2.90    0.67
   1  -2 -34   10.48    1.08
   1   2 -34   12.11    1.16
   0  -2 -34    5.94    0.90
   0   2 -34    7.08    0.93
  -1  -2 -34    9.35    1.05
  -1   2 -34    9.67    1.08
  -2  -2 -34    1.70    0.62
  -2   2 -34    0.51    0.52
  -3  -2 -34    1.09    0.56
  -3   2 -34    0.49    0.54
  -4  -2 -34    7.07    1.02
  -4   2 -34    7.16    1.00
  -5  -2 -34    0.42    0.62
  -5   2 -34    0.14    0.48
  -6  -2 -34    0.24    0.52
  -6   2 -34   -0.16    0.49
  -7  -2 -34    1.17    0.78
  -7   2 -34    1.58    0.73
  -9   3  34    0.81    0.60
   8   3 -34    1.23    0.64
  -8   3  34    0.16    0.52
   7   3 -34   -0.15    0.53
  -7   3  34    0.26    0.48
   6  -3 -34    3.58    0.75
   6   3 -34    2.84    0.74
  -6   3  34    3.39    0.71
   5  -3 -34    0.81    0.52
  -5   3  34    0.84    0.54
   5   3 -34    0.55    0.49
   4  -3 -34    0.24    0.49
   4   3 -34    0.69    0.50
  -4   3  34   -0.09    0.39
   3  -3 -34    8.58    1.03
  -3   3  34    9.46    1.08
   3   3 -34    7.64    0.98
   2  -3 -34    2.92    0.67
  -2   3  34    2.16    0.59
   2   3 -34    2.71    0.65
   1  -3 -34    1.28    0.59
   1   3 -34    2.33    0.63
   0  -3 -34    0.98    0.58
   0   3 -34    0.43    0.45
  -1  -3 -34    0.45    0.52
  -1   3 -34    1.45    0.57
  -2  -3 -34    4.21    0.80
  -2   3 -34    2.70    0.70
  -3  -3 -34    1.14    0.57
  -3   3 -34    0.22    0.51
  -4  -3 -34    4.32    0.89
  -4   3 -34    3.21    0.73
  -5  -3 -34    1.43    0.64
  -5   3 -34    0.08    0.53
  -6  -3 -34    0.82    0.62
  -6   3 -34    0.23    0.56
   8   4 -34   14.24    1.47
  -8   4  34   11.21    1.22
   7   4 -34    0.58    0.59
  -7   4  34   -0.01    0.44
  -6   4  34    0.63    0.51
   6   4 -34    0.78    0.61
  -5   4  34    3.99    0.83
   5   4 -34    4.17    0.85
   4  -4 -34    1.64    0.62
  -4   4  34    2.21    0.62
   4   4 -34    0.64    0.54
   3  -4 -34    3.12    0.68
  -3   4  34    0.40    0.45
   3   4 -34    1.50    0.58
   2  -4 -34    1.27    0.51
   2   4 -34    0.68    0.55
  -2   4  34    1.62    0.56
   1  -4 -34   -0.68    0.34
  -1   4  34   -0.29    0.43
   1   4 -34    0.28    0.45
   0  -4 -34   11.80    1.18
   0   4 -34    8.31    1.05
  -1  -4 -34    1.73    0.62
  -1   4 -34    0.67    0.50
  -2  -4 -34    5.57    0.92
  -2   4 -34    6.97    0.98
  -3  -4 -34   -0.11    0.54
  -3   4 -34   -0.30    0.47
  -4  -4 -34    2.69    0.75
  -4   4 -34    2.96    0.76
  -5  -4 -34    0.69    0.61
  -6  -4 -34   10.55    1.41
  -7   5  34   -0.36    0.53
   7   5 -34    0.85    0.61
  -6   5  34    4.67    0.88
   6   5 -34    6.21    1.01
   5   5 -34    5.43    0.93
  -5   5  34    6.96    1.06
  -4   5  34    3.18    0.76
   4   5 -34    3.82    0.80
  -3   5  34    0.60    0.54
   3   5 -34   -0.27    0.47
   2   5 -34   -0.47    0.44
  -2   5  34    0.50    0.53
   1  -5 -34    0.72    0.50
  -1   5  34    0.47    0.49
   1   5 -34    0.36    0.51
   0  -5 -34   -0.28    0.44
   0   5 -34   -0.01    0.47
  -1  -5 -34    3.91    0.80
  -1   5 -34    5.51    0.87
  -2  -5 -34    7.08    1.02
  -3  -5 -34    2.33    0.77
  -4  -5 -34    0.67    0.57
  -5  -5 -34    0.38    0.60
   6   6 -34    1.20    0.68
   5   6 -34    4.05    0.89
  -5   6  34    3.23    0.79
   4   6 -34    0.96    0.64
  -4   6  34    0.31    0.52
   3   6 -34    1.31    0.59
  -3   6  34    2.14    0.67
   2   6 -34    0.82    0.58
  -2   6  34    1.30    0.64
  -1   6  34   -0.09    0.54
   0   6  34    1.08    0.62
  -2  -6 -34    0.74    0.59
  -3  -6 -34    4.67    0.89
  -3   7  34    0.72    0.62
  -2   7  34    0.32    0.58
  -1   7  34   -0.19    0.56
   0   7  34   -0.10    0.57
   9   0 -35    9.17    1.20
   8   0 -35    0.33    0.54
   7   0 -35   18.22    1.59
   6   0 -35   -0.44    0.45
   5   0 -35   26.89    1.55
   4   0 -35    0.71    0.47
   3   0 -35   -0.26    0.46
   2   0 -35    0.17    0.41
   1   0 -35    5.32    0.90
   0   0 -35    0.19    0.44
  -1   0 -35    2.04    0.62
  -2   0 -35    1.26    0.55
  -3   0 -35   21.11    1.46
  -4   0 -35    0.86    0.56
  -5   0 -35    1.83    0.66
  -6   0 -35   -0.12    0.56
  -7   0 -35    4.79    1.00
   9  -1 -35    5.87    1.02
   9   1 -35    5.96    1.02
   8  -1 -35   -0.25    0.50
   8   1 -35   -0.47    0.46
   7  -1 -35    3.77    0.80
   7   1 -35    2.83    0.73
  -7   1  35    3.54    0.72
   6  -1 -35    4.11    0.81
   6   1 -35    3.07    0.72
  -6   1  35    3.57    0.68
   5  -1 -35    0.20    0.43
   5   1 -35    0.83    0.57
  -5   1  35   -0.09    0.39
   4  -1 -35    0.40    0.45
   4   1 -35   -0.50    0.40
   3  -1 -35    8.83    1.03
   3   1 -35   10.58    1.13
   2  -1 -35    7.99    0.99
   2   1 -35    8.43    1.01
   1  -1 -35    6.03    0.88
   1   1 -35    7.22    0.98
   0  -1 -35   20.24    1.38
   0   1 -35   20.46    1.40
  -1  -1 -35    0.51    0.48
  -1   1 -35   -0.03    0.42
  -2  -1 -35    3.87    0.77
  -2   1 -35    2.73    0.72
  -3  -1 -35    3.68    0.78
  -3   1 -35    3.33    0.81
  -4  -1 -35    0.89    0.54
  -4   1 -35    1.12    0.55
  -5  -1 -35    3.17    0.84
  -5   1 -35    1.27    0.63
  -6  -1 -35    2.24    0.73
  -6   1 -35    1.82    0.67
  -7  -1 -35    0.81    0.68
  -7   1 -35    0.77    0.60
   9   2 -35    0.29    0.55
   8  -2 -35    0.95    0.59
   8   2 -35    0.83    0.64
  -8   2  35    0.31    0.49
   7  -2 -35    8.13    1.01
  -7   2  35    5.16    0.84
   7   2 -35    3.86    0.84
   6  -2 -35   23.37    1.50
  -6   2  35   24.16    1.43
   6   2 -35   24.17    1.55
   5  -2 -35    0.18    0.47
  -5   2  35   -0.24    0.47
   5   2 -35   -0.30    0.47
   4  -2 -35    0.83    0.51
  -4   2  35    0.57    0.43
   4   2 -35    0.05    0.43
   3  -2 -35    0.13    0.42
  -3   2  35   -0.04    0.39
   3   2 -35    0.36    0.48
   2  -2 -35    1.97    0.67
   2   2 -35    3.76    0.79
   1  -2 -35    0.55    0.49
   1   2 -35    0.29    0.48
   0  -2 -35    0.25    0.47
   0   2 -35    0.18    0.48
  -1  -2 -35    1.03    0.54
  -1   2 -35    1.17    0.60
  -2  -2 -35   58.79    2.41
  -2   2 -35   58.48    2.33
  -3  -2 -35    0.64    0.55
  -3   2 -35    0.52    0.51
  -4  -2 -35    4.57    0.90
  -4   2 -35    5.36    0.88
  -5  -2 -35    1.63    0.68
  -5   2 -35    1.07    0.58
  -6  -2 -35    2.50    0.81
  -6   2 -35    2.84    0.77
  -7   2 -35    2.29    0.74
   8   3 -35    1.18    0.65
  -8   3  35    0.17    0.53
   7   3 -35    9.95    1.19
  -7   3  35    8.78    1.09
   6  -3 -35    1.28    0.54
  -6   3  35    0.61    0.57
   6   3 -35    1.30    0.65
   5  -3 -35    2.40    0.66
  -5   3  35    2.11    0.67
   5   3 -35    2.52    0.76
   4  -3 -35    1.52    0.61
  -4   3  35    1.77    0.58
   4   3 -35    1.18    0.58
   3  -3 -35   10.32    1.09
  -3   3  35    8.69    0.99
   3   3 -35    9.65    1.10
   2  -3 -35    2.29    0.65
   2   3 -35    0.86    0.50
  -2   3  35    1.70    0.55
   1  -3 -35    7.65    1.01
   1   3 -35    7.51    1.02
   0  -3 -35    5.53    0.87
   0   3 -35    6.93    0.94
  -1  -3 -35    4.24    0.85
  -1   3 -35    3.79    0.77
  -2  -3 -35    2.77    0.70
  -2   3 -35    2.94    0.75
  -3  -3 -35    3.55    0.81
  -3   3 -35    6.16    0.94
  -4  -3 -35    2.87    0.77
  -4   3 -35    2.08    0.70
  -5  -3 -35    0.16    0.62
  -5   3 -35    1.30    0.65
  -6  -3 -35   -0.23    0.48
  -6   3 -35    0.21    0.63
  -8   4  35    3.72    0.81
   7   4 -35    0.90    0.66
  -7   4  35    0.25    0.53
   6   4 -35    2.70    0.81
  -6   4  35    2.78    0.77
  -5   4  35    8.82    1.06
   5   4 -35   12.01    1.30
   4   4 -35   -0.15    0.45
  -4   4  35    0.40    0.52
   3  -4 -35    2.89    0.71
   3   4 -35    2.33    0.64
  -3   4  35    1.74    0.64
   2  -4 -35    2.83    0.68
  -2   4  35    1.82    0.60
   2   4 -35    2.02    0.66
   1  -4 -35    0.71    0.56
   1   4 -35    0.69    0.53
   0  -4 -35    9.49    1.13
   0   4 -35    5.97    0.92
  -1  -4 -35    5.04    0.90
  -1   4 -35    5.68    0.95
  -2  -4 -35    2.59    0.75
  -2   4 -35    1.68    0.65
  -3  -4 -35   11.54    1.28
  -3   4 -35   18.90    1.57
  -4  -4 -35    0.07    0.57
  -4   4 -35    0.07    0.50
  -5  -4 -35    1.56    0.73
   7   5 -35    1.15    0.68
   6   5 -35    5.86    1.04
  -6   5  35    5.18    0.93
  -5   5  35    0.68    0.59
   5   5 -35    1.24    0.59
   4   5 -35    0.55    0.60
  -4   5  35   -0.58    0.46
  -3   5  35   -0.20    0.42
   3   5 -35    0.63    0.56
  -2   5  35    0.94    0.54
   2   5 -35    1.91    0.61
   1  -5 -35    0.49    0.51
  -1   5  35    0.28    0.46
   1   5 -35    0.14    0.48
   0  -5 -35    0.36    0.55
   0   5 -35    0.82    0.57
  -1  -5 -35    1.93    0.69
  -1   5 -35    2.11    0.68
  -2  -5 -35    1.06    0.56
  -3  -5 -35   -0.21    0.49
  -4  -5 -35    2.34    0.80
   5   6 -35    0.92    0.65
  -4   6  35    1.34    0.67
   4   6 -35    1.90    0.72
  -3   6  35    7.06    1.06
   3   6 -35    8.59    1.13
  -2   6  35   -0.21    0.44
   2   6 -35    0.02    0.55
  -1   6  35    0.44    0.53
  -3  -6 -35    1.08    0.66
  -1   7  35    0.06    0.53
   0   7  35   -0.49    0.51
   9   0 -36   -0.33    0.49
   8   0 -36    6.13    1.04
   7   0 -36   -0.45    0.43
   6   0 -36    6.32    0.93
   5   0 -36    0.11    0.43
   4   0 -36    0.78    0.51
   3   0 -36    0.39    0.47
   2   0 -36    1.76    0.58
   1   0 -36    0.42    0.52
   0   0 -36   18.70    1.37
  -1   0 -36    0.04    0.51
  -2   0 -36   22.56    1.47
  -3   0 -36    0.37    0.55
  -4   0 -36    6.03    0.96
  -5   0 -36   -0.64    0.50
  -6   0 -36    0.46    0.60
   9  -1 -36    0.59    0.64
   9   1 -36   -0.44    0.50
   8  -1 -36    2.16    0.71
   8   1 -36    1.30    0.63
   7  -1 -36   20.41    1.48
  -7   1  36   19.39    1.32
   7   1 -36   23.33    1.56
   6  -1 -36    0.55    0.49
   6   1 -36    0.44    0.55
  -6   1  36    0.91    0.52
   5  -1 -36    0.59    0.56
  -5   1  36    0.42    0.46
   5   1 -36    0.27    0.47
   4  -1 -36    7.91    1.01
   4   1 -36    9.13    1.14
   3  -1 -36    4.41    0.83
   3   1 -36    4.07    0.78
   2  -1 -36   -0.10    0.49
   2   1 -36   -0.38    0.46
   1  -1 -36   65.25    2.49
   1   1 -36   60.08    2.38
   0  -1 -36    4.30    0.78
   0   1 -36    3.97    0.83
  -1  -1 -36   17.83    1.51
  -1   1 -36   17.87    1.48
  -2  -1 -36    1.20    0.57
  -2   1 -36    1.35    0.58
  -3  -1 -36    2.47    0.69
  -3   1 -36    1.19    0.64
  -4  -1 -36    2.38    0.72
  -4   1 -36    2.88    0.74
  -5  -1 -36    4.25    0.87
  -5   1 -36    4.08    0.85
  -6  -1 -36    0.06    0.60
  -6   1 -36    0.15    0.59
   8  -2 -36   -0.13    0.45
  -8   2  36    0.52    0.51
   8   2 -36   -0.25    0.51
   7  -2 -36    1.30    0.62
   7   2 -36    2.56    0.75
  -7   2  36    1.56    0.61
   6  -2 -36   -0.40    0.46
  -6   2  36    1.06    0.54
   6   2 -36   -0.18    0.47
   5  -2 -36    3.90    0.78
   5   2 -36    2.33    0.66
  -5   2  36    2.21    0.62
   4  -2 -36    3.72    0.78
  -4   2  36    3.26    0.74
   4   2 -36    2.52    0.69
   3   2 -36    3.80    0.77
   2  -2 -36   -0.06    0.42
   2   2 -36   -0.22    0.42
   1  -2 -36    4.10    0.78
   1   2 -36    2.02    0.62
   0  -2 -36    1.51    0.56
   0   2 -36    0.75    0.58
  -1  -2 -36    1.28    0.59
  -1   2 -36    1.81    0.68
  -2  -2 -36    1.98    0.69
  -2   2 -36    2.95    0.71
  -3  -2 -36    0.06    0.45
  -3   2 -36    1.27    0.63
  -4  -2 -36    0.84    0.54
  -4   2 -36   -0.25    0.44
  -5  -2 -36   21.24    1.78
  -5   2 -36   18.10    1.55
  -6  -2 -36   -0.23    0.49
  -6   2 -36    0.68    0.62
  -8   3  36    1.42    0.66
   8   3 -36    0.33    0.59
   7   3 -36    0.06    0.49
  -7   3  36    0.30    0.56
   6  -3 -36   11.04    1.20
  -6   3  36    9.19    1.10
   6   3 -36   10.40    1.25
   5  -3 -36   -0.20    0.43
   5   3 -36   -0.05    0.44
  -5   3  36    0.12    0.42
   4  -3 -36    0.60    0.51
   4   3 -36    0.40    0.59
  -4   3  36   -0.39    0.46
   3  -3 -36   -0.06    0.43
   3   3 -36    0.26    0.49
  -3   3  36    0.46    0.53
   2  -3 -36    0.10    0.44
   2   3 -36   -0.49    0.38
   1  -3 -36    0.66    0.52
   1   3 -36    0.35    0.53
   0  -3 -36    5.98    0.96
   0   3 -36    6.37    0.97
  -1  -3 -36    1.29    0.59
  -1   3 -36    0.75    0.53
  -2  -3 -36    0.82    0.51
  -2   3 -36    0.29    0.55
  -3  -3 -36    0.15    0.55
  -3   3 -36    0.66    0.51
  -4  -3 -36   -0.42    0.53
  -4   3 -36    1.29    0.67
  -5  -3 -36    1.68    0.69
  -5   3 -36    1.74    0.75
  -6   3 -36    5.45    1.00
   7   4 -36    3.73    0.90
  -7   4  36    4.03    0.89
  -6   4  36    0.30    0.56
   6   4 -36    0.26    0.56
  -5   4  36    5.17    0.84
   5   4 -36    5.34    0.93
   4   4 -36    0.53    0.53
  -4   4  36    1.02    0.49
   3  -4 -36    0.29    0.46
  -3   4  36    0.38    0.47
   3   4 -36    0.25    0.55
   2  -4 -36    9.74    1.12
   2   4 -36   10.48    1.18
  -2   4  36    7.98    1.05
   1  -4 -36    1.45    0.61
   1   4 -36    1.41    0.60
   0  -4 -36   -0.54    0.42
   0   4 -36   -0.23    0.50
  -1  -4 -36    3.03    0.76
  -1   4 -36    2.18    0.68
  -2  -4 -36    0.01    0.56
  -2   4 -36    0.19    0.54
  -3  -4 -36    4.12    0.85
  -3   4 -36    3.10    0.80
  -4  -4 -36    5.07    0.96
  -4   4 -36    6.65    1.01
  -5  -4 -36    4.04    0.90
  -6   5  36   -0.01    0.58
   6   5 -36   -0.46    0.47
   5   5 -36    0.36    0.61
  -5   5  36    0.49    0.55
   4   5 -36    0.91    0.57
  -4   5  36    1.00    0.58
  -3   5  36    0.21    0.47
   3   5 -36    0.34    0.57
   2   5 -36    6.79    1.04
  -2   5  36    5.80    0.90
   1  -5 -36    7.78    1.11
  -1   5  36    7.16    1.04
   1   5 -36    8.00    1.07
   0  -5 -36    7.49    1.07
   0   5 -36    8.65    1.06
  -1  -5 -36    5.92    1.02
  -1   5 -36    7.79    1.03
  -2  -5 -36    1.28    0.66
  -3  -5 -36   -0.33    0.51
  -4  -5 -36   -0.04    0.62
   5   6 -36    0.35    0.62
  -4   6  36    0.05    0.51
   4   6 -36    1.45    0.66
   3   6 -36    1.01    0.66
  -3   6  36    1.23    0.59
   2   6 -36    5.09    0.93
  -2   6  36    6.39    1.00
  -1   6  36   10.56    1.22
   9   0 -37   -0.24    0.51
   8   0 -37    0.33    0.53
   7   0 -37    9.67    1.21
   6   0 -37   -1.10    0.38
   5   0 -37    5.96    0.95
   4   0 -37   -0.29    0.39
   3   0 -37   41.20    1.97
   2   0 -37    0.41    0.51
   1   0 -37    5.32    0.93
   0   0 -37    0.34    0.48
  -1   0 -37   32.45    1.77
  -2   0 -37   -0.43    0.39
  -3   0 -37    3.78    0.87
  -4   0 -37    0.29    0.54
  -5   0 -37    1.52    0.72
  -6   0 -37    0.17    0.59
   8  -1 -37   11.31    1.29
   8   1 -37   11.86    1.37
   7  -1 -37    1.21    0.59
  -7   1  37    0.00    0.49
   7   1 -37    0.93    0.68
   6  -1 -37    3.80    0.79
  -6   1  37    3.21    0.74
   6   1 -37    5.68    0.92
   5  -1 -37    0.27    0.54
   5   1 -37    1.18    0.58
   4  -1 -37   10.05    1.13
   4   1 -37    8.87    1.10
   3  -1 -37    3.52    0.74
   3   1 -37    1.70    0.61
   2  -1 -37    6.68    0.96
   2   1 -37    5.67    0.90
   1  -1 -37   14.49    1.35
   1   1 -37   16.15    1.39
   0  -1 -37    3.63    0.77
   0   1 -37    3.54    0.81
  -1  -1 -37   17.09    1.47
  -1   1 -37   18.19    1.52
  -2  -1 -37    9.56    1.15
  -2   1 -37   11.78    1.31
  -3  -1 -37    4.00    0.84
  -3   1 -37    3.99    0.85
  -4  -1 -37    2.07    0.76
  -4   1 -37    0.87    0.59
  -5  -1 -37    2.18    0.71
  -5   1 -37    2.21    0.77
  -6  -1 -37    0.84    0.69
  -6   1 -37    0.36    0.68
   8  -2 -37   10.05    1.22
  -8   2  37   12.13    1.25
   8   2 -37   10.71    1.27
   7  -2 -37   -0.14    0.46
  -7   2  37    0.16    0.43
   7   2 -37    0.11    0.57
   6  -2 -37    0.76    0.55
   6   2 -37    0.95    0.60
  -6   2  37    0.46    0.49
   5  -2 -37    2.36    0.70
  -5   2  37    3.16    0.73
   5   2 -37    1.87    0.64
   4  -2 -37    1.10    0.59
  -4   2  37    0.01    0.42
   4   2 -37    0.15    0.48
   3  -2 -37    1.99    0.64
   3   2 -37    2.52    0.69
   2  -2 -37    4.44    0.83
   2   2 -37    4.28    0.83
   1  -2 -37    4.10    0.85
   1   2 -37    4.81    0.86
   0  -2 -37    5.19    0.92
   0   2 -37    3.33    0.80
  -1  -2 -37    5.23    0.94
  -1   2 -37    7.17    1.04
  -2  -2 -37    5.65    0.94
  -2   2 -37    4.73    0.90
  -3  -2 -37    1.20    0.62
  -3   2 -37    1.99    0.68
  -4  -2 -37    0.08    0.53
  -4   2 -37    1.02    0.58
  -5  -2 -37    1.15    0.67
  -5   2 -37    2.40    0.74
  -8   3  37    2.47    0.72
   7   3 -37    0.11    0.57
  -7   3  37    0.80    0.57
   6  -3 -37    7.55    1.05
   6   3 -37    6.12    0.98
  -6   3  37    4.58    0.83
   5  -3 -37    0.37    0.51
  -5   3  37    0.14    0.51
   5   3 -37   -0.10    0.49
   4  -3 -37    0.01    0.50
  -4   3  37    0.57    0.52
   4   3 -37    0.99    0.62
   3  -3 -37    3.58    0.81
  -3   3  37    2.22    0.64
   3   3 -37    3.16    0.75
   2  -3 -37   -0.57    0.41
   2   3 -37    0.51    0.54
   1  -3 -37    0.65    0.52
   1   3 -37    0.55    0.51
   0  -3 -37    3.05    0.73
   0   3 -37    2.40    0.67
  -1  -3 -37   11.15    1.23
  -1   3 -37   13.25    1.34
  -2  -3 -37    7.08    1.05
  -2   3 -37    7.69    1.03
  -3  -3 -37    5.52    0.98
  -3   3 -37    6.09    1.02
  -4  -3 -37    0.60    0.66
  -4   3 -37    0.54    0.55
  -5  -3 -37    1.64    0.78
  -5   3 -37    2.51    0.77
  -7   4  37    5.32    0.99
   7   4 -37    6.13    1.10
   6   4 -37   -0.81    0.50
  -6   4  37   -0.17    0.41
  -5   4  37    2.57    0.75
   5   4 -37    2.30    0.78
   4   4 -37    0.70    0.58
  -4   4  37    0.84    0.59
   3  -4 -37    1.04    0.58
   3   4 -37    1.04    0.63
  -3   4  37   -0.48    0.44
   2  -4 -37    3.39    0.75
  -2   4  37    2.87    0.71
   2   4 -37    4.22    0.85
   1  -4 -37    1.13    0.55
   1   4 -37    0.46    0.54
   0  -4 -37    6.76    0.99
   0   4 -37    7.20    1.01
  -1  -4 -37    7.74    1.11
  -1   4 -37    6.93    1.00
  -2  -4 -37    1.48    0.63
  -2   4 -37   -0.32    0.48
  -3  -4 -37    0.52    0.63
  -3   4 -37    0.15    0.51
  -4  -4 -37    1.55    0.74
  -4   4 -37    0.58    0.61
   6   5 -37    3.47    0.85
   5   5 -37    0.38    0.56
  -5   5  37   -0.25    0.53
   4   5 -37    1.28    0.70
  -4   5  37    1.60    0.68
  -3   5  37   -0.23    0.45
   3   5 -37    0.38    0.50
  -2   5  37   -0.03    0.53
   2   5 -37    0.29    0.56
   1   5 -37    1.83    0.68
   0  -5 -37    1.57    0.67
   0   5 -37    1.26    0.56
  -1  -5 -37    0.09    0.53
  -1   5 -37   -0.08    0.53
  -2  -5 -37   13.70    1.42
  -3  -5 -37    0.51    0.55
   4   6 -37    0.69    0.64
   3   6 -37    0.97    0.68
   2   6 -37   -0.34    0.53
  -2   6  37   -0.34    0.51
  -1   6  37    0.50    0.62
   8   0 -38    2.73    0.78
   7   0 -38    0.35    0.53
   6   0 -38   -0.04    0.45
   5   0 -38   -0.39    0.49
   4   0 -38    2.80    0.71
   3   0 -38    0.69    0.57
   2   0 -38    1.52    0.61
   1   0 -38    1.04    0.60
   0   0 -38   29.84    1.71
  -1   0 -38    1.04    0.62
  -2   0 -38    1.45    0.71
  -3   0 -38    0.12    0.60
  -4   0 -38    9.57    1.18
  -5   0 -38   -0.27    0.51
   8  -1 -38    0.40    0.60
   8   1 -38   -0.69    0.43
   7  -1 -38    0.85    0.61
   7   1 -38    1.49    0.66
  -7   1  38    0.45    0.54
   6  -1 -38   11.48    1.31
   6   1 -38    6.05    1.00
  -6   1  38    9.10    1.03
   5  -1 -38    0.23    0.56
   5   1 -38    0.64    0.54
   4  -1 -38    3.54    0.82
   4   1 -38    4.53    0.90
   3  -1 -38    5.31    0.92
   3   1 -38    2.99    0.79
   2  -1 -38   -0.04    0.48
   2   1 -38    0.57    0.57
   1  -1 -38    2.80    0.73
   1   1 -38    1.38    0.60
   0  -1 -38    0.65    0.58
   0   1 -38    0.32    0.55
  -1  -1 -38    1.26    0.61
  -1   1 -38    1.05    0.58
  -2  -1 -38   24.42    1.59
  -2   1 -38   23.18    1.55
  -3  -1 -38    1.07    0.58
  -3   1 -38    1.25    0.62
  -4  -1 -38   11.95    1.39
  -4   1 -38   12.48    1.35
  -5  -1 -38    0.01    0.62
  -5   1 -38    0.52    0.65
  -6   1 -38    0.62    0.70
   8  -2 -38    3.54    0.90
  -8   2  38    4.18    0.86
   7  -2 -38   -0.18    0.49
  -7   2  38    1.04    0.63
   7   2 -38    0.31    0.52
   6  -2 -38    0.37    0.51
  -6   2  38    0.06    0.50
   6   2 -38   -0.57    0.48
   5  -2 -38    9.09    1.10
   5   2 -38    8.83    1.16
  -5   2  38    6.74    0.92
   4  -2 -38    2.88    0.74
   4   2 -38    2.39    0.69
   3  -2 -38    5.37    0.89
   3   2 -38    5.88    0.94
   2  -2 -38    3.26    0.75
   2   2 -38    3.93    0.90
   1  -2 -38    0.33    0.56
   1   2 -38    0.24    0.48
   0  -2 -38    1.34    0.62
   0   2 -38    1.13    0.65
  -1  -2 -38    4.35    0.85
  -1   2 -38    3.19    0.77
  -2  -2 -38   -0.12    0.45
  -2   2 -38    0.51    0.53
  -3  -2 -38    4.15    0.85
  -3   2 -38    4.32    0.86
  -4  -2 -38    0.43    0.56
  -4   2 -38    1.00    0.64
  -5  -2 -38    0.32    0.58
  -5   2 -38    0.51    0.58
  -7   3  38    0.15    0.48
   7   3 -38    0.25    0.56
   6  -3 -38    7.16    1.01
  -6   3  38    7.84    1.03
   6   3 -38    7.25    1.16
   5  -3 -38    0.53    0.56
   5   3 -38    0.45    0.60
  -5   3  38   -0.01    0.52
   4  -3 -38    0.23    0.52
  -4   3  38   -0.63    0.42
   4   3 -38    0.02    0.50
   3  -3 -38   -0.42    0.38
  -3   3  38   -0.71    0.44
   3   3 -38   -0.57    0.43
   2  -3 -38    9.67    1.14
   2   3 -38   10.55    1.21
   1  -3 -38    3.01    0.77
   1   3 -38    1.06    0.63
   0  -3 -38    6.90    1.07
   0   3 -38    6.63    0.96
  -1  -3 -38    6.29    0.99
  -1   3 -38    5.64    0.97
  -2  -3 -38   14.13    1.40
  -2   3 -38   11.82    1.28
  -3  -3 -38    1.57    0.66
  -3   3 -38    1.61    0.63
  -4  -3 -38   12.45    1.39
  -4   3 -38   13.10    1.41
  -5   3 -38    1.65    0.68
   6   4 -38    0.81    0.62
  -6   4  38    1.00    0.65
   5   4 -38    0.36    0.57
  -5   4  38    0.68    0.56
  -4   4  38    2.27    0.71
   4   4 -38    2.76    0.73
   3  -4 -38    0.67    0.58
  -3   4  38    0.22    0.48
   3   4 -38    0.19    0.58
   2  -4 -38    2.48    0.70
  -2   4  38    1.87    0.63
   2   4 -38    1.42    0.68
   1  -4 -38    0.80    0.62
   1   4 -38    1.36    0.61
   0  -4 -38    0.24    0.54
   0   4 -38    0.66    0.58
  -1  -4 -38    0.10    0.55
  -1   4 -38    0.86    0.61
  -2  -4 -38    1.00    0.71
  -2   4 -38    0.84    0.64
  -3  -4 -38    3.77    0.93
  -3   4 -38    2.09    0.70
  -4  -4 -38    1.06    0.70
   5   5 -38   -0.71    0.54
  -4   5  38    0.49    0.53
   4   5 -38    2.13    0.74
  -3   5  38    3.44    0.86
   3   5 -38    3.17    0.81
  -2   5  38    3.30    0.77
   2   5 -38    2.38    0.76
   1   5 -38    2.44    0.75
   0  -5 -38    3.95    0.90
   0   5 -38    1.58    0.68
  -1  -5 -38    2.30    0.79
  -1   5 -38    2.28    0.78
  -2  -5 -38    0.37    0.63
  -3  -5 -38   -0.08    0.61
   2   6 -38    1.30    0.70
   8   0 -39   -0.95    0.48
   7   0 -39    6.33    1.05
   6   0 -39    0.07    0.43
   5   0 -39    0.91    0.58
   4   0 -39   -0.26    0.42
   3   0 -39    3.27    0.77
   2   0 -39    0.12    0.47
   1   0 -39   74.75    2.84
   0   0 -39    0.60    0.55
  -1   0 -39    2.75    0.72
  -2   0 -39    0.36    0.51
  -3   0 -39    4.25    0.90
  -4   0 -39    0.61    0.57
  -5   0 -39    6.32    1.04
   8  -1 -39    0.29    0.62
   7  -1 -39    0.86    0.60
   7   1 -39    1.26    0.71
  -7   1  39    0.76    0.59
   6  -1 -39    8.15    1.13
   6   1 -39    6.42    1.07
   5  -1 -39    0.69    0.61
   5   1 -39    1.32    0.66
   4  -1 -39    0.33    0.51
   4   1 -39    0.09    0.53
   3  -1 -39   -0.12    0.47
   3   1 -39    0.91    0.58
   2  -1 -39    1.42    0.61
   2   1 -39    1.10    0.59
   1  -1 -39    0.23    0.50
   1   1 -39    0.03    0.54
   0  -1 -39   10.99    1.22
   0   1 -39    9.38    1.18
  -1  -1 -39    0.50    0.56
  -1   1 -39   -0.17    0.53
  -2  -1 -39   11.69    1.31
  -2   1 -39   13.31    1.35
  -3  -1 -39    0.37    0.56
  -3   1 -39    0.68    0.53
  -4  -1 -39    0.66    0.61
  -4   1 -39    1.37    0.67
  -5  -1 -39    1.93    0.84
  -5   1 -39    1.31    0.73
   7  -2 -39    2.87    0.76
   7   2 -39    2.26    0.81
  -7   2  39    4.43    0.88
   6  -2 -39   -0.44    0.51
  -6   2  39    0.13    0.49
   6   2 -39    0.95    0.63
   5  -2 -39    1.41    0.63
   5   2 -39    0.15    0.57
  -5   2  39    2.01    0.68
   4  -2 -39    2.63    0.77
   4   2 -39    3.38    0.76
   3  -2 -39    0.09    0.56
   3   2 -39    0.92    0.58
   2  -2 -39    7.38    1.03
   2   2 -39    8.39    1.10
   1  -2 -39    0.26    0.53
   1   2 -39    0.27    0.50
   0  -2 -39    3.28    0.83
   0   2 -39    3.20    0.76
  -1  -2 -39    0.37    0.55
  -1   2 -39    0.10    0.49
  -2  -2 -39    1.11    0.63
  -2   2 -39    1.29    0.66
  -3  -2 -39   -0.41    0.52
  -3   2 -39   -0.12    0.54
  -4  -2 -39    1.03    0.74
  -4   2 -39    2.49    0.78
  -5   2 -39    1.20    0.64
  -7   3  39    0.72    0.58
   6  -3 -39    1.91    0.67
  -6   3  39    2.99    0.79
   6   3 -39    2.77    0.83
   5  -3 -39    7.26    1.05
   5   3 -39    6.57    1.05
  -5   3  39    5.91    0.94
   4  -3 -39    0.17    0.49
   4   3 -39    0.84    0.58
  -4   3  39    0.58    0.52
   3  -3 -39    1.53    0.68
   3   3 -39    1.93    0.70
   2  -3 -39    5.08    0.90
   2   3 -39    4.90    0.87
   1  -3 -39    3.70    0.83
   1   3 -39    1.31    0.63
   0  -3 -39   -0.09    0.45
   0   3 -39   -0.24    0.51
  -1  -3 -39    0.09    0.57
  -1   3 -39   -0.14    0.50
  -2  -3 -39    3.67    0.85
  -2   3 -39    3.32    0.80
  -3  -3 -39    3.49    0.87
  -3   3 -39    4.79    0.97
  -4  -3 -39    0.34    0.57
  -4   3 -39    0.03    0.56
  -6   4  39    2.30    0.76
   5   4 -39    2.46    0.86
  -5   4  39    0.73    0.63
  -4   4  39    5.12    0.95
   4   4 -39    5.42    0.95
   3  -4 -39    1.03    0.54
   3   4 -39    1.46    0.67
  -3   4  39    0.38    0.51
   2  -4 -39    1.34    0.61
   2   4 -39    2.35    0.71
   1  -4 -39    7.71    1.10
   1   4 -39    7.37    1.07
   0  -4 -39    0.08    0.52
   0   4 -39    0.79    0.62
  -1  -4 -39    3.29    0.87
  -1   4 -39    2.47    0.77
  -2  -4 -39    0.28    0.63
  -2   4 -39    1.35    0.68
  -3  -4 -39    1.49    0.71
  -3   4 -39   -0.28    0.55
   4   5 -39    0.30    0.64
   3   5 -39   -0.56    0.50
  -3   5  39    0.79    0.57
   2   5 -39    4.23    0.92
  -2   5  39    2.93    0.79
   1   5 -39    2.84    0.80
   0  -5 -39    7.85    1.09
   0   5 -39   10.79    1.25
  -1  -5 -39    9.73    1.24
  -1   5 -39   11.51    1.30
  -2  -5 -39    0.69    0.66
   7   0 -40   -0.44    0.48
   6   0 -40    2.25    0.71
   5   0 -40   -0.18    0.54
   4   0 -40    0.88    0.62
   3   0 -40    0.10    0.57
   2   0 -40    1.74    0.66
   1   0 -40    2.24    0.72
   0   0 -40    4.97    0.92
  -1   0 -40   -0.10    0.55
  -2   0 -40    2.06    0.73
  -3   0 -40   -0.35    0.46
  -4   0 -40    3.24    0.84
   7  -1 -40   -0.24    0.48
   7   1 -40   -0.27    0.48
  -7   1  40   -0.64    0.36
   6  -1 -40    1.06    0.68
   6   1 -40    1.01    0.65
   5  -1 -40    3.13    0.79
   5   1 -40    2.85    0.81
   4  -1 -40    0.36    0.50
   4   1 -40    0.47    0.51
   3  -1 -40   -0.59    0.42
   3   1 -40    0.14    0.53
   2  -1 -40    0.73    0.53
   2   1 -40    1.14    0.60
   1  -1 -40   -0.52    0.43
   1   1 -40    0.17    0.58
   0  -1 -40    2.21    0.71
   0   1 -40    2.50    0.73
  -1  -1 -40    1.25    0.62
  -1   1 -40    0.29    0.55
  -2  -1 -40   12.34    1.37
  -2   1 -40   11.06    1.29
  -3  -1 -40   -0.01    0.59
  -3   1 -40    0.35    0.62
  -4  -1 -40    6.72    1.09
  -4   1 -40    6.10    1.09
  -5   1 -40    0.39    0.70
   7  -2 -40    0.96    0.65
  -7   2  40    0.71    0.58
   6  -2 -40    3.56    0.87
   6   2 -40    4.07    0.90
  -6   2  40    5.56    0.94
   5  -2 -40    1.20    0.67
  -5   2  40    2.33    0.66
   5   2 -40    1.14    0.70
   4  -2 -40    1.21    0.66
   4   2 -40    0.22    0.54
   3  -2 -40    0.80    0.57
   3   2 -40    0.70    0.55
   2  -2 -40    0.24    0.46
   2   2 -40   -0.08    0.54
   1  -2 -40   -0.26    0.48
   1   2 -40   -0.49    0.49
   0  -2 -40    5.29    0.94
   0   2 -40    4.48    0.88
  -1  -2 -40   31.90    1.91
  -1   2 -40   33.48    1.88
  -2  -2 -40    0.22    0.54
  -2   2 -40   -0.64    0.45
  -3  -2 -40    3.63    0.90
  -3   2 -40    2.02    0.71
  -4  -2 -40    0.41    0.69
  -4   2 -40   -0.12    0.50
   6  -3 -40    4.33    0.87
   6   3 -40    4.09    0.90
  -6   3  40    1.80    0.68
   5  -3 -40    0.09    0.57
   5   3 -40    0.64    0.61
  -5   3  40    0.01    0.51
   4  -3 -40    1.88    0.75
  -4   3  40    4.16    0.86
   4   3 -40    2.73    0.79
   3  -3 -40    2.32    0.75
   3   3 -40    1.58    0.66
   2  -3 -40    5.14    0.90
   2   3 -40    5.17    0.91
   1  -3 -40    0.66    0.60
   1   3 -40    1.24    0.64
   0  -3 -40    6.18    1.00
   0   3 -40    6.19    1.04
  -1  -3 -40    0.89    0.65
  -1   3 -40    0.11    0.58
  -2  -3 -40    0.32    0.58
  -2   3 -40    0.70    0.66
  -3  -3 -40   -0.12    0.53
  -3   3 -40   -0.09    0.59
  -4   3 -40    0.30    0.60
  -5   4  40   -0.59    0.48
   5   4 -40    0.00    0.63
   4   4 -40    0.35    0.58
  -4   4  40   -0.44    0.46
   3  -4 -40    3.11    0.78
  -3   4  40    2.38    0.76
   3   4 -40    1.87    0.74
   2  -4 -40    0.47    0.55
   2   4 -40    0.27    0.51
   1  -4 -40    2.04    0.70
   1   4 -40    1.51    0.63
   0  -4 -40    2.38    0.78
   0   4 -40    2.21    0.74
  -1  -4 -40    4.03    0.86
  -1   4 -40    4.17    0.93
  -2  -4 -40    5.64    1.09
  -2   4 -40    3.56    0.85
  -3  -4 -40    1.33    0.72
  -3   4 -40    1.08    0.75
   3   5 -40    5.44    1.02
   2   5 -40    0.71    0.64
   1   5 -40    1.19    0.68
   0  -5 -40   -0.15    0.55
   0   5 -40   -0.59    0.52
  -1  -5 -40    0.16    0.55
  -1   5 -40   -0.59    0.55
   7   0 -41   -0.72    0.45
   6   0 -41   -0.75    0.44
   5   0 -41    2.43    0.76
   4   0 -41   -0.27    0.46
   3   0 -41   32.32    1.86
   2   0 -41    0.53    0.57
   1   0 -41    4.71    0.92
   0   0 -41    0.35    0.54
  -1   0 -41    0.82    0.60
  -2   0 -41   -0.24    0.53
  -3   0 -41    0.63    0.56
  -4   0 -41    0.00    0.55
   7  -1 -41    1.76    0.75
   6  -1 -41   -0.21    0.48
   6   1 -41   -0.68    0.52
   5  -1 -41   -0.21    0.49
   5   1 -41   -0.10    0.56
   4  -1 -41    7.48    1.12
   4   1 -41    5.93    0.98
   3  -1 -41    1.52    0.72
   3   1 -41    1.29    0.67
   2  -1 -41   14.83    1.48
   2   1 -41    9.02    1.22
   1  -1 -41    2.13    0.74
   1   1 -41    1.90    0.71
   0  -1 -41    2.61    0.78
   0   1 -41    1.92    0.69
  -1  -1 -41    0.64    0.60
  -1   1 -41    1.28    0.63
  -2  -1 -41    0.70    0.62
  -2   1 -41    1.38    0.65
  -3  -1 -41    1.34    0.73
  -3   1 -41    0.71    0.66
  -4   1 -41    3.57    0.93
   6   2 -41   12.05    1.44
  -6   2  41   10.49    1.16
   5  -2 -41   -0.33    0.52
   5   2 -41    0.60    0.61
   4  -2 -41    0.51    0.56
   4   2 -41    0.17    0.52
   3  -2 -41    2.53    0.72
   3   2 -41    3.77    0.81
   2  -2 -41    2.49    0.73
   2   2 -41    1.55    0.68
   1  -2 -41   -0.30    0.52
   1   2 -41    0.02    0.57
   0  -2 -41    1.13    0.67
   0   2 -41    0.26    0.52
  -1  -2 -41    4.00    0.90
  -1   2 -41    4.30    0.95
  -2  -2 -41    0.58    0.58
  -2   2 -41    1.93    0.76
  -3  -2 -41    1.51    0.75
  -3   2 -41    1.19    0.69
  -4   2 -41    4.61    0.96
   6  -3 -41   -0.90    0.42
  -6   3  41    0.19    0.59
   5  -3 -41    0.66    0.60
  -5   3  41    0.80    0.62
   5   3 -41    0.72    0.61
   4  -3 -41   -0.21    0.48
   4   3 -41    0.70    0.64
   3  -3 -41    0.34    0.50
   3   3 -41    1.82    0.72
   2  -3 -41    0.50    0.51
   2   3 -41    0.68    0.59
   1  -3 -41   -0.29    0.54
   1   3 -41   -0.57    0.52
   0  -3 -41   -0.78    0.50
   0   3 -41    0.70    0.61
  -1  -3 -41    0.55    0.59
  -1   3 -41   -0.38    0.42
  -2  -3 -41   -0.07    0.60
  -2   3 -41    0.75    0.66
  -3  -3 -41    0.39    0.63
  -3   3 -41    1.71    0.76
  -4   4  41    4.02    0.96
   4   4 -41    5.18    0.97
   3  -4 -41    7.25    1.10
   3   4 -41    8.16    1.19
   2  -4 -41    0.66    0.63
   2   4 -41    0.17    0.60
   1  -4 -41   -0.52    0.50
   1   4 -41   -0.02    0.55
   0  -4 -41    0.19    0.60
   0   4 -41   -0.05    0.59
  -1  -4 -41    3.80    0.88
  -1   4 -41    1.56    0.73
  -2  -4 -41   -0.29    0.59
  -2   4 -41    0.79    0.68
   6   0 -42    0.25    0.53
   5   0 -42   -0.57    0.44
   4   0 -42    0.84    0.59
   3   0 -42    1.11    0.70
   2   0 -42    0.31    0.58
   1   0 -42   -0.63    0.47
   0   0 -42    5.13    0.93
  -1   0 -42    0.97    0.62
  -2   0 -42   -0.10    0.50
  -3   0 -42   -0.11    0.55
   6  -1 -42    0.71    0.64
   6   1 -42    1.40    0.69
   5  -1 -42    1.20    0.69
   5   1 -42    1.57    0.68
   4  -1 -42   -0.07    0.48
   4   1 -42    0.46    0.59
   3  -1 -42    0.07    0.55
   3   1 -42    0.87    0.61
   2  -1 -42    4.59    0.95
   2   1 -42    4.13    0.91
   1  -1 -42    2.84    0.85
   1   1 -42    2.86    0.83
   0  -1 -42    4.88    0.93
   0   1 -42    4.35    0.87
  -1  -1 -42    0.16    0.51
  -1   1 -42    0.09    0.60
  -2  -1 -42    3.09    0.82
  -2   1 -42    3.28    0.91
  -3  -1 -42    1.25    0.73
  -3   1 -42    0.45    0.60
   6  -2 -42    0.38    0.65
   5  -2 -42    2.69    0.73
   5   2 -42    1.75    0.79
   4  -2 -42   -0.15    0.54
   4   2 -42    0.73    0.67
   3  -2 -42    2.06    0.81
   3   2 -42    1.32    0.70
   2  -2 -42    0.38    0.54
   2   2 -42   -0.87    0.50
   1  -2 -42    9.83    1.32
   1   2 -42    8.01    1.20
   0  -2 -42    0.67    0.62
   0   2 -42    0.16    0.52
  -1  -2 -42    2.46    0.75
  -1   2 -42    1.86    0.78
  -2  -2 -42    0.45    0.59
  -2   2 -42    0.55    0.69
  -3   2 -42    2.16    0.79
   5  -3 -42    0.55    0.53
  -5   3  42    0.49    0.55
   4  -3 -42   11.84    1.36
   4   3 -42   12.46    1.43
   3  -3 -42   -0.01    0.52
   3   3 -42    0.59    0.67
   2  -3 -42    1.96    0.71
   2   3 -42    2.96    0.77
   1  -3 -42    0.41    0.62
   1   3 -42    0.91    0.62
   0  -3 -42    6.48    1.09
   0   3 -42    5.14    1.03
  -1  -3 -42    3.43    0.87
  -1   3 -42    2.67    0.80
  -2  -3 -42    0.41    0.63
  -2   3 -42    0.60    0.60
   3  -4 -42    0.41    0.62
   3   4 -42    0.36    0.66
   2  -4 -42    0.04    0.63
   2   4 -42    0.05    0.62
   1  -4 -42    9.14    1.31
   1   4 -42    8.21    1.19
   0  -4 -42    3.30    0.89
   0   4 -42    3.53    0.93
  -1  -4 -42    0.52    0.70
  -1   4 -42    0.16    0.53
   5   0 -43   23.84    1.67
   4   0 -43   -0.12    0.56
   3   0 -43    2.40    0.76
   2   0 -43    0.21    0.54
   1   0 -43    1.60    0.75
   0   0 -43    0.17    0.58
  -1   0 -43    5.43    0.99
  -2   0 -43    0.10    0.57
   5  -1 -43   -0.43    0.55
   5   1 -43   -0.04    0.56
   4  -1 -43    7.12    1.13
   4   1 -43    9.96    1.29
   3  -1 -43    0.74    0.62
   3   1 -43    0.41    0.61
   2  -1 -43    1.33    0.70
   2   1 -43    0.51    0.60
   1  -1 -43    0.02    0.58
   1   1 -43    0.69    0.64
   0  -1 -43   -1.08    0.45
   0   1 -43    0.45    0.64
  -1  -1 -43    1.61    0.74
  -1   1 -43    0.97    0.61
  -2  -1 -43    0.03    0.66
  -2   1 -43    0.37    0.60
   5  -2 -43    0.45    0.62
   4  -2 -43    3.96    0.86
   4   2 -43    4.49    0.98
   3  -2 -43    0.68    0.69
   3   2 -43    0.01    0.59
   2  -2 -43    0.50    0.59
   2   2 -43    0.65    0.68
   1  -2 -43    1.66    0.69
   1   2 -43    1.62    0.68
   0  -2 -43    0.25    0.67
   0   2 -43    0.41    0.65
  -1  -2 -43   -0.25    0.58
  -1   2 -43    0.13    0.56
  -2   2 -43    0.33    0.60
   4  -3 -43   -0.03    0.53
   3  -3 -43    1.28    0.73
   3   3 -43    0.96    0.69
   2  -3 -43    0.53    0.59
   2   3 -43   -0.28    0.53
   1  -3 -43    3.39    0.86
   1   3 -43    2.98    0.86
   0  -3 -43    0.08    0.65
   0   3 -43    0.70    0.56
  -1  -3 -43   12.30    1.45
  -1   3 -43   10.37    1.29
   4   0 -44    5.23    0.99
   3   0 -44    0.13    0.59
   2   0 -44   24.16    1.69
   1   0 -44   -0.78    0.48
   0   0 -44    0.14    0.62
  -1   0 -44   -0.30    0.51
   5  -1 -44    0.35    0.65
   4  -1 -44    1.08    0.61
   4   1 -44    0.76    0.60
   3  -1 -44    1.05    0.71
   3   1 -44    1.76    0.69
   2  -1 -44    5.14    1.03
   2   1 -44    1.61    0.78
   1  -1 -44    1.50    0.69
   1   1 -44    1.56    0.76
   0  -1 -44    1.03    0.62
   0   1 -44    1.69    0.80
  -1  -1 -44    0.01    0.56
  -1   1 -44   -0.55    0.49
   4  -2 -44   -0.09    0.58
   3  -2 -44   10.09    1.29
   3   2 -44   11.99    1.42
   2  -2 -44    2.31    0.77
   2   2 -44    3.81    0.91
   1  -2 -44    1.81    0.75
   1   2 -44    0.89    0.69
   0  -2 -44    3.88    0.93
   0   2 -44    1.54    0.75
  -1   2 -44    0.16    0.55
   2  -3 -44    4.54    0.97
   1  -3 -44    1.60    0.74
   1   3 -44    1.96    0.83
   3   0 -45    0.30    0.69
   2   0 -45   -0.50    0.52
   1   0 -45    0.97    0.64
   3  -1 -45    1.80    0.83
   2  -1 -45   -0.38    0.60
   1  -1 -45    0.03    0.56
   1   1 -45    0.63    0.70
   2  -2 -45    2.95    0.83
   0   0   0    0.00    0.00
;
_shelx_hkl_checksum              17647
loop_
_space_group_symop_operation_xyz
'x, y, z'
'-x+1/2, y+1/2, -z+1/2'
'-x, -y, -z'
'x-1/2, -y-1/2, z-1/2'
loop_
_atom_site_label
_atom_site_type_symbol
_atom_site_fract_x
_atom_site_fract_y
_atom_site_fract_z
_atom_site_U_iso_or_equiv
_atom_site_adp_type
_atom_site_occupancy
_atom_site_site_symmetry_order
_atom_site_calc_flag
_atom_site_refinement_flags_posn
_atom_site_refinement_flags_adp
C1 C -0.1566(2) 0.4312(3) 0.09721(8) 0.0356(6) Uani 1 1 d . .
H1A H -0.1958 0.4946 0.0756 0.053 Uiso 1 1 calc R U
H1B H -0.1864 0.4722 0.1206 0.053 Uiso 1 1 calc R U
H1C H -0.1840 0.3200 0.0936 0.053 Uiso 1 1 calc R U
C2 C 0.0397(3) 0.3782(3) 0.06731(7) 0.0338(6) Uani 1 1 d . .
H2A H -0.0270 0.3129 0.0518 0.041 Uiso 1 1 calc R U
H2B H 0.1171 0.3103 0.0756 0.041 Uiso 1 1 calc R U
C3 C 0.0802(3) 0.5151(3) 0.04462(7) 0.0333(6) Uani 1 1 d . .
H3A H 0.1331 0.4779 0.0246 0.040 Uiso 1 1 calc R U
H3B H 0.0016 0.5723 0.0324 0.040 Uiso 1 1 calc R U
C4 C 0.2049(3) 0.7556(3) 0.05419(7) 0.0378(7) Uani 1 1 d . .
H4A H 0.1305 0.8246 0.0439 0.045 Uiso 1 1 calc R U
H4B H 0.2569 0.7271 0.0333 0.045 Uiso 1 1 calc R U
C5 C 0.2895(3) 0.8385(3) 0.08504(7) 0.0361(6) Uani 1 1 d . .
H5A H 0.3745 0.7819 0.0910 0.043 Uiso 1 1 calc R U
H5B H 0.3079 0.9487 0.0774 0.043 Uiso 1 1 calc R U
C6 C 0.2778(3) 0.9321(3) 0.14826(7) 0.0345(6) Uani 1 1 d . .
H6A H 0.2854 1.0445 0.1405 0.041 Uiso 1 1 calc R U
H6B H 0.3673 0.8913 0.1570 0.041 Uiso 1 1 calc R U
C7 C 0.1907(3) 0.9185(3) 0.17903(7) 0.0330(6) Uani 1 1 d . .
H7A H 0.2352 0.9625 0.2031 0.040 Uiso 1 1 calc R U
H7B H 0.1073 0.9776 0.1721 0.040 Uiso 1 1 calc R U
C8 C 0.0817(3) 0.7217(3) 0.21258(7) 0.0303(6) Uani 1 1 d . .
H8A H -0.0069 0.7688 0.2059 0.036 Uiso 1 1 calc R U
H8B H 0.1213 0.7676 0.2370 0.036 Uiso 1 1 calc R U
C9 C 0.0726(3) 0.5451(3) 0.21543(7) 0.0287(5) Uani 1 1 d . .
H9A H 0.1593 0.4999 0.2255 0.034 Uiso 1 1 calc R U
H9B H 0.0071 0.5152 0.2327 0.034 Uiso 1 1 calc R U
C10 C 0.0176(3) 0.3155(3) 0.17937(8) 0.0398(7) Uani 1 1 d . .
H10A H 0.0979 0.2684 0.1927 0.060 Uiso 1 1 calc R U
H10B H 0.0029 0.2732 0.1535 0.060 Uiso 1 1 calc R U
H10C H -0.0580 0.2892 0.1929 0.060 Uiso 1 1 calc R U
C11 C 0.4866(3) 0.3596(3) 0.12501(8) 0.0367(7) Uani 1 1 d . .
C12 C 0.6643(3) 0.5377(3) 0.23006(9) 0.0414(7) Uani 1 1 d . .
C13 C -0.2796(3) 0.9049(3) 0.12199(8) 0.0368(6) Uani 1 1 d . .
C14 C -0.3692(3) 0.7965(4) 0.00967(8) 0.0463(7) Uani 1 1 d . .
F1 F 0.5031(2) 0.4703(2) 0.09969(5) 0.0618(6) Uani 1 1 d . .
F2 F 0.42603(17) 0.23683(18) 0.10681(5) 0.0502(5) Uani 1 1 d . .
F3 F 0.60351(17) 0.3129(2) 0.14099(6) 0.0645(6) Uani 1 1 d . .
F4 F 0.65302(19) 0.38146(19) 0.22803(6) 0.0621(5) Uani 1 1 d . .
F5 F 0.74993(18) 0.5835(3) 0.20715(6) 0.0708(6) Uani 1 1 d . .
F6 F 0.71124(19) 0.5766(2) 0.26522(5) 0.0642(5) Uani 1 1 d . .
F7 F -0.25193(19) 0.9590(2) 0.15704(5) 0.0658(6) Uani 1 1 d . .
F8 F -0.33956(17) 0.7673(2) 0.12289(5) 0.0547(5) Uani 1 1 d . .
F9 F -0.36051(17) 1.0065(2) 0.10253(5) 0.0520(5) Uani 1 1 d . .
F10 F -0.45133(18) 0.8135(3) 0.03546(5) 0.0648(5) Uani 1 1 d . .
F11 F -0.4269(2) 0.8525(3) -0.02309(5) 0.0749(6) Uani 1 1 d . .
F12 F -0.3484(2) 0.6413(2) 0.00530(6) 0.0660(5) Uani 1 1 d . .
Mg1 Mg 0.10620(7) 0.62117(8) 0.13051(2) 0.01900(17) Uani 1 1 d . .
N1 N 0.4651(2) 0.5829(2) 0.17464(5) 0.0254(4) Uani 1 1 d . .
N2 N -0.1622(2) 0.8094(2) 0.06041(5) 0.0268(5) Uani 1 1 d . .
O1 O -0.01485(16) 0.44134(18) 0.09981(5) 0.0265(4) Uani 1 1 d . .
O2 O 0.15698(17) 0.61611(19) 0.07083(4) 0.0276(4) Uani 1 1 d . .
O3 O 0.21757(17) 0.83906(18) 0.11729(5) 0.0277(4) Uani 1 1 d . .
O4 O 0.16435(16) 0.75209(17) 0.18317(4) 0.0241(4) Uani 1 1 d . .
O5 O 0.03248(16) 0.48562(17) 0.17794(4) 0.0249(4) Uani 1 1 d . .
O6 O 0.26442(16) 0.47151(19) 0.13834(5) 0.0300(4) Uani 1 1 d . .
O7 O 0.37939(18) 0.30266(19) 0.18692(5) 0.0339(4) Uani 1 1 d . .
O8 O 0.42151(19) 0.5704(2) 0.24338(5) 0.0381(5) Uani 1 1 d . .
O9 O 0.5331(2) 0.79910(19) 0.21822(5) 0.0390(5) Uani 1 1 d . .
O10 O -0.05763(16) 0.76582(17) 0.12423(4) 0.0258(4) Uani 1 1 d . .
O11 O -0.06954(19) 1.04116(19) 0.10121(5) 0.0391(5) Uani 1 1 d . .
O12 O -0.2476(2) 1.0641(2) 0.02682(5) 0.0467(5) Uani 1 1 d . .
O13 O -0.1360(2) 0.8576(2) -0.00691(5) 0.0477(5) Uani 1 1 d . .
S1 S 0.38653(6) 0.43052(6) 0.16104(2) 0.02073(13) Uani 1 1 d . .
S2 S 0.50446(6) 0.63365(7) 0.21738(2) 0.02628(14) Uani 1 1 d . .
S3 S -0.12572(6) 0.88608(6) 0.10019(2) 0.02368(14) Uani 1 1 d . .
S4 S -0.21341(7) 0.90131(8) 0.02242(2) 0.03279(16) Uani 1 1 d . .
loop_
_atom_site_aniso_label
_atom_site_aniso_U_11
_atom_site_aniso_U_22
_atom_site_aniso_U_33
_atom_site_aniso_U_23
_atom_site_aniso_U_13
_atom_site_aniso_U_12
C1 0.0250(14) 0.0247(13) 0.0566(18) -0.0010(12) 0.0030(12) -0.0035(10)
C2 0.0435(17) 0.0298(13) 0.0285(14) -0.0117(11) 0.0057(12) -0.0023(12)
C3 0.0414(16) 0.0373(14) 0.0211(13) -0.0101(11) 0.0026(11) -0.0004(12)
C4 0.0489(18) 0.0403(15) 0.0268(14) 0.0062(12) 0.0151(13) -0.0097(13)
C5 0.0429(17) 0.0373(15) 0.0306(15) 0.0040(11) 0.0152(12) -0.0134(12)
C6 0.0487(18) 0.0210(12) 0.0324(15) -0.0020(10) -0.0009(12) -0.0146(11)
C7 0.0533(18) 0.0155(11) 0.0297(14) -0.0047(10) 0.0025(12) -0.0050(11)
C8 0.0403(16) 0.0312(13) 0.0209(13) -0.0028(10) 0.0094(11) 0.0004(11)
C9 0.0334(15) 0.0335(13) 0.0197(12) 0.0042(10) 0.0054(10) -0.0001(11)
C10 0.060(2) 0.0209(13) 0.0390(16) 0.0079(11) 0.0084(14) -0.0045(12)
C11 0.0366(16) 0.0283(13) 0.0485(17) -0.0146(12) 0.0181(13) -0.0065(12)
C12 0.0324(16) 0.0441(17) 0.0450(18) -0.0026(13) -0.0065(13) -0.0023(13)
C13 0.0384(16) 0.0375(15) 0.0353(16) -0.0029(12) 0.0077(12) 0.0125(13)
C14 0.0402(18) 0.063(2) 0.0341(17) -0.0006(14) -0.0018(13) 0.0109(15)
F1 0.0914(15) 0.0499(11) 0.0534(12) -0.0132(9) 0.0481(11) -0.0223(10)
F2 0.0553(11) 0.0370(9) 0.0630(11) -0.0284(8) 0.0272(9) -0.0132(8)
F3 0.0281(10) 0.0645(12) 0.1033(16) -0.0287(11) 0.0175(10) 0.0098(9)
F4 0.0565(12) 0.0373(10) 0.0856(14) -0.0050(9) -0.0207(10) 0.0136(8)
F5 0.0300(10) 0.1008(16) 0.0830(15) 0.0049(12) 0.0133(10) -0.0001(10)
F6 0.0631(13) 0.0677(12) 0.0533(12) -0.0044(9) -0.0289(10) -0.0004(10)
F7 0.0677(13) 0.0959(15) 0.0349(10) -0.0190(10) 0.0110(9) 0.0220(11)
F8 0.0409(11) 0.0534(11) 0.0743(13) 0.0107(9) 0.0260(9) -0.0005(8)
F9 0.0475(11) 0.0535(10) 0.0556(11) -0.0005(8) 0.0080(8) 0.0313(9)
F10 0.0386(11) 0.1039(16) 0.0530(12) -0.0057(11) 0.0105(9) 0.0003(10)
F11 0.0641(14) 0.1143(17) 0.0409(11) 0.0056(11) -0.0170(9) 0.0190(12)
F12 0.0605(13) 0.0587(12) 0.0764(14) -0.0172(10) -0.0026(10) -0.0070(10)
Mg1 0.0224(4) 0.0161(4) 0.0186(4) 0.0000(3) 0.0027(3) 0.0006(3)
N1 0.0306(12) 0.0210(10) 0.0250(11) -0.0019(8) 0.0046(9) -0.0040(8)
N2 0.0368(13) 0.0195(10) 0.0242(11) 0.0010(8) 0.0041(9) 0.0068(9)
O1 0.0265(9) 0.0266(9) 0.0267(9) -0.0067(7) 0.0049(7) -0.0042(7)
O2 0.0348(10) 0.0289(9) 0.0194(8) -0.0004(7) 0.0041(7) -0.0076(7)
O3 0.0335(10) 0.0253(9) 0.0249(9) -0.0007(7) 0.0060(7) -0.0082(7)
O4 0.0338(10) 0.0182(8) 0.0209(9) -0.0008(6) 0.0052(7) -0.0017(7)
O5 0.0346(10) 0.0175(8) 0.0225(9) 0.0034(6) 0.0034(7) -0.0014(7)
O6 0.0275(10) 0.0302(9) 0.0306(10) -0.0057(7) -0.0030(7) 0.0077(7)
O7 0.0392(11) 0.0255(9) 0.0354(10) 0.0094(7) -0.0015(8) -0.0063(8)
O8 0.0438(12) 0.0439(11) 0.0286(10) -0.0031(8) 0.0123(9) -0.0083(9)
O9 0.0574(13) 0.0236(9) 0.0358(11) -0.0078(8) 0.0038(9) -0.0053(8)
O10 0.0271(9) 0.0204(8) 0.0291(9) 0.0041(7) 0.0005(7) 0.0038(7)
O11 0.0495(12) 0.0175(9) 0.0491(12) 0.0018(8) 0.0001(9) -0.0041(8)
O12 0.0698(15) 0.0313(10) 0.0396(12) 0.0123(8) 0.0087(10) 0.0184(10)
O13 0.0545(14) 0.0589(13) 0.0326(11) 0.0013(9) 0.0178(10) 0.0079(10)
S1 0.0204(3) 0.0194(3) 0.0229(3) -0.0008(2) 0.0047(2) 0.0010(2)
S2 0.0301(3) 0.0239(3) 0.0250(3) -0.0032(2) 0.0041(2) -0.0017(2)
S3 0.0268(3) 0.0160(3) 0.0282(3) 0.0014(2) 0.0030(2) 0.0033(2)
S4 0.0408(4) 0.0331(3) 0.0254(3) 0.0060(3) 0.0081(3) 0.0103(3)
loop_
_atom_type_symbol
_atom_type_description
_atom_type_scat_dispersion_real
_atom_type_scat_dispersion_imag
_atom_type_scat_source
C C 0.0033 0.0016 'International Tables Vol C Tables 4.2.6.8 and 6.1.1.4'
H H 0.0000 0.0000 'International Tables Vol C Tables 4.2.6.8 and 6.1.1.4'
N N 0.0061 0.0033 'International Tables Vol C Tables 4.2.6.8 and 6.1.1.4'
O O 0.0106 0.0060 'International Tables Vol C Tables 4.2.6.8 and 6.1.1.4'
F F 0.0171 0.0103 'International Tables Vol C Tables 4.2.6.8 and 6.1.1.4'
Mg Mg 0.0486 0.0363 'International Tables Vol C Tables 4.2.6.8 and 6.1.1.4'
S S 0.1246 0.1234 'International Tables Vol C Tables 4.2.6.8 and 6.1.1.4'
loop_
_geom_angle_atom_site_label_1
_geom_angle_atom_site_label_2
_geom_angle_atom_site_label_3
_geom_angle
O1 C1 H1A 109.5
O1 C1 H1B 109.5
H1A C1 H1B 109.5
O1 C1 H1C 109.5
H1A C1 H1C 109.5
H1B C1 H1C 109.5
O1 C2 C3 107.76(19)
O1 C2 H2A 110.2
C3 C2 H2A 110.2
O1 C2 H2B 110.2
C3 C2 H2B 110.2
H2A C2 H2B 108.5
O2 C3 C2 105.9(2)
O2 C3 H3A 110.6
C2 C3 H3A 110.6
O2 C3 H3B 110.6
C2 C3 H3B 110.6
H3A C3 H3B 108.7
O2 C4 C5 106.2(2)
O2 C4 H4A 110.5
C5 C4 H4A 110.5
O2 C4 H4B 110.5
C5 C4 H4B 110.5
H4A C4 H4B 108.7
O3 C5 C4 106.4(2)
O3 C5 H5A 110.4
C4 C5 H5A 110.4
O3 C5 H5B 110.4
C4 C5 H5B 110.4
H5A C5 H5B 108.6
O3 C6 C7 106.3(2)
O3 C6 H6A 110.5
C7 C6 H6A 110.5
O3 C6 H6B 110.5
C7 C6 H6B 110.5
H6A C6 H6B 108.7
O4 C7 C6 106.53(18)
O4 C7 H7A 110.4
C6 C7 H7A 110.4
O4 C7 H7B 110.4
C6 C7 H7B 110.4
H7A C7 H7B 108.6
O4 C8 C9 105.82(18)
O4 C8 H8A 110.6
C9 C8 H8A 110.6
O4 C8 H8B 110.6
C9 C8 H8B 110.6
H8A C8 H8B 108.7
O5 C9 C8 107.31(19)
O5 C9 H9A 110.3
C8 C9 H9A 110.3
O5 C9 H9B 110.3
C8 C9 H9B 110.3
H9A C9 H9B 108.5
O5 C10 H10A 109.5
O5 C10 H10B 109.5
H10A C10 H10B 109.5
O5 C10 H10C 109.5
H10A C10 H10C 109.5
H10B C10 H10C 109.5
F1 C11 F3 108.8(2)
F1 C11 F2 107.9(2)
F3 C11 F2 108.8(2)
F1 C11 S1 111.86(18)
F3 C11 S1 110.4(2)
F2 C11 S1 109.11(18)
F5 C12 F4 108.5(3)
F5 C12 F6 108.4(2)
F4 C12 F6 108.5(2)
F5 C12 S2 110.8(2)
F4 C12 S2 110.9(2)
F6 C12 S2 109.7(2)
F8 C13 F7 109.3(2)
F8 C13 F9 108.6(2)
F7 C13 F9 108.6(2)
F8 C13 S3 110.98(17)
F7 C13 S3 109.0(2)
F9 C13 S3 110.33(19)
F10 C14 F11 108.5(3)
F10 C14 F12 108.0(3)
F11 C14 F12 107.8(3)
F10 C14 S4 112.4(2)
F11 C14 S4 109.3(2)
F12 C14 S4 110.8(2)
O6 Mg1 O10 177.43(8)
O6 Mg1 O1 91.88(7)
O10 Mg1 O1 87.16(7)
O6 Mg1 O4 93.61(7)
O10 Mg1 O4 86.03(7)
O1 Mg1 O4 149.60(7)
O6 Mg1 O5 85.00(7)
O10 Mg1 O5 92.47(7)
O1 Mg1 O5 78.44(6)
O4 Mg1 O5 72.31(6)
O6 Mg1 O3 96.97(7)
O10 Mg1 O3 85.32(7)
O1 Mg1 O3 137.89(7)
O4 Mg1 O3 70.89(6)
O5 Mg1 O3 143.19(7)
O6 Mg1 O2 81.39(7)
O10 Mg1 O2 100.57(7)
O1 Mg1 O2 72.07(6)
O4 Mg1 O2 138.32(7)
O5 Mg1 O2 146.93(7)
O3 Mg1 O2 68.76(6)
S1 N1 S2 125.64(12)
S3 N2 S4 125.99(12)
C2 O1 C1 113.96(19)
C2 O1 Mg1 114.18(14)
C1 O1 Mg1 125.65(14)
C3 O2 C4 114.20(19)
C3 O2 Mg1 117.27(14)
C4 O2 Mg1 120.29(14)
C6 O3 C5 113.71(19)
C6 O3 Mg1 118.17(14)
C5 O3 Mg1 119.10(14)
C7 O4 C8 112.32(17)
C7 O4 Mg1 116.00(13)
C8 O4 Mg1 113.93(14)
C9 O5 C10 109.48(18)
C9 O5 Mg1 115.79(13)
C10 O5 Mg1 125.43(14)
S1 O6 Mg1 147.19(11)
S3 O10 Mg1 143.60(11)
O7 S1 O6 115.79(11)
O7 S1 N1 119.09(11)
O6 S1 N1 110.80(10)
O7 S1 C11 106.22(12)
O6 S1 C11 101.77(12)
N1 S1 C11 100.15(11)
O9 S2 O8 119.21(11)
O9 S2 N1 108.23(10)
O8 S2 N1 114.58(11)
O9 S2 C12 104.59(13)
O8 S2 C12 104.82(13)
N1 S2 C12 103.67(12)
O11 S3 O10 117.49(11)
O11 S3 N2 117.11(11)
O10 S3 N2 106.98(10)
O11 S3 C13 105.76(12)
O10 S3 C13 100.80(11)
N2 S3 C13 106.96(12)
O13 S4 O12 119.40(12)
O13 S4 N2 109.75(12)
O12 S4 N2 115.78(11)
O13 S4 C14 103.56(13)
O12 S4 C14 105.90(14)
N2 S4 C14 99.54(13)
loop_
_geom_bond_atom_site_label_1
_geom_bond_atom_site_label_2
_geom_bond_distance
C1 O1 1.440(3)
C1 H1A 0.9800
C1 H1B 0.9800
C1 H1C 0.9800
C2 O1 1.438(3)
C2 C3 1.489(3)
C2 H2A 0.9900
C2 H2B 0.9900
C3 O2 1.424(3)
C3 H3A 0.9900
C3 H3B 0.9900
C4 O2 1.425(3)
C4 C5 1.485(4)
C4 H4A 0.9900
C4 H4B 0.9900
C5 O3 1.428(3)
C5 H5A 0.9900
C5 H5B 0.9900
C6 O3 1.428(3)
C6 C7 1.489(4)
C6 H6A 0.9900
C6 H6B 0.9900
C7 O4 1.435(3)
C7 H7A 0.9900
C7 H7B 0.9900
C8 O4 1.437(3)
C8 C9 1.492(3)
C8 H8A 0.9900
C8 H8B 0.9900
C9 O5 1.434(3)
C9 H9A 0.9900
C9 H9B 0.9900
C10 O5 1.440(3)
C10 H10A 0.9800
C10 H10B 0.9800
C10 H10C 0.9800
C11 F1 1.318(3)
C11 F3 1.319(3)
C11 F2 1.330(3)
C11 S1 1.825(3)
C12 F5 1.317(3)
C12 F4 1.320(3)
C12 F6 1.323(3)
C12 S2 1.827(3)
C13 F8 1.311(3)
C13 F7 1.322(3)
C13 F9 1.324(3)
C13 S3 1.835(3)
C14 F10 1.318(3)
C14 F11 1.325(3)
C14 F12 1.334(3)
C14 S4 1.826(3)
Mg1 O6 2.0392(18)
Mg1 O10 2.0571(17)
Mg1 O1 2.1635(17)
Mg1 O4 2.1885(17)
Mg1 O5 2.2326(16)
Mg1 O3 2.2336(17)
Mg1 O2 2.2361(17)
N1 S1 1.5577(19)
N1 S2 1.580(2)
N2 S3 1.556(2)
N2 S4 1.587(2)
O6 S1 1.4432(17)
O7 S1 1.4205(17)
O8 S2 1.4244(18)
O9 S2 1.4211(17)
O10 S3 1.4467(16)
O11 S3 1.4230(17)
O12 S4 1.4254(18)
O13 S4 1.4252(19)
