#------------------------------------------------------------------------------
#$Date: 2016-03-04 10:53:00 +0200 (Fri, 04 Mar 2016) $
#$Revision: 177369 $
#$URL: svn://www.crystallography.net/cod/cif/1/54/27/1542719.cif $
#------------------------------------------------------------------------------
#
# This file is available in the Crystallography Open Database (COD),
# http://www.crystallography.net/
#
# All data on this site have been placed in the public domain by the
# contributors.
#
data_1542719
loop_
_publ_author_name
'Pan, Hongjie'
'Huang, Hu'
'Liu, Weigang'
'Tian, Hua'
'Shi, Yian'
_publ_section_title
;
 Phosphine Oxide-Sc(OTf)3 Catalyzed Highly Regio- and Enantioselective
 Bromoaminocyclization of (E)-Cinnamyl Tosylcarbamates. An Approach to a
 Class of Synthetically Versatile Functionalized Molecules.
;
_journal_issue                   5
_journal_name_full               'Organic letters'
_journal_page_first              896
_journal_paper_doi               10.1021/acs.orglett.5b03459
_journal_volume                  18
_journal_year                    2016
_chemical_absolute_configuration ad
_chemical_formula_moiety         'C16 H19 N O3 S'
_chemical_formula_sum            'C16 H19 N O3 S'
_chemical_formula_weight         305.38
_space_group_crystal_system      monoclinic
_space_group_IT_number           4
_space_group_name_Hall           'P 2yb'
_space_group_name_H-M_alt        'P 1 21 1'
_symmetry_space_group_name_Hall  'P 2yb'
_symmetry_space_group_name_H-M   'P 1 21 1'
_atom_sites_solution_hydrogens   mixed
_atom_sites_solution_primary     direct
_audit_creation_date             2015-07-21
_audit_creation_method
;
Olex2 1.2
(compiled 2015.01.26 svn.r3150 for OlexSys, GUI svn.r4998)
;
_cell_angle_alpha                90
_cell_angle_beta                 115.905(4)
_cell_angle_gamma                90
_cell_formula_units_Z            2
_cell_length_a                   5.804(2)
_cell_length_b                   22.592(7)
_cell_length_c                   6.639(2)
_cell_measurement_reflns_used    2694
_cell_measurement_temperature    173.1500
_cell_measurement_theta_max      27.4526
_cell_measurement_theta_min      1.8028
_cell_volume                     783.1(4)
_computing_cell_refinement       'CrystalClear (Rigaku Inc., 2007)'
_computing_data_collection       'CrystalClear (Rigaku Inc., 2007)'
_computing_data_reduction        'CrystalClear (Rigaku Inc., 2007)'
_computing_molecular_graphics    'Olex2 (Dolomanov et al., 2009)'
_computing_publication_material  'CIFTAB (Sheldrick, 2013)'
_computing_structure_refinement  'SHELXL (Sheldrick, 2014)'
_computing_structure_solution
;
'SHELXT (Sheldrick, 2014)'
;
_diffrn_ambient_temperature      173.1500
_diffrn_detector_area_resol_mean 28.5714
_diffrn_measured_fraction_theta_full 0.995
_diffrn_measured_fraction_theta_max 0.994
_diffrn_measurement_details
;
scan:
    Number of images: 360
               Slice: -110.0000 - 70.0000
         Image width: 0.5000
            Exp time: 8.0000
       Rotation axis: Omega
               Omega: 0.0000
                 Chi: 45.0000
                 Phi: 270.0000
                 XTD: 45.1413
              2theta: -19.8304
scan:
    Number of images: 330
               Slice: -110.0000 - 55.0000
         Image width: 0.5000
            Exp time: 8.0000
       Rotation axis: Omega
               Omega: 0.0000
                 Chi: 45.0000
                 Phi: 0.0000
                 XTD: 45.1413
              2theta: -19.8304
scan:
    Number of images: 328
               Slice: -110.0000 - 54.0000
         Image width: 0.5000
            Exp time: 8.0000
       Rotation axis: Omega
               Omega: 0.0000
                 Chi: 45.0000
                 Phi: 180.0000
                 XTD: 45.1413
              2theta: -19.8304
;
_diffrn_measurement_device
;
Saturn724+ (2x2 bin mode)
;
_diffrn_measurement_device_details
;
AFC10: Fixed Chi 2 circle
;
_diffrn_measurement_device_type  'Saturn724+ CCD'
_diffrn_measurement_method       '\w scans at fixed \c = 45\%'
_diffrn_orient_matrix_type       d*Trek
_diffrn_orient_matrix_UB_11      0.1907
_diffrn_orient_matrix_UB_12      -0.0052
_diffrn_orient_matrix_UB_13      0.0175
_diffrn_orient_matrix_UB_21      0.0034
_diffrn_orient_matrix_UB_22      0.0354
_diffrn_orient_matrix_UB_23      -0.0264
_diffrn_orient_matrix_UB_31      0.0644
_diffrn_orient_matrix_UB_32      0.0884
_diffrn_orient_matrix_UB_33      0.1268
_diffrn_radiation_detector       CCD
_diffrn_radiation_monochromator  'Graphite Monochromator'
_diffrn_radiation_type           MoK\a
_diffrn_radiation_wavelength     0.71073
_diffrn_reflns_av_R_equivalents  0.0280
_diffrn_reflns_av_unetI/netI     0.0262
_diffrn_reflns_laue_measured_fraction_full 0.995
_diffrn_reflns_laue_measured_fraction_max 0.994
_diffrn_reflns_limit_h_max       7
_diffrn_reflns_limit_h_min       -7
_diffrn_reflns_limit_k_max       29
_diffrn_reflns_limit_k_min       -29
_diffrn_reflns_limit_l_max       7
_diffrn_reflns_limit_l_min       -8
_diffrn_reflns_number            8462
_diffrn_reflns_point_group_measured_fraction_full 0.985
_diffrn_reflns_point_group_measured_fraction_max 0.979
_diffrn_reflns_theta_full        26.000
_diffrn_reflns_theta_max         27.452
_diffrn_reflns_theta_min         3.529
_diffrn_source                   'Sealed Tube'
_diffrn_source_current           30.0000
_diffrn_source_power             1.5000
_diffrn_source_voltage           50.0000
_exptl_absorpt_coefficient_mu    0.216
_exptl_absorpt_correction_T_max  1.0000
_exptl_absorpt_correction_T_min  0.79599
_exptl_absorpt_correction_type   multi-scan
_exptl_absorpt_process_details   'CrystalClear (Rigaku Inc., 2007)'
_exptl_crystal_colour            Colorless
_exptl_crystal_density_diffrn    1.295
_exptl_crystal_description       block
_exptl_crystal_F_000             324
_exptl_crystal_size_max          0.27
_exptl_crystal_size_mid          0.25
_exptl_crystal_size_min          0.18
_refine_diff_density_max         0.221
_refine_diff_density_min         -0.201
_refine_diff_density_rms         0.032
_refine_ls_abs_structure_details
;
 Flack x determined using 1576 quotients [(I+)-(I-)]/[(I+)+(I-)]
 (Parsons, Flack and Wagner, Acta Cryst. B69 (2013) 249-259).
;
_refine_ls_abs_structure_Flack   0.00(3)
_refine_ls_extinction_method     none
_refine_ls_goodness_of_fit_ref   1.049
_refine_ls_hydrogen_treatment    mixed
_refine_ls_matrix_type           full
_refine_ls_number_parameters     196
_refine_ls_number_reflns         3532
_refine_ls_number_restraints     1
_refine_ls_restrained_S_all      1.049
_refine_ls_R_factor_all          0.0301
_refine_ls_R_factor_gt           0.0296
_refine_ls_shift/su_max          0.001
_refine_ls_shift/su_mean         0.000
_refine_ls_structure_factor_coef Fsqd
_refine_ls_weighting_details
'w=1/[\s^2^(Fo^2^)+(0.0390P)^2^+0.1456P] where P=(Fo^2^+2Fc^2^)/3'
_refine_ls_weighting_scheme      calc
_refine_ls_wR_factor_gt          0.0755
_refine_ls_wR_factor_ref         0.0757
_reflns_Friedel_coverage         0.921
_reflns_friedel_fraction_full    0.975
_reflns_friedel_fraction_max     0.963
_reflns_number_gt                3485
_reflns_number_total             3532
_reflns_threshold_expression     'I > 2\s(I)'
_cod_data_source_file            ol5b03459_si_005.cif
_cod_data_source_block           a
_cod_original_cell_volume        783.1(5)
_cod_database_code               1542719
_shelx_space_group_comment
;
The symmetry employed for this shelxl refinement is uniquely defined
by the following loop, which should always be used as a source of
symmetry information in preference to the above space-group names.
They are only intended as comments.
;
_diffrn_number_total             1849
_olex2_refinement_description
;
1. Fixed Uiso
 At 1.2 times of:
  All C(H) groups, All C(H,H) groups
 At 1.5 times of:
  All C(H,H,H) groups, All O(H) groups
2.a Ternary CH refined with riding coordinates:
 C1(H1B)
2.b Secondary CH2 refined with riding coordinates:
 C2(H2A,H2B), C3(H3A,H3B)
2.c Aromatic/amide H refined with riding coordinates:
 C5(H5), C6(H6), C7(H7), C8(H8), C9(H9), C11(H11), C12(H12), C14(H14), C15(H15)
2.d Idealised Me refined as rotating group:
 C16(H16A,H16B,H16C)
2.e Idealised tetrahedral OH refined as rotating group:
 O1(H1)
;
_shelx_res_file
;
    a.res created by SHELXL-2014/7

TITL a_a.res in P2(1)
CELL 0.71073 5.8043 22.5917 6.6389 90 115.905 90
ZERR 2 0.002 0.007 0.0023 0 0.004 0
LATT -1
SYMM -X,0.5+Y,-Z
SFAC C H N O S
UNIT 32 38 2 6 2
EQIV $1 1+X,+Y,1+Z
EQIV $2 -1+X,+Y,+Z

L.S. 4 0 0
PLAN  20
HTAB O1 O3_$1
HTAB N1 O1_$2
BOND $H
LIST 6
fmap 2 53
MORE -1
ACTA 52
CONF
HTAB
OMIT 0 -2 0
OMIT 0 2 0
REM <olex2.extras>
REM <HklSrc "%.\\A.hkl">
REM </olex2.extras>

WGHT    0.039000    0.145600
FVAR       1.27032
S1    5    0.332808    0.543640    0.456928    11.00000    0.02442    0.02861 =
         0.02199    0.00034    0.00792    0.00253
O1    4    1.251275    0.464118    0.915704    11.00000    0.02709    0.05051 =
         0.02789   -0.00630    0.01418   -0.00893
AFIX 147
H1    2    1.294079    0.491723    1.004841    11.00000   -1.50000
AFIX   0
O2    4    0.072422    0.552336    0.418565    11.00000    0.02518    0.04198 =
         0.03585    0.00058    0.00834    0.00546
O3    4    0.398785    0.547071    0.272272    11.00000    0.03956    0.03844 =
         0.02417    0.00106    0.01442    0.00004
N1    3    0.413259    0.478616    0.567500    11.00000    0.02227    0.02804 =
         0.02594   -0.00014    0.01202   -0.00037
C1    1    0.673544    0.455381    0.627872    11.00000    0.01950    0.02714 =
         0.02137    0.00028    0.00782   -0.00048
AFIX  13
H1B   2    0.765367    0.483409    0.576464    11.00000   -1.20000
AFIX   0
C2    1    0.819035    0.449257    0.883444    11.00000    0.02294    0.04104 =
         0.02112   -0.00130    0.00888   -0.00356
AFIX  23
H2A   2    0.828411    0.487806    0.950945    11.00000   -1.20000
H2B   2    0.722902    0.423310    0.935247    11.00000   -1.20000
AFIX   0
C3    1    1.088614    0.424940    0.963258    11.00000    0.02489    0.03899 =
         0.02343    0.00303    0.00636   -0.00267
AFIX  23
H3A   2    1.161297    0.418146    1.123481    11.00000   -1.20000
H3B   2    1.080980    0.387180    0.891052    11.00000   -1.20000
AFIX   0
C4    1    0.651850    0.396502    0.510409    11.00000    0.02076    0.02327 =
         0.02270    0.00214    0.00494    0.00202
C5    1    0.497610    0.351371    0.527601    11.00000    0.02924    0.02878 =
         0.04379    0.00270    0.01251   -0.00084
AFIX  43
H5    2    0.407251    0.357233    0.612149    11.00000   -1.20000
AFIX   0
C6    1    0.478078    0.297762    0.419346    11.00000    0.03638    0.02539 =
         0.06551    0.00038    0.00841   -0.00432
AFIX  43
H6    2    0.373034    0.268091    0.430256    11.00000   -1.20000
AFIX   0
C7    1    0.613209    0.288210    0.295880    11.00000    0.04337    0.02969 =
         0.05663   -0.01447    0.00688    0.00635
AFIX  43
H7    2    0.599198    0.252203    0.223534    11.00000   -1.20000
AFIX   0
C8    1    0.770460    0.332403    0.279494    11.00000    0.04598    0.04243 =
         0.04190   -0.01159    0.01539    0.00786
AFIX  43
H8    2    0.863515    0.325908    0.197652    11.00000   -1.20000
AFIX   0
C9    1    0.788384    0.386613    0.386290    11.00000    0.03325    0.03429 =
         0.02904   -0.00323    0.01221    0.00048
AFIX  43
H9    2    0.892555    0.416321    0.374202    11.00000   -1.20000
AFIX   0
C10   1    0.527772    0.595209    0.659231    11.00000    0.02860    0.02247 =
         0.02743    0.00042    0.00983    0.00297
C11   1    0.474197    0.606012    0.841624    11.00000    0.04017    0.02911 =
         0.03069    0.00179    0.01608    0.00106
AFIX  43
H11   2    0.334584    0.588099    0.850364    11.00000   -1.20000
AFIX   0
C12   1    0.632400    0.643840    1.009280    11.00000    0.05748    0.03173 =
         0.02784   -0.00158    0.01457    0.00493
AFIX  43
H12   2    0.597933    0.651201    1.131249    11.00000   -1.20000
AFIX   0
C13   1    0.841090    0.670922    0.998639    11.00000    0.04329    0.02838 =
         0.04034   -0.00382    0.00233    0.00225
C14   1    0.890384    0.659408    0.814912    11.00000    0.03173    0.03301 =
         0.05441   -0.00136    0.01335   -0.00182
AFIX  43
H14   2    1.029669    0.677438    0.805983    11.00000   -1.20000
AFIX   0
C15   1    0.735391    0.621509    0.644884    11.00000    0.03262    0.03046 =
         0.03991    0.00115    0.01751    0.00128
AFIX  43
H15   2    0.770569    0.613937    0.523435    11.00000   -1.20000
AFIX   0
C16   1    1.013203    0.711880    1.185213    11.00000    0.07173    0.05304 =
         0.06087   -0.02091    0.00478   -0.01162
AFIX 137
H16A  2    0.909706    0.738153    1.225002    11.00000   -1.50000
H16B  2    1.118126    0.734569    1.135068    11.00000   -1.50000
H16C  2    1.120555    0.688804    1.313487    11.00000   -1.50000
AFIX   0
H1A   2    0.364387    0.475277    0.673944    11.00000    0.03687
HKLF 4

REM  a_a.res in P2(1)
REM R1 =  0.0296 for    3485 Fo > 4sig(Fo)  and  0.0301 for all    3532 data
REM    196 parameters refined using      1 restraints

END

WGHT      0.0390      0.1456

REM Instructions for potential hydrogen bonds
HTAB O1 O3_$1
EQIV $3 x+1, y, z
HTAB C15 O2_$3
HTAB N1 O1_$2

REM Highest difference peak  0.221,  deepest hole -0.201,  1-sigma level  0.032
Q1    1   0.4250  0.5760  0.5544  11.00000  0.05    0.22
Q2    1   0.3921  0.5153  0.5471  11.00000  0.05    0.21
Q3    1   0.7619  0.4576  0.7565  11.00000  0.05    0.16
Q4    1   0.5726  0.6185  0.6203  11.00000  0.05    0.14
Q5    1   0.5429  0.3783  0.4734  11.00000  0.05    0.14
Q6    1   0.9478  0.4411  0.9137  11.00000  0.05    0.14
Q7    1   0.8131  0.6364  0.7560  11.00000  0.05    0.14
Q8    1   1.2061  0.6990  1.2191  11.00000  0.05    0.13
Q9    1   0.5157  0.6371  0.9026  11.00000  0.05    0.13
Q10   1   0.1275  0.5436  0.5301  11.00000  0.05    0.12
Q11   1   0.6432  0.4218  0.5561  11.00000  0.05    0.12
Q12   1   0.6012  0.6218  0.9430  11.00000  0.05    0.12
Q13   1  -0.0183  0.5435  0.5980  11.00000  0.05    0.12
Q14   1   0.5210  0.5997  0.7377  11.00000  0.05    0.11
Q15   1   0.9676  0.7464  1.1207  11.00000  0.05    0.11
Q16   1   0.6808  0.4016  0.4199  11.00000  0.05    0.11
Q17   1   0.5806  0.2944  0.3834  11.00000  0.05    0.11
Q18   1   0.5198  0.3227  0.4830  11.00000  0.05    0.11
Q19   1   0.9620  0.7147  1.3470  11.00000  0.05    0.11
Q20   1   0.1672  0.5470  0.3954  11.00000  0.05    0.10
;
_shelx_res_checksum              96578
_shelx_hkl_file
;
   0   0  -2 2327.32   20.49
   0   0   2 2293.20   20.18
   0   0  -2 2346.11   20.78
   0   0   2 2301.35   20.07
   0   0  -2 2308.45   20.12
   0   0  -3   16.26    1.32
   0   0   3   16.66    0.91
   0   0  -3   16.93    1.96
   0   0   3   14.55    0.82
   0   0  -3   13.69    0.76
   0   0  -4   16.82    1.33
   0   0  -4   18.78    1.80
   0   0   4   14.18    0.86
   0   0  -4   11.76    0.78
   0   0  -5    2.96    1.69
   0   0  -5    2.83    0.71
   0   0   5    4.52    0.88
   0   0  -6    0.63    1.16
   0   0  -6    1.76    0.84
   0   0   6    1.79    0.89
   0   0  -7   42.74    2.53
   0   0  -7   47.25    4.56
   0  -1   0   -0.11    0.05
   0  -1   0   -0.29    0.07
   0   1   0   -0.25    0.07
   0   1   1 1150.91   10.19
   0  -1   1 1183.27   10.34
   0  -1  -1 1161.51   10.29
   0   1  -1 1140.17   10.13
   0   1   1 1149.73    9.98
   0  -1   1 1156.32   10.16
   0  -1  -2 2156.08   19.11
   0   1  -2 2147.48   18.91
   0  -1   2 2116.92   18.62
   0  -1  -2 2126.53   18.91
   0   1  -2 2129.77   18.98
   0   1   2 2114.10   18.43
   0  -1   2 2135.62   18.75
   0  -1  -2 2116.20   18.43
   0   1  -2 2126.03   18.64
   0  -1  -3  719.94   12.13
   0   1  -3  727.99   12.18
   0   1   3  676.19   11.38
   0  -1   3  696.32   11.64
   0  -1  -3  709.07   12.00
   0   1  -3  720.35   12.23
   0   1   3  715.75   11.79
   0  -1   3  682.35   11.33
   0  -1  -3  681.73   11.22
   0   1  -3  707.37   11.70
   0   1  -4  432.24    7.81
   0  -1  -4  427.64    7.85
   0  -1  -4  410.12    7.56
   0   1  -4  435.62    8.16
   0   1   4  433.15    7.54
   0  -1   4  419.78    7.40
   0  -1  -4  416.71    7.24
   0  -1  -5  604.91   14.81
   0   1  -5  634.00   15.33
   0  -1  -5  587.06   14.52
   0   1  -5  596.66   14.67
   0   1   5  596.45   14.19
   0  -1   5  614.18   14.69
   0  -1  -6  189.72    7.04
   0   1  -6  206.96    7.65
   0  -1  -6  185.05    8.54
   0   1  -6  190.89    7.27
   0   1   6  193.39    6.86
   0  -1   6  193.75    6.94
   0   1  -7   19.13    1.58
   0  -1  -7   20.03    1.56
   0  -1  -7   22.90    3.00
   0   1  -7   27.41    3.65
   0  -2   0    0.19    0.12
   0   2   0    0.21    0.16
   0  -2   0   -0.22    0.19
   0   2   0   -0.19    0.18
   0   2   1 2033.23   17.74
   0   2  -2 2501.18   21.84
   0  -2   2 2502.49   21.82
   0  -2  -2 2547.02   22.51
   0   2  -2 2506.24   22.22
   0   2   2 2531.34   21.94
   0  -2  -2 2526.99   21.88
   0  -2   2 2555.27   22.39
   0   2  -2 2455.64   21.50
   0  -2  -3   62.62    2.01
   0   2  -3   56.90    1.69
   0  -2  -3   63.22    1.93
   0   2  -3   47.33    1.63
   0   2   3   56.83    1.35
   0  -2   3   60.38    1.71
   0  -2  -3   57.34    1.41
   0   2  -3   55.15    1.56
   0  -2  -4   75.04    2.41
   0   2  -4   84.51    2.50
   0  -2  -4   89.03    6.59
   0   2  -4   78.69    2.36
   0   2   4   75.88    1.83
   0  -2   4   74.01    1.99
   0  -2  -4   76.66    1.83
   0  -2  -5  189.81    5.49
   0   2  -5  186.00    5.18
   0  -2  -5  190.18    5.45
   0   2  -5  188.93    5.70
   0   2   5  183.56    4.75
   0  -2   5  182.39    4.88
   0  -2  -6  202.84    7.54
   0   2  -6  203.21    7.75
   0  -2  -6  226.00    8.74
   0   2  -6  231.73   12.44
   0   2   6  190.87    7.55
   0  -2   6  209.75    7.54
   0  -2  -7   44.21    2.81
   0   2  -7   41.11    2.58
   0  -2  -7   50.97    4.46
   0   2  -7   47.76    5.69
   0   3   0    4.27    0.31
   0   3   1  761.08    7.07
   0   3  -1  752.97    6.66
   0  -3  -1  745.35    6.87
   0   3   1  768.83    7.04
   0  -3   1  732.86    6.84
   0  -3  -1  733.66    6.55
   0  -3   1  728.38    6.76
   0   3   2  350.53    3.93
   0   3  -2  351.79    3.61
   0  -3   2  345.47    3.57
   0  -3  -2  362.53    3.97
   0   3   2  352.66    4.27
   0   3  -2  353.32    4.12
   0   3   2  357.60    3.49
   0  -3  -2  346.12    3.38
   0   3  -2  343.57    3.71
   0  -3  -3 1038.09   17.27
   0   3  -3 1020.82   16.73
   0  -3   3  976.28   15.99
   0   3  -3 1032.72   17.21
   0   3   3 1025.19   16.69
   0  -3  -3  990.41   16.08
   0   3  -3  953.83   15.68
   0  -3  -4  352.71    6.76
   0   3  -4  356.85    6.57
   0  -3  -4  347.14    6.55
   0   3  -4  356.34    6.91
   0   3   4  343.05    6.03
   0  -3   4  361.82    6.60
   0  -3  -4  346.52    6.05
   0  -3  -5 1073.14   25.55
   0   3  -5 1097.31   25.88
   0  -3  -5 1055.82   25.25
   0   3  -5 1081.92   25.99
   0   3   5 1044.41   24.44
   0  -3   5 1051.68   24.77
   0  -3  -6  277.76   10.08
   0   3  -6  283.59   10.16
   0  -3  -6  288.53   10.61
   0   3  -6  272.64    9.98
   0  -3   6  270.68    9.57
   0  -3  -7  113.38    4.17
   0   3  -7   96.30    3.48
   0  -3  -7  104.30   10.27
   0   3  -7   99.48    8.72
   0  -4   0  442.55    4.15
   0   4   0  456.79    4.25
   0  -4   0  441.20    4.20
   0   4   0  469.30    4.44
   0  -4  -2  344.67    4.01
   0   4   2  325.66    3.81
   0   4  -2  335.00    3.44
   0  -4   2  335.21    3.39
   0  -4  -2  347.62    3.90
   0   4   2  328.14    3.70
   0   4   2  333.46    3.50
   0  -4  -2  339.33    3.35
   0   4  -2  325.08    3.69
   0  -4  -3  190.64    4.07
   0   4  -3  174.81    3.41
   0  -4   3  176.40    3.37
   0  -4  -3  193.73    4.02
   0   4  -3  179.90    3.88
   0   4   3  166.35    3.71
   0  -4  -3  175.85    3.18
   0  -4   3  170.30    3.48
   0   4  -3  160.90    3.24
   0  -4  -4  194.28    4.39
   0   4  -4  197.47    3.97
   0  -4  -4  207.03    4.42
   0   4  -4  202.05    4.38
   0   4   4  193.39    3.86
   0  -4   4  189.53    3.89
   0  -4  -4  189.58    3.55
   0  -4  -5  118.72    3.96
   0   4  -5  106.73    3.26
   0  -4  -5  136.19    7.92
   0   4  -5  110.31    3.68
   0   4   5  111.55    3.27
   0  -4   5  115.22    3.42
   0  -4  -6  266.65    9.68
   0   4  -6  271.65    9.63
   0  -4  -6  296.13   10.74
   0   4  -6  273.99   10.21
   0  -4   6  269.87    9.62
   0  -4  -7  105.78    4.06
   0  -4  -7  101.31    7.19
   0   4  -7   93.23    9.78
   0  -5   0    2.55    0.42
   0   5   0    2.81    0.54
   0  -5   0    5.36    1.25
   0   5   0    2.34    0.89
   0   5   2  202.15    2.56
   0  -5  -3 1196.91   19.86
   0   5  -3 1164.23   18.95
   0  -5   3 1155.47   18.77
   0  -5  -3 1133.35   18.77
   0   5  -3 1206.05   20.05
   0   5   3 1134.04   18.37
   0  -5  -3 1137.56   18.40
   0  -5   3 1161.42   19.16
   0  -5  -4  159.66    3.74
   0   5  -4  156.95    3.37
   0  -5   4  143.52    3.02
   0  -5  -4  177.57    4.20
   0   5  -4  174.08    3.99
   0   5   4  160.17    3.49
   0  -5  -4  155.26    2.98
   0  -5   4  161.71    3.59
   0  -5  -5  283.04    7.56
   0   5  -5  306.15    7.73
   0  -5  -5  298.55    7.92
   0   5  -5  302.24    8.18
   0   5   5  273.22    6.78
   0  -5   5  292.73    7.49
   0  -5  -6  114.26    4.22
   0   5  -6  121.28    4.09
   0  -5  -6  125.15   10.49
   0   5  -6  137.61    8.99
   0  -5   6  121.33    4.18
   0  -5  -7   70.80    4.69
   0  -5  -7   75.89    8.15
   0   5  -7   75.31    6.07
   0  -6   0  120.66    1.71
   0   6   0  115.32    1.55
   0   6   0  120.68    2.02
   0  -6   0  112.96    1.86
   0   6   0  115.17    1.76
   0  -6   1 3360.61   28.96
   0  -6  -1 3370.27   29.49
   0  -6   1 3256.67   28.49
   0  -6   1 3389.48   29.74
   0  -6  -1 3471.18   30.04
   0   6  -2  123.43    1.55
   0  -6  -2  128.43    2.24
   0   6  -2  121.67    1.72
   0   6   2  121.38    4.37
   0  -6  -2  126.78    1.62
   0  -6   2  122.35    2.28
   0   6  -2  119.88    2.05
   0  -6  -3  872.61   16.76
   0   6  -3  869.16   16.30
   0  -6   3  856.96   16.02
   0  -6  -3  843.29   16.14
   0   6  -3  836.94   16.15
   0   6   3  863.76   16.09
   0  -6  -3  829.50   15.47
   0  -6   3  868.12   16.55
   0  -6  -4  868.59   16.69
   0   6  -4  850.05   15.92
   0  -6  -4  866.81   16.51
   0   6  -4  879.21   16.97
   0   6   4  816.91   15.20
   0  -6  -4  810.49   14.99
   0  -6   4  853.33   16.22
   0  -6  -5   24.14    1.95
   0   6  -5   27.44    1.43
   0  -6  -5   30.02    3.85
   0   6  -5   30.41    1.85
   0  -6   5   28.00    1.58
   0  -6  -6   11.36    1.41
   0   6  -6   10.16    1.01
   0  -6  -6   15.01    2.32
   0   6  -6   10.37    1.45
   0  -6   6   14.91    1.38
   0  -6  -7   34.26    6.06
   0   6  -7   37.93    6.43
   0  -7   0    0.82    1.06
   0  -7   0    3.29    2.00
   0   7   0    1.39    1.14
   0  -7  -1 4646.38   40.36
   0  -7   1 4468.51   38.84
   0   7   1 4657.69   40.36
   0  -7   1 4738.39   41.25
   0   7  -2 1848.43   16.24
   0   7  -2 1865.64   16.36
   0   7   2 1807.05   16.42
   0   7  -2 1842.19   16.93
   0  -7  -2 1813.59   16.06
   0  -7   2 1824.25   16.74
   0   7  -3 1895.21   34.94
   0  -7  -3 1923.61   31.82
   0   7  -3 1912.00   31.16
   0  -7  -3 1919.83   31.61
   0   7  -3 1905.21   35.66
   0  -7  -3 1845.95   34.04
   0  -7   3 1965.01   32.43
   0  -7  -4  600.60   12.00
   0   7  -4  608.01   11.61
   0  -7   4  551.90   10.42
   0  -7  -4  602.31   12.80
   0   7  -4  621.73   12.36
   0   7   4  592.69   11.10
   0  -7  -4  563.70   10.56
   0  -7   4  572.84   11.23
   0  -7  -5  109.89    4.04
   0   7  -5  101.21    3.33
   0  -7  -5  105.01    3.88
   0   7  -5  106.13    3.92
   0  -7   5  108.68    3.68
   0  -7  -6  172.47    5.78
   0   7  -6  157.91    4.88
   0  -7  -6  161.32    8.30
   0   7  -6  180.67    6.20
   0  -7   6  164.11    5.32
   0  -7  -7   12.74    1.99
   0  -7  -7    7.54    1.78
   0   7  -7   13.97    2.60
   0  -7   7   10.46    1.57
   0   8   0 1912.44   17.12
   0   8  -1  215.32    2.39
   0   8   1  204.26    3.16
   0   8  -1  234.20    3.41
   0  -8   1  221.01    3.01
   0   8   1  231.20    3.07
   0  -8  -1  242.37    3.03
   0   8  -2  556.84    9.19
   0   8  -2  556.98    9.18
   0   8   2  523.23    8.85
   0  -8  -2  547.87    9.09
   0  -8   2  564.15    9.80
   0  -8  -2  579.91    9.66
   0   8  -3    2.67    0.31
   0   8  -3    5.07    1.05
   0  -8  -3   10.67    1.09
   0   8  -3    8.53    1.99
   0  -8   3    2.56    1.25
   0   8  -4  653.38   12.21
   0  -8  -4  706.95   13.86
   0   8  -4  694.68   13.07
   0  -8  -4  732.49   14.20
   0   8  -4  696.10   13.64
   0  -8  -4  644.59   12.02
   0  -8   4  721.18   13.98
   0  -8  -5   30.47    1.92
   0   8  -5   31.34    1.50
   0  -8  -5   29.98    3.14
   0   8  -5   30.17    1.89
   0  -8   5   30.23    1.74
   0  -8  -6   67.08    3.73
   0  -8  -6   61.12    5.27
   0   8  -6   70.34    3.77
   0  -8   6   56.67    2.88
   0  -8  -7   59.57    4.39
   0  -8  -7   49.22    7.12
   0   8  -7   60.19    8.30
   0  -8   7   53.70    3.83
   0   9   0    7.06    2.01
   0  -9   0    3.87    1.63
   0  -9   1 1324.02   11.92
   0   9  -1 1242.34   11.16
   0  -9  -1 1273.48   11.97
   0   9   1 1256.30   11.73
   0  -9   1 1275.91   12.23
   0  -9  -1 1335.24   12.32
   0   9  -2 1223.07   19.75
   0  -9  -2 1225.02   20.27
   0   9  -2 1229.38   19.86
   0  -9  -2 1195.84   19.49
   0  -9  -2 1246.05   20.27
   0   9  -3  634.02   12.04
   0   9  -3  663.14   12.52
   0   9  -3  654.04   12.96
   0  -9  -3  617.49   11.68
   0  -9   3  679.16   13.30
   0   9  -4  177.21    4.61
   0  -9  -4  195.53    5.67
   0   9  -4  195.24    5.08
   0  -9  -4  212.09    5.88
   0   9  -4  186.75    5.50
   0  -9  -4  178.93    4.57
   0  -9   4  203.80    5.69
   0  -9  -5  302.24    8.33
   0   9  -5  313.84    8.04
   0  -9  -5  323.16    8.79
   0   9  -5  326.18    9.00
   0  -9   5  310.57    8.38
   0  -9  -6  393.73   21.59
   0  -9  -6  367.20   14.82
   0   9  -6  391.01   21.55
   0  -9   6  365.29   14.55
   0  -9  -7   75.96    5.24
   0  -9  -7   65.46    9.99
   0   9  -7   70.19   10.37
   0  -9   7   69.20    4.78
   0  10   0 1725.36   15.52
   0 -10   1   35.88    1.28
   0  10  -1   40.58    1.17
   0 -10  -1   37.81    1.34
   0  10  -1   43.59    1.74
   0  10   1   38.05    1.45
   0 -10  -1   36.64    1.76
   0  10  -2  514.53    8.52
   0 -10  -2  520.53    9.20
   0  10  -2  543.90    9.05
   0  10   2  537.66    9.39
   0 -10  -2  505.82    8.53
   0 -10   2  499.36    9.08
   0 -10  -2  519.83    8.86
   0  10  -3   45.62    2.13
   0 -10  -3   52.50    2.04
   0  10  -3   45.48    1.38
   0  10  -3   49.18    1.90
   0 -10  -3   41.66    1.75
   0 -10   3   44.80    1.83
   0 -10  -3   48.00    1.56
   0  10  -4  157.85    4.08
   0 -10  -4  180.92    5.47
   0  10  -4  173.85    4.59
   0 -10  -4  183.32    5.20
   0  10  -4  172.63    5.30
   0 -10  -4  164.96    4.25
   0 -10   4  174.97    5.16
   0 -10  -5   14.70    1.88
   0  10  -5   15.98    1.19
   0 -10  -5   15.66    1.43
   0  10  -5   27.23    2.36
   0 -10   5   17.30    1.48
   0 -10  -6   85.88    4.24
   0 -10  -6   98.18    4.50
   0  10  -6   83.23    4.07
   0 -10   6   88.88    4.09
   0 -10  -7   33.13    2.57
   0 -10  -7   44.72    3.33
   0  10  -7   39.02    2.93
   0 -10   7   37.86    2.68
   0 -11   1  273.05    5.57
   0  11  -1  246.72    4.37
   0  11  -1  282.40    5.58
   0  11   1  275.50    5.24
   0 -11   1  234.86    7.51
   0 -11  -1  284.22    5.34
   0 -11   2  502.22    9.52
   0  11  -2  498.98    9.45
   0 -11  -2  495.59    9.93
   0  11  -2  515.78   10.39
   0  11   2  481.88    9.69
   0 -11  -2  482.75    9.28
   0 -11   2  481.07    9.73
   0 -11  -2  516.78   10.04
   0  11  -3   72.12    1.64
   0 -11  -3   72.39    2.41
   0  11  -3   80.19    1.99
   0 -11  -3   62.61    2.90
   0 -11   3   71.80    2.41
   0 -11  -3   71.72    2.04
   0  11  -4  264.49    6.41
   0 -11  -4  302.58    7.97
   0  11  -4  291.61    7.16
   0  11  -4  323.07    8.45
   0 -11  -4  250.04    6.10
   0 -11   4  310.18    8.19
   0 -11  -4  312.69    7.64
   0 -11  -5  283.68   10.65
   0  11  -5  263.24    9.34
   0  11  -5  266.92   10.13
   0 -11   5  279.77   10.42
   0 -11  -5  254.26    8.97
   0 -11  -6  129.83    5.66
   0 -11  -6  127.69    5.41
   0  11  -6  131.07    5.77
   0 -11   6  124.10    5.31
   0 -11  -7  161.43    8.91
   0 -11  -7  173.20    9.40
   0  11  -7  164.53    9.23
   0 -11   7  149.75    8.14
   0 -12   0 3190.88   51.30
   0  12   0 3146.75   50.79
   0 -12   1 1853.54   34.49
   0 -12  -1 1806.18   33.74
   0  12  -1 1675.08   31.00
   0  12  -1 1834.14   34.32
   0  12   1 1833.11   34.19
   0 -12   1 1775.16   33.21
   0 -12  -1 1888.92   35.17
   0 -12   2  263.22    5.22
   0  12  -2  247.59    4.89
   0 -12  -2  251.16    5.54
   0  12  -2  273.99    6.11
   0  12   2  276.16    6.06
   0 -12   2  251.51    5.91
   0 -12  -2  266.22    5.57
   0  12  -3   89.26    1.99
   0 -12  -3   82.85    2.56
   0  12  -3   86.83    2.19
   0  12  -3   95.31    3.13
   0 -12  -3   71.03    3.36
   0 -12   3  103.66    3.38
   0 -12  -3   90.81    2.56
   0  12  -4   85.50    2.50
   0  12  -4   88.76    3.31
   0 -12   4   82.11    3.38
   0 -12  -4   93.47    2.86
   0 -12  -5   30.93    2.29
   0  12  -5   33.45    2.77
   0 -12   5   38.31    2.27
   0 -12  -6  122.55    5.97
   0  12  -6  119.76    5.89
   0 -12   6  113.64    5.45
   0 -12  -7    8.26    1.64
   0  12  -7   13.75    2.17
   0 -12   7   10.65    1.47
   0 -13   1  550.51   10.70
   0 -13  -1  636.30   12.51
   0  13  -1  560.90   10.73
   0  13  -1  524.62   11.14
   0  13   1  618.20   12.19
   0 -13   1  558.43   12.66
   0 -13  -1  658.86   13.00
   0 -13   2  343.72    6.51
   0  13  -2  326.36    5.69
   0 -13  -2  352.10    6.76
   0  13  -2  353.35    6.98
   0  13   2  345.79    6.73
   0 -13   2  345.90    6.82
   0 -13  -2  364.81    6.77
   0  13  -3   21.80    0.78
   0 -13  -3   26.21    1.89
   0  13  -3   23.91    1.05
   0  13  -3   21.83    1.69
   0  13   3   22.78    1.59
   0 -13   3   27.39    2.42
   0 -13  -3   24.43    1.34
   0 -13  -4  310.60    9.39
   0  13  -4  301.96    8.45
   0 -13   4  307.25    9.48
   0 -13  -4  320.28    9.05
   0 -13  -5  323.12   11.64
   0  13  -5  333.29   12.03
   0 -13   5  341.37   12.26
   0 -13  -6   57.79    2.89
   0  13  -6   44.02    3.13
   0 -13   6   52.74    2.62
   0 -14   0 1493.50   28.01
   0  14   0 1445.79   27.29
   0 -14   1 1207.26   23.50
   0 -14  -1 1245.29   23.62
   0  14  -1 1205.14   23.24
   0  14   1 1234.14   23.48
   0 -14  -1 1265.77   23.99
   0 -14   2  166.81    3.27
   0 -14  -2  161.09    3.73
   0  14  -2  151.63    2.93
   0  14  -2  175.49    4.27
   0  14   2  167.82    3.91
   0 -14   2  154.12    3.70
   0 -14  -2  150.26    3.47
   0  14  -3  104.81    2.81
   0 -14  -3  112.41    3.69
   0  14  -3  112.12    3.11
   0  14  -3  117.26    4.08
   0  14   3  116.18    4.02
   0 -14   3  104.12    3.85
   0 -14  -3  107.07    3.29
   0 -14  -4  177.18    5.41
   0  14  -4  183.72    4.81
   0 -14   4  189.52    6.00
   0 -14  -4  188.84    5.10
   0 -14  -5   49.10    2.74
   0 -14   5   51.79    2.91
   0  14  -6   39.09    2.70
   0 -14   6   40.99    2.97
   0 -15  -1  261.28    5.33
   0  15  -1  240.81    6.29
   0  15   1  269.74    5.79
   0 -15  -1  261.08    5.51
   0 -15   2   94.33    2.91
   0  15  -2   79.83    1.94
   0 -15  -2   96.63    2.86
   0  15  -2   90.81    3.30
   0  15   2   92.38    3.17
   0 -15   2   81.66    2.86
   0 -15  -2  101.34    3.17
   0  15  -3   14.68    0.70
   0 -15  -3   16.51    1.69
   0  15  -3   19.20    1.15
   0  15  -3   15.49    1.91
   0  15   3   21.07    2.09
   0 -15   3   12.56    1.53
   0 -15  -3   16.41    1.46
   0 -15  -4    5.61    1.48
   0  15  -4    7.89    0.71
   0  15  -4   10.61    1.28
   0  15   4    7.28    1.15
   0 -15   4    7.27    1.47
   0 -15  -4    4.89    0.93
   0 -15  -5  119.67    5.63
   0 -15   5  114.84    5.36
   0 -15  -6  143.99    9.17
   0  15  -6  145.84    9.25
   0 -15   6  136.32    8.49
   0 -16   0 1702.02   31.50
   0  16   0 1644.25   27.64
   0 -16   0 1675.13   31.23
   0 -16   1  466.59    9.13
   0 -16  -1  448.05    9.04
   0  16  -1  447.52    9.29
   0  16   1  432.45    8.93
   0 -16   1  454.51    9.55
   0 -16  -1  469.22    9.72
   0 -16   2  197.60    5.21
   0 -16  -2  193.70    5.56
   0  16  -2  199.73    5.82
   0  16   2  193.49    5.57
   0 -16   2  191.35    5.65
   0 -16  -2  196.82    5.65
   0 -16  -3  121.19    4.32
   0  16  -3  118.32    3.61
   0  16  -3  112.16    4.11
   0  16   3  126.52    4.53
   0 -16   3  119.33    4.49
   0 -16  -3  120.44    4.01
   0 -16  -4  119.48    5.15
   0  16  -4  110.80    4.88
   0  16   4  111.38    4.74
   0 -16   4  117.37    5.13
   0 -16  -4  123.10    4.78
   0  16  -5   22.67    2.40
   0 -16   5   21.32    2.54
   0 -16  -6   22.04    3.19
   0  16  -6    8.84    1.98
   0 -16   6   16.56    2.54
   0 -17   1   16.03    2.48
   0 -17  -1   22.72    1.43
   0  17  -1    9.10    1.29
   0  17   1   15.48    1.94
   0 -17   1   17.19    1.99
   0 -17  -1   17.49    1.53
   0 -17   2  135.98    3.82
   0 -17  -2  134.10    4.25
   0  17  -2  134.48    4.40
   0  17   2  132.28    4.22
   0 -17   2  127.41    4.29
   0 -17  -2  137.13    4.16
   0 -17  -3  191.76    6.35
   0  17  -3  192.48    5.57
   0  17  -3  185.42    6.06
   0  17   3  182.32    5.98
   0 -17   3  167.28    5.72
   0 -17  -3  179.34    5.64
   0 -17  -4   82.53    3.95
   0  17  -4   76.25    3.60
   0  17   4   77.22    3.89
   0 -17   4   82.31    3.85
   0 -17  -4   79.76    3.32
   0 -17  -5  104.24    5.06
   0  17  -5  107.08    5.48
   0  17   5  108.50    5.28
   0 -17   5   93.70    4.87
   0 -17  -6   85.96    5.25
   0 -17   6   89.99    5.59
   0 -18   0  568.27   14.15
   0  18   0  559.53   14.27
   0 -18   0  552.24   14.18
   0 -18   1   64.09    3.63
   0 -18  -1   67.61    2.80
   0  18  -1   60.20    2.85
   0  18   1   72.80    3.19
   0 -18   1   58.21    3.34
   0 -18  -1   60.83    2.81
   0 -18   2   50.80    1.90
   0 -18  -2   46.90    2.14
   0  18  -2   43.68    2.31
   0  18   2   48.58    2.61
   0 -18   2   43.60    2.59
   0 -18  -2   54.58    2.37
   0 -18  -3   70.35    2.85
   0  18  -3   70.07    2.33
   0  18  -3   62.89    2.90
   0  18   3   65.11    2.96
   0 -18   3   57.80    2.63
   0 -18  -3   65.69    2.49
   0 -18  -4   48.32    2.63
   0  18  -4   36.89    2.76
   0  18   4   38.94    2.22
   0 -18   4   42.30    2.80
   0 -18  -4   49.14    2.18
   0 -18  -5   21.35    2.06
   0  18  -5   17.86    2.19
   0  18   5   20.31    2.09
   0 -18   5   19.95    1.91
   0 -18  -6    5.51    1.23
   0  18  -6    6.88    1.89
   0  18   6    5.83    1.70
   0 -18   6    9.29    1.82
   0 -19   1  218.79    6.61
   0 -19  -1  228.15    6.25
   0  19  -1  216.11    6.34
   0  19   1  215.08    6.27
   0 -19   1  219.59    6.35
   0 -19  -1  233.30    6.70
   0 -19   2  231.65    7.29
   0 -19  -2  250.33    7.68
   0  19  -2  244.27    7.65
   0  19   2  266.53    8.23
   0 -19   2  248.55    7.84
   0 -19  -2  252.53    7.86
   0 -19  -3   94.78    4.12
   0  19  -3   88.44    3.40
   0  19  -3   93.16    4.43
   0  19   3   91.13    4.18
   0 -19   3   86.46    3.99
   0 -19  -3   95.82    3.88
   0 -19  -4   22.55    2.21
   0  19  -4   16.88    2.22
   0  19   4   21.86    2.26
   0 -19   4   27.25    2.61
   0 -19  -4   23.63    1.65
   0 -19  -5  237.23    7.78
   0  19  -5  215.28    7.39
   0  19   5  210.13    6.82
   0 -19   5  242.96    8.04
   0 -20   0  683.14   19.06
   0  20   0  681.31   19.28
   0 -20   0  664.54   18.88
   0 -20   1  563.77   15.75
   0 -20  -1  609.89   17.30
   0  20  -1  586.45   16.83
   0  20   1  579.64   16.66
   0 -20   1  592.86   17.08
   0 -20  -1  600.69   17.12
   0 -20   2   58.85    2.79
   0 -20  -2   69.44    3.36
   0  20  -2   62.53    3.24
   0  20   2   70.21    3.43
   0 -20   2   64.42    3.28
   0 -20  -2   74.44    3.53
   0 -20  -3  146.62    5.88
   0  20  -3  147.91    6.01
   0  20   3  130.48    5.34
   0 -20   3  139.01    5.83
   0 -20  -3  145.75    5.57
   0 -20  -4   77.54    3.86
   0  20  -4   63.62    3.37
   0  20   4   71.34    3.81
   0 -20   4   76.70    4.15
   0 -20  -5   36.27    3.29
   0  20  -5   29.93    3.91
   0  20   5   28.26    3.73
   0 -20   5   36.57    3.10
   0 -21   1   61.83    5.56
   0 -21  -1   84.45    3.47
   0  21  -1   63.85    3.18
   0  21   1   62.03    3.04
   0 -21  -1   60.88    3.08
   0 -21   2   15.55    2.36
   0 -21  -2   19.41    2.08
   0  21  -2   13.93    1.57
   0  21   2   20.81    2.01
   0 -21   2   17.93    1.88
   0 -21  -2   16.15    1.83
   0 -21  -3   85.27    3.73
   0  21  -3   81.65    3.62
   0  21   3   80.88    3.59
   0 -21   3   72.37    3.22
   0 -21  -3   82.42    3.17
   0 -21  -4   94.51    4.83
   0  21  -4   92.63    4.89
   0  21   4   81.66    4.21
   0 -21   4   83.27    4.74
   0 -21  -5  167.83    9.34
   0  21  -5  154.49    8.70
   0  21   5  152.33    8.52
   0 -21   5  159.37    9.12
   0 -22   0   31.48    1.88
   0  22   0   32.68    2.76
   0 -22   0   31.64    2.15
   0 -22   1  116.39    4.60
   0 -22  -1  120.89    5.02
   0  22  -1  116.89    5.17
   0  22   1  112.67    5.10
   0 -22   1  123.17    5.87
   0 -22  -1  127.10    5.52
   0 -22   2  111.47    4.13
   0 -22  -2  109.82    4.03
   0  22  -2  121.89    4.59
   0  22   2  112.64    4.45
   0 -22  -2  109.96    4.18
   0 -22  -3   65.26    3.47
   0  22  -3   70.89    3.82
   0  22   3   68.83    3.82
   0 -22   3   75.38    4.09
   0 -22  -3   65.17    3.34
   0 -22  -4   13.54    1.61
   0  22  -4    9.53    1.55
   0  22   4   11.36    1.90
   0 -22   4   13.50    2.24
   0 -22  -5   29.26    2.54
   0  22  -5   28.10    2.48
   0  22   5   22.03    2.39
   0 -22   5   28.25    3.03
   0 -23   0    1.24    0.81
   0  23   0    2.84    1.48
   0 -23   0    1.35    1.40
   0 -23   1  107.09    3.91
   0 -23  -1  103.32    3.90
   0  23  -1  112.08    4.55
   0  23   1  101.68    4.22
   0 -23   1  107.28    4.35
   0 -23  -1  103.54    3.91
   0 -23   2   52.15    2.57
   0 -23  -2   53.53    2.96
   0  23  -2   66.19    3.88
   0  23   2   50.83    3.10
   0 -23  -2   60.11    3.31
   0 -23  -3    8.55    1.53
   0  23  -3    7.26    1.50
   0  23   3    6.86    1.60
   0 -23   3    8.21    2.03
   0 -23  -3    6.38    1.09
   0 -23  -4  118.10    7.54
   0  23  -4  132.67    8.44
   0  23   4  134.02    8.45
   0 -23   4  133.32    8.48
   0 -24   0  315.56   13.35
   0  24   0  315.04   12.95
   0 -24   0  315.56   12.99
   0 -24   1   39.30    5.39
   0 -24  -1   45.34    2.63
   0  24  -1   52.33    3.17
   0  24   1   40.85    2.69
   0 -24   1   53.93    3.74
   0 -24  -1   46.31    2.83
   0 -24  -2   71.29    3.67
   0  24  -2   70.15    3.84
   0  24   2   73.59    4.06
   0 -24   2   77.83    4.47
   0 -24  -2   64.86    3.30
   0 -24  -3   18.65    2.02
   0  24  -3    9.77    1.61
   0  24   3   16.91    2.02
   0 -24   3   15.42    2.13
   0 -24  -3   17.82    1.61
   0 -24  -4   15.76    2.28
   0  24  -4   10.79    2.35
   0  24   4    6.57    2.31
   0 -24   4    6.97    1.81
   0 -25   0    3.90    1.83
   0  25   0    4.23    1.90
   0 -25   0    7.90    1.95
   0 -25   1   13.38    2.23
   0 -25  -1   16.66    1.59
   0  25  -1   14.70    2.19
   0  25   1   15.76    1.82
   0 -25   1   10.69    1.97
   0 -25  -1   15.16    2.14
   0 -25  -2   59.50    2.98
   0  25  -2   53.27    3.04
   0  25   2   52.49    3.19
   0 -25   2   48.08    2.81
   0 -25  -2   48.19    2.59
   0 -25  -3   35.17    4.58
   0  25  -3   34.58    4.83
   0  25   3   36.71    3.13
   0 -25   3   35.08    4.77
   0 -25  -3   26.59    3.25
   0 -25  -4  125.62    6.47
   0  25  -4  135.01    7.12
   0  25   4  126.07    6.40
   0 -25   4  124.17    6.70
   0  26   0   88.73    4.58
   0 -26   0   85.32    4.44
   0 -26   1  138.37    4.68
   0 -26  -1  152.15    5.27
   0  26  -1  143.01    5.19
   0  26   1  139.05    5.23
   0 -26   1  138.45    5.27
   0 -26  -1  154.33    5.65
   0 -26  -2   70.23    4.85
   0  26  -2   68.45    5.01
   0  26   2   62.85    4.58
   0 -26   2   65.85    4.83
   0 -26  -2   63.83    4.36
   0 -26  -3   42.44    3.18
   0  26  -3   30.81    2.54
   0  26   3   32.09    2.58
   0 -26   3   36.12    3.31
   0 -27   0    0.37    0.78
   0  27   0    2.33    1.32
   0 -27   0    2.18    1.45
   0 -27  -1   22.45    2.80
   0  27  -1   23.64    3.06
   0  27   1   25.88    3.52
   0 -27   1   21.80    2.94
   0 -27  -1   20.29    2.87
   0 -27  -2   28.72    3.96
   0  27  -2   22.04    3.40
   0  27   2   29.28    4.26
   0 -27   2   31.51    4.45
   0 -27  -2   27.30    3.90
   0 -27  -3   13.24    1.77
   0  27  -3    7.97    1.68
   0  27   3    7.27    1.63
   0 -27   3   13.07    2.46
   0 -28   0   23.74    4.81
   0  28   0   43.28    3.52
   0 -28   0   40.48    3.41
   0 -28  -1   80.78    4.77
   0  28  -1   89.82    5.48
   0  28   1   96.33    5.87
   0 -28   1   95.65    5.80
   0 -28  -1   92.83    5.71
   0 -28  -2   25.75    2.05
   0  28  -2   28.64    2.55
   0  28   2   28.78    2.66
   0 -28   2   27.58    2.45
   0 -28  -2   24.54    2.24
   0 -29   0    2.19    0.56
   0  29   0    0.79    1.19
   0 -29   0    1.19    1.16
   0 -29  -1   31.35    5.94
   0  29   1   37.32    3.01
   0 -29   1   35.96    3.10
   0 -29  -1   31.46    2.44
  -1   0  -7   49.29    3.30
  -1   0  -7   42.96    5.10
  -1   0  -6   48.06    3.37
  -1   0  -6   48.82    7.31
   1   0   6   39.75    5.08
  -1   0  -5   39.86    2.29
  -1   0  -5   42.06    4.16
   1   0   5   41.36    2.00
  -1   0  -4  112.83    3.64
  -1   0  -4  114.23    3.65
   1   0   4  113.77    3.37
  -1   0  -3   78.21    2.71
  -1   0  -3   78.80    2.34
   1   0   3   73.31    2.01
  -1   0  -2  115.66    2.22
   1   0   2  114.96    2.05
  -1   0  -2  118.86    1.97
   1   0   2  115.24    1.93
   1   0   2  116.80    1.96
  -1   0  -2  113.01    1.89
   1   0   1 2738.69   24.02
   1   0   1 2690.27   23.42
   1   0   1 2766.85   24.24
  -1   0   0 3392.69   29.28
  -1   0   0 3384.31   29.21
   1   0  -2 1579.81   13.96
  -1   0   2 1519.88   13.43
  -1   0   2 1564.50   14.02
  -1   0   2 1622.87   14.12
   1   0  -3  193.11    4.96
  -1   0   3  234.10    2.84
  -1   0   3  227.70    2.47
   1   0  -3  224.13    2.48
   1   0  -4 1232.21   23.23
  -1   0   4 1182.35   22.13
   1   0  -4 1321.46   25.04
  -1   0   4 1297.35   24.01
   1   0  -4 1268.41   23.47
   1   0  -5  275.70    7.12
   1   0  -5  291.69    8.00
  -1   0   5  288.23    7.14
   1   0  -5  272.45    6.79
   1   0  -6  229.39    6.37
   1   0  -6  246.50   10.38
  -1   0   6  252.92    6.46
   1   0  -7    6.79    1.08
   1   0  -7   10.43    1.74
   1   0  -8   73.96    8.03
  -1   1  -7    6.19    1.35
  -1  -1  -7    3.52    1.44
  -1  -1  -7    2.51    0.90
  -1  -1  -6   18.29    1.87
  -1   1  -6   18.82    1.90
  -1  -1  -6   20.35    2.95
  -1   1  -6   21.03    2.63
   1   1   6   16.68    2.56
   1  -1   6   18.90    1.73
  -1   1  -5  423.55   11.12
  -1  -1  -5  433.64   11.39
  -1  -1  -5  416.94   12.44
  -1   1  -5  437.50   11.63
   1   1   5  431.83   11.05
   1  -1   5  419.75   10.79
  -1  -1  -4   18.43    1.76
  -1   1  -4   17.92    1.97
  -1  -1  -4   16.93    2.32
  -1   1  -4   19.66    1.51
   1   1   4   18.20    1.14
   1  -1   4   16.02    1.08
  -1  -1  -3   62.45    2.38
  -1   1  -3   65.73    2.45
  -1  -1  -3   64.19    3.00
  -1   1  -3   68.76    2.24
   1   1   3   70.50    1.99
   1  -1   3   60.15    1.83
  -1   1  -2  174.33    2.83
   1  -1   2  180.09    2.55
  -1  -1  -2  192.73    2.67
  -1   1  -2  168.61    2.40
   1   1   2  170.26    2.35
   1   1   2  189.34    2.59
   1  -1   2  182.25    2.64
  -1  -1  -2  185.92    2.44
  -1   1  -2  167.03    2.33
  -1  -1  -1  208.06    3.10
  -1   1  -1  208.66    3.07
   1   1   1  205.84    2.74
   1  -1   1  180.56    2.56
  -1  -1  -1  195.79    2.33
   1   1   1  192.99    2.21
   1  -1   1  186.05    2.40
   1   1   1  197.93    2.55
   1  -1   1  184.89    2.49
  -1   1  -1  192.73    2.46
  -1  -1   0  231.39    2.57
   1   1   0  240.73    2.61
  -1   1   0  235.14    2.59
   1  -1   0  212.08    2.37
  -1   1   0  233.51    2.55
  -1  -1   1 4372.56   37.51
   1  -1  -2 3018.72   26.28
  -1  -1   2 2975.76   25.67
  -1   1   2 2895.16   25.24
   1  -1  -2 3168.11   27.70
  -1   1   2 2915.14   25.57
  -1  -1   2 3027.43   26.46
   1   1  -2 3066.98   26.43
   1   1  -3 1923.05   17.08
   1  -1  -3 1925.71   17.23
  -1   1   3 1900.33   17.00
  -1  -1   3 1934.84   17.12
   1   1  -3 1978.79   17.99
  -1   1   3 1961.18   16.97
  -1  -1   3 1946.56   17.10
   1   1  -3 1970.81   17.28
   1  -1  -4  610.17   11.99
   1   1  -4  578.81   11.22
  -1  -1   4  548.58   10.51
   1  -1  -4  626.94   12.35
   1   1  -4  610.57   12.34
  -1   1   4  602.65   11.28
  -1  -1   4  614.32   11.63
   1  -1  -4  578.84   10.84
   1   1  -4  581.49   10.98
   1   1  -5   25.32    1.08
   1  -1  -5   38.29    2.10
   1  -1  -5   45.53    3.86
   1   1  -5   40.90    4.78
  -1   1   5   38.93    1.30
  -1  -1   5   36.37    1.33
   1   1  -5   32.59    1.25
   1  -1  -5   26.75    0.97
   1  -1  -6  329.48    8.63
   1   1  -6  323.95    8.42
   1  -1  -6  356.07   10.02
   1   1  -6  349.73    9.77
  -1   1   6  346.89    8.64
  -1  -1   6  340.18    8.59
   1  -1  -7   80.56    3.58
   1   1  -7   81.75    3.59
   1  -1  -7   84.95    9.42
   1   1  -7   87.00    6.75
   1  -1  -8  159.34    8.92
   1   1  -8  126.26   13.92
  -1   2  -7   32.35    2.46
  -1  -2  -7   36.89    2.80
  -1  -2  -7   26.08    5.94
  -1   2  -7   27.84    5.14
  -1  -2  -6   70.88    3.52
  -1   2  -6   66.25    3.32
  -1  -2  -6   73.43    6.27
  -1   2  -6   66.93    8.48
   1   2   6   56.54    5.64
   1  -2   6   68.67    3.11
  -1  -2  -5   70.60    2.99
  -1   2  -5   62.98    2.57
  -1  -2  -5   64.19    5.42
  -1   2  -5   73.44    8.02
   1   2   5   62.92    2.57
   1  -2   5   61.52    2.38
  -1  -2  -4   24.75    1.66
  -1   2  -4   26.88    1.87
  -1  -2  -4   35.40    3.96
  -1   2  -4   25.42    1.55
   1   2   4   29.49    3.01
   1  -2   4   23.94    1.35
  -1  -2  -3  370.88    7.71
  -1   2  -3  367.40    7.59
  -1  -2  -3  376.42    8.11
  -1   2  -3  370.82    7.61
   1   2   3  382.22    8.17
   1  -2   3  359.52    7.33
   1  -2   2 2123.22   19.02
  -1  -2  -2 2284.98   20.39
   1   2   2 2150.11   19.14
   1  -2   2 2089.21   18.81
   1   2   2 2292.19   20.89
   1  -2   2 2296.64   20.64
  -1  -2  -2 2170.42   19.33
  -1   2  -2 2087.98   18.72
   1   2   1 5285.01   84.36
   1  -2   1 5239.08   45.18
   1  -2   1 5194.82   44.83
  -1  -2   0  720.99    6.74
  -1   2   0  694.10    6.43
   1   2   0  685.98    6.41
  -1   2   0  678.08    6.31
  -1   2   1 1226.21   10.91
  -1   2   1 1302.93   11.54
  -1  -2   1 1294.24   11.43
   1  -2  -1 1294.17   11.28
   1   2  -2  577.53    5.22
   1  -2  -2  515.46    6.42
  -1  -2   2  550.63    5.01
  -1   2   2  545.45    5.43
   1   2  -2  581.23    5.77
  -1  -2   2  541.97    5.40
   1   2  -2  575.12    5.44
   1  -2  -3  202.92    3.00
  -1   2   3  194.92    2.58
  -1   2   3  198.77    1.90
   1  -2  -4  313.25    6.55
   1   2  -4  279.74    6.06
  -1  -2   4  299.76    5.97
   1  -2  -4  324.95    6.80
   1   2  -4  302.17    6.52
  -1   2   4  298.97    5.67
  -1  -2   4  313.39    6.20
   1  -2  -4  292.04    5.55
   1   2  -4  292.37    5.81
   1  -2  -5  256.95    6.79
   1   2  -5  258.56    6.60
   1  -2  -5  278.79    7.59
   1   2  -5  270.54    7.38
  -1   2   5  268.11    6.55
  -1  -2   5  264.51    6.68
   1  -2  -5  257.17    6.32
   1   2  -5  246.03    6.27
   1   2  -6  243.22    6.48
   1  -2  -6  239.56    6.55
   1  -2  -6  282.26    8.21
   1   2  -6  263.19    7.57
  -1  -2   6  246.77    6.42
   1   2  -7    7.87    1.01
   1  -2  -7    6.11    0.91
   1  -2  -7    7.22    1.42
   1   2  -7   12.14    2.28
   1   2  -8    2.81    1.56
  -1  -3  -7    2.22    1.27
  -1   3  -7    4.35    0.72
  -1  -3  -6   43.87    3.26
  -1   3  -6   44.15    3.03
  -1  -3  -6   51.21    5.69
  -1   3  -6   49.18    5.30
   1   3   6   41.79    5.41
  -1  -3  -5  112.59    4.79
  -1   3  -5  109.40    4.51
  -1  -3  -5  126.25   10.15
  -1   3  -5  123.41    5.11
   1   3   5  113.11    4.47
   1  -3   5  120.35    4.84
  -1  -3  -4  242.36    6.75
  -1   3  -4  245.95    6.68
  -1  -3  -4  228.43    6.46
  -1   3  -4  257.49    7.02
   1   3   4  245.83    6.46
   1  -3   4  247.11    6.61
  -1  -3  -3  233.93    5.34
  -1   3  -3  240.12    5.31
  -1  -3  -3  234.61    5.03
  -1   3  -3  241.05    5.30
   1   3   3  241.95    5.41
   1  -3   3  221.68    4.82
  -1  -3  -2  755.63   12.82
  -1   3  -2  783.08   13.14
  -1  -3  -2  737.05   12.37
   1   3   2  724.13   12.00
  -1  -3  -2  726.53   12.06
  -1  -3  -1 3044.67   26.83
   1   3   1 3070.23   26.95
  -1  -3  -1 3269.10   28.30
   1   3   1 3289.77   28.39
  -1   3  -1 3304.62   28.90
  -1  -3  -1 3259.13   28.41
   1  -3   1 3288.89   28.82
  -1   3   0 9999.00  159.10
   1  -3  -1 1328.87   11.93
  -1   3   1 1283.98   11.49
  -1  -3   1 1286.01   11.18
   1   3  -1 1283.70   11.15
   1   3  -1 1267.56   11.14
   1  -3  -1 1257.76   11.02
   1   3  -2 1065.66    9.24
  -1  -3   2 1057.29    9.19
  -1   3   2 1045.97    9.72
  -1  -3   2 1020.63    9.45
  -1  -3   2 1093.28   10.03
   1   3  -2 1054.34    9.59
   1   3  -3  814.30   13.92
   1  -3  -3  853.02   14.17
  -1   3   3  799.99   13.26
  -1  -3   3  842.18   13.67
   1  -3  -3  913.74   15.34
  -1  -3   3  854.54   14.05
   1   3  -3  847.17   13.88
   1  -3  -4  482.41    9.58
   1   3  -4  474.28    9.20
  -1  -3   4  492.76    9.43
   1  -3  -4  531.81   11.06
   1   3  -4  510.84   10.44
  -1   3   4  496.49    9.23
  -1  -3   4  505.90    9.78
   1   3  -4  490.42    9.45
   1  -3  -4  512.48    9.50
   1  -3  -5  132.70    4.13
   1  -3  -5  147.38    4.62
   1   3  -5  122.98    3.99
  -1   3   5  122.79    3.17
  -1  -3   5  126.56    3.59
   1  -3  -5  115.32    2.93
   1  -3  -6  160.49    6.33
   1   3  -6  158.50    5.86
   1  -3  -6  173.18    6.81
   1   3  -6  173.62    8.60
  -1  -3   6  167.22    6.15
   1  -3  -7   94.15    4.08
   1  -3  -7   92.32   11.24
   1   3  -7   93.13    8.27
   1  -3  -8   40.49    6.53
   1   3  -8   32.58    5.25
  -1  -4  -7   75.80    4.19
  -1  -4  -7   80.48    8.25
  -1   4  -7   67.30    9.38
  -1  -4  -6   94.13    4.59
  -1   4  -6   97.18    4.34
  -1  -4  -6   91.06    5.84
  -1   4  -6   92.21    6.96
   1  -4   6   96.37    4.16
  -1  -4  -5  193.56    7.48
  -1   4  -5  203.05    7.62
  -1  -4  -5  202.92    7.69
  -1   4  -5  200.34    7.80
   1   4   5  198.36    7.28
   1  -4   5  193.37    7.28
  -1  -4  -4   27.89    2.03
  -1   4  -4   25.37    1.84
  -1  -4  -4   32.75    2.50
  -1   4  -4   21.84    1.88
   1   4   4   24.45    1.92
   1  -4   4   25.99    1.53
  -1  -4  -3  318.66    6.85
  -1   4  -3  317.06    6.64
  -1  -4  -3  302.19    6.36
  -1   4  -3  312.23    6.63
   1   4   3  301.49    6.59
   1  -4   3  307.04    6.41
  -1   4  -2  592.22   10.13
   1  -4   2  557.07    9.41
  -1  -4  -2  573.19    9.63
   1   4   2  553.62    9.29
  -1  -4  -2  540.30    9.11
  -1   4  -1   81.52    1.40
  -1  -4  -1   83.41    1.98
  -1   4  -1   74.43    1.67
  -1  -4  -1   91.94    1.76
   1   4   1   86.69    1.48
  -1   4  -1   83.92    1.80
  -1  -4  -1   79.05    1.64
   1  -4   1   82.53    1.70
  -1   4  -1   84.56    1.64
  -1   4   0 5074.50   43.72
  -1   4   1  447.69    4.49
  -1  -4   1  461.63    4.26
   1   4  -1  456.63    4.19
   1   4  -1  431.85    4.13
  -1  -4   1  448.73    4.29
  -1   4   1  451.26    4.68
   1  -4  -1  472.30    4.46
  -1   4   1  442.32    4.19
  -1  -4   1  483.54    4.94
   1  -4  -2   37.70    0.92
  -1   4   2   50.06    1.29
   1  -4  -3  901.21   15.02
   1   4  -3  861.25   13.93
  -1  -4   3  887.14   14.33
   1  -4  -3  907.63   15.13
   1   4  -3  921.25   15.36
  -1  -4   3  886.49   14.63
   1   4  -3  846.15   13.90
   1  -4  -4  540.88   10.71
   1   4  -4  510.25    9.69
  -1  -4   4  531.75   10.10
   1  -4  -4  549.68   11.64
   1   4  -4  538.43   10.76
  -1  -4   4  535.58   10.38
   1   4  -4  490.62    9.49
   1  -4  -4  562.11   10.34
   1  -4  -5  750.61   18.47
   1   4  -5  753.65   18.16
   1  -4  -5  795.03   19.71
   1   4  -5  776.93   19.43
  -1   4   5  706.99   16.76
  -1  -4   5  742.56   18.04
   1  -4  -5  758.68   18.00
   1  -4  -6  185.36    7.11
   1   4  -6  184.61    6.72
   1  -4  -6  186.01    7.20
   1   4  -6  206.17    8.09
  -1  -4   6  173.24    6.39
   1  -4  -7   37.80    2.74
   1  -4  -7   42.45    5.20
   1   4  -7   44.56    5.23
   1  -4  -8   29.48    2.13
   1  -4  -8   27.85    3.78
   1   4  -8   33.06    4.75
  -1  -5  -7   38.92    3.11
  -1  -5  -7   25.92    4.72
  -1   5  -7   35.97    5.64
  -1  -5  -6   97.64    4.77
  -1   5  -6  109.86    5.19
  -1  -5  -6  115.28    5.33
  -1   5  -6  102.29   10.69
   1  -5   6   91.80    4.34
  -1  -5  -5   13.89    1.93
  -1   5  -5    9.86    1.17
  -1  -5  -5   13.35    1.48
  -1   5  -5   12.62    1.26
   1   5   5   10.84    1.69
   1  -5   5   17.01    1.51
  -1  -5  -4   52.03    2.37
  -1   5  -4   52.07    2.53
  -1  -5  -4   55.61    3.74
  -1   5  -4   59.70    2.79
   1   5   4   47.86    1.98
   1  -5   4   47.80    2.12
  -1  -5  -3   58.36    2.44
  -1   5  -3   53.18    2.06
  -1  -5  -3   74.42    4.93
  -1   5  -3   50.89    1.82
   1   5   3   54.22    1.71
   1  -5   3   65.63    2.17
  -1  -5  -2 1378.84   22.76
  -1   5  -2 1450.73   23.69
  -1  -5  -2 1469.29   23.97
   1   5   2 1375.29   22.32
  -1   5  -2 1361.54   22.38
  -1  -5  -2 1386.99   22.55
  -1   5  -1 2434.22   21.63
  -1  -5  -1 2523.76   22.54
   1   5   1 2408.92   21.45
  -1   5  -1 2495.66   22.05
  -1  -5  -1 2536.04   22.05
   1   5   1 2418.88   21.05
  -1   5  -1 2502.97   22.31
  -1  -5  -1 2475.07   21.92
   1  -5   1 2561.18   22.80
   1  -5   0 3993.23   34.68
  -1   5   0 3848.23   33.46
  -1  -5   0 3949.94   34.23
   1   5   0 3913.84   33.88
  -1   5   0 3860.30   33.67
  -1   5   0 3884.20   33.70
  -1  -5   1 1363.71   11.92
   1   5  -1 1373.40   11.99
   1   5  -1 1327.43   11.79
  -1  -5   1 1339.40   11.91
  -1   5   1 1346.63   12.31
   1  -5  -1 1379.31   12.22
  -1   5   1 1328.82   11.78
  -1  -5   1 1407.88   12.84
   1  -5  -2   29.13    0.93
  -1   5   2   24.92    0.91
   1   5  -2   25.33    1.10
  -1  -5   2   27.56    1.08
  -1   5   2   26.37    0.56
   1  -5  -3  195.94    4.06
   1   5  -3  183.58    3.12
  -1  -5   3  188.53    3.20
   1  -5  -3  186.77    4.79
   1   5  -3  186.54    3.61
   1  -5  -4   97.54    4.69
  -1  -5   4   87.88    2.23
   1  -5  -5  195.14    6.05
  -1  -5   5  162.44    4.29
   1   5  -5  200.53    5.85
  -1  -5   5  195.06    5.39
   1   5  -6   21.17    1.14
   1  -5  -6   26.03    1.95
   1  -5  -6   41.70    4.43
   1   5  -6   35.57    5.47
  -1  -5   6   36.57    1.99
   1  -5  -7   48.83    2.92
   1  -5  -7   46.98    6.70
   1   5  -7   48.42    6.89
   1  -5  -8    2.98    1.39
   1  -5  -8    2.12    0.89
   1   5  -8    1.89    1.49
  -1  -6  -7   76.81    4.38
  -1  -6  -7   83.32    7.05
  -1   6  -7   75.30    7.54
  -1  -6  -6  207.37    9.09
  -1   6  -6  207.96    8.98
  -1  -6  -6  175.59   10.48
  -1   6  -6  202.44    8.93
   1  -6   6  193.13    8.31
  -1  -6  -5   84.72    3.85
  -1   6  -5   94.69    4.14
  -1  -6  -5   94.01    7.20
  -1   6  -5   84.70    3.95
   1   6   5   86.46    3.56
   1  -6   5   89.78    3.82
  -1  -6  -4   59.32    2.93
  -1   6  -4   52.17    2.16
  -1  -6  -4   63.76    5.26
  -1   6  -4   54.68    2.39
   1   6   4   60.75    5.41
   1  -6   4   54.62    2.23
  -1  -6  -3   16.55    1.58
  -1   6  -3   15.42    1.31
  -1  -6  -3   20.20    1.84
  -1   6  -3   16.11    1.36
   1   6   3   18.54    2.09
   1  -6   3   18.05    1.30
  -1   6  -2  789.55   13.05
  -1   6  -2  839.58   14.00
  -1  -6  -2  815.12   13.52
   1   6   2  792.05   13.10
  -1  -6  -2  763.78   13.01
   1  -6   2  743.31   12.62
  -1   6  -1  355.78    4.07
  -1  -6  -1  387.26    4.58
  -1   6  -1  362.57    4.09
   1   6   1  362.44    3.73
  -1   6  -1  370.74    4.48
   1   6   1  374.33    4.11
  -1  -6  -1  344.29    3.76
   1  -6   1  368.87    4.35
   1  -6   0 1002.39    9.53
   1   6   0  965.48    8.98
   1   6   0 1000.34    8.96
  -1  -6   0  950.04    8.47
   1  -6   0  988.64    9.35
  -1   6   0  958.38    9.00
   1  -6  -1   68.24    1.47
  -1  -6   1   66.04    1.08
   1   6  -1   67.26    1.14
   1   6  -1   67.54    1.24
  -1  -6   1   65.11    1.20
  -1   6   1   62.43    1.63
   1  -6  -1   65.74    1.32
  -1   6   1   64.56    1.17
  -1  -6   1   71.96    1.72
  -1   6   2  367.19    4.05
  -1   6   2  377.97    4.27
   1   6  -2  384.20    4.24
  -1  -6   2  407.38    4.39
   1  -6  -2  416.08    3.90
  -1   6   2  396.14    3.73
   1   6  -2  379.61    4.22
   1   6  -3  334.71    5.42
   1  -6  -3  338.87    6.18
   1  -6  -3  350.75    6.37
  -1  -6   3  347.17    6.33
   1  -6  -4  839.11   14.46
   1   6  -4  812.77   13.36
  -1  -6   4  848.71   13.95
   1  -6  -4  851.73   14.72
  -1  -6   4  834.04   14.24
   1  -6  -5 2033.90   47.60
   1   6  -5 2075.56   55.90
  -1  -6   5 1961.65   45.32
   1  -6  -5 2163.43   58.81
   1   6  -5 2169.11   58.96
  -1  -6   5 2160.96   58.44
   1   6  -6  488.03   17.04
   1  -6  -6  451.23   16.17
   1  -6  -6  488.15   17.78
   1   6  -6  489.75   17.77
  -1  -6   6  477.65   16.91
   1  -6  -7  190.72    8.42
   1   6  -7  196.75    8.91
   1  -6  -8   17.63    1.54
   1  -6  -8   18.44    4.90
   1   6  -8   16.55    4.13
  -1  -7  -6   49.65    2.96
  -1   7  -6   54.32    3.05
  -1  -7  -6   51.79    6.32
  -1   7  -6   50.20    3.22
   1  -7   6   56.97    3.14
  -1  -7  -5   60.32    3.12
  -1   7  -5   69.34    3.32
  -1  -7  -5   63.35    6.62
  -1   7  -5   65.19    3.16
   1   7   5   58.09    4.36
   1  -7   5   58.55    2.84
  -1  -7  -4   67.06    2.90
  -1   7  -4   67.92    2.66
  -1  -7  -4   77.46    5.87
  -1   7  -4   67.95    3.08
   1   7   4   74.36    4.75
   1  -7   4   58.85    2.45
  -1   7  -3    9.86    1.27
  -1  -7  -3    5.92    0.85
  -1   7  -3    7.14    1.10
   1   7   3    6.31    0.85
   1  -7   3    7.86    0.90
  -1   7  -2  470.55    8.00
  -1   7  -2  484.73    8.37
  -1  -7  -2  457.70    8.02
   1   7   2  470.29    8.01
  -1   7  -2  466.44    8.40
   1   7   2  488.04    9.02
  -1  -7  -2  429.37    7.42
  -1   7  -1 3697.58   32.29
  -1  -7  -1 3922.61   34.55
   1   7   1 3890.48   33.67
  -1   7  -1 3971.90   35.06
  -1  -7  -1 3722.44   32.58
   1  -7   1 3737.30   32.97
   1  -7   0 1388.68   12.80
  -1   7   0 1346.08   12.22
   1   7   0 1366.40   12.41
  -1   7   0 1377.90   12.83
   1   7   0 1423.73   12.66
  -1  -7   0 1367.44   12.48
  -1   7   0 1335.99   12.24
   1  -7  -1   21.52    1.02
  -1  -7   1   22.37    0.75
   1   7  -1   17.02    0.66
   1   7  -1   21.63    0.98
  -1  -7   1   21.02    0.95
   1  -7  -1   22.89    1.27
   1  -7  -1   22.86    0.95
  -1   7   1   20.35    0.99
  -1  -7   1   24.62    1.67
   1  -7  -2  233.17    3.30
   1   7  -2  217.72    2.91
  -1  -7   2  226.92    2.95
   1  -7  -2  230.17    2.46
  -1  -7   2  235.33    3.57
  -1   7   2  211.78    2.25
   1   7  -2  224.76    2.97
   1  -7  -3   90.21    2.36
   1   7  -3   92.94    2.47
   1  -7  -3   89.54    1.66
   1  -7  -3   91.26    1.64
  -1  -7   3   88.44    2.45
   1  -7  -4  143.56    3.40
  -1  -7   4  149.99    2.72
   1  -7  -4  154.01    4.02
   1   7  -4  149.82    3.60
  -1  -7   4  144.13    3.49
   1  -7  -5  390.39   10.11
   1   7  -5  315.66    7.56
   1  -7  -5  413.83   11.12
  -1  -7   5  379.72    9.58
   1  -7  -6   99.15    4.56
   1  -7  -6  102.19    6.44
   1   7  -6  115.24    8.73
  -1  -7   6   89.64    3.62
   1  -7  -7  169.42    7.53
   1  -7  -7  161.34   11.49
   1   7  -7  145.25   13.60
  -1  -8  -6  257.97    8.12
  -1  -8  -6  275.64    8.41
  -1   8  -6  259.49    8.39
   1  -8   6  237.69    7.35
  -1  -8  -5   72.24    3.38
  -1   8  -5   73.43    3.25
  -1  -8  -5   81.49    5.53
  -1   8  -5   76.91    3.73
   1   8   5   73.71    5.89
   1  -8   5   77.10    3.42
  -1  -8  -4  136.46    4.39
  -1   8  -4  135.15    4.17
  -1  -8  -4  130.40    4.37
  -1   8  -4  141.92    4.54
   1   8   4  133.37    4.33
   1  -8   4  131.41    4.15
  -1   8  -3  204.47    4.29
  -1  -8  -3  199.56    4.46
  -1   8  -3  200.53    4.47
   1   8   3  200.14    5.17
   1  -8   3  203.22    4.49
  -1   8  -2  330.58    6.52
  -1  -8  -2  350.13    7.44
  -1   8  -2  339.18    6.82
   1   8   2  315.69    6.22
  -1   8  -2  345.04    7.27
   1   8   2  332.50    6.65
   1  -8   2  345.14    7.16
   1  -8   1  192.17    3.67
  -1   8  -1  180.39    3.38
  -1  -8  -1  197.21    4.04
   1   8   1  193.35    3.48
  -1   8  -1  208.51    4.64
   1   8   1  199.16    3.66
  -1  -8  -1  192.52    3.70
   1  -8   1  195.06    4.00
  -1   8   0  463.50    4.79
  -1  -8   0  469.72    4.95
   1   8   0  450.31    4.72
  -1  -8   0  448.87    4.50
  -1  -8   2  134.92    1.37
   1   8  -2  141.09    1.36
   1   8  -2  132.73    2.26
  -1  -8   2  134.26    2.23
   1  -8  -2  137.50    1.87
  -1  -8   2  140.10    3.24
   1  -8  -3  331.57    6.89
   1   8  -3  317.16    6.59
   1  -8  -3  311.59    5.87
   1  -8  -3  325.16    6.15
  -1  -8   3  284.45    6.09
   1   8  -4 1020.43   16.60
   1  -8  -4 1000.74   17.14
   1   8  -4  986.03   16.03
   1  -8  -4 1074.96   18.36
   1   8  -4 1028.60   17.70
   1  -8  -4 1008.84   16.27
  -1  -8   4 1033.14   17.66
   1  -8  -5  904.40   21.69
   1   8  -5  894.41   20.79
   1  -8  -5  956.31   23.15
  -1  -8   5  943.70   22.47
   1  -8  -6  132.73    5.39
   1  -8  -6  143.19   10.14
   1   8  -6  139.22    5.58
  -1  -8   6  144.09    5.54
   1  -8  -7   16.83    1.62
   1  -8  -7   13.64    3.06
   1   8  -7   19.08    3.24
  -1  -8   7   14.17    1.29
  -1  -9  -6    6.94    1.52
  -1  -9  -6    5.58    1.72
  -1   9  -6    3.10    1.34
   1  -9   6    7.27    1.67
  -1  -9  -5   60.17    3.37
  -1   9  -5   56.39    2.54
  -1  -9  -5   64.73    4.51
  -1   9  -5   54.11    2.77
   1   9   5   55.38    2.42
   1  -9   5   57.25    2.84
  -1  -9  -4  141.61    4.99
  -1   9  -4  146.72    4.62
  -1  -9  -4  138.21    4.72
  -1   9  -4  141.45    4.88
   1   9   4  133.79    4.17
   1  -9   4  147.86    5.00
  -1  -9  -3  214.44    5.15
  -1   9  -3  205.64    4.66
  -1  -9  -3  223.20    4.82
  -1   9  -3  191.02    4.59
   1   9   3  195.42    4.24
   1  -9   3  207.86    4.83
  -1  -9  -2  304.32    6.63
  -1   9  -2  283.61    5.83
   1   9   2  264.13    9.25
  -1   9  -2  300.33    6.50
   1  -9   2  298.93    6.46
  -1   9  -1 4819.46   77.05
  -1  -9  -1 5137.03   94.50
   1   9   1 4980.08   79.61
  -1   9  -1 5001.83   92.12
   1   9   1 5122.92   93.97
   1  -9   0  550.44    5.77
  -1   9   0  497.16    5.13
  -1  -9   0  526.70    5.51
   1   9   0  543.34    5.63
   1   9   0  557.94    5.58
  -1  -9   0  503.90    4.99
   1  -9  -1  554.96    5.81
  -1  -9   1  561.80    5.40
   1   9  -1  586.83    5.62
  -1  -9   1  537.81    5.47
   1  -9  -1  575.57    5.88
  -1   9   1  566.95    5.72
  -1  -9   2 1407.71   22.49
   1   9  -2 1398.93   22.35
   1   9  -2 1392.57   22.81
   1  -9  -2 1426.45   23.07
  -1  -9   2 1444.29   23.87
  -1   9   2 1382.48   22.31
   1   9  -3  130.10    3.32
   1  -9  -3  126.97    2.57
   1  -9  -3  125.65    2.62
  -1  -9   3  110.74    2.97
   1   9  -4    8.79    0.76
   1  -9  -4   11.73    1.72
   1   9  -4   10.22    0.32
   1   9  -4   13.80    1.57
   1  -9  -4   10.05    0.38
  -1  -9   4   10.32    1.40
   1  -9  -4    9.32    0.42
   1  -9  -5  123.05    4.25
   1   9  -5  120.80    3.45
   1  -9  -5  136.87    4.61
   1   9  -5  127.96    4.45
  -1  -9   5  137.52    4.66
   1  -9  -6   60.79    2.92
   1  -9  -6   74.99    3.41
  -1  -9   6   75.13    3.35
   1  -9  -7   82.10    3.31
   1  -9  -7   97.29    4.02
   1   9  -7   82.69    7.86
  -1  -9   7   84.49    3.24
  -1 -10  -6   71.48    3.14
  -1 -10  -6   76.14    3.15
  -1  10  -6   80.12    3.67
   1 -10   6   80.21    3.22
  -1 -10  -5   15.23    2.10
  -1  10  -5    9.56    1.17
  -1 -10  -5   16.33    1.36
  -1  10  -5   13.37    1.46
   1 -10   5   14.70    1.50
  -1 -10  -4    6.29    1.39
  -1  10  -4    3.75    1.35
  -1 -10  -4    6.34    1.20
  -1  10  -4    7.79    2.03
   1 -10   4    1.84    1.08
  -1 -10  -3  194.93    4.75
  -1  10  -3  196.65    4.42
  -1  10  -3  194.35    4.80
   1 -10   3  204.45    5.01
  -1 -10  -2  166.27    4.23
  -1  10  -2  165.88    3.79
  -1  10  -2  168.30    4.21
   1 -10   2  158.45    3.94
   1 -10   1  605.22   10.91
  -1  10  -1  571.09    9.62
   1  10   1  603.91   10.10
   1  10   1  635.30   10.67
   1 -10   1  609.64   10.69
   1 -10   0  120.21    2.68
  -1 -10   0  120.68    2.62
   1  10   0  122.87    2.69
   1  10   0  128.80    2.73
   1 -10   0  117.79    2.93
   1 -10  -1  397.57    7.05
  -1 -10   1  397.49    6.72
   1  10  -1  391.11    6.64
   1  10  -1  419.44    7.32
  -1 -10   1  367.21    6.46
   1 -10  -1  395.16    7.00
  -1  10   1  394.30    6.84
  -1 -10   2  593.74    9.63
   1 -10  -2  603.84   10.72
   1  10  -2  571.67    9.29
   1  10  -2  566.92    9.76
  -1  10   2  605.56   10.61
   1 -10  -2  576.65    9.68
  -1 -10   2  622.40   11.15
  -1  10   2  562.32    9.38
   1 -10  -3  569.94   11.39
   1  10  -3  522.19   10.39
   1 -10  -3  545.41   10.27
  -1 -10   3  549.52   10.98
   1 -10  -3  548.65   10.35
   1 -10  -4 1061.59   20.28
   1  10  -4 1052.37   20.16
   1 -10  -4  985.86   17.95
  -1 -10   4 1023.96   19.48
   1 -10  -4 1034.14   18.84
   1 -10  -5   72.03    3.02
   1  10  -5   61.71    1.79
   1  10  -5   75.17    3.24
  -1 -10   5   72.22    3.49
   1 -10  -6   87.93    3.74
   1 -10  -6   86.66    3.63
  -1 -10   6   81.77    3.34
   1 -10  -7    2.87    1.43
   1 -10  -7    3.65    0.98
   1  10  -7    7.25    1.51
  -1 -10   7    3.25    0.91
  -1 -11  -6   48.70    3.55
  -1 -11  -6   50.80    3.58
  -1  11  -6   47.05    3.63
   1 -11   6   46.92    3.45
  -1 -11  -5   76.52    3.55
  -1 -11  -5   78.04    3.00
  -1  11  -5   75.84    3.43
   1 -11   5   80.67    3.30
  -1  11  -4  143.35    4.23
  -1  11  -4  138.43    4.53
   1 -11   4  153.62    4.94
  -1 -11  -3  104.56    3.58
  -1  11  -3  110.84    3.29
  -1  11  -3  125.81    4.26
   1 -11   3  133.95    4.29
  -1 -11  -2  442.27    8.26
  -1  11  -2  436.19    7.85
  -1  11  -2  452.29    8.51
   1  11   2  417.17    7.55
   1 -11   2  452.63    8.49
   1 -11   1 1266.44   23.73
  -1 -11  -1 1217.97   23.03
   1  11   1 1224.23   22.78
  -1  11  -1 1290.98   24.84
   1  11   1 1255.13   23.45
   1 -11   1 1247.24   23.68
  -1 -11  -1 1254.78   23.64
   1 -11   0  711.43   12.52
  -1 -11   0  663.63   11.21
  -1  11   0  706.86   12.51
   1  11   0  694.17   11.66
  -1 -11   0  629.67   10.49
   1 -11   0  687.30   11.79
   1 -11  -1  252.71    4.86
  -1 -11   1  274.70    4.85
   1  11  -1  260.27    4.69
   1  11  -1  280.54    5.37
  -1 -11   1  255.63    4.73
   1 -11  -1  270.37    5.14
  -1  11   1  239.42    4.46
  -1 -11   1  287.36    5.64
  -1 -11   2  204.50    4.17
   1 -11  -2  207.84    5.33
   1  11  -2  189.85    3.74
   1  11  -2  202.12    4.62
  -1  11   2  207.86    4.77
   1 -11  -2  184.13    3.95
  -1 -11   2  201.16    5.11
  -1  11   2  183.13    3.86
   1 -11  -3  425.36    8.03
   1  11  -3  405.62    7.56
   1 -11  -3  402.80    6.85
  -1 -11   3  389.90    7.39
   1 -11  -3  404.80    6.96
   1 -11  -4  436.35   11.44
   1  11  -4  424.30   11.06
   1 -11  -4  404.14    9.71
  -1 -11   4  413.48   10.81
   1 -11  -4  419.02   10.09
   1 -11  -5  208.21    6.09
   1  11  -5  206.92    6.12
  -1 -11   5  213.50    6.27
   1 -11  -6  248.33    7.82
   1  11  -6  253.82    8.11
  -1 -11   6  242.55    7.46
   1 -11  -7   53.46    3.87
  -1 -11   7   43.47    3.16
  -1 -12  -6   83.82    5.91
  -1  12  -6  102.00    7.06
   1 -12   6   89.10    6.06
  -1 -12  -5   56.25    3.15
  -1  12  -5   53.45    2.69
  -1  12  -5   52.31    3.24
   1 -12   5   59.55    3.24
  -1 -12  -4   31.53    1.97
  -1  12  -4   22.24    1.64
  -1  12  -4   22.40    2.11
   1 -12   4   31.30    2.16
  -1 -12  -3   89.28    3.51
  -1  12  -3   82.59    2.73
  -1  12  -3   86.90    3.45
   1 -12   3   89.84    3.54
  -1 -12  -2  268.35    5.53
  -1  12  -2  274.12    5.35
  -1  12  -2  253.80    5.58
   1  12   2  269.26    5.23
   1 -12   2  263.99    5.55
   1 -12   1   95.58    2.57
  -1 -12  -1  104.76    3.06
   1  12   1   89.73    2.14
  -1  12  -1  100.13   10.64
   1  12   1  100.86    2.65
   1 -12   1   96.57    3.12
  -1 -12  -1  102.57    2.97
   1 -12   0  587.29   11.95
  -1 -12   0  594.20   11.47
   1  12   0  605.67   11.70
  -1 -12   0  532.14   10.20
   1 -12   0  585.18   11.55
  -1 -12   0  594.18   11.84
   1 -12  -1  460.08    9.13
  -1 -12   1  441.65    8.51
   1  12  -1  417.61    8.10
   1  12  -1  455.46    9.14
  -1  12   1  436.27    8.89
   1 -12  -1  446.53    8.85
  -1 -12   1  469.12    9.71
  -1 -12   2  781.38   14.66
   1 -12  -2  761.49   14.86
   1  12  -2  737.84   13.75
   1  12  -2  752.69   14.54
  -1  12   2  745.64   14.63
   1 -12  -2  768.87   14.64
  -1 -12   2  798.97   15.66
  -1  12   2  699.20   13.24
   1 -12  -3  183.02    4.28
   1  12  -3  165.49    3.83
  -1  12   3  184.21    4.61
   1 -12  -3  174.92    3.25
   1 -12  -3  178.86    3.44
  -1 -12   3  177.83    3.99
   1 -12  -4  660.20   16.55
   1  12  -4  676.65   16.95
   1 -12  -4  580.75   13.90
  -1 -12   4  661.90   16.60
   1 -12  -4  652.42   15.62
   1 -12  -5  101.19    3.74
   1  12  -5  102.93    3.67
  -1 -12   5   99.08    3.70
   1 -12  -6   64.82    3.64
   1  12  -6   79.58    4.07
  -1 -12   6   83.08    4.15
   1 -12  -7    1.97    1.44
   1  12  -7    7.30    1.66
  -1 -12   7    5.30    1.43
  -1 -13  -6   33.11    4.37
  -1  13  -6   31.31    4.33
   1 -13   6   41.00    3.33
  -1 -13  -5  131.12    5.76
  -1  13  -5  119.48    5.31
   1 -13   5  118.81    5.29
  -1 -13  -4  288.63   10.85
  -1  13  -4  292.66   10.55
  -1  13  -4  287.44   10.76
   1 -13   4  286.81   10.70
  -1 -13  -3  126.00    4.31
  -1  13  -3  117.33    3.59
  -1  13  -3  112.75    3.88
   1 -13   3  129.90    4.23
  -1 -13  -2  224.73    5.37
  -1  13  -2  230.00    5.08
  -1  13  -2  232.40    5.57
   1  13   2  249.22    5.55
   1 -13   2  214.72    5.07
  -1 -13  -2  231.12    5.28
   1 -13   1    5.16    0.97
  -1 -13  -1    3.45    0.76
  -1  13  -1    7.48    1.36
   1  13   1    4.32    0.68
   1 -13   1    4.84    1.28
  -1 -13  -1    7.44    1.14
   1 -13   0  553.33   11.68
  -1 -13   0  550.47   10.74
   1  13   0  604.77   11.86
   1 -13   0  563.08   11.61
  -1 -13   0  577.43   11.50
   1 -13  -1   48.27    1.82
  -1 -13   1   55.08    1.62
   1  13  -1   52.16    1.54
   1  13  -1   49.63    1.95
  -1  13   1   61.66    2.43
   1 -13  -1   49.71    1.67
  -1 -13   1   60.18    2.82
  -1 -13   2   44.76    1.75
   1 -13  -2   57.44    2.21
   1  13  -2   52.09    1.27
   1  13  -2   62.51    2.10
  -1  13   2   61.63    2.57
   1 -13  -2   54.03    2.05
  -1 -13   2   57.56    2.52
   1 -13  -3  232.91    5.33
   1  13  -3  222.47    4.13
   1  13  -3  221.96    4.13
   1  13  -3  222.54    5.13
  -1  13   3  236.22    5.84
   1 -13  -3  220.94    4.53
  -1 -13   3  217.51    5.24
   1  13  -4   95.97    3.55
   1 -13  -4   87.52    2.52
  -1 -13   4   95.16    3.32
   1 -13  -4   95.72    2.57
   1 -13  -5   21.49    1.99
   1  13  -5   22.96    2.17
  -1 -13   5   19.29    1.64
   1 -13  -6  250.58    9.91
   1  13  -6  247.89    9.90
  -1 -13   6  253.76    9.96
   1 -13  -7   96.39    6.53
   1  13  -7   82.98    5.80
  -1 -13   7   87.05    6.00
  -1 -14  -6   17.80    2.79
  -1  14  -6   21.35    3.01
   1 -14   6   13.65    2.16
  -1 -14  -5   34.28    3.35
  -1  14  -5   36.27    3.76
   1 -14   5   38.67    3.80
  -1 -14  -4   48.86    2.81
  -1  14  -4   50.93    2.48
  -1  14  -4   49.71    2.85
   1 -14   4   46.38    2.83
  -1 -14  -4   47.78    2.39
  -1 -14  -3   40.32    2.44
  -1  14  -3   38.29    1.83
  -1  14  -3   51.00    2.54
   1  14   3   40.31    2.08
   1 -14   3   45.51    2.34
  -1 -14  -3   41.12    2.17
  -1 -14  -2  228.31    5.37
  -1  14  -2  224.73    4.98
  -1  14  -2  229.26    6.19
   1  14   2  228.22    5.15
   1 -14   2  228.27    5.61
  -1 -14  -2  238.58    5.45
   1 -14   1    3.91    0.65
  -1 -14  -1    2.50    0.89
  -1  14  -1    0.55    1.79
   1  14   1    5.28    1.66
  -1 -14  -1    3.73    1.99
   1 -14   0  141.85    3.79
  -1 -14   0  161.19    3.75
  -1  14   0  171.91    4.60
   1  14   0  167.69    3.80
   1 -14   0  135.33    3.74
  -1 -14   0  173.05    4.33
   1 -14  -1   39.11    1.72
  -1 -14   1   40.63    1.28
   1  14  -1   33.93    1.26
   1  14  -1   30.55    1.50
  -1  14   1   37.77    2.51
   1 -14  -1   37.93    1.65
  -1 -14   1   41.51    2.21
  -1 -14   2  358.89    6.34
   1 -14  -2  365.30    7.00
   1  14  -2  337.55    5.86
   1  14  -2  364.82    7.07
  -1  14   2  349.92    7.19
   1 -14  -2  359.51    6.61
  -1 -14   2  368.04    7.65
   1 -14  -3  405.12    8.48
   1  14  -3  395.36    7.30
   1  14  -3  384.34    7.09
   1  14  -3  395.56    8.25
  -1  14   3  394.69    8.46
   1 -14  -3  398.74    7.85
  -1 -14   3  390.84    8.36
   1 -14  -4  220.06    6.94
   1  14  -4  212.38    6.70
  -1  14   4  223.83    7.30
  -1 -14   4  201.57    6.40
   1 -14  -4  212.81    6.02
   1 -14  -5  200.60    7.60
   1  14  -5  187.17    7.17
  -1 -14   5  201.64    7.68
   1 -14  -6   57.07    3.42
   1  14  -6   62.64    3.49
  -1 -14   6   59.72    3.47
   1 -14  -7   67.40    4.66
   1  14  -7   69.05    4.74
  -1 -14   7   65.60    4.18
  -1 -15  -6    7.51    1.53
  -1  15  -6    6.16    2.06
   1 -15   6    8.02    1.54
  -1 -15  -5   43.81    3.99
  -1  15  -5   38.28    4.17
   1 -15   5   52.36    3.21
  -1 -15  -4   20.98    1.87
  -1  15  -4   21.38    1.55
  -1  15  -4   18.87    1.75
   1 -15   4   27.61    2.55
  -1 -15  -4   28.73    1.78
  -1 -15  -3    2.10    1.16
  -1  15  -3    4.14    1.40
  -1  15  -3    3.51    1.69
   1  15   3    9.11    2.13
   1 -15   3    5.71    2.19
  -1 -15  -3    2.82    1.63
  -1 -15  -2  241.81    6.82
  -1  15  -2  250.51    6.64
  -1  15  -2  239.73    6.98
   1  15   2  243.28    6.59
   1 -15   2  225.40    6.63
  -1 -15  -2  223.86    6.19
   1 -15   1  391.72    8.32
  -1 -15  -1  362.66    7.51
   1  15   1  385.24    7.85
   1 -15   1  369.38    7.90
  -1 -15  -1  380.20    8.02
   1 -15   0  920.63   15.82
  -1 -15   0  838.42   14.35
   1  15   0  814.82   14.06
  -1  15   0  932.28   16.42
   1 -15   0  868.60   15.06
  -1 -15   0  884.54   15.38
   1 -15  -1  146.28    3.52
  -1 -15   1  151.61    3.19
   1  15  -1  135.25    3.17
  -1  15   1  149.06    4.32
   1 -15  -1  149.07    3.63
  -1 -15   2  148.01    3.16
   1 -15  -2  165.80    4.15
   1  15  -2  148.51    3.12
   1  15  -2  170.75    4.45
  -1  15   2  166.83    4.41
   1 -15  -2  159.21    3.76
  -1 -15   2  156.53    4.68
   1 -15  -3  333.86    8.96
   1  15  -3  310.61    7.50
   1  15  -3  319.03    7.69
   1  15  -3  306.28    8.24
  -1  15   3  326.65    8.85
  -1 -15   3  314.62    8.52
   1 -15  -3  300.73    7.64
   1 -15  -4  149.98    5.36
   1  15  -4  135.89    4.85
  -1  15   4  136.66    5.05
  -1 -15   4  127.99    4.60
   1 -15  -4  128.38    3.89
   1 -15  -5   17.29    1.71
   1  15  -5   17.66    1.85
  -1 -15   5   17.27    2.31
   1 -15  -6   59.97    3.53
   1  15  -6   57.76    3.32
  -1 -15   6   57.82    3.29
   1 -15  -7   45.17    3.23
   1  15  -7   45.23    3.76
  -1 -15   7   45.37    3.04
  -1 -16  -5   24.81    2.10
  -1  16  -5   29.21    2.47
   1 -16   5   19.38    1.90
  -1 -16  -4   70.92    3.28
  -1  16  -4   67.85    2.56
  -1  16  -4   70.70    3.47
   1  16   4   64.52    2.72
   1 -16   4   72.80    3.23
  -1 -16  -4   67.20    2.62
  -1 -16  -3   34.36    2.44
  -1  16  -3   34.41    1.81
  -1  16  -3   30.51    2.12
   1  16   3   32.42    1.94
   1 -16   3   37.50    2.67
  -1 -16  -3   36.19    2.06
  -1 -16  -2  219.51    6.09
  -1  16  -2  211.51    6.04
   1  16   2  225.83    6.14
   1 -16   2  185.84    5.53
  -1 -16  -2  227.96    6.27
   1 -16   1  311.53    8.21
  -1 -16  -1  318.81    6.81
  -1  16  -1  297.83    6.71
   1  16   1  316.31    6.72
   1 -16   1  284.31    6.67
  -1 -16  -1  312.19    6.94
   1 -16   0  472.39    9.65
  -1 -16   0  507.15   10.00
   1  16   0  533.46   10.85
  -1  16   0  573.65   12.85
   1 -16   0  479.27    9.78
  -1 -16   0  509.71   10.46
   1 -16  -1  667.87   13.23
  -1 -16   1  636.23   12.12
   1  16  -1  646.36   12.60
  -1  16   1  642.91   12.94
   1 -16  -1  650.32   12.65
  -1 -16   2  114.31    3.01
   1 -16  -2  129.87    3.67
   1  16  -2  102.12    2.41
   1  16  -2  107.78    3.06
  -1  16   2  121.15    4.10
   1 -16  -2  118.07    3.09
  -1 -16   2  120.78    4.11
   1 -16  -3  340.55    9.06
   1  16  -3  338.49    7.98
   1  16  -3  334.68    8.87
  -1  16   3  338.57    9.09
   1 -16  -3  335.52    8.37
  -1 -16   3  339.75    9.03
   1 -16  -4  111.61    3.94
   1  16  -4  105.77    3.87
  -1  16   4   99.32    3.93
  -1 -16   4  101.00    3.83
   1 -16  -4  102.25    2.96
   1 -16  -5  291.44    9.00
   1  16  -5  266.13    8.30
  -1  16   5  302.77    9.64
  -1 -16   5  303.71    9.48
   1 -16  -6   10.19    1.52
   1  16  -6    6.71    1.04
  -1 -16   6    6.03    1.27
  -1 -17  -5  117.34    7.53
  -1  17  -5  126.29    8.32
   1  17   5  111.95    7.10
   1 -17   5  120.85    7.67
  -1 -17  -4   37.40    2.41
  -1  17  -4   44.21    2.82
   1  17   4   46.47    2.79
   1 -17   4   40.71    2.86
  -1 -17  -4   50.34    2.83
  -1 -17  -3   18.26    1.67
  -1  17  -3   23.30    1.59
  -1  17  -3   21.27    2.33
   1  17   3   19.93    1.84
   1 -17   3   23.27    2.46
  -1 -17  -3   21.01    1.65
  -1 -17  -2  150.39    5.19
   1  17   2  143.85    4.85
   1 -17   2  148.67    5.18
  -1 -17  -2  152.71    5.16
   1 -17   1  499.72   12.18
  -1 -17  -1  504.68   12.51
  -1  17  -1  533.35   13.38
   1  17   1  513.96   12.70
   1 -17   1  500.78   12.76
  -1 -17  -1  541.96   13.50
   1 -17   0  995.62   25.17
  -1 -17   0  974.82   23.63
   1  17   0  985.39   24.03
   1 -17   0 1002.05   24.60
  -1 -17   0 1029.29   24.77
   1 -17  -1  555.60   13.92
  -1 -17   1  496.13   12.26
   1  17  -1  542.34   13.94
  -1  17   1  532.41   13.77
   1 -17  -1  539.47   13.60
  -1 -17   1  566.59   14.55
  -1 -17   2   49.29    2.89
   1 -17  -2   50.43    2.54
   1  17  -2   41.35    1.52
   1  17  -2   47.48    2.09
  -1  17   2   53.46    2.73
   1 -17  -2   48.82    2.17
  -1 -17   2   48.94    2.87
   1 -17  -3   34.59    2.21
   1  17  -3   30.68    1.20
   1  17  -3   31.25    2.43
  -1  17   3   37.82    2.63
   1 -17  -3   29.76    1.53
  -1 -17   3   25.69    2.04
   1 -17  -4   57.34    3.25
   1  17  -4   51.00    2.65
  -1  17   4   55.88    3.03
  -1 -17   4   56.66    3.06
   1 -17  -4   53.16    2.28
   1  17  -5   40.94    2.68
  -1  17   5   44.33    3.04
  -1 -17   5   36.19    2.67
   1 -17  -6    4.68    1.74
   1  17  -6    4.16    1.30
  -1  17   6    2.44    1.38
  -1 -17   6    5.16    2.09
  -1 -18  -5   59.20    4.34
  -1  18  -5   50.05    4.31
   1  18   5   51.95    3.89
   1 -18   5   53.64    4.19
  -1 -18  -4   22.35    1.97
  -1  18  -4   25.97    2.64
   1  18   4   26.40    2.34
   1 -18   4   28.34    2.60
  -1 -18  -4   27.98    2.29
  -1 -18  -3   40.48    2.48
  -1  18  -3   40.44    2.16
  -1  18  -3   41.62    2.53
   1  18   3   38.92    2.38
   1 -18   3   42.58    2.95
  -1 -18  -3   45.30    2.58
   1 -18   2    9.57    0.92
  -1 -18  -2   11.62    1.64
  -1  18  -2   11.78    1.82
   1  18   2    8.18    1.31
   1 -18   2   10.91    1.74
  -1 -18  -2   10.18    1.27
   1 -18   1   48.05    3.97
  -1 -18  -1   60.22    2.71
  -1  18  -1   36.96    2.19
   1  18   1   55.58    2.42
   1 -18   1   45.95    2.86
  -1 -18  -1   55.32    2.87
   1 -18   0   55.18    2.93
  -1 -18   0   80.61    2.76
   1  18   0   84.23    3.41
   1 -18   0   58.16    3.21
  -1 -18   0   68.17    3.24
   1  18  -1   19.92    2.41
  -1  18   1   28.16    3.09
   1 -18  -1   17.69    1.42
  -1 -18   1   27.09    2.61
  -1 -18   2   85.71    2.55
   1 -18  -2   87.40    3.10
   1  18  -2   78.78    2.99
  -1  18   2   80.29    3.35
   1 -18  -2   82.14    3.01
  -1 -18   2   80.98    3.65
   1 -18  -3   86.81    3.43
   1  18  -3   90.25    3.50
  -1  18   3   79.48    3.28
  -1 -18   3   79.06    3.34
   1 -18  -3   74.53    2.52
   1 -18  -4   70.89    3.38
   1  18  -4   61.42    3.08
  -1  18   4   67.42    3.69
  -1 -18   4   67.39    3.68
   1 -18  -4   61.48    2.55
   1 -18  -5  265.21   10.50
   1  18  -5  253.90   10.22
  -1  18   5  270.73   10.77
  -1 -18   5  273.08   10.80
   1 -18  -6  103.11    7.01
   1  18  -6   92.94    6.33
  -1  18   6  101.80    7.02
  -1 -18   6  101.81    6.84
  -1 -19  -5   19.55    2.89
   1  19   5   13.99    2.02
   1 -19   5   20.06    3.05
  -1 -19  -4   43.07    3.96
  -1  19  -4   36.57    3.78
   1  19   4   34.03    3.17
   1 -19   4   41.39    3.83
  -1 -19  -4   29.27    2.70
  -1 -19  -3   51.52    2.94
  -1  19  -3   47.22    2.11
   1  19   3   47.32    2.52
   1 -19   3   45.13    2.55
  -1 -19  -3   52.73    2.66
   1 -19   2   65.08    2.93
  -1 -19  -2   58.65    3.05
  -1  19  -2   67.42    3.61
   1  19   2   67.09    3.44
   1 -19   2   61.46    3.19
  -1 -19  -2   69.10    3.51
   1 -19   1  173.41    5.98
  -1 -19  -1  180.53    5.87
  -1  19  -1  191.45    6.55
   1  19   1  168.48    5.36
   1 -19   1  158.17    5.48
  -1 -19  -1  179.31    6.15
   1 -19   0  169.25    5.33
  -1 -19   0  171.84    4.80
  -1  19   0  168.40    5.46
   1  19   0  172.83    5.31
   1 -19   0  164.86    4.85
  -1 -19   0  184.00    5.56
   1 -19  -1  162.22    5.12
  -1 -19   1  163.73    4.49
   1  19  -1  157.88    4.80
  -1  19   1  160.20    5.51
   1 -19  -1  157.75    4.67
  -1 -19   1  158.05    4.99
  -1 -19   2   78.37    2.67
   1 -19  -2   88.62    3.45
   1  19  -2   72.76    2.92
  -1  19   2   80.52    3.48
   1 -19  -2   77.13    2.93
  -1 -19   2   87.42    4.09
   1 -19  -3   20.53    1.81
   1  19  -3   15.81    1.92
  -1  19   3   16.84    2.05
  -1 -19   3   12.69    2.35
   1 -19  -3   14.28    1.25
   1 -19  -4    8.77    1.36
   1  19  -4    7.08    1.31
  -1  19   4    9.09    2.34
  -1 -19   4   11.76    2.48
   1 -19  -4    7.35    0.93
   1 -19  -5   85.55    4.58
   1  19  -5   67.87    4.04
  -1  19   5   81.75    4.31
  -1 -19   5   69.39    4.05
   1 -19  -6   35.65    2.74
   1  19  -6   44.60    3.42
  -1  19   6   39.92    3.36
  -1 -19   6   42.03    3.28
  -1 -20  -5   57.85    3.89
  -1  20  -5   53.83    3.83
   1  20   5   48.19    3.03
   1 -20   5   55.73    3.79
  -1 -20  -4    5.11    1.81
  -1  20  -4    2.38    1.29
   1  20   4    3.65    1.49
   1 -20   4    2.58    1.33
  -1 -20  -3   85.47    4.33
  -1  20  -3   87.58    3.91
  -1  20  -3   96.60    4.79
   1  20   3   88.49    4.09
   1 -20   3   82.53    4.21
  -1 -20  -3   88.12    4.52
   1 -20   2   32.78    1.76
  -1 -20  -2   34.50    2.35
  -1  20  -2   33.20    2.35
   1  20   2   34.01    2.37
   1 -20   2   38.92    2.37
  -1 -20  -2   29.73    2.18
   1 -20   1  117.12    4.17
  -1 -20  -1  113.23    3.84
  -1  20  -1  110.93    4.33
   1  20   1  116.32    3.90
   1 -20   1  112.39    3.95
  -1 -20  -1  120.32    4.51
   1 -20   0  499.54   14.24
  -1 -20   0  481.61   13.63
  -1  20   0  508.45   14.93
   1  20   0  499.28   14.25
   1 -20   0  497.38   14.29
  -1 -20   0  518.93   15.07
   1 -20  -1  147.22    9.62
  -1 -20   1  150.06    4.70
   1  20  -1  129.63    4.62
  -1  20   1  145.06    5.46
   1 -20  -1  137.81    4.82
  -1 -20   1  155.22    6.05
  -1 -20   2  115.39    3.34
   1 -20  -2  117.59    4.05
   1  20  -2  122.18    3.99
  -1  20   2  126.78    4.45
   1 -20  -2  111.95    3.73
  -1 -20   2  117.33    4.35
   1 -20  -3  102.01    4.42
   1  20  -3   96.61    4.20
  -1  20   3   91.75    4.40
   1 -20  -3   92.88    3.75
  -1 -20   3   95.22    4.69
   1 -20  -4  221.95    9.29
   1  20  -4  222.87    9.41
  -1  20   4  227.25    9.65
  -1 -20   4  229.89    9.81
   1 -20  -5  135.74    5.01
   1  20  -5  127.70    5.10
  -1  20   5  140.53    5.26
  -1 -20   5  144.44    5.57
   1 -20  -6  203.60    9.82
   1  20  -6  196.33    9.64
  -1  20   6  198.88    9.68
  -1 -20   6  201.82    9.76
  -1 -21  -4  116.96    7.42
   1  21   4  107.62    6.88
   1 -21   4  101.96    6.66
  -1  21  -3   25.30    2.47
   1  21   3   23.21    1.94
   1 -21   3   25.59    2.65
  -1 -21  -3   28.65    2.21
   1 -21   2    6.26    1.05
  -1 -21  -2    7.00    1.03
  -1  21  -2    4.29    1.68
   1  21   2    3.16    1.08
  -1 -21  -2    5.37    1.37
   1 -21   1  196.99    7.47
  -1 -21  -1  203.93    7.79
  -1  21  -1  190.91    7.92
   1  21   1  200.11    7.80
   1 -21   1  200.76    7.85
  -1 -21  -1  195.04    7.78
   1 -21   0  151.18    7.95
  -1 -21   0  152.37    5.97
  -1  21   0  188.59    7.95
   1  21   0  158.82    6.40
   1 -21   0  152.63    6.06
  -1 -21   0  163.11    6.76
   1 -21  -1  133.55    9.26
  -1 -21   1  132.08    5.19
   1  21  -1  125.34    5.13
  -1  21   1  129.42    5.50
   1 -21  -1  124.13    5.26
  -1 -21   1  143.21    6.45
  -1 -21   2    7.74    1.23
   1 -21  -2    9.56    1.58
   1  21  -2    5.30    1.34
  -1  21   2   10.79    1.90
   1 -21  -2   10.19    1.32
  -1 -21   2   11.66    2.79
   1 -21  -3   -0.09    1.04
   1  21  -3    2.09    1.26
  -1  21   3    3.83    1.65
   1 -21  -3    2.73    1.20
  -1 -21   3    3.07    2.40
   1 -21  -4    2.79    1.04
   1  21  -4    4.20    1.57
  -1  21   4    3.94    1.46
  -1 -21   4    1.74    2.19
   1 -21  -5   19.24    2.88
   1  21  -5   18.91    2.59
  -1  21   5   20.64    3.17
  -1 -21   5   17.16    2.52
  -1 -22  -4   21.03    3.28
   1  22   4   15.81    2.39
   1 -22   4   22.32    3.67
  -1 -22  -3   85.18    4.47
  -1  22  -3   85.52    4.64
   1  22   3   87.55    4.33
   1 -22   3   89.30    4.83
  -1 -22  -3   92.90    4.63
   1 -22   2  172.83    7.12
  -1 -22  -2  157.71    6.84
  -1  22  -2  196.67    8.70
   1  22   2  176.66    7.49
   1 -22   1   76.37    7.54
  -1 -22  -1   78.65    3.58
  -1  22  -1   86.93    4.62
   1  22   1   75.04    3.43
   1 -22   1   83.51    3.94
  -1 -22  -1   76.82    3.86
   1 -22   0   36.28    3.87
  -1 -22   0   38.27    2.12
   1  22   0   36.76    2.37
  -1  22   0   36.31    2.52
   1 -22   0   31.99    2.04
  -1 -22   0   33.86    2.79
   1 -22  -1  355.97   12.79
  -1 -22   1  356.96   12.47
   1  22  -1  344.75   12.28
  -1  22   1  335.57   12.25
   1 -22  -1  345.42   12.33
  -1 -22   1  348.10   12.84
  -1 -22   2  117.27    4.40
   1 -22  -2  119.09    4.94
   1  22  -2  115.55    4.83
  -1  22   2  106.33    5.05
   1 -22  -2  124.97    4.97
  -1 -22   2  117.30    5.07
   1 -22  -3  102.47    4.86
   1  22  -3   93.40    4.59
  -1  22   3  104.83    5.41
   1 -22  -3   98.62    4.45
  -1 -22   3  104.87    5.37
   1 -22  -4  101.12    5.19
   1  22  -4  102.44    5.01
  -1  22   4  100.30    5.24
  -1 -22   4   99.83    5.32
   1 -22  -5   66.31    5.00
   1  22  -5   61.51    4.59
  -1  22   5   70.41    5.32
  -1 -22   5   68.36    5.35
  -1 -23  -4   82.13    4.61
  -1  23  -4   88.49    5.12
   1 -23   4  104.62    5.94
  -1 -23  -3  115.73    4.41
  -1  23  -3  122.88    5.07
   1  23   3  112.73    4.13
   1 -23   3  112.36    4.53
  -1 -23  -3  117.66    4.35
   1 -23   2   95.59    4.17
  -1 -23  -2   91.48    4.23
  -1  23  -2   96.78    4.57
   1  23   2   98.84    4.60
   1 -23   2   94.80    4.55
  -1 -23  -2  105.84    4.87
   1 -23   1  128.92    5.64
  -1 -23  -1  128.94    5.66
  -1  23  -1  123.53    5.87
   1  23   1  122.26    5.69
   1 -23   1  137.72    6.40
  -1 -23  -1  125.20    5.97
   1 -23   0   80.39    5.54
  -1 -23   0   75.04    2.91
   1  23   0   77.69    3.17
  -1  23   0   82.61    3.66
   1 -23   0   72.44    3.30
  -1 -23   0   66.72    3.48
   1 -23  -1   23.50    3.17
   1  23  -1   17.55    1.50
  -1  23   1   26.26    2.75
   1 -23  -1   21.83    1.94
  -1 -23   1   29.68    2.83
   1 -23  -2   34.64    2.21
   1  23  -2   28.13    2.11
  -1  23   2   41.78    3.31
   1 -23  -2   39.66    2.45
   1  23  -3   47.54    3.42
  -1  23   3   51.48    3.70
   1 -23  -3   48.60    3.29
  -1 -23   3   52.28    3.82
   1 -23  -4    6.45    1.07
   1  23  -4    2.78    0.94
  -1  23   4    9.32    2.06
  -1 -23   4    6.37    2.36
   1 -23  -5   31.89    2.54
   1  23  -5   21.48    1.98
  -1  23   5   22.04    2.22
  -1 -23   5   23.25    2.31
  -1 -24  -3  125.90    8.28
  -1  24  -3  107.55    7.28
   1  24   3  106.77    7.01
   1 -24   3  104.25    7.10
  -1 -24  -3  119.36    7.73
  -1 -24  -2   98.89    4.96
  -1  24  -2   89.04    4.99
   1  24   2  101.27    4.95
   1 -24   2  101.23    5.27
  -1 -24  -2   97.71    4.80
   1 -24   1   35.26    3.88
  -1 -24  -1   39.74    2.85
  -1  24  -1   37.96    3.04
   1  24   1   48.05    3.44
   1 -24   1   37.56    3.14
  -1 -24  -1   40.73    3.39
   1 -24   0   23.24    3.25
  -1 -24   0   19.63    1.60
  -1  24   0   24.34    2.61
   1  24   0   29.89    2.32
   1 -24   0   22.73    2.07
  -1 -24   0   16.39    2.22
   1 -24  -1   87.29    9.90
  -1 -24   1   84.93    7.20
   1  24  -1   83.86    4.05
  -1  24   1   89.51    4.91
   1 -24  -1   90.16    4.30
  -1 -24   1   96.63    4.83
   1 -24  -2   29.57    2.49
   1  24  -2   27.81    2.50
  -1  24   2   31.16    3.03
   1 -24  -2   29.33    2.38
  -1 -24   2   24.67    2.89
   1 -24  -3   29.11    3.20
   1  24  -3   27.67    2.92
  -1  24   3   25.31    2.87
   1 -24  -3   33.06    3.09
  -1 -24   3   33.86    3.55
   1 -24  -4   50.06    3.76
   1  24  -4   50.74    3.79
  -1  24   4   52.46    4.03
  -1 -24   4   56.93    4.44
  -1 -25  -3   73.02    4.52
  -1  25  -3   80.78    5.60
   1 -25   3   72.52    5.01
  -1 -25  -3   72.49    4.50
  -1 -25  -2  145.90    8.99
  -1  25  -2  152.37    9.72
   1  25   2  129.92    8.12
   1 -25   2  133.21    8.40
  -1 -25  -2  145.43    9.04
   1 -25   1   49.15    5.50
  -1 -25  -1   54.99    3.03
  -1  25  -1   55.32    3.87
   1  25   1   54.73    3.15
   1 -25   1   54.47    3.58
  -1 -25  -1   50.40    3.28
   1 -25   0  101.07    6.56
  -1 -25   0  111.35    5.18
  -1  25   0  113.58    5.73
   1  25   0  104.66    4.99
   1 -25   0  111.26    5.44
  -1 -25   0  102.03    5.37
  -1 -25   1   30.74    5.59
   1 -25  -1   35.61    6.24
   1  25  -1   41.10    3.90
  -1  25   1   47.32    3.58
   1 -25  -1   42.38    3.93
  -1 -25   1   44.53    3.47
   1 -25  -2   46.59    2.93
   1  25  -2   42.18    3.83
  -1  25   2   46.47    3.66
   1 -25  -2   41.58    3.77
  -1 -25   2   42.92    4.46
   1 -25  -3   10.21    1.61
   1  25  -3    8.59    1.53
  -1  25   3    8.28    1.92
  -1 -25   3   17.37    2.73
   1 -25  -3   10.03    1.50
   1 -25  -4    6.41    1.64
   1  25  -4    4.36    1.56
  -1  25   4    4.95    2.30
  -1 -25   4    3.03    1.53
  -1 -26  -2    4.45    1.17
  -1  26  -2    3.69    2.52
   1  26   2    6.39    1.71
   1 -26   2    4.23    1.45
  -1 -26  -2    5.73    1.95
   1 -26   1    9.17    2.48
  -1 -26  -1   18.07    2.40
  -1  26  -1   13.07    2.28
   1  26   1   14.33    2.41
   1 -26   1   12.19    2.04
  -1 -26  -1   11.38    1.85
   1 -26   0    2.21    0.77
  -1 -26   0    4.15    1.08
   1  26   0    1.56    1.02
  -1  26   0    1.64    1.42
   1 -26   0    0.81    1.21
  -1 -26   0    5.46    1.44
   1 -26  -1   92.42    8.31
   1  26  -1   96.58    4.04
  -1  26   1  101.27    4.37
   1 -26  -1  104.30    4.32
   1 -26  -2   79.80    8.20
   1  26  -2   85.75    5.73
  -1  26   2   82.14    5.67
   1 -26  -2   84.70    5.45
  -1 -26   2   98.56    6.76
   1 -26  -3   29.53    4.13
   1  26  -3   12.47    2.23
  -1  26   3   17.68    3.06
  -1 -26   3   17.53    2.85
  -1 -27  -2   43.60    2.97
  -1  27  -2   40.29    3.36
   1 -27   2   34.09    2.96
  -1 -27  -2   50.62    3.32
  -1 -27  -1   70.25    4.88
  -1  27  -1   89.29    6.36
   1  27   1   79.22    5.56
   1 -27   1   72.82    5.34
  -1 -27  -1   74.52    5.42
   1 -27   0   43.77    6.93
  -1 -27   0   61.11    4.13
  -1  27   0   54.34    4.04
   1 -27   0   56.66    4.09
  -1 -27   0   53.19    4.39
   1 -27  -1   16.31    3.30
   1  27  -1   25.41    3.38
  -1  27   1   17.04    2.83
   1 -27  -1   17.82    2.38
  -1 -27   1   23.89    3.63
   1 -27  -2   26.97    5.55
   1  27  -2   42.14    3.38
  -1  27   2   35.06    3.47
   1 -27  -2   34.08    4.06
  -1 -27   2   35.33    3.59
   1 -27  -3    4.56    1.06
   1  27  -3    8.97    1.34
  -1  27   3    7.06    1.96
  -1 -27   3   10.32    2.18
  -1 -28  -1   17.27    1.88
  -1  28  -1   25.93    2.91
   1  28   1    9.75    1.51
   1 -28   1   18.62    2.07
  -1 -28  -1   13.40    1.93
   1 -28   0   26.01    6.42
  -1 -28   0   38.91    2.84
   1  28   0   41.25    3.07
  -1  28   0   38.15    3.50
   1 -28   0   39.99    3.27
  -1 -28   0   43.54    3.65
   1 -28  -1   17.02    3.24
   1  28  -1   31.51    2.79
  -1  28   1   24.15    3.66
   1 -28  -1   28.75    3.61
  -1 -28   1   23.40    3.27
   1 -28  -2   31.20    6.69
   1  28  -2   44.51    3.01
  -1  28   2   47.44    3.66
   1 -28  -2   43.15    2.93
  -1 -28   2   41.67    3.40
  -2   0  -6    1.41    1.24
  -2   0  -6    0.79    0.91
   2   0   6    1.08    0.84
  -2   0  -5  261.75   10.76
  -2   0  -5  283.89   16.76
   2   0   5  264.50   11.07
  -2   0  -4    0.73    1.36
  -2   0  -4    1.51    0.82
   2   0   4    0.94    0.91
  -2   0  -3   10.11    1.31
  -2   0  -3   10.33    0.88
   2   0   3   10.01    1.05
  -2   0  -2  905.49   17.50
  -2   0  -2  866.19   16.42
   2   0   2  888.98   17.06
  -2   0  -1   55.65    2.46
  -2   0  -1   48.34    1.35
   2   0   1   50.31    1.45
   2   0   1   53.88    1.76
  -2   0   0   58.10    1.64
   2   0   0   56.99    1.41
  -2   0   0   59.69    1.14
   2   0   0   56.69    1.50
  -2   0   0   57.70    1.37
  -2   0   1  104.18    2.09
  -2   0   1   97.69    1.26
  -2   0   1  100.77    1.55
   2   0  -2  155.59    2.12
  -2   0   2  152.49    1.98
   2   0  -2  148.13    2.63
  -2   0   2  151.13    1.97
   2   0  -2  155.35    2.19
  -2   0   2  144.92    1.87
   2   0  -3  215.20    3.91
   2   0  -3  224.86    4.31
  -2   0   3  200.28    3.63
  -2   0   3  222.72    3.97
   2   0  -4    8.11    0.79
  -2   0   4    5.46    0.60
   2   0  -4   11.04    1.24
  -2   0   4    5.11    0.61
  -2   0   4    6.54    0.61
   2   0  -5   13.06    0.76
   2   0  -5   13.43    1.65
  -2   0   5   12.43    0.62
   2   0  -6  100.88    3.32
   2   0  -6  127.10    7.17
  -2   0   6   97.59    2.84
   2   0  -7    2.14    0.50
   2   0  -7    7.23    1.48
   2   0  -8    2.41    1.35
  -2  -1  -6   70.98    5.19
  -2   1  -6   68.50    4.81
  -2  -1  -6   58.62    8.00
  -2   1  -6   69.47    6.48
   2   1   6   74.63    5.13
   2  -1   6   58.03    6.29
  -2   1  -5   11.49    1.73
  -2  -1  -5   18.08    1.81
  -2  -1  -5   15.14    1.71
  -2   1  -5   15.77    2.08
   2   1   5    9.80    2.04
   2  -1   5   12.27    1.37
  -2  -1  -4   69.16    3.07
  -2   1  -4   72.73    3.44
  -2  -1  -4   66.37    6.59
  -2   1  -4   70.28    2.88
   2   1   4   66.35    3.80
   2  -1   4   75.52    3.00
  -2  -1  -3  303.27    7.09
  -2   1  -3  284.89    6.41
  -2  -1  -3  296.73    6.17
  -2   1  -3  284.35    6.02
   2   1   3  289.48    7.85
   2  -1   3  299.96    6.41
  -2  -1  -2  112.39    3.53
  -2   1  -2  112.71    3.37
  -2  -1  -2  111.51    2.74
  -2   1  -2  107.15    2.72
   2   1   2  112.71    7.83
   2  -1   2  105.68    2.77
  -2  -1  -1  263.96    4.62
  -2   1  -1  258.67    4.67
   2   1   1  263.88    4.69
   2  -1   1  266.30    4.78
   2   1   1  276.41    5.31
   2  -1   1  273.94    5.15
  -2  -1   0 1052.95   10.08
  -2   1   0 1057.73   10.14
  -2  -1   0 1025.91    9.14
  -2   1   0 1042.02    9.53
   2   1   0 1007.47    8.94
   2  -1   0  989.79    8.99
   2   1   0 1089.18   10.41
  -2  -1   0  985.12    9.33
   2  -1  -1  272.82    3.20
  -2   1   1  243.51    2.81
  -2  -1   1  260.08    2.59
  -2   1   1  252.33    2.90
  -2  -1   1  260.92    2.71
  -2  -1   1  255.21    2.98
   2  -1  -1  269.33    3.18
   2   1  -2  217.72    2.90
   2  -1  -2  226.80    2.74
  -2  -1   2  224.67    2.59
  -2   1   2  202.96    3.29
   2   1  -2  208.00    2.48
  -2   1   2  212.20    2.94
  -2  -1   2  226.42    2.59
   2   1  -2  217.36    2.58
   2  -1  -2  228.08    2.77
  -2  -1   2  221.64    2.66
  -2   1   2  206.06    2.32
   2   1  -3  449.51    7.57
   2  -1  -3  438.62    7.70
  -2   1   3  397.25    6.77
   2  -1  -3  449.84    7.93
   2   1  -3  446.55    7.96
  -2  -1   3  412.32    6.89
  -2   1   3  425.58    7.01
  -2  -1   3  453.40    7.64
  -2   1   3  461.09    7.62
   2   1  -4  844.50   15.89
   2  -1  -4  848.31   16.06
  -2  -1   4  783.77   14.75
   2  -1  -4  857.43   16.48
   2   1  -4  820.91   15.82
  -2  -1   4  724.57   13.54
  -2   1   4  778.74   14.42
  -2   1   4  806.14   14.92
  -2  -1   4  808.46   15.13
   2   1  -5  182.97    3.91
   2  -1  -5  171.16    3.80
   2   1  -5  175.22    4.19
  -2   1   5  163.02    3.59
  -2   1   5  170.05    3.26
  -2  -1   5  166.71    3.42
   2   1  -6   32.92    1.51
   2  -1  -6   27.05    1.40
   2  -1  -6   36.93    4.52
  -2  -1   6   31.03    1.18
   2  -1  -7    8.87    0.92
   2   1  -7   11.11    0.93
   2   1  -7   14.36    1.77
   2  -1  -7    7.76    1.16
   2  -1  -8   23.82    5.06
   2   1  -8   25.52    5.02
  -2  -2  -6   99.23    6.76
  -2   2  -6   97.85    6.67
  -2  -2  -6   92.72    7.45
  -2   2  -6   99.25    8.04
   2   2   6   95.16    6.24
   2  -2   6   75.48    8.75
  -2  -2  -5  120.42    5.60
  -2   2  -5  111.01    5.27
  -2  -2  -5  116.65    5.23
  -2   2  -5  108.57    5.00
   2   2   5  109.88    4.85
   2  -2   5  121.13    5.39
  -2  -2  -4   79.10    3.16
  -2   2  -4   98.22    4.02
  -2  -2  -4   81.46    4.10
  -2   2  -4   93.71    3.35
   2   2   4   99.58    3.33
   2  -2   4   87.15    3.07
  -2  -2  -3   47.97    2.93
  -2   2  -3   55.27    2.37
  -2  -2  -3   57.49    3.09
  -2   2  -3   52.75    2.03
   2   2   3   57.87    4.56
   2  -2   3   56.23    2.13
  -2   2  -2  915.28   17.61
  -2  -2  -2  897.72   16.94
  -2   2  -2  877.92   16.73
   2   2   2  785.82   14.86
   2   2   2  936.03   17.97
   2  -2   2  889.26   17.07
  -2  -2  -1  270.84    5.30
  -2   2  -1  274.48    5.32
  -2  -2  -1  261.21    4.54
  -2   2  -1  248.47    4.55
   2   2   1  255.73    4.48
   2  -2   1  246.24    4.56
   2   2   1  256.32    4.92
   2  -2   1  254.97    4.83
  -2   2   0 1189.03   11.01
   2   2   0 1303.33   12.35
  -2   2   1  854.14    8.11
   2   2  -1  893.61    8.35
  -2  -2   1  879.74    7.79
  -2   2   1  907.11    8.49
  -2  -2   1  873.57    8.42
   2  -2  -1  906.66    8.55
  -2   2   1  876.74    8.23
   2   2  -2  447.18    4.41
  -2  -2   2  428.88    4.39
   2  -2  -2  440.56    5.48
  -2   2   2  430.16    4.46
  -2   2   2  419.54    4.39
   2   2  -2  458.03    4.69
  -2  -2   2  427.65    4.32
  -2  -2   2  424.03    4.32
   2  -2  -2  446.80    4.39
  -2   2   2  433.63    4.24
   2   2  -3 1024.06   16.63
   2  -2  -3 1061.64   17.84
  -2   2   3  953.33   15.71
  -2  -2   3  976.28   15.83
   2   2  -3 1050.53   17.37
  -2  -2   3  970.28   15.78
  -2   2   3 1001.57   16.10
  -2  -2   3 1109.00   18.12
   2   2  -4  393.44    7.64
   2  -2  -4  407.86    8.47
  -2  -2   4  392.86    7.62
   2   2  -4  396.03    8.26
  -2   2   4  374.18    6.93
  -2   2   4  366.85    6.80
  -2  -2   4  389.61    7.62
   2   2  -5   70.45    1.82
   2  -2  -5   63.48    2.04
  -2  -2   5   56.43    1.65
   2  -2  -5   78.78    6.32
   2   2  -5   81.39    5.60
  -2  -2   5   64.44    1.79
   2  -2  -6  179.84    5.05
   2   2  -6  169.04    4.57
   2  -2  -6  194.43    5.99
  -2  -2   6  182.35    4.78
   2   2  -7   15.40    1.10
   2  -2  -7   15.55    1.30
   2  -2  -7   16.83    2.68
   2   2  -7   17.36    2.09
   2  -2  -8   70.47    7.84
   2   2  -8   62.45    8.14
  -2  -3  -6   13.71    2.60
  -2   3  -6   12.94    2.39
  -2  -3  -6   10.95    2.22
  -2   3  -6   10.35    2.13
   2  -3   6    8.89    1.60
  -2  -3  -5   72.15    4.03
  -2   3  -5   57.11    3.17
  -2  -3  -5   63.20    7.75
  -2   3  -5   65.83    3.37
   2   3   5   56.73    7.19
   2  -3   5   62.64    3.22
  -2  -3  -4  130.21    4.68
  -2   3  -4  124.55    4.37
  -2  -3  -4  128.50    6.98
  -2   3  -4  113.70    3.86
   2   3   4  132.47    8.82
   2  -3   4  111.56    3.68
  -2  -3  -3  114.66    3.88
  -2   3  -3  115.83    3.66
  -2  -3  -3  110.84    4.20
  -2   3  -3  112.60    3.06
   2   3   3  112.76    3.12
   2  -3   3  115.45    3.16
  -2   3  -2  739.83   14.42
  -2  -3  -2  697.32   13.38
  -2   3  -2  686.02   13.26
   2   3   2  642.93   12.23
   2   3   2  732.55   14.39
   2  -3   2  697.36   13.64
  -2  -3  -1  771.04   13.16
  -2  -3  -1  787.64   12.95
   2   3   1  775.13   12.65
  -2   3  -1  776.85   12.99
   2  -3   1  749.60   12.49
   2   3   1  755.21   12.70
   2  -3   1  795.02   13.42
   2  -3   0  786.72    8.10
   2   3   0  788.16    7.75
  -2   3   1  329.24    4.05
  -2  -3   1  337.73    3.82
   2   3  -1  342.60    3.70
  -2  -3   1  329.42    3.08
  -2   3   1  350.06    3.92
   2   3  -1  352.71    4.40
  -2  -3   1  326.35    3.68
   2  -3  -1  331.43    3.69
  -2   3   1  331.28    3.57
   2  -3  -2  895.93    9.04
  -2  -3   2  824.04    7.59
  -2   3   2  828.23    7.92
  -2  -3   2  888.22    8.15
  -2   3   2  817.56    8.00
   2   3  -2  842.29    7.86
  -2  -3   2  855.94    7.96
  -2  -3   2  837.93    7.90
   2  -3  -2  878.25    8.04
  -2   3   2  809.30    7.42
   2   3  -3  493.81    8.22
   2  -3  -3  503.50    8.71
  -2   3   3  450.28    7.82
  -2  -3   3  444.63    7.71
   2   3  -3  511.14    8.92
  -2  -3   3  442.75    7.49
  -2   3   3  479.56    7.79
  -2  -3   3  510.36    8.75
   2   3  -4 1067.45   19.93
   2  -3  -4 1091.80   20.62
  -2  -3   4 1020.75   18.97
   2   3  -4 1051.58   20.13
  -2  -3   4 1084.46   20.34
   2   3  -5  247.78    4.93
   2  -3  -5  232.71    5.00
  -2  -3   5  234.79    4.79
   2  -3  -5  235.98    5.29
   2   3  -5  255.37    6.04
  -2  -3   5  244.74    5.03
   2   3  -6   99.26    2.91
   2  -3  -6   81.87    2.63
   2  -3  -6   97.79    8.75
   2   3  -6  111.26    6.33
  -2  -3   6   94.00    2.80
   2  -3  -7   40.65    2.21
   2  -3  -7   46.13    6.05
   2  -3  -8   32.17    4.19
   2  -3  -8   29.28    6.50
   2   3  -8   23.74    5.66
  -2  -4  -6  172.24   18.19
  -2   4  -6  173.76   18.26
  -2  -4  -6  157.69   13.48
  -2   4  -6  152.75   15.01
   2  -4   6  166.98   10.54
  -2  -4  -5  108.87    5.35
  -2  -4  -5  117.72    6.91
  -2   4  -5  106.63    4.90
   2   4   5  102.90    4.62
   2  -4   5  113.43    5.11
  -2  -4  -4  403.37   10.92
  -2   4  -4  421.33   11.10
  -2  -4  -4  410.03   10.85
  -2   4  -4  398.25   10.50
   2   4   4  403.87   10.66
   2  -4   4  406.79   10.76
  -2  -4  -3   84.62    3.63
  -2   4  -3   79.41    3.37
  -2  -4  -3   85.83    5.32
  -2   4  -3   76.36    2.69
   2   4   3   93.87    5.72
   2  -4   3   74.15    2.73
  -2  -4  -2   95.81    3.23
  -2   4  -2   84.90    2.68
  -2  -4  -2   87.21    2.36
   2   4   2   73.63    1.90
  -2   4  -2   77.06    2.44
   2   4   2   81.31    2.92
   2  -4   2   82.37    2.41
  -2  -4  -1  336.76    6.43
  -2   4  -1  348.62    6.56
  -2  -4  -1  331.52    5.71
   2   4   1  339.94    5.73
  -2   4  -1  340.08    6.17
   2   4   1  348.30    6.37
   2  -4   1  324.63    6.00
  -2  -4   0  748.13    7.58
   2   4   0  718.83    7.10
  -2   4   0  782.58    7.90
  -2   4   0  744.93    7.45
   2  -4   0  713.16    7.26
   2   4   0  782.54    8.15
  -2   4   1  451.44    4.76
  -2  -4   1  487.26    5.06
   2   4  -1  484.06    4.89
   2   4  -1  494.28    4.49
  -2  -4   1  457.30    4.14
   2  -4  -1  470.22    4.91
  -2  -4   1  479.07    5.05
   2  -4  -1  483.17    5.02
  -2   4   1  474.04    4.85
  -2  -4   2  446.26    4.31
  -2  -4   2  467.43    4.55
   2   4  -2  469.87    5.33
  -2  -4   2  450.72    4.52
  -2  -4   2  460.64    4.99
   2  -4  -2  474.21    4.66
  -2   4   2  468.92    4.57
   2   4  -3  560.60    9.30
   2  -4  -3  573.54    9.86
  -2  -4   3  547.18    8.93
   2   4  -3  557.65   10.07
   2  -4  -3  561.34    9.06
  -2   4   3  551.03    8.90
  -2  -4   3  587.80   10.00
   2   4  -4   61.06    1.47
   2  -4  -4   59.62    2.55
  -2  -4   4   61.10    1.48
   2  -4  -4   67.91    2.17
   2   4  -4   67.00    4.46
  -2  -4   4   57.15    1.85
   2   4  -5  224.34    5.61
   2  -4  -5  219.47    5.83
  -2  -4   5  205.76    5.22
   2  -4  -5  209.92    7.48
   2   4  -5  224.04    6.14
  -2  -4   5  214.07    5.62
   2   4  -6  211.76    5.48
   2  -4  -6  212.97    5.91
   2  -4  -6  209.94    8.29
   2   4  -6  220.88    6.69
  -2  -4   6  195.37    5.21
   2  -4  -7   63.81    3.14
   2  -4  -7   72.01    5.08
   2  -4  -8  125.12    7.99
   2  -4  -8  139.56    9.22
   2   4  -8  129.47    9.83
  -2  -5  -6   18.78    3.15
  -2   5  -6   18.46    2.96
  -2  -5  -6   15.65    3.41
  -2   5  -6   18.56    3.79
   2  -5   6   15.36    2.39
  -2  -5  -5   23.58    2.05
  -2   5  -5   22.77    1.85
  -2  -5  -5   26.91    3.03
  -2   5  -5   29.79    2.36
   2   5   5   21.24    3.11
   2  -5   5   21.04    1.62
  -2  -5  -4  207.92    6.30
  -2   5  -4  209.38    6.06
  -2  -5  -4  202.17    6.30
  -2   5  -4  206.79    6.17
   2   5   4  200.87    5.85
   2  -5   4  215.17    6.21
  -2  -5  -3  356.06    9.42
  -2   5  -3  358.08    9.44
  -2  -5  -3  375.80    9.43
  -2   5  -3  340.95    8.91
   2   5   3  359.18    9.53
   2  -5   3  374.18    9.74
  -2  -5  -2  242.83    5.90
  -2   5  -2  239.92    5.66
  -2  -5  -2  242.68    4.92
   2   5   2  217.69    4.49
  -2   5  -2  219.25    4.89
   2   5   2  226.11    5.20
   2  -5   2  238.36    5.34
  -2  -5  -1  441.43    8.01
  -2   5  -1  424.11    7.67
  -2  -5  -1  457.99    7.70
   2   5   1  404.59    6.73
  -2   5  -1  426.56    7.61
   2  -5   1  445.76    8.01
   2   5   0 1189.10   11.15
  -2   5   0 1267.88   12.07
   2  -5   0 1178.20   11.00
   2   5   0 1193.27   11.27
  -2   5   1 1126.10   10.60
  -2  -5   1 1206.28   11.12
   2   5  -1 1195.29   10.89
   2   5  -1 1211.55   10.53
  -2  -5   1 1191.96   10.40
   2  -5  -1 1153.35   10.73
  -2  -5   1 1126.29   10.72
   2  -5  -1 1208.61   11.21
  -2   5   1 1187.49   10.93
  -2  -5   2 1379.27   12.19
  -2  -5   2 1466.32   12.98
   2   5  -2 1408.39   12.68
  -2  -5   2 1360.45   12.24
  -2   5   2 1428.51   13.39
  -2  -5   2 1352.94   12.42
   2  -5  -2 1440.94   12.86
  -2   5   2 1383.55   12.34
   2  -5  -3  126.32    2.93
  -2  -5   3  123.95    2.17
  -2  -5   3  129.87    2.31
   2   5  -3  133.04    3.08
   2  -5  -3  125.84    2.20
  -2   5   3  130.81    2.25
  -2  -5   3  130.96    2.92
   2   5  -4  291.91    5.55
   2  -5  -4  306.60    6.39
  -2  -5   4  293.19    5.58
   2  -5  -4  326.86    6.92
   2   5  -4  294.23    7.57
  -2  -5   4  306.75    6.39
   2   5  -5  140.94    3.58
   2  -5  -5  129.59    4.36
  -2  -5   5  144.43    3.71
   2  -5  -5  138.78    4.52
   2   5  -5  152.66    4.69
  -2  -5   5  147.27    4.12
   2   5  -6  116.45    3.16
   2  -5  -6  101.79    3.25
   2  -5  -6  146.42    9.20
   2   5  -6  136.30    8.83
  -2  -5   6  121.56    3.60
   2  -5  -7    1.47    1.33
   2  -5  -7    4.66    1.39
   2   5  -7    2.91    1.07
   2  -5  -8   74.71    4.98
   2  -5  -8   82.17    7.82
  -2  -6  -6  270.99   12.58
  -2   6  -6  238.46   12.60
  -2  -6  -6  261.99   11.97
  -2   6  -6  264.95   12.30
   2  -6   6  266.84   12.30
  -2  -6  -5  105.70    4.81
  -2   6  -5  100.94    4.76
  -2  -6  -5  100.12    6.61
  -2   6  -5  109.31    4.93
   2  -6   5   94.17    4.20
  -2  -6  -4  151.97    5.12
  -2   6  -4  162.93    5.37
  -2  -6  -4  160.28    4.80
  -2   6  -4  153.54    5.01
   2   6   4  153.64    4.90
   2  -6   4  159.69    5.09
  -2   6  -3  240.53    6.76
  -2  -6  -3  224.44    6.40
  -2   6  -3  227.87    6.39
   2   6   3  238.02    6.93
   2  -6   3  222.60    6.28
  -2  -6  -2  168.66    4.26
  -2   6  -2  182.86    4.36
  -2  -6  -2  182.13    4.07
   2   6   2  167.95    3.26
  -2   6  -2  176.16    3.87
   2   6   2  194.54    4.10
   2  -6   2  184.00    4.06
  -2  -6  -1 1792.59   29.41
  -2   6  -1 1681.78   27.53
  -2  -6  -1 1751.08   28.12
   2   6   1 1743.66   27.96
  -2   6  -1 1821.87   29.77
   2  -6   1 1822.10   29.82
   2  -6   0  264.84    3.47
   2   6   0  256.53    5.07
   2  -6   0  253.57    3.46
   2  -6  -1   65.57    1.54
  -2  -6   1   62.88    1.52
   2   6  -1   62.77    1.53
   2   6  -1   64.49    0.90
  -2  -6   1   59.45    0.92
  -2   6   1   65.03    1.75
   2  -6  -1   54.64    1.40
   2  -6  -1   63.93    1.45
  -2   6   1   63.53    1.31
  -2  -6   2  129.94    1.52
  -2  -6   2  133.92    1.82
   2   6  -2  137.38    1.96
  -2  -6   2  127.71    1.82
  -2   6   2  141.67    2.74
   2  -6  -2  138.48    1.90
  -2   6   2  132.54    1.75
   2  -6  -3  124.59    2.81
  -2  -6   3  119.58    2.01
  -2  -6   3  125.45    2.14
   2   6  -3  123.33    2.67
   2  -6  -3  127.49    2.41
  -2   6   3  122.64    2.16
  -2  -6   3  129.39    3.00
   2  -6  -4    1.43    1.00
  -2  -6   4    3.21    0.44
   2  -6  -4    1.84    0.80
   2   6  -4    3.21    1.12
  -2  -6   4    0.58    1.20
   2   6  -5  599.76   14.33
   2  -6  -5  628.89   15.60
  -2  -6   5  595.48   14.22
   2  -6  -5  617.79   15.50
   2   6  -5  628.11   16.61
  -2  -6   5  628.03   15.45
   2  -6  -6  260.82    7.13
   2  -6  -6  280.80    8.10
   2   6  -6  274.23    7.74
  -2  -6   6  278.85    7.37
   2  -6  -7  182.79    7.30
   2  -6  -7  175.74    9.72
   2   6  -7  176.44    7.56
   2  -6  -8   43.41    2.79
   2  -6  -8   42.67    7.30
  -2  -7  -6    5.46    1.65
  -2   7  -6    3.13    1.18
  -2  -7  -6    2.30    0.79
  -2   7  -6    4.97    1.44
   2  -7   6    6.30    1.52
  -2  -7  -5   54.07    3.81
  -2   7  -5   53.79    3.79
  -2  -7  -5   51.79    4.71
  -2   7  -5   52.28    3.59
   2   7   5   54.61    3.39
   2  -7   5   60.55    3.26
  -2  -7  -4  101.39    4.61
  -2   7  -4   90.53    4.06
  -2  -7  -4  104.35    6.82
  -2   7  -4   93.33    4.21
   2   7   4   90.02    5.65
   2  -7   4   96.97    4.33
  -2   7  -3  521.23   12.93
  -2  -7  -3  519.42   12.48
  -2   7  -3  487.71   12.15
   2   7   3  520.91   12.73
   2  -7   3  503.68   12.59
  -2  -7  -2   18.14    1.48
  -2   7  -2   17.58    1.86
  -2  -7  -2   16.71    1.72
   2   7   2   17.33    0.84
  -2   7  -2   22.74    1.94
   2   7   2   21.35    2.96
   2  -7   2   16.47    1.15
  -2  -7  -1  102.42    3.27
  -2   7  -1   99.63    2.91
   2   7   1   93.97    2.00
  -2   7  -1   88.75    2.57
   2   7   1   97.18    2.77
   2  -7   1   86.37    2.64
   2  -7   0  434.25    7.65
  -2  -7   0  422.50    7.54
   2   7   0  391.22    6.35
   2   7   0  415.15    6.73
   2   7   0  401.71    7.13
   2  -7  -1  564.26    6.20
  -2  -7   1  536.89    5.51
   2   7  -1  514.06    5.22
   2   7  -1  511.17    4.75
  -2  -7   1  523.37    4.86
  -2   7   1  543.85    6.04
   2  -7  -1  544.80    5.70
   2  -7  -2   31.89    3.09
  -2  -7   2   21.19    0.83
   2   7  -2   22.28    0.77
   2   7  -2   25.57    0.95
  -2  -7   2   24.89    1.06
  -2   7   2   24.15    1.83
   2  -7  -2   22.94    0.90
  -2   7   2   25.98    0.92
  -2  -7   2   25.09    1.51
   2  -7  -3  214.89    4.85
   2   7  -3  216.32    4.60
   2  -7  -3  210.33    4.04
  -2  -7   3  231.08    5.18
   2  -7  -4  119.23    2.91
   2   7  -4  107.22    2.73
  -2  -7   4  116.17    3.11
   2   7  -5    7.98    0.51
   2  -7  -5    5.93    1.91
   2  -7  -5   10.22    1.23
   2   7  -5   15.07    1.91
  -2  -7   5    7.71    1.15
   2  -7  -6    2.62    1.30
   2  -7  -6    3.69    1.10
   2   7  -6    5.67    1.62
  -2  -7   6    5.28    1.03
   2  -7  -7    8.58    1.31
   2  -7  -7   15.03    1.91
   2   7  -7   14.82    2.76
   2  -7  -8   66.96    4.01
   2  -7  -8   66.35    4.18
   2   7  -8   61.59    7.56
  -2  -8  -6  270.90   12.72
  -2  -8  -6  249.16   13.28
  -2   8  -6  274.55   12.74
   2  -8   6  249.13   13.14
  -2  -8  -5  259.25   11.18
  -2   8  -5  272.33   11.54
  -2  -8  -5  278.52   11.78
  -2   8  -5  275.11   11.77
   2   8   5  267.02   11.47
   2  -8   5  261.90   11.22
  -2  -8  -4  216.18    8.41
  -2   8  -4  211.25    8.02
  -2  -8  -4  209.56    8.19
  -2   8  -4  212.29    8.14
   2   8   4  203.67    8.15
   2  -8   4  218.40    8.35
  -2  -8  -3  549.11   13.76
  -2   8  -3  545.23   13.43
  -2  -8  -3  531.10   13.71
  -2   8  -3  505.15   12.58
   2   8   3  530.00   13.06
   2  -8   3  516.74   12.91
  -2  -8  -2  188.57    4.34
  -2   8  -2  200.57    4.45
  -2  -8  -2  193.57    3.65
  -2   8  -2  184.79    4.15
   2   8   2  197.45    4.13
   2  -8   2  194.32    4.37
  -2  -8  -1  358.59    7.66
  -2   8  -1  355.85    7.53
   2   8   1  342.52    6.54
  -2   8  -1  362.69    7.69
   2   8   1  349.14    7.25
   2  -8   1  367.91    7.75
   2  -8   0   44.14    3.94
  -2  -8   0   42.80    1.86
   2   8   0   38.00    1.25
   2   8   0   28.07    0.70
  -2   8   0   32.60    1.90
   2  -8  -1  648.20   11.06
  -2  -8   1  613.23   10.29
   2   8  -1  604.91   10.11
   2   8  -1  604.55    9.87
  -2  -8   1  601.09    9.83
  -2   8   1  647.27   11.18
   2  -8  -1  626.48   10.60
  -2   8   1  558.79    9.45
   2  -8  -2   48.87    2.90
  -2  -8   2   44.35    1.18
   2   8  -2   46.78    1.15
   2   8  -2   45.55    1.30
  -2  -8   2   42.61    1.28
  -2   8   2   46.84    2.13
   2  -8  -2   47.20    1.31
  -2   8   2   46.81    1.31
  -2  -8   2   47.42    2.12
   2  -8  -3  157.22    3.68
   2   8  -3  158.16    3.62
   2  -8  -3  162.71    3.24
  -2  -8   3  176.89    4.28
  -2   8   3  154.27    3.09
   2  -8  -4   32.56    1.39
   2   8  -4   41.74    1.68
  -2  -8   4   39.08    2.09
   2  -8  -5  441.04   11.05
   2  -8  -5  489.02   12.31
   2   8  -5  448.82   11.33
  -2  -8   5  483.72   11.98
   2  -8  -6    1.58    1.14
   2  -8  -6    9.82    1.29
   2   8  -6   12.30    1.57
  -2  -8   6    7.00    1.05
   2  -8  -7  150.70    6.27
   2  -8  -7  157.15    6.57
   2   8  -7  136.35    5.83
  -2  -8   7  136.72    5.52
   2  -8  -8   23.08    2.82
   2  -8  -8   29.33    3.62
   2   8  -8   24.54    4.10
  -2  -9  -6    3.46    1.31
  -2   9  -6    3.71    2.10
   2  -9   6    4.34    1.41
  -2  -9  -5   12.79    1.91
  -2   9  -5    8.99    1.37
  -2  -9  -5    9.82    2.32
  -2   9  -5    7.99    1.43
   2   9   5    6.51    0.99
   2  -9   5   17.47    2.26
  -2  -9  -4   62.15    3.06
  -2   9  -4   61.42    3.28
  -2  -9  -4   54.99    4.05
  -2   9  -4   65.00    3.36
   2   9   4   61.37    4.74
   2  -9   4   56.74    3.00
  -2  -9  -3  236.08    6.81
  -2   9  -3  239.55    6.47
  -2  -9  -3  248.12    6.32
  -2   9  -3  225.89    6.34
   2   9   3  233.69    6.69
   2  -9   3  220.69    6.13
  -2  -9  -2   56.63    2.74
  -2   9  -2   51.45    2.33
   2   9   2   44.17    1.31
  -2   9  -2   50.15    2.35
   2   9   2   52.61    1.82
   2  -9   2   52.82    2.13
  -2  -9  -1  316.37    6.87
  -2   9  -1  309.30    6.64
   2   9   1  296.60    5.77
  -2   9  -1  304.11    6.71
   2   9   1  296.15    5.79
   2   9   1  307.69    6.43
   2  -9   1  324.38    6.95
  -2  -9   0  763.12   12.97
   2   9   0  785.44   12.69
   2   9   0  800.50   12.97
   2  -9   0  767.79   13.06
   2  -9  -1  191.17    4.11
  -2  -9   1  191.36    3.73
   2   9  -1  162.90    3.20
   2   9  -1  162.00    2.93
  -2  -9   1  171.03    3.14
  -2   9   1  176.51    3.97
   2  -9  -1  183.83    3.66
   2  -9  -2 1265.79   20.98
  -2  -9   2 1203.97   19.43
   2   9  -2 1227.41   19.77
   2   9  -2 1208.31   19.71
  -2  -9   2 1182.28   19.32
  -2   9   2 1253.06   20.86
   2  -9  -2 1206.18   19.67
  -2   9   2 1170.47   19.06
   2  -9  -3  180.24    4.15
   2   9  -3  166.40    3.81
  -2   9   3  177.53    4.62
   2  -9  -3  177.06    3.55
  -2   9   3  174.07    3.50
  -2  -9   3  184.81    4.72
   2  -9  -4  548.15   10.93
   2   9  -4  539.88   10.68
  -2  -9   4  547.21   10.86
   2  -9  -5  725.36   17.66
   2   9  -5  764.83   18.56
  -2  -9   5  737.83   17.81
   2  -9  -6   79.08    3.49
   2  -9  -6   89.23    4.00
   2   9  -6   86.77    5.92
  -2  -9   6   79.68    3.56
   2  -9  -7   36.33    3.26
   2  -9  -7   44.51    2.89
   2   9  -7   37.99    6.22
  -2  -9   7   42.91    3.72
   2  -9  -8    9.21    1.36
   2  -9  -8   11.79    1.83
  -2 -10  -5  183.21    8.39
  -2  10  -5  163.46    7.34
  -2 -10  -5  180.17    7.84
  -2  10  -5  153.81    6.98
   2  10   5  167.05    7.18
   2 -10   5  174.64    7.77
  -2 -10  -4   28.69    2.53
  -2  10  -4   27.77    2.05
  -2 -10  -4   31.24    1.82
  -2  10  -4   28.41    2.37
   2  10   4   27.12    1.67
   2 -10   4   27.59    1.84
  -2 -10  -3   12.07    1.56
  -2  10  -3   15.70    1.77
  -2  10  -3   15.85    1.96
   2  10   3   18.64    1.51
   2 -10   3   19.02    1.78
  -2 -10  -2   96.46    3.41
  -2  10  -2   88.05    2.74
   2  10   2   77.69    1.95
  -2  10  -2   90.84    2.85
   2  10   2   93.65    2.70
   2 -10   2   89.30    2.74
  -2 -10  -1  839.22   14.60
  -2  10  -1  848.08   14.67
   2  10   1  766.92   12.73
  -2  10  -1  857.30   15.10
   2  10   1  818.61   13.59
   2 -10   1  843.57   14.72
   2 -10   0  437.34    8.86
  -2 -10   0  427.39    8.62
   2  10   0  435.04    8.18
   2  10   0  419.79    7.97
  -2  10   0  424.72    9.09
   2 -10   0  430.77    8.73
   2 -10  -1  304.23    6.38
  -2 -10   1  284.78    5.78
   2  10  -1  273.65    5.52
   2  10  -1  277.22    5.43
  -2  10   1  297.45    6.70
  -2 -10   1  282.83    5.53
   2 -10  -1  292.07    6.02
  -2 -10   1  268.98    5.90
   2 -10  -2  386.16    8.49
  -2 -10   2  379.28    7.25
   2  10  -2  386.79    7.37
   2  10  -2  380.96    7.50
  -2 -10   2  372.51    7.36
  -2  10   2  393.55    8.28
   2 -10  -2  377.48    7.42
  -2  10   2  370.40    7.26
  -2 -10   2  401.42    8.42
   2  10  -3  119.47    2.75
  -2  10   3  131.96    3.59
   2 -10  -3  133.95    2.59
  -2 -10   3  145.54    3.94
  -2  10   3  128.15    2.50
   2 -10  -4   79.23    2.93
   2  10  -4  103.24    3.07
  -2 -10   4   84.75    2.77
   2 -10  -5  151.18    6.11
   2  10  -5  163.12    5.44
  -2 -10   5  156.30    5.42
   2 -10  -6  102.26    4.35
   2  10  -6   95.13    4.09
  -2 -10   6  103.11    4.33
   2 -10  -7   97.82    4.79
   2  10  -7   92.21    6.54
  -2 -10   7  105.86    4.97
  -2 -11  -5    4.60    1.33
  -2  11  -5    6.46    1.13
  -2 -11  -5    9.92    1.23
  -2  11  -5    9.51    1.59
   2  11   5    8.15    0.94
   2 -11   5    7.75    1.36
  -2 -11  -4   16.43    1.72
  -2  11  -4   14.39    1.54
  -2  11  -4    9.67    1.34
   2  11   4   12.26    1.04
   2 -11   4    9.20    1.29
  -2 -11  -3  220.58    7.18
  -2  11  -3  211.48    6.55
  -2  11  -3  201.49    6.46
   2  11   3  215.84    6.52
   2 -11   3  198.25    6.42
  -2 -11  -2    7.81    1.31
  -2  11  -2    5.86    0.84
   2  11   2    5.39    0.54
  -2  11  -2    7.28    1.46
   2 -11   2   11.51    1.66
  -2 -11  -1 1012.94   17.43
  -2  11  -1 1064.04   18.13
   2  11   1  943.02   15.55
  -2  11  -1 1034.87   19.42
   2  11   1 1042.35   17.24
   2 -11   1 1028.37   17.69
   2 -11   0  167.01    4.25
  -2 -11   0  160.04    3.91
   2  11   0  154.74    3.27
  -2  11   0  153.32    4.03
   2 -11   0  156.15    3.92
   2 -11  -1  155.42    3.75
  -2 -11   1  146.97    3.39
   2  11  -1  125.93    2.95
   2  11  -1  134.92    2.92
  -2  11   1  139.29    3.76
  -2 -11   1  141.11    3.07
   2 -11  -1  143.59    3.46
  -2 -11   1  150.07    4.02
   2 -11  -2   75.25    2.55
  -2 -11   2   81.54    1.94
   2  11  -2   86.62    2.00
   2  11  -2   89.58    2.39
  -2 -11   2   69.37    1.90
  -2  11   2   94.18    3.02
   2 -11  -2   81.03    2.10
  -2  11   2   83.28    2.07
  -2 -11   2   88.98    3.27
   2 -11  -3  355.50    6.87
   2  11  -3  340.82    6.33
  -2  11   3  364.92    7.35
   2 -11  -3  355.17    6.17
  -2 -11   3  360.32    7.12
  -2  11   3  341.15    5.96
   2 -11  -4  602.31   15.16
   2  11  -4  608.65   15.17
   2 -11  -4  563.43   13.38
   2 -11  -4  587.33   13.94
  -2 -11   4  628.94   15.79
   2 -11  -5  989.70   27.46
   2  11  -5 1015.64   25.27
  -2 -11   5 1004.23   24.97
   2 -11  -6   73.00    3.11
   2  11  -6   70.02    3.07
  -2 -11   6   77.17    3.17
   2 -11  -7   37.35    2.52
   2  11  -7   37.00    3.63
  -2 -11   7   36.45    2.45
  -2 -12  -5   71.60    3.39
  -2  12  -5   80.64    3.44
  -2  12  -5   70.79    3.21
   2 -12   5   75.48    3.39
  -2  12  -4   29.32    1.94
  -2  12  -4   29.52    2.31
   2 -12   4   24.02    1.73
  -2 -12  -3   30.59    2.47
  -2  12  -3   26.78    1.88
  -2  12  -3   26.73    2.08
   2 -12   3   30.76    2.12
  -2 -12  -2  352.52    9.50
  -2  12  -2  358.69    9.36
  -2  12  -2  361.34    9.68
   2  12   2  347.31    8.70
   2 -12   2  352.61    9.39
  -2 -12  -1  137.36    3.70
   2  12   1  128.53    2.76
  -2  12  -1  127.95    4.07
   2  12   1  134.45    3.05
   2 -12   0  262.55    5.26
  -2 -12   0  263.90    5.32
  -2  12   0  261.04    5.49
   2  12   0  259.03    4.72
   2 -12   0  260.53    5.29
   2 -12  -1    3.95    0.89
  -2 -12   1    2.42    0.81
   2  12  -1    4.08    1.07
   2  12  -1    1.34    0.62
  -2  12   1   -0.98    1.70
  -2 -12   1    3.46    0.87
   2 -12  -1    2.60    1.19
  -2 -12   1    1.37    2.46
   2 -12  -2   68.01    2.92
  -2 -12   2   76.09    1.67
   2  12  -2   72.96    1.63
   2  12  -2   68.68    1.95
  -2  12   2   84.88    3.65
   2 -12  -2   80.35    2.04
  -2 -12   2   82.89    3.27
   2 -12  -3   83.49    2.58
   2  12  -3   84.73    2.36
  -2  12   3   80.05    2.81
   2 -12  -3   86.43    2.10
  -2 -12   3   81.65    2.90
  -2  12   3   80.33    2.09
   2 -12  -4  543.35   13.79
   2  12  -4  508.19   12.81
   2 -12  -4  497.52   11.88
   2 -12  -4  517.04   12.35
  -2 -12   4  532.65   13.57
   2 -12  -5   42.12    2.41
   2  12  -5   44.85    2.16
  -2 -12   5   43.49    2.41
   2 -12  -6   26.45    1.75
   2  12  -6   25.83    1.64
  -2 -12   6   26.67    1.69
   2 -12  -7   21.65    1.96
   2  12  -7   29.75    4.66
  -2 -12   7   32.63    2.35
  -2 -13  -5   10.76    2.28
  -2  13  -5    3.68    1.21
   2 -13   5    7.11    1.60
  -2 -13  -4    0.91    1.11
  -2  13  -4    3.90    1.40
  -2  13  -4    5.97    1.73
   2 -13   4    5.18    1.05
  -2 -13  -3   36.27    2.40
  -2  13  -3   37.17    2.42
  -2  13  -3   32.95    2.48
   2 -13   3   36.08    2.34
  -2 -13  -2  198.45    5.89
  -2  13  -2  196.15    5.45
  -2  13  -2  199.44    6.81
   2  13   2  201.32    5.28
   2 -13   2  192.63    5.62
   2 -13   1  470.50    9.47
  -2 -13  -1  441.18    9.16
   2  13   1  413.17    7.87
  -2  13  -1  455.17    9.63
   2  13   1  479.71    9.25
   2 -13   0  239.57    5.60
  -2 -13   0  233.89    4.84
  -2  13   0  232.20    5.23
   2  13   0  217.61    4.16
   2 -13   0  241.43    5.10
  -2 -13   0  243.25    5.55
   2 -13  -1  152.59    5.27
  -2 -13   1  142.66    3.14
   2  13  -1  170.91    3.46
  -2  13   1  174.90    4.33
  -2 -13   1  136.83    2.82
   2 -13  -1  148.71    3.41
  -2 -13   1  156.37    4.11
   2 -13  -2  244.31    5.58
  -2 -13   2  225.37    4.08
   2  13  -2  207.40    3.82
   2  13  -2  207.97    4.10
  -2  13   2  228.74    5.37
   2 -13  -2  237.29    4.76
  -2 -13   2  232.91    5.29
   2 -13  -3   11.72    1.10
   2  13  -3    8.47    1.02
  -2  13   3   13.28    1.58
   2 -13  -3   12.77    0.86
  -2 -13   3   15.09    1.80
  -2  13   3    9.56    0.68
   2 -13  -4  401.54   10.27
   2  13  -4  381.48    9.65
   2 -13  -4  347.62    8.19
   2 -13  -4  377.29    8.91
  -2 -13   4  394.70   10.19
   2 -13  -5  142.57    5.84
   2  13  -5  139.33    5.56
  -2 -13   5  136.16    5.70
   2 -13  -6    5.64    1.52
   2  13  -6    3.46    0.91
  -2 -13   6    7.37    1.41
   2 -13  -7   20.64    2.59
   2  13  -7   25.52    3.99
  -2 -13   7   23.00    2.95
  -2 -14  -5   74.15    5.44
  -2  14  -5   77.30    5.40
   2 -14   5   72.23    5.19
  -2 -14  -4   34.22    2.84
  -2  14  -4   31.27    2.43
  -2  14  -4   40.68    3.17
   2 -14   4   38.80    2.88
  -2 -14  -3   46.63    2.82
  -2  14  -3   37.96    2.45
  -2  14  -3   34.81    2.33
   2  14   3   41.02    2.19
   2 -14   3   42.99    2.77
  -2 -14  -2  623.10   17.73
  -2  14  -2  635.34   17.87
  -2  14  -2  589.19   16.83
   2  14   2  605.84   16.75
   2 -14   2  637.70   18.15
   2 -14   1  525.56   13.17
  -2 -14  -1  519.95   13.25
   2  14   1  437.32   10.66
  -2  14  -1  478.60   12.36
   2  14   1  509.24   12.50
   2 -14   0  634.13   12.49
  -2 -14   0  598.77   11.74
  -2  14   0  597.66   12.24
   2  14   0  567.87   10.83
   2 -14   0  597.74   11.95
  -2 -14   0  627.81   12.60
   2 -14  -1    7.64    1.46
  -2 -14   1    7.89    0.83
   2  14  -1    7.29    0.94
  -2  14   1    7.20    1.77
  -2 -14   1    7.35    0.69
   2 -14  -1    6.96    1.15
  -2 -14   1    7.15    1.38
   2 -14  -2   56.11    3.64
  -2 -14   2   60.90    1.67
   2  14  -2   62.16    1.76
   2  14  -2   57.96    1.98
  -2  14   2   59.86    3.18
   2 -14  -2   67.26    2.33
  -2 -14   2   64.03    2.79
   2 -14  -3   17.13    1.27
   2  14  -3   20.47    1.30
   2 -14  -3   22.77    1.20
  -2 -14   3   23.34    2.30
  -2  14   3   18.43    1.04
   2  14  -4   10.81    1.40
  -2  14   4    8.89    1.75
   2 -14  -4    7.63    0.65
  -2 -14   4    8.57    1.84
   2 -14  -5   18.42    1.82
   2  14  -5   22.47    1.85
  -2  14   5   20.00    1.97
  -2 -14   5   12.42    1.54
   2 -14  -6  123.90    5.50
   2  14  -6  112.38    5.04
  -2 -14   6  127.03    5.55
   2 -14  -7    6.53    1.53
   2  14  -7    4.10    1.12
  -2 -14   7    5.47    1.49
  -2  15  -5   27.85    3.50
   2 -15   5   32.41    2.79
  -2 -15  -4    3.16    1.26
  -2  15  -4    2.11    1.33
  -2  15  -4    4.37    1.35
   2  15   4    4.05    1.06
  -2 -15  -3    3.56    1.24
  -2  15  -3    5.09    1.47
  -2  15  -3    4.66    1.30
   2  15   3    2.23    0.86
   2 -15   3    6.77    2.28
  -2 -15  -2  330.97    9.89
  -2  15  -2  352.09   10.37
  -2  15  -2  338.01   10.36
   2  15   2  319.31    9.14
   2 -15   2  291.60    9.18
   2 -15   1  309.94    7.99
  -2 -15  -1  294.22    7.82
  -2  15  -1  314.28    8.59
   2  15   1  316.86    7.83
   2 -15   1  320.68    8.49
  -2 -15  -1  305.24    8.20
   2 -15   0  541.24   11.15
  -2 -15   0  514.89   10.26
  -2  15   0  513.66   10.82
   2  15   0  509.18    9.93
   2 -15   0  522.84   10.65
  -2 -15   0  536.03   11.08
   2 -15  -1  251.07    6.53
  -2 -15   1  218.57    4.68
   2  15  -1  255.39    5.40
  -2  15   1  246.03    5.98
   2 -15  -1  239.25    5.49
   2 -15  -2  287.81    6.47
  -2 -15   2  266.11    5.26
   2  15  -2  250.72    5.08
   2  15  -2  254.42    5.46
  -2  15   2  268.57    6.39
   2 -15  -2  267.08    5.66
  -2 -15   2  286.45    6.95
   2 -15  -3   71.34    2.70
   2  15  -3   66.04    1.62
   2  15  -3   67.69    2.65
   2 -15  -3   68.62    2.34
  -2 -15   3   69.74    3.23
   2 -15  -4  680.47   19.27
   2  15  -4  630.96   17.78
  -2  15   4  638.68   18.19
   2 -15  -4  612.97   16.72
  -2 -15   4  700.90   20.01
   2 -15  -5   83.84    3.81
   2  15  -5   84.54    3.86
  -2  15   5   88.72    4.54
  -2 -15   5   86.50    3.93
   2 -15  -6   65.23    3.65
   2  15  -6   59.41    3.51
  -2 -15   6   59.52    3.56
   2 -15  -7   10.55    1.88
   2  15  -7   14.21    2.38
  -2 -15   7   11.31    1.75
  -2 -16  -5   73.84    4.55
  -2  16  -5   67.49    4.22
   2 -16   5   58.42    3.64
  -2  16  -4   55.31    3.04
  -2  16  -4   66.11    3.94
   2  16   4   49.18    2.66
   2 -16   4   60.86    3.55
  -2 -16  -3   46.14    3.00
  -2  16  -3   43.75    2.31
  -2  16  -3   47.96    2.99
   2 -16   3   53.64    2.92
  -2 -16  -2   69.56    3.43
  -2  16  -2   65.90    2.90
  -2  16  -2   56.43    2.90
   2  16   2   64.39    2.31
   2 -16   2   70.33    2.99
  -2 -16  -2   70.69    3.00
   2 -16   1   50.12    2.29
  -2 -16  -1   52.57    2.82
  -2  16  -1   45.90    2.95
   2  16   1   57.25    2.17
   2 -16   1   49.78    2.68
  -2 -16  -1   50.83    3.01
   2 -16   0  290.52    9.03
  -2 -16   0  280.64    7.39
  -2  16   0  252.91    7.57
   2  16   0  287.03    7.45
   2 -16   0  286.65    7.86
  -2 -16   0  321.28    8.92
   2 -16  -1   13.27    1.94
  -2 -16   1   16.39    1.13
   2  16  -1    7.71    1.35
  -2  16   1   20.15    2.05
   2 -16  -1   12.18    1.52
   2 -16  -2   43.35    3.82
  -2 -16   2   49.13    1.67
   2  16  -2   45.88    1.77
   2  16  -2   47.16    2.10
   2 -16  -2   48.22    2.14
  -2 -16   2   51.32    3.05
  -2 -16   3    1.94    0.33
   2 -16  -3    0.58    1.30
   2  16  -3    1.77    0.44
   2  16  -3    5.52    1.66
  -2  16   3    1.35    1.55
   2 -16  -3    5.48    1.31
  -2 -16   3    8.21    3.04
   2 -16  -4   62.91    3.34
   2  16  -4   66.24    2.81
  -2  16   4   83.49    4.04
   2 -16  -4   68.56    2.15
  -2 -16   4   63.87    3.01
   2 -16  -5  117.78    4.41
   2  16  -5  107.42    4.00
  -2  16   5   99.00    4.09
  -2 -16   5  100.54    4.04
   2 -16  -6  111.29    5.47
   2  16  -6  101.82    4.95
  -2  16   6   99.66    5.32
  -2 -16   6  110.14    5.42
   2 -16  -7   20.69    1.95
   2  16  -7   25.46    2.46
  -2 -16   7   23.27    2.15
  -2 -17  -4   39.90    2.80
  -2  17  -4   35.97    2.64
   2 -17   4   38.31    2.58
  -2 -17  -4   37.93    2.47
  -2 -17  -3   18.60    1.90
  -2  17  -3   21.69    1.80
  -2  17  -3   17.58    2.36
   2  17   3   21.88    1.65
   2 -17   3   16.70    1.80
  -2 -17  -3   23.32    2.14
  -2 -17  -2   59.27    3.16
  -2  17  -2   59.53    3.02
  -2  17  -2   61.78    3.29
   2  17   2   63.14    2.82
   2 -17   2   61.26    3.36
  -2 -17  -2   67.51    3.42
   2 -17   1  257.47    7.80
  -2 -17  -1  230.47    7.27
  -2  17  -1  248.11    7.93
   2  17   1  245.68    7.20
   2 -17   1  231.76    7.26
  -2 -17  -1  250.31    7.95
   2 -17   0  595.02   14.73
  -2 -17   0  571.50   13.97
   2  17   0  596.27   14.31
  -2  17   0  622.80   15.74
   2 -17   0  582.95   14.35
  -2 -17   0  637.29   15.95
   2 -17  -1  705.38   17.19
  -2 -17   1  644.41   15.40
   2  17  -1  687.58   16.47
  -2  17   1  675.42   16.73
   2 -17  -1  670.53   16.30
   2 -17  -2  114.14    5.26
  -2 -17   2  125.21    3.36
   2  17  -2  104.01    2.97
   2  17  -2  112.73    3.40
   2 -17  -2  116.53    3.57
  -2 -17   2  133.85    5.10
   2 -17  -3  470.99   13.59
   2  17  -3  436.28   12.47
  -2  17   3  439.94   12.92
   2 -17  -3  469.06   13.12
  -2 -17   3  450.69   13.42
   2 -17  -4  158.63    6.51
   2  17  -4  147.83    5.92
  -2  17   4  149.46    6.45
   2 -17  -4  134.59    4.96
  -2 -17   4  148.81    6.41
   2 -17  -5    5.82    1.72
   2  17  -5    6.52    1.60
  -2  17   5    9.80    2.51
  -2 -17   5    3.95    1.55
   2 -17  -6   25.58    2.21
   2  17  -6   30.03    2.56
  -2  17   6   27.22    2.85
  -2 -17   6   23.91    2.09
  -2 -18  -4   36.93    3.25
  -2  18  -4   29.20    3.58
   2 -18   4   29.23    3.71
  -2 -18  -4   33.44    4.27
  -2 -18  -3   66.37    3.83
  -2  18  -3   64.66    3.06
  -2  18  -3   69.57    3.90
   2  18   3   70.45    3.27
   2 -18   3   73.81    3.71
  -2 -18  -3   72.10    3.51
  -2 -18  -2  193.56    7.41
  -2  18  -2  204.55    7.75
  -2  18  -2  205.72    7.99
   2  18   2  204.48    7.39
   2 -18   2  193.24    7.42
  -2 -18  -2  197.62    7.47
   2 -18   1  243.19    6.73
  -2 -18  -1  227.28    6.55
  -2  18  -1  206.13    6.44
   2  18   1  244.40    6.62
   2 -18   1  247.70    7.22
  -2 -18  -1  241.31    7.18
   2 -18   0   85.91    3.19
  -2 -18   0   84.48    3.06
   2  18   0  103.38    3.59
  -2  18   0  101.08    4.10
   2 -18   0   88.26    4.09
  -2 -18   0  108.91    4.70
   2 -18  -1   79.95    3.06
  -2 -18   1  109.00    3.64
   2  18  -1   78.93    2.92
   2 -18  -1   91.84    3.51
  -2 -18   1  114.24    4.49
   2 -18  -2   39.98    3.18
  -2 -18   2   32.98    1.36
   2  18  -2   35.16    1.92
  -2  18   2   35.86    2.44
   2 -18  -2   37.55    2.02
  -2 -18   2   34.37    2.87
   2 -18  -3   57.38    3.14
   2  18  -3   59.78    2.80
  -2  18   3   62.93    3.20
   2 -18  -3   54.03    2.07
  -2 -18   3   69.60    3.49
   2 -18  -4   95.88    4.54
   2  18  -4   80.35    3.62
  -2  18   4  102.09    4.80
   2 -18  -4   88.82    3.35
  -2 -18   4   87.65    4.19
   2  18  -5  115.23    5.14
  -2  18   5  107.16    5.12
  -2 -18   5  109.66    5.24
   2 -18  -6  115.79    7.53
   2  18  -6  118.71    7.52
  -2  18   6  118.48    7.84
  -2 -18   6  131.15    8.39
  -2 -19  -4    2.61    1.19
  -2  19  -4    2.44    1.60
   2 -19   4    3.03    1.38
  -2 -19  -4    6.60    1.88
  -2 -19  -3    9.06    1.83
  -2  19  -3    9.21    1.36
  -2  19  -3   10.54    1.89
   2 -19   3    8.03    1.87
  -2 -19  -2   37.16    2.12
  -2  19  -2   36.84    1.93
  -2  19  -2   26.99    2.24
   2  19   2   38.49    1.85
  -2 -19  -2   41.85    2.68
   2 -19   1   98.83    4.35
  -2 -19  -1  101.48    4.35
  -2  19  -1   93.97    4.54
   2  19   1   88.58    3.67
   2 -19   1  113.82    5.05
  -2 -19  -1  107.76    4.89
   2 -19   0   67.92    4.01
  -2 -19   0   65.85    2.55
   2  19   0   72.33    2.75
  -2  19   0   73.31    3.93
   2 -19   0   71.05    2.93
  -2 -19   0   74.97    3.28
   2 -19  -1 1026.33   35.84
  -2 -19   1  929.25   22.85
   2  19  -1 1005.69   24.77
   2 -19  -1  983.55   24.46
  -2 -19   1 1033.03   36.26
   2 -19  -2  126.36    6.30
  -2 -19   2  130.89    3.64
   2  19  -2  130.91    4.02
  -2  19   2  121.95    4.64
   2 -19  -2  131.01    4.03
  -2 -19   2  138.20    5.24
   2 -19  -3  414.35   15.14
   2  19  -3  387.90   14.01
  -2  19   3  398.86   14.74
   2 -19  -3  413.77   14.70
  -2 -19   3  426.39   15.71
   2 -19  -4    1.73    1.09
   2  19  -4    5.50    1.08
  -2  19   4    8.57    2.66
  -2 -19   4   10.30    2.49
   2 -19  -5   24.84    2.67
   2  19  -5   14.97    2.16
  -2  19   5   20.07    2.84
  -2 -19   5   20.06    2.45
   2 -19  -6   22.81    3.28
   2  19  -6   26.34    3.86
  -2  19   6   24.33    3.59
  -2 -19   6   22.03    3.41
  -2 -20  -4  118.58    6.84
  -2  20  -4  133.08    7.69
   2 -20   4  107.83    6.45
  -2 -20  -3  131.64    5.11
  -2  20  -3  113.46    3.93
  -2 -20  -3  109.48    4.03
  -2 -20  -2  187.44    8.02
  -2  20  -2  209.99    8.64
  -2  20  -2  199.12    8.72
  -2 -20  -2  207.52    8.84
   2 -20   1   50.89    2.48
  -2 -20  -1   49.26    2.74
  -2  20  -1   51.28    3.29
   2  20   1   58.20    2.79
   2 -20   1   52.90    3.73
  -2 -20  -1   63.34    3.57
   2 -20   0   80.26    5.14
  -2 -20   0   69.12    3.19
   2  20   0   69.61    3.31
  -2  20   0   67.57    3.56
   2 -20   0   65.75    3.34
  -2 -20   0   68.21    3.76
   2 -20  -1   26.99    5.42
  -2 -20   1   34.39    1.89
   2  20  -1   28.59    1.84
  -2  20   1   31.87    2.86
   2 -20  -1   19.60    1.97
  -2 -20   1   40.13    2.87
   2 -20  -2   45.04    4.38
  -2 -20   2   41.23    1.89
   2  20  -2   35.39    2.00
  -2  20   2   42.59    2.82
   2 -20  -2   39.14    2.19
  -2 -20   2   45.58    3.46
   2 -20  -3   25.75    2.20
   2  20  -3   25.78    1.87
  -2  20   3   29.64    2.60
   2 -20  -3   17.65    1.22
  -2 -20   3   32.78    3.24
   2 -20  -4   33.75    2.41
   2  20  -4   35.99    2.34
  -2  20   4   34.23    3.12
  -2 -20   4   33.64    2.67
   2 -20  -5   62.36    2.99
   2  20  -5   55.53    2.60
  -2  20   5   65.02    3.59
  -2 -20   5   59.52    3.44
   2 -20  -6   71.33    4.44
   2  20  -6   70.41    4.59
  -2  20   6   67.03    4.78
  -2 -20   6   63.94    4.37
  -2  21  -3   46.42    4.14
   2 -21   3   51.84    4.17
  -2 -21  -2   20.71    2.39
  -2  21  -2   12.15    1.54
  -2  21  -2   18.25    2.05
  -2 -21  -2   20.88    2.32
   2 -21   1   17.70    1.37
  -2 -21  -1   14.63    1.28
   2  21   1   11.45    1.02
   2 -21   1   16.25    1.77
  -2 -21  -1   14.09    1.69
   2 -21   0   52.88    4.50
  -2 -21   0   46.45    2.43
   2  21   0   47.23    2.41
   2 -21   0   53.65    3.02
  -2 -21   0   54.38    3.16
   2 -21  -1   27.17    3.64
  -2 -21   1   26.52    1.73
   2  21  -1   21.54    1.63
  -2  21   1   29.29    3.07
   2 -21  -1   29.16    2.15
  -2 -21   1   27.79    2.88
   2 -21  -2  105.40    4.47
  -2 -21   2  108.55    4.06
   2  21  -2   90.64    3.80
  -2  21   2   94.54    4.48
   2 -21  -2  102.88    4.20
  -2 -21   2   98.68    4.75
   2 -21  -3   51.79    7.15
   2  21  -3   42.23    2.27
  -2  21   3   44.66    2.75
   2 -21  -3   39.34    1.82
  -2 -21   3   44.90    3.24
   2 -21  -4   38.22    3.13
   2  21  -4   33.78    2.70
  -2  21   4   50.21    4.30
  -2 -21   4   39.18    3.74
   2 -21  -5   59.60    4.28
   2  21  -5   59.90    4.16
  -2  21   5   70.58    5.38
  -2 -21   5   55.51    4.31
  -2 -22  -3   54.14    4.11
  -2  22  -3   55.46    4.38
   2 -22   3   46.72    3.72
  -2 -22  -3   59.24    4.18
  -2 -22  -2  171.76    7.76
  -2  22  -2  163.31    7.32
  -2  22  -2  179.80    8.34
   2 -22   2  161.16    7.51
  -2 -22  -2  161.09    7.30
   2 -22   1   78.50    5.63
  -2 -22  -1   85.43    4.07
   2  22   1   89.50    4.11
   2 -22   1   84.90    4.36
  -2 -22  -1   96.60    5.08
   2 -22   0   59.83    4.69
  -2 -22   0   55.46    2.51
  -2  22   0   60.19    3.79
   2  22   0   59.01    2.49
   2 -22   0   59.93    2.94
  -2 -22   0   53.47    2.86
   2 -22  -1   40.30    5.30
  -2 -22   1   40.01    2.09
   2  22  -1   43.78    2.10
  -2  22   1   40.85    2.65
   2 -22  -1   44.85    2.45
  -2 -22   1   35.80    2.52
   2 -22  -2    9.21    1.68
   2  22  -2   11.78    1.27
  -2  22   2   10.08    1.83
   2 -22  -2   11.18    1.21
   2 -22  -3   57.04    5.40
   2  22  -3   53.38    2.83
  -2  22   3   46.20    3.47
   2 -22  -3   55.47    2.92
  -2 -22   3   57.47    3.49
   2 -22  -4   72.49    4.11
   2  22  -4   70.32    3.81
  -2  22   4   67.80    4.41
  -2 -22   4   73.54    4.64
   2 -22  -5   41.51    3.82
   2  22  -5   46.28    3.61
  -2  22   5   55.35    4.72
  -2 -22   5   41.53    3.43
  -2 -23  -3   48.32    3.41
  -2  23  -3   57.42    4.33
   2 -23   3   51.98    4.09
  -2 -23  -3   46.20    3.34
  -2 -23  -2   27.26    2.28
  -2  23  -2   36.42    2.56
  -2  23  -2   33.91    2.64
   2 -23   2   34.16    2.58
  -2 -23  -2   34.01    2.62
   2 -23   1   29.31    2.83
  -2 -23  -1   29.37    2.91
   2 -23   1   32.46    3.17
  -2 -23  -1   37.67    3.97
   2 -23   0   61.58    7.40
  -2 -23   0   68.82    3.35
   2  23   0   68.85    3.49
  -2  23   0   69.27    4.09
   2 -23   0   70.18    3.83
  -2 -23   0   62.22    3.65
   2 -23  -1  103.66    6.96
  -2 -23   1  112.19    4.88
   2  23  -1  117.04    5.12
  -2  23   1  128.73    6.45
   2 -23  -1  114.11    5.32
  -2 -23   1  124.02    6.23
   2 -23  -2  138.92    6.26
   2  23  -2  143.40    6.20
  -2  23   2  141.62    6.58
   2 -23  -2  154.44    6.75
   2 -23  -3   10.93    1.97
   2  23  -3   12.82    1.67
  -2  23   3   10.94    2.23
   2 -23  -3   14.87    1.76
  -2 -23   3   19.65    2.70
   2 -23  -4  124.09    4.62
   2  23  -4  128.24    4.75
  -2  23   4  125.13    5.26
  -2 -23   4  126.96    5.12
   2 -23  -5   89.20    5.63
   2  23  -5   90.21    5.44
  -2  23   5   64.90    4.38
  -2 -23   5   70.86    4.68
  -2 -24  -2   86.22    5.84
  -2  24  -2   81.81    5.40
   2 -24   2   86.64    5.98
  -2 -24  -2   86.74    6.09
  -2 -24  -1   68.03    2.95
  -2  24  -1   59.80    3.50
  -2 -24  -1   60.14    3.54
   2 -24   0  138.40   10.32
  -2 -24   0  142.96    6.34
   2  24   0  130.96    5.91
  -2  24   0  139.32    6.98
   2 -24   0  145.96    6.79
  -2 -24   0  137.31    6.63
   2 -24  -1   89.10    4.20
  -2 -24   1   80.76    3.57
   2  24  -1   85.54    3.94
  -2  24   1   89.36    4.54
   2 -24  -1   85.95    4.15
  -2 -24   1   87.80    4.63
   2 -24  -2   10.44    2.11
   2  24  -2   11.28    1.67
  -2  24   2    6.74    2.42
   2 -24  -2    4.42    0.84
   2 -24  -3   44.13    5.93
   2  24  -3   40.59    2.62
  -2  24   3   51.03    3.43
   2 -24  -3   46.01    5.03
  -2 -24   3   39.82    3.67
   2 -24  -4   48.33    3.75
   2  24  -4   39.34    3.22
  -2  24   4   58.43    4.77
  -2 -24   4   53.16    4.31
  -2 -25  -2   41.08    2.91
  -2 -25  -2   45.35    3.70
   2 -25   1   85.27    5.46
  -2 -25  -1   78.19    5.20
  -2  25  -1   82.68    5.72
   2 -25   1   91.87    6.16
  -2 -25  -1   83.21    5.84
   2 -25   0  105.50    4.37
  -2  25   0  111.92    5.24
   2 -25   0  107.64    4.26
  -2 -25   0  106.53    4.36
   2 -25  -1   14.00    2.27
   2  25  -1   18.16    1.62
  -2  25   1   11.40    1.87
   2 -25  -1   10.61    1.26
  -2 -25   1   17.77    2.45
   2 -25  -2   44.30    4.47
   2  25  -2   43.20    2.71
   2 -25  -2   42.73    2.61
  -2 -25   2   45.85    5.51
   2 -25  -3   14.25    3.54
   2  25  -3    7.66    1.50
  -2  25   3   17.00    2.82
   2 -25  -3   10.11    1.40
  -2 -25   3   10.68    2.17
   2 -25  -4   85.50    8.86
   2  25  -4   93.28    5.47
  -2  25   4   85.30    5.68
  -2 -25   4  111.69    6.91
   2 -26   1   89.38    5.27
  -2 -26  -1   99.20    5.81
  -2  26  -1   85.53    5.59
   2 -26   1   89.50    5.38
  -2 -26  -1   84.32    5.42
   2 -26   0   39.54    6.96
  -2 -26   0   53.58    3.76
  -2  26   0   60.93    5.05
   2 -26   0   58.65    4.31
  -2 -26   0   52.85    4.28
   2 -26  -1    2.93    1.40
   2  26  -1    1.75    0.99
  -2  26   1    3.88    1.85
  -2 -26   1    5.00    1.76
   2 -26  -2   31.74    4.64
   2  26  -2   29.05    3.40
  -2  26   2   39.08    3.37
   2 -26  -2   33.55    4.34
  -2 -26   2   33.37    4.64
   2 -26  -3   44.62    8.40
   2  26  -3   55.68    3.57
  -2  26   3   52.32    3.96
  -2 -26   3   56.68    4.92
   2 -27   1   30.83    2.26
  -2 -27  -1   33.83    2.46
  -2  27  -1   28.05    3.07
   2 -27   1   29.03    2.64
   2 -27   0   20.28    4.68
  -2 -27   0   30.68    2.28
  -2  27   0   27.84    3.83
   2 -27   0   25.35    3.22
  -2 -27   0   24.62    3.28
   2 -27  -1   37.74    5.60
  -2  27   1   39.60    3.84
   2 -27  -1   51.07    3.95
  -2 -27   1   46.18    4.24
   2 -27  -2    6.73    1.53
   2  27  -2    6.10    1.34
  -2  27   2    5.06    1.90
   2 -27  -2    4.50    1.10
  -2 -27   2    3.69    1.69
   2 -27  -3   49.93    8.96
   2  27  -3   67.38    3.75
  -2  27   3   59.86    3.92
  -2 -27   3   56.49    3.95
   2 -28  -1   10.33    2.43
   2 -28  -1   18.82    2.02
  -2 -28   1   15.68    2.30
   2 -28  -2    5.96    0.94
  -3   0  -5    7.43    2.19
  -3   0  -5    7.74    1.39
   3   0   5    8.33    1.76
  -3   0  -4  112.14    4.69
  -3   0  -4  111.33    8.24
   3   0   4  110.81    7.08
  -3   0  -3   30.52    2.17
  -3   0  -3   26.30    1.38
   3   0   3   28.42    3.61
  -3   0  -2  144.93    4.75
  -3   0  -2  136.04    3.89
   3   0   2  142.76    4.30
  -3   0  -1 1124.23   18.65
   3   0   1 1128.66   19.27
  -3   0   0  106.95    3.40
  -3   0   0  106.01    2.41
   3   0   0  102.81    2.34
   3   0   0  112.37    2.97
  -3   0   1  223.82    4.73
  -3   0   1  184.81    4.28
   3   0  -1  204.04    4.59
  -3   0   2  163.31    3.49
  -3   0   2  160.49    3.26
  -3   0   2  156.15    3.07
   3   0  -2  164.24    3.50
   3   0  -3  119.47    2.92
   3   0  -3  131.25    3.03
   3   0  -3  126.57    2.90
  -3   0   3  111.59    2.53
   3   0  -4  412.82    7.36
   3   0  -4  409.13    7.51
  -3   0   4  368.49    6.51
  -3   0   4  422.86    7.38
   3   0  -5    7.18    1.40
  -3   0   5    4.44    0.62
  -3   0   5    5.00    0.59
   3   0  -6   16.11    2.01
   3   0  -6   17.50    1.76
  -3   0   6   12.56    0.55
   3   0  -7   60.70    5.05
   3   0  -7   70.39    8.33
   3   0  -8   10.73    2.03
  -3   1  -5  174.76   10.84
  -3  -1  -5  187.32   11.64
  -3  -1  -5  168.36   10.22
  -3   1  -5  149.36   12.59
   3   1   5  164.54   10.26
   3  -1   5  153.41   12.11
  -3  -1  -4  129.78    4.81
  -3   1  -4  145.41    5.65
  -3  -1  -4  135.64    4.82
  -3   1  -4  139.96    4.63
   3   1   4  137.63    4.87
   3  -1   4  146.17    5.05
  -3  -1  -3  151.45    5.18
  -3   1  -3  132.04    4.62
  -3  -1  -3  139.09    4.04
  -3   1  -3  132.68    3.97
   3   1   3  145.74    4.69
   3  -1   3  129.61    4.15
  -3  -1  -2   63.06    2.96
  -3   1  -2   67.18    3.48
  -3  -1  -2   57.84    2.03
  -3   1  -2   59.26    2.25
   3   1   2   71.76    6.32
   3  -1   2   54.81    2.64
  -3  -1  -1  140.85    4.07
  -3   1  -1  135.77    4.04
  -3  -1  -1  121.71    2.55
  -3   1  -1  127.99    2.81
   3  -1   1  116.21    2.68
   3   1   1  123.99    2.65
   3   1   1  123.21    4.75
   3  -1   1  131.69    3.22
  -3  -1   0  800.34   15.54
  -3   1   0  825.36   16.02
  -3  -1   0  757.21   14.16
  -3   1   0  772.83   14.61
   3   1   0  762.35   14.23
   3  -1   0  746.22   14.06
   3   1   0  791.18   15.63
   3  -1   0  803.63   16.19
  -3   1   1 1987.27   32.40
  -3  -1   1 2026.04   32.44
  -3  -1   1 2102.45   33.72
  -3   1   1 2067.76   33.34
   3  -1  -1 2127.96   34.79
   3  -1  -2   32.98    1.36
  -3  -1   2   35.28    1.64
  -3  -1   2   28.58    2.62
  -3   1   2   36.67    1.59
   3   1  -2   41.54    3.74
   3  -1  -2   36.21    3.15
  -3   1   2   30.74    1.08
   3   1  -3  143.51    3.22
   3  -1  -3  126.06    3.17
  -3  -1   3  114.39    2.64
   3   1  -3  141.06    3.31
   3  -1  -3  126.94    2.88
  -3  -1   3  117.47    2.65
  -3   1   3  125.97    2.74
   3   1  -4  268.51    5.11
   3  -1  -4  261.04    5.50
  -3  -1   4  229.69    4.28
   3  -1  -4  273.87    5.50
   3   1  -4  263.87    5.73
  -3  -1   4  227.10    4.36
  -3   1   4  239.70    4.39
  -3  -1   4  257.62    4.87
  -3   1   4  261.68    4.76
   3   1  -5   69.40    2.20
   3  -1  -5   69.73    2.42
   3   1  -5   87.88    7.69
   3  -1  -5   68.59    5.13
  -3  -1   5   52.90    2.60
  -3   1   5   65.16    2.28
  -3   1   5   70.18    2.02
  -3  -1   5   63.90    2.03
   3  -1  -6  153.15    5.11
   3   1  -6  154.04    4.84
   3  -1  -6  164.41   11.30
   3   1  -6  157.86    4.88
  -3  -1   6  149.32    3.88
   3   1  -7   20.46    3.17
   3  -1  -7   25.37    1.51
   3  -1  -7   26.35    3.60
   3   1  -7   31.70    4.40
   3   1  -8   36.89    6.32
   3  -1  -8   35.86    6.21
  -3  -2  -5    9.74    1.99
  -3   2  -5   12.26    2.03
  -3  -2  -5    9.94    2.03
  -3   2  -5   12.69    2.50
   3   2   5   11.86    2.49
   3  -2   5    9.01    2.09
  -3  -2  -4   15.03    1.81
  -3   2  -4   18.31    2.02
  -3  -2  -4   13.22    1.68
  -3   2  -4   16.12    1.38
   3   2   4   14.39    1.72
   3  -2   4   13.92    1.46
  -3  -2  -3   17.10    1.77
  -3   2  -3   18.09    1.81
  -3  -2  -3   20.55    2.39
  -3   2  -3   21.41    1.45
   3   2   3   21.86    3.10
   3  -2   3   18.20    1.72
  -3   2  -2  359.85    9.66
  -3  -2  -2  365.68    9.14
  -3   2  -2  352.82    8.96
   3   2   2  364.89   11.02
   3  -2   2  369.18    9.70
  -3  -2  -1 1271.09   21.70
  -3  -2  -1 1206.60   19.86
  -3   2  -1 1164.03   19.41
   3   2   1 1171.49   19.31
   3   2   1 1228.22   21.32
   3  -2   1 1236.13   20.97
  -3  -2   0  677.27   13.37
  -3   2   0  666.52   13.17
  -3  -2   0  634.29   11.83
  -3   2   0  666.11   12.73
   3   2   0  640.69   11.94
   3  -2   0  609.68   11.60
   3   2   0  587.94   11.56
   3  -2   0  665.14   13.00
  -3  -2   1  637.73   11.08
  -3  -2   1  596.40    9.70
  -3  -2   1  607.27    9.93
  -3   2   1  531.54   16.25
   3  -2  -1  615.45   10.60
   3  -2  -2  841.79   14.09
  -3  -2   2  736.70   12.23
  -3  -2   2  841.06   14.05
  -3   2   2  740.61   12.32
  -3  -2   2  772.65   12.75
  -3   2   2  825.28   13.76
   3   2  -2  838.41   14.10
   3  -2  -2  848.40   14.44
   3   2  -3  193.32    4.06
   3  -2  -3  198.11    4.32
  -3  -2   3  176.87    3.69
   3   2  -3  195.20    5.01
   3  -2  -3  190.76    4.44
  -3  -2   3  170.78    3.61
  -3   2   3  188.49    3.87
   3   2  -4  560.57    9.58
   3  -2  -4  523.03    9.65
  -3  -2   4  508.26    8.67
   3  -2  -4  566.94   10.05
   3   2  -4  580.72   10.40
  -3   2   4  525.82    8.81
  -3  -2   4  586.44   10.16
   3   2  -5   46.00    3.15
   3  -2  -5   51.06    2.04
  -3  -2   5   34.09    1.33
   3  -2  -5   49.66    3.32
   3   2  -5   52.32    5.86
  -3  -2   5   34.77    1.28
  -3   2   5   41.04    1.14
  -3   2   5   41.65    1.23
  -3  -2   5   42.68    1.72
   3   2  -6   87.69    3.33
   3  -2  -6   93.36    3.16
   3  -2  -6   89.20    7.43
   3   2  -6  115.89    6.19
  -3  -2   6   77.73    2.32
   3  -2  -7   62.40    2.34
   3  -2  -7   74.58    5.22
   3   2  -7   86.10    6.31
   3   2  -8   18.63    3.68
  -3  -3  -5  112.41    7.28
  -3   3  -5  114.92    7.43
  -3  -3  -5  116.20    7.22
  -3   3  -5  107.77   11.41
   3   3   5  102.08    8.71
   3  -3   5  118.27    7.63
  -3  -3  -4   37.75    3.07
  -3   3  -4   43.36    3.12
  -3  -3  -4   34.00    3.78
  -3   3  -4   45.75    2.69
   3   3   4   40.84    3.87
   3  -3   4   36.87    2.41
  -3  -3  -3   51.55    3.07
  -3   3  -3   49.15    2.55
  -3  -3  -3   52.89    2.98
  -3   3  -3   43.93    2.02
   3   3   3   53.23    4.49
   3  -3   3   55.10    2.39
  -3  -3  -2  297.06    8.16
  -3   3  -2  311.10    8.61
  -3  -3  -2  307.95    7.95
  -3   3  -2  301.98    7.81
   3   3   2  309.02    8.35
   3  -3   2  306.99    8.26
  -3  -3  -1   43.50    2.31
  -3   3  -1   44.23    2.72
  -3  -3  -1   50.03    1.29
  -3   3  -1   46.42    1.75
   3   3   1   49.07    1.44
   3   3   1   56.29    5.45
   3  -3   1   43.69    1.86
  -3  -3   0  135.31    3.77
  -3   3   0  129.13    3.72
  -3  -3   0  124.04    2.46
  -3   3   0  126.09    3.22
   3  -3   0  120.43    2.95
   3   3   0  125.15    2.51
   3   3   0  127.65    4.66
  -3  -3   1  792.40   13.45
  -3   3   1  789.32   13.47
  -3  -3   1  733.85   11.82
  -3  -3   1  744.89   12.02
  -3   3   1  762.89   12.75
   3  -3  -1  727.19   12.08
   3   3  -1  789.37   13.72
   3  -3  -1  766.39   12.98
   3  -3  -2  498.00    9.37
  -3  -3   2  475.56    8.20
  -3  -3   2  540.04    9.29
  -3   3   2  487.86    8.30
  -3  -3   2  525.16    8.72
  -3   3   2  538.28    9.31
   3   3  -2  552.04    9.67
   3  -3  -2  528.72    9.07
  -3   3   2  488.19    8.32
   3  -3  -3  508.01   10.56
  -3  -3   3  502.46    9.64
  -3  -3   3  548.89   10.53
   3   3  -3  531.28   10.27
  -3  -3   3  483.68    9.31
   3  -3  -3  539.24   10.29
  -3   3   3  513.98    9.78
   3   3  -4  312.40    5.90
   3  -3  -4  327.87    6.15
   3  -3  -4  318.67    6.08
   3   3  -4  328.08    6.83
  -3   3   4  296.56    5.10
  -3  -3   4  324.56    6.06
   3   3  -5  165.21    4.34
   3  -3  -5  159.31    4.59
  -3  -3   5  144.43    3.82
   3  -3  -5  164.97    4.86
   3   3  -5  163.94    5.15
  -3  -3   5  163.15    4.53
   3   3  -6  115.95    3.33
   3  -3  -6  138.98    4.11
   3  -3  -6  133.24    9.15
   3   3  -6  132.77    4.51
  -3  -3   6  128.08    3.59
   3  -3  -7   98.70    4.38
   3  -3  -7   99.24    9.87
   3   3  -7  111.17    7.74
   3   3  -8   22.29    4.05
  -3  -4  -5   68.45    4.94
  -3   4  -5   69.07    4.76
  -3  -4  -5   56.02    6.77
  -3   4  -5   66.57    4.46
   3   4   5   51.21    6.50
   3  -4   5   63.80    4.45
  -3  -4  -4   78.35    4.45
  -3   4  -4   75.80    4.25
  -3  -4  -4   61.13    4.78
  -3   4  -4   61.64    3.08
   3   4   4   67.66    5.75
   3  -4   4   67.46    3.47
  -3  -4  -3  104.96    4.26
  -3   4  -3   98.18    3.94
  -3  -4  -3   96.63    5.15
  -3   4  -3   92.89    3.16
   3   4   3  102.17    3.62
   3  -4   3   97.12    3.55
  -3  -4  -2  548.40   14.07
  -3   4  -2  564.37   14.53
  -3  -4  -2  518.27   12.92
  -3   4  -2  517.19   12.93
   3   4   2  520.36   13.11
   3  -4   2  524.66   13.41
  -3  -4  -1  177.85    4.38
  -3   4  -1  175.24    4.48
  -3  -4  -1  161.08    3.43
  -3   4  -1  164.51    3.62
   3   4   1  165.56    3.12
   3   4   1  170.92    3.81
   3  -4   1  173.64    3.96
  -3  -4   0  728.26   14.44
  -3   4   0  699.24   13.78
  -3  -4   0  673.31   12.38
  -3   4   0  701.79   13.53
   3   4   0  683.34   13.66
  -3  -4   1  406.67    7.41
  -3   4   1  394.12    7.36
  -3  -4   1  382.67    6.15
  -3  -4   1  381.77    6.14
  -3   4   1  352.73    6.46
   3  -4  -1  375.22    6.80
   3  -4  -2  191.61    3.85
  -3  -4   2  164.46    3.12
  -3  -4   2  190.17    3.97
   3   4  -2  177.00    3.17
  -3  -4   2  174.69    3.14
  -3   4   2  165.42    3.45
   3   4  -2  165.07    3.47
   3  -4  -2  179.73    3.85
  -3   4   2  161.20    3.14
   3  -4  -3   37.21    2.92
  -3  -4   3   28.21    0.97
  -3  -4   3   33.74    1.39
   3   4  -3   39.76    2.90
  -3  -4   3   31.69    1.13
   3  -4  -3   36.73    2.79
  -3   4   3   32.46    1.02
   3   4  -4   99.08    2.06
   3  -4  -4   93.59    2.47
  -3  -4   4   84.42    1.78
   3   4  -4  103.73    2.64
  -3   4   4   90.35    1.76
  -3  -4   4   98.82    2.64
   3   4  -5   19.60    1.59
   3  -4  -5   21.47    2.10
  -3  -4   5   17.74    0.83
   3  -4  -5   21.73    1.65
   3   4  -5   21.48    2.72
  -3  -4   5   19.50    2.16
   3   4  -6   76.99    2.22
   3  -4  -6   79.29    2.79
   3  -4  -6   80.91    5.81
   3   4  -6   83.38    5.38
  -3  -4   6   73.94    2.37
   3  -4  -7   53.99    2.81
   3   4  -7   56.64    5.97
   3  -4  -8   21.82    2.59
   3  -4  -8   22.91    4.21
   3   4  -8   18.16    3.00
  -3  -5  -5   67.63    5.01
  -3   5  -5   73.63    5.26
  -3   5  -5   64.80    4.58
   3   5   5   58.37    6.04
   3  -5   5   62.28    4.50
  -3  -5  -4   69.34    4.05
  -3   5  -4   78.87    4.28
  -3  -5  -4   73.46    6.00
  -3   5  -4   91.64    4.28
   3   5   4   73.09    6.79
   3  -5   4   77.80    3.91
  -3  -5  -3  134.40    4.59
  -3   5  -3  138.94    4.88
  -3  -5  -3  125.96    3.66
  -3   5  -3  124.57    3.98
   3   5   3  133.32    8.51
   3  -5   3  128.81    4.19
  -3  -5  -2  574.47   14.46
  -3   5  -2  565.79   14.14
  -3  -5  -2  540.42   13.33
  -3   5  -2  520.35   12.76
   3   5   2  490.71   11.68
   3   5   2  563.40   14.97
   3  -5   2  560.28   13.95
  -3  -5  -1  172.07    4.79
  -3   5  -1  163.24    4.45
  -3  -5  -1  159.98    3.46
  -3   5  -1  160.27    3.64
   3   5   1  154.11    2.88
   3   5   1  163.31    3.97
   3  -5   1  160.87    3.86
  -3  -5   0  613.56   12.30
  -3   5   0  591.49   11.83
  -3   5   0  581.65   11.41
   3   5   0  604.77   12.06
   3  -5  -1  207.12    4.56
  -3  -5   1  202.64    4.72
  -3   5   1  192.59    4.35
   3  -5  -1  197.57    4.42
  -3  -5   2  267.38    5.32
   3  -5  -2  307.21    6.43
  -3  -5   2  299.06    6.20
   3   5  -2  297.34    6.01
  -3  -5   2  277.25    5.36
  -3   5   2  308.66    6.50
   3  -5  -2  297.63    6.04
   3  -5  -3  204.98    4.62
  -3  -5   3  183.76    3.84
  -3  -5   3  202.97    4.26
   3   5  -3  200.16    4.28
  -3  -5   3  174.79    3.69
   3  -5  -3  202.04    4.19
  -3   5   3  192.82    3.93
   3  -5  -4  466.66    8.51
  -3  -5   4  444.86    7.52
  -3  -5   4  463.12    7.90
   3   5  -4  456.44    8.87
  -3   5   4  439.63    7.34
  -3  -5   4  440.27    8.04
   3   5  -5  375.72    9.04
   3  -5  -5  393.87   10.75
  -3  -5   5  357.19    8.48
   3  -5  -5  402.63   10.24
   3   5  -5  390.79    9.88
  -3  -5   5  412.13   10.24
   3   5  -6    3.03    0.48
   3  -5  -6    3.40    0.66
   3  -5  -6    4.80    1.24
   3   5  -6    5.67    1.09
  -3  -5   6    5.23    1.45
   3  -5  -7   57.59    2.97
   3   5  -7   60.62    6.86
   3  -5  -8   73.37    4.87
   3  -5  -8   81.62    5.62
   3   5  -8   60.56    7.64
  -3  -6  -5   43.39    3.84
  -3   6  -5   42.41    3.54
  -3   6  -5   44.20    3.44
   3   6   5   37.88    4.18
   3  -6   5   41.11    3.23
  -3  -6  -4  174.01    7.79
  -3   6  -4  177.66    7.91
  -3  -6  -4  172.94    7.28
  -3   6  -4  167.69    7.12
   3   6   4  165.29    6.99
   3  -6   4  178.60    7.65
  -3   6  -3  476.05   17.16
  -3  -6  -3  463.01   16.27
  -3   6  -3  444.55   15.89
   3   6   3  458.06   16.52
   3  -6   3  495.49   17.81
  -3  -6  -2  912.06   22.16
  -3   6  -2  933.93   22.54
  -3  -6  -2  895.20   21.04
  -3   6  -2  889.24   21.27
   3   6   2  778.77   18.25
   3   6   2  947.96   22.82
   3  -6   2  954.55   22.99
  -3  -6  -1  794.16   15.55
  -3   6  -1  777.45   15.21
  -3  -6  -1  738.91   13.60
  -3   6  -1  772.95   14.89
   3   6   1  770.35   14.15
   3   6   1  772.57   14.90
  -3  -6   0  691.43   13.74
  -3   6   0  704.29   13.78
   3   6   0  660.05   12.89
   3  -6   0  688.53   13.53
   3  -6  -1  182.08    4.26
  -3  -6   1  174.47    4.12
  -3   6   1  185.93    4.42
   3   6  -1  187.22    4.31
   3  -6  -1  171.62    3.93
  -3  -6   2  204.76    4.20
   3  -6  -2  231.79    5.24
  -3  -6   2  243.04    5.16
   3   6  -2  228.86    4.61
  -3  -6   2  219.36    4.31
  -3   6   2  223.84    5.01
   3  -6  -2  233.50    4.92
  -3  -6   3  841.66   15.70
   3  -6  -3  915.75   17.67
  -3  -6   3  944.11   17.66
   3   6  -3  914.36   17.40
  -3  -6   3  794.58   14.99
  -3   6   3  935.13   18.03
   3  -6  -3  910.38   17.07
  -3   6   3  886.32   16.59
  -3  -6   3  954.79   18.27
   3  -6  -4   17.76    2.40
  -3  -6   4   12.91    0.57
  -3  -6   4   16.78    0.87
   3   6  -4   21.35    1.83
   3  -6  -4   14.19    1.40
  -3   6   4   17.44    0.65
  -3  -6   4   18.48    1.91
   3  -6  -5   49.28    5.03
  -3  -6   5   42.62    1.26
  -3  -6   5   48.52    1.45
   3   6  -5   63.07    5.29
  -3  -6   5   40.87    1.80
   3  -6  -6    9.42    1.17
   3   6  -6   15.00    1.44
  -3  -6   6   12.77    1.23
   3  -6  -7   26.70    1.77
   3  -6  -7   31.52    2.36
   3   6  -7   31.67    3.95
   3  -6  -8    3.71    1.04
   3  -6  -8    9.70    2.02
   3   6  -8    7.18    1.93
  -3  -7  -5   89.47    6.44
  -3   7  -5   83.11    5.92
  -3   7  -5   82.87    5.74
   3   7   5   75.75    8.01
   3  -7   5   88.63    6.08
  -3  -7  -4   98.74    4.82
  -3   7  -4   96.66    4.70
  -3  -7  -4   95.54    3.95
  -3   7  -4   86.75    3.94
   3   7   4   90.40    8.23
   3  -7   4  105.03    4.73
  -3  -7  -3  115.34    5.12
  -3   7  -3  119.00    5.56
  -3  -7  -3  117.18    7.49
  -3   7  -3  108.56    4.54
   3   7   3  106.42    6.82
   3  -7   3  111.61    4.77
  -3  -7  -2  187.85    6.04
  -3   7  -2  178.69    5.36
  -3  -7  -2  171.02    4.84
  -3   7  -2  172.07    4.92
   3   7   2  158.58    4.08
   3   7   2  174.58    5.39
   3  -7   2  184.12    5.40
  -3  -7  -1  345.79    7.84
  -3   7  -1  345.01    7.62
  -3   7  -1  332.57    7.22
   3   7   1  343.37    6.47
   3   7   1  329.95    9.24
   3  -7   1  351.43    7.55
  -3  -7   0   74.70    2.89
  -3   7   0   69.60    2.58
  -3   7   0   64.81    2.68
   3   7   0   64.94    2.06
   3  -7   0   64.73    2.03
   3  -7  -1   43.50    1.70
  -3  -7   1   44.83    1.86
  -3   7   1   40.97    2.10
   3   7  -1   46.00    1.97
   3  -7  -1   43.26    1.67
  -3  -7   2  472.54    9.27
   3   7  -2  417.73    8.10
   3   7  -2  462.93    8.96
  -3  -7   2  443.03    8.39
  -3   7   2  481.70    9.88
   3  -7  -2  454.75    8.94
   3  -7  -3    6.36    1.28
  -3  -7   3    0.55    0.20
  -3  -7   3    1.45    0.60
   3   7  -3    4.67    0.73
  -3  -7   3    2.86    0.63
  -3   7   3    2.60    1.57
   3  -7  -3    2.07    0.50
  -3  -7   3    9.73    2.70
   3  -7  -4  138.42    3.76
  -3  -7   4  130.37    2.58
  -3  -7   4  133.87    2.76
   3   7  -4  135.03    3.44
   3  -7  -4  129.20    2.69
  -3   7   4  122.55    2.46
  -3  -7   4  138.92    3.73
   3  -7  -5  481.14   11.95
   3   7  -5  474.77   11.94
  -3  -7   5  498.71   12.29
   3  -7  -6   28.71    1.96
   3   7  -6   40.70    3.66
  -3  -7   6   28.75    1.78
   3  -7  -7   90.68    4.09
   3  -7  -7   87.71    4.12
   3   7  -7   74.32    8.46
   3  -7  -8   23.44    3.24
   3  -7  -8   30.71    4.33
   3   7  -8   31.61    5.12
  -3  -8  -5   71.82    4.73
  -3   8  -5   73.49    4.71
  -3   8  -5   66.31    4.11
   3   8   5   67.55    6.82
   3  -8   5   64.96    4.14
  -3  -8  -4  350.61   27.35
  -3   8  -4  358.24   27.83
  -3   8  -4  350.05   27.18
   3   8   4  325.87   12.37
   3  -8   4  352.88   27.42
  -3  -8  -3  185.59    7.37
  -3   8  -3  165.22    6.41
  -3  -8  -3  177.24    6.41
  -3   8  -3  163.00    6.30
   3   8   3  189.80   11.03
   3  -8   3  170.92    6.67
  -3  -8  -2  395.56   10.47
  -3   8  -2  429.58   11.00
  -3  -8  -2  401.62    9.58
  -3   8  -2  394.07   10.10
   3   8   2  414.24   11.37
   3  -8   2  423.71   10.93
  -3  -8  -1 1032.92   19.89
  -3   8  -1 1040.43   19.92
   3   8   1  997.40   18.18
  -3   8  -1 1032.09   19.71
   3   8   1 1048.04   20.49
   3  -8   1 1031.36   19.75
  -3  -8   0  614.02   11.05
  -3   8   0  624.31   11.46
  -3   8   0  612.18   11.00
   3   8   0  580.93   10.38
   3  -8   0  616.58   11.02
   3  -8  -1  280.92    6.02
  -3  -8   1  263.96    5.86
  -3   8   1  277.25    6.32
   3  -8  -1  268.28    5.75
   3  -8  -2  153.95    3.81
  -3  -8   2  145.53    3.45
   3   8  -2  132.02    2.98
   3   8  -2  136.03    2.89
  -3  -8   2  139.10    2.89
  -3   8   2  131.41    3.59
   3  -8  -2  147.13    3.40
  -3  -8   3  184.72    3.30
   3  -8  -3  218.38    4.61
  -3  -8   3  211.44    3.94
   3   8  -3  200.55    4.08
  -3   8   3  214.96    4.77
   3  -8  -3  212.79    3.99
  -3   8   3  194.91    3.65
  -3  -8   3  208.48    4.71
   3  -8  -4   61.61    5.04
  -3  -8   4   58.96    1.22
  -3  -8   4   60.66    1.31
   3   8  -4   69.81    4.98
   3  -8  -4   57.94    1.48
  -3   8   4   56.83    1.35
  -3  -8   4   69.13    2.82
   3  -8  -5  231.51    9.96
   3   8  -5  229.99    6.29
  -3  -8   5  212.82    5.75
   3  -8  -6   51.08    2.58
   3   8  -6   58.58    6.29
  -3  -8   6   53.84    2.70
   3  -8  -7    0.77    0.89
   3   8  -7    6.52    1.30
  -3  -8   7    6.81    1.01
   3  -8  -8    6.51    1.21
   3   8  -8    5.82    1.16
  -3  -9  -5   36.77    2.92
  -3   9  -5   36.83    2.75
  -3   9  -5   34.29    2.70
   3   9   5   30.07    3.73
   3  -9   5   38.51    2.87
  -3  -9  -4   36.49    3.65
  -3   9  -4   31.30    3.29
  -3   9  -4   31.06    3.31
   3   9   4   28.55    4.26
   3  -9   4   33.44    3.20
  -3  -9  -3  285.87   10.57
  -3   9  -3  301.21   10.98
  -3  -9  -3  290.71   10.06
  -3   9  -3  292.61   10.55
   3   9   3  295.39   10.74
   3  -9   3  303.53   11.10
  -3  -9  -2  100.11    4.60
  -3   9  -2   97.13    4.06
  -3   9  -2   95.89    3.83
   3   9   2   90.59    3.35
   3  -9   2   96.72    3.86
  -3  -9  -1   76.77    3.32
  -3   9  -1   75.94    3.40
   3   9   1   76.05    2.02
  -3   9  -1   83.76    3.42
   3   9   1   76.79    2.06
   3   9   1   83.13    7.93
   3  -9   1   80.89    2.96
  -3  -9   0   37.75    2.25
  -3   9   0   37.82    2.11
  -3   9   0   26.06    1.60
   3   9   0   38.86    1.68
   3  -9   0   37.68    1.96
   3  -9  -1  138.67    3.35
  -3  -9   1  139.96    3.63
  -3   9   1  139.68    3.89
   3  -9  -1  132.03    3.16
   3  -9  -2   29.16    4.14
  -3  -9   2   25.26    1.48
   3   9  -2   23.99    1.01
   3   9  -2   27.32    2.09
  -3  -9   2   26.14    0.90
  -3   9   2   24.47    1.63
   3  -9  -2   27.16    1.31
  -3  -9   3   80.26    1.85
   3  -9  -3   94.15    2.65
  -3  -9   3   93.03    2.14
   3   9  -3   95.45    2.54
  -3   9   3  110.20    3.55
   3  -9  -3   93.22    2.16
  -3   9   3   95.73    2.13
  -3  -9   3   91.30    3.08
   3  -9  -4  651.99   16.24
   3   9  -4  652.46   16.15
   3  -9  -4  605.84   14.50
  -3   9   4  600.20   14.35
  -3  -9   4  651.19   16.32
   3  -9  -5  765.82   21.69
   3   9  -5  759.26   22.27
  -3  -9   5  752.83   20.96
   3  -9  -6   73.62    3.36
   3   9  -6   70.23    5.95
  -3  -9   6   74.87    3.42
   3  -9  -7   76.25    3.90
   3   9  -7   57.84    5.83
  -3  -9   7   72.66    3.59
   3  -9  -8   50.65    3.27
   3   9  -8   42.34    7.64
  -3 -10  -5    8.03    1.82
  -3  10  -5    2.45    1.24
  -3  10  -5    9.80    1.77
   3  10   5    4.53    1.08
   3 -10   5    4.33    1.07
  -3  10  -4   28.46    2.86
  -3  10  -4   26.14    2.79
   3  10   4   30.61    5.44
   3 -10   4   33.06    3.20
  -3 -10  -3   55.21    3.43
  -3  10  -3   47.18    3.14
  -3  10  -3   50.88    2.85
   3  10   3   53.27    3.59
   3 -10   3   44.65    2.79
  -3 -10  -2  184.58    6.38
  -3  10  -2  182.04    6.21
  -3  10  -2  177.54    5.98
   3  10   2  179.19    5.83
   3 -10   2  189.46    6.14
  -3 -10  -1  632.39   15.92
  -3  10  -1  652.25   16.35
   3  10   1  610.43   14.53
  -3  10  -1  665.46   16.85
   3  10   1  631.11   15.03
   3  10   1  639.40   15.95
   3 -10   1  663.76   16.66
  -3 -10   0  441.29    9.11
  -3  10   0  459.53    9.54
  -3  10   0  463.67    9.58
   3 -10   0  454.66    9.37
   3 -10  -1   40.81    5.50
  -3 -10   1   39.96    2.08
  -3  10   1   34.79    2.29
   3 -10  -1   38.23    1.76
   3 -10  -2  121.24    3.06
  -3 -10   2  112.43    2.73
   3  10  -2  112.38    2.50
   3  10  -2  115.38    2.30
  -3 -10   2  104.69    2.15
  -3  10   2  117.68    3.49
   3 -10  -2  102.76    2.44
  -3 -10   3  111.10    2.31
   3 -10  -3  130.68    5.18
  -3 -10   3  124.59    2.68
   3  10  -3  119.32    2.80
  -3  10   3  128.56    4.17
   3 -10  -3  127.82    2.89
  -3  10   3  107.08    2.48
  -3 -10   3  134.11    3.79
   3 -10  -4   25.86    2.91
   3  10  -4   32.17    4.31
  -3  10   4   34.25    2.78
   3 -10  -4   26.07    2.05
  -3  10   4   24.46    0.99
  -3 -10   4   35.41    2.40
   3 -10  -5  290.03    8.72
   3  10  -5  340.24    9.99
  -3 -10   5  311.35    9.32
   3 -10  -6   80.45    3.55
   3  10  -6   87.73    8.46
  -3 -10   6   90.15    3.94
   3 -10  -7    2.01    0.92
   3  10  -7    8.04    1.40
  -3 -10   7    4.87    1.31
   3 -10  -8    3.66    1.37
   3  10  -8    2.42    0.85
  -3 -11  -4  128.10    4.86
  -3  11  -4  139.82    5.02
  -3  11  -4  115.73    4.28
   3  11   4  140.35    4.91
   3 -11   4  122.14    4.56
  -3 -11  -3  126.78    4.80
  -3  11  -3  134.55    5.00
  -3  11  -3  129.04    4.55
   3  11   3  129.45    4.52
   3 -11   3  122.61    4.50
  -3 -11  -2   68.49    3.47
  -3  11  -2   69.22    2.95
  -3  11  -2   71.86    3.35
   3  11   2   67.19    2.11
   3  11   2   69.75    2.85
   3 -11   2   71.25    2.97
  -3 -11  -1  390.42   10.16
  -3  11  -1  393.42   10.18
   3  11   1  351.43    8.24
  -3  11  -1  400.43   10.59
   3  11   1  395.77    9.28
   3  11   1  397.86   10.11
   3 -11   0   80.22    2.86
  -3 -11   0   79.85    2.81
   3 -11   0   76.96    2.56
   3 -11  -1  569.28   11.67
  -3 -11   1  556.10    9.94
   3  11  -1  558.08   10.18
  -3  11   1  567.18   10.69
   3 -11  -1  554.57   10.93
   3 -11  -2   39.22    3.77
  -3 -11   2   31.26    1.39
   3  11  -2   27.70    1.06
   3  11  -2   32.69    1.00
  -3 -11   2   29.12    1.03
  -3  11   2   31.96    2.47
   3 -11  -2   34.94    1.41
  -3 -11   2   33.65    2.40
  -3 -11   3  136.79    2.77
   3  11  -3  144.18    3.26
  -3  11   3  141.51    4.06
   3 -11  -3  148.95    3.33
  -3 -11   3  141.51    3.94
   3 -11  -4  416.51   10.63
   3  11  -4  412.32   10.20
  -3  11   4  394.04   10.33
   3 -11  -4  408.98    9.66
  -3 -11   4  445.98   11.45
  -3  11   4  376.70    8.94
   3 -11  -5  344.58    9.25
   3  11  -5  339.89   10.75
  -3 -11   5  333.39    9.08
   3 -11  -6  380.61   11.28
   3  11  -6  359.26   11.07
  -3 -11   6  367.93   10.91
   3 -11  -7   72.43    3.07
   3  11  -7   64.13    7.10
  -3 -11   7   82.92    3.16
  -3 -12  -4   57.00    3.32
  -3  12  -4   59.32    3.00
  -3  12  -4   50.49    2.96
   3  12   4   49.68    2.37
   3 -12   4   48.96    2.63
  -3 -12  -3   98.00    4.06
  -3  12  -3  117.87    4.58
  -3  12  -3  106.39    4.24
   3  12   3  107.59    3.93
   3 -12   3  110.88    4.43
  -3 -12  -2   67.08    3.23
  -3  12  -2   50.50    2.85
  -3  12  -2   63.57    3.61
   3  12   2   50.87    2.08
   3 -12   2   52.42    2.98
  -3 -12  -1  219.09    6.54
  -3  12  -1  234.64    6.54
  -3  12  -1  214.55    6.17
   3  12   1  217.15    5.23
   3 -12   0 1032.85   24.62
  -3 -12   0  988.97   24.17
  -3  12   0 1033.34   24.79
   3 -12   0 1001.43   24.51
   3 -12  -1  290.56    6.42
  -3 -12   1  288.93    6.25
   3  12  -1  268.34    5.05
  -3  12   1  278.42    6.56
   3 -12  -1  285.57    6.17
   3 -12  -2  270.22    6.01
  -3 -12   2  252.15    5.24
   3  12  -2  267.22    5.27
  -3 -12   2  227.30    4.57
  -3  12   2  269.76    6.31
   3 -12  -2  256.02    5.47
  -3 -12   2  267.83    6.26
  -3 -12   3   96.27    2.51
   3 -12  -3  102.96    5.67
  -3 -12   3  100.08    2.66
   3  12  -3  107.15    3.06
  -3  12   3  117.16    4.47
   3 -12  -3  100.40    2.94
  -3 -12   3  108.18    3.93
   3 -12  -4  164.62    5.24
   3  12  -4  195.90    5.29
  -3  12   4  196.61    6.31
   3 -12  -4  178.17    4.42
  -3 -12   4  183.84    5.85
   3 -12  -5  118.27    3.96
   3  12  -5  128.65    4.00
  -3  12   5  120.08    4.56
  -3 -12   5  123.55    4.09
   3 -12  -6   89.90    3.45
   3  12  -6  106.06    6.63
  -3 -12   6   94.82    3.70
   3 -12  -7    5.34    1.47
   3  12  -7    9.00    1.74
  -3 -12   7    3.83    1.12
  -3 -13  -4   95.45    6.48
  -3  13  -4  109.72    6.97
  -3  13  -4   98.22    6.39
  -3 -13  -3   51.44    3.36
  -3  13  -3   48.16    2.99
  -3  13  -3   39.80    2.74
   3 -13   3   37.97    2.40
  -3 -13  -2   83.25    3.94
  -3  13  -2   78.59    3.89
  -3  13  -2   74.12    3.69
   3 -13   2   79.95    3.76
  -3 -13  -1  219.38    7.17
  -3  13  -1  226.68    7.13
  -3  13  -1  211.66    6.89
   3  13   1  219.87    6.14
   3 -13   0  320.03    8.44
  -3 -13   0  318.33    8.45
   3  13   0  294.02    6.90
   3  13   0  315.04    7.36
  -3  13   0  268.17    7.34
   3 -13   0  315.95    8.48
   3 -13  -1  274.17    7.76
  -3 -13   1  251.61    6.71
   3  13  -1  257.77    6.29
  -3  13   1  258.37    7.64
   3 -13  -1  271.92    7.29
   3 -13  -2  169.97    6.38
  -3 -13   2  160.16    4.37
   3  13  -2  172.22    4.45
  -3 -13   2  147.92    3.91
  -3  13   2  185.37    5.80
   3 -13  -2  165.05    4.66
  -3 -13   2  166.07    5.31
   3 -13  -3    4.08    1.00
  -3 -13   3    2.46    0.59
   3  13  -3    0.79    0.58
  -3  13   3    4.46    2.13
   3 -13  -3    3.44    0.58
  -3 -13   3    4.42    2.94
   3 -13  -4   60.92    6.61
   3  13  -4   74.75    2.88
  -3  13   4   68.34    3.49
   3 -13  -4   61.09    2.02
  -3 -13   4   66.95    4.12
   3 -13  -5   61.20    2.97
   3  13  -5   80.18    3.62
  -3  13   5   84.08    4.57
  -3 -13   5   73.00    3.78
   3 -13  -6  318.90   12.92
   3  13  -6  292.83   12.47
  -3 -13   6  318.38   12.89
   3 -13  -7   13.50    1.96
   3  13  -7   19.18    3.01
  -3 -13   7   12.31    1.79
  -3 -14  -4    6.55    2.21
  -3  14  -4    9.04    1.88
  -3  14  -4    5.48    1.90
   3 -14   4    5.74    1.75
  -3 -14  -3  115.00    5.43
  -3  14  -3  102.39    4.73
  -3  14  -3  103.40    4.88
   3 -14   3  107.06    4.86
  -3 -14  -2  193.45    7.67
  -3  14  -2  179.85    7.04
  -3  14  -2  181.31    7.33
   3 -14   2  173.56    6.78
  -3 -14  -1  831.59   21.07
  -3  14  -1  866.89   21.77
  -3  14  -1  850.18   21.54
   3  14   1  748.47   18.12
   3 -14   1  832.83   20.99
   3 -14   0  407.93   10.46
  -3 -14   0  409.59   10.54
   3  14   0  351.40    8.28
   3  14   0  414.44    9.72
  -3  14   0  406.28   10.73
   3 -14   0  389.62   10.09
   3 -14  -1  379.46    9.93
  -3 -14   1  371.14    9.30
   3  14  -1  375.77    8.90
  -3  14   1  391.39   10.62
   3 -14  -1  382.50    9.72
  -3 -14   1  382.02    9.93
   3 -14  -2  308.73    8.27
  -3 -14   2  305.20    7.59
   3  14  -2  303.93    7.41
  -3 -14   2  258.98    6.37
  -3  14   2  316.39    8.72
   3 -14  -2  312.58    7.95
  -3 -14   2  329.28    8.94
   3 -14  -3  297.00    7.88
  -3 -14   3  283.93    6.80
   3  14  -3  297.95    7.48
  -3  14   3  276.99    7.74
   3 -14  -3  287.83    7.22
  -3 -14   3  305.10    8.40
   3 -14  -4  355.83    9.84
   3  14  -4  348.13    9.14
  -3  14   4  343.65    9.69
   3 -14  -4  336.74    8.43
  -3 -14   4  374.15   10.28
   3 -14  -5   14.80    1.68
   3  14  -5   19.88    1.63
  -3  14   5   19.16    2.10
  -3 -14   5   16.70    2.31
   3 -14  -6   26.83    2.16
   3  14  -6   32.14    4.59
  -3  14   6   33.64    3.19
  -3 -14   6   23.13    2.06
   3 -14  -7   13.26    2.09
   3  14  -7   12.85    2.62
  -3 -14   7   13.18    2.27
  -3 -15  -4   34.50    3.27
  -3  15  -4   31.67    2.74
  -3  15  -4   29.71    2.29
   3 -15   4   25.67    3.37
  -3 -15  -3   82.26    4.56
  -3  15  -3   81.29    4.20
  -3  15  -3   80.45    4.65
   3 -15   3   79.66    4.36
  -3 -15  -2  111.81    4.61
  -3  15  -2  108.05    4.30
  -3  15  -2  123.61    4.92
   3 -15   2  107.05    4.23
  -3 -15  -1    4.17    1.19
  -3  15  -1    5.36    2.31
  -3  15  -1    2.55    2.12
   3  15   1    2.10    0.41
   3 -15   1    2.83    1.33
   3 -15   0  280.00    8.64
  -3 -15   0  251.99    7.70
   3  15   0  268.94    7.44
  -3  15   0  260.35    8.25
   3 -15   0  256.68    8.00
   3 -15  -1  102.42    4.44
  -3 -15   1  105.24    3.26
   3  15  -1  109.51    2.90
  -3  15   1  114.47    4.31
   3 -15  -1  107.31    3.56
  -3 -15   1  117.73    4.31
   3 -15  -2  300.98    8.00
  -3 -15   2  290.90    7.26
   3  15  -2  306.65    7.52
  -3  15   2  335.62    9.29
   3 -15  -2  305.00    7.80
  -3 -15   2  322.69    9.24
   3 -15  -3  120.11    4.45
  -3 -15   3  123.97    3.59
   3  15  -3  125.19    3.95
  -3  15   3  119.68    4.63
   3 -15  -3  123.68    3.85
  -3 -15   3  127.08    5.05
   3  15  -4  302.67    8.06
  -3  15   4  319.18    9.39
   3 -15  -4  288.18    7.31
  -3 -15   4  319.36    9.16
   3 -15  -5   55.20    2.79
   3  15  -5   52.86    2.31
  -3  15   5   53.70    3.62
  -3 -15   5   46.95    2.68
   3 -15  -6   31.51    3.12
   3  15  -6   38.62    3.66
  -3  15   6   33.37    3.45
  -3 -15   6   33.46    3.39
   3 -15  -7    6.11    1.41
   3  15  -7    7.24    2.14
  -3  15   7    6.19    2.07
  -3 -15   7    9.79    1.86
  -3 -16  -4    6.05    2.02
  -3  16  -4    5.73    1.70
  -3  16  -4    6.26    1.44
   3 -16   4    6.09    1.61
  -3 -16  -3   12.54    1.85
  -3  16  -3   10.42    1.72
  -3  16  -3   12.34    1.73
   3 -16   3   12.59    2.05
  -3 -16  -2    3.57    1.67
  -3  16  -2    2.80    1.98
  -3  16  -2    1.47    1.70
   3 -16   2    3.03    1.17
  -3 -16  -1   84.10    4.17
  -3  16  -1   80.88    3.95
  -3  16  -1   77.00    4.02
   3 -16   1   72.53    3.43
   3 -16   0    7.81    1.11
  -3 -16   0    9.63    1.40
   3  16   0    8.11    0.70
  -3  16   0    8.39    2.68
   3 -16   0    9.43    1.55
  -3 -16   0   14.13    2.11
   3 -16  -1  155.05    5.25
  -3 -16   1  150.98    4.86
   3  16  -1  161.40    4.68
  -3  16   1  157.83    5.79
   3 -16  -1  159.18    5.19
   3 -16  -2  142.50    6.06
  -3 -16   2  142.11    4.39
   3  16  -2  143.93    4.34
  -3  16   2  151.86    5.57
   3 -16  -2  152.13    4.97
  -3 -16   2  160.67    6.10
   3 -16  -3  128.69    4.25
  -3 -16   3  123.64    3.26
   3  16  -3  121.74    3.56
  -3  16   3  141.79    5.65
   3 -16  -3  122.77    3.64
  -3 -16   3  134.07    4.92
   3 -16  -4   64.75    7.28
   3  16  -4   56.96    2.73
  -3  16   4   53.91    3.28
   3 -16  -4   58.53    2.45
  -3 -16   4   61.50    3.50
   3 -16  -5   70.06    5.97
   3  16  -5   64.17    2.65
  -3 -16   5   67.52    3.53
   3 -16  -6   99.18    4.14
   3  16  -6   84.32    3.44
  -3 -16   6   87.59    3.95
   3 -16  -7    4.54    1.31
   3  16  -7    4.99    1.11
  -3  16   7    6.38    1.97
  -3 -16   7    5.38    1.77
  -3 -17  -4   33.77    2.89
  -3  17  -4   28.66    2.39
   3 -17   4   35.34    2.87
  -3 -17  -3   75.57    3.69
  -3  17  -3   75.27    3.42
   3 -17   3   65.93    3.39
  -3 -17  -2    9.52    1.86
  -3  17  -2    8.94    1.54
  -3  17  -2    8.88    1.78
   3 -17   2    9.42    1.36
  -3 -17  -1  102.38    4.56
  -3  17  -1  106.14    4.71
  -3  17  -1  100.89    4.57
   3 -17   1  105.85    4.52
  -3 -17  -1  118.04    5.04
   3 -17   0  212.04    8.15
  -3 -17   0  209.82    8.00
  -3  17   0  205.93    8.17
   3 -17   0  205.22    7.85
  -3 -17   0  217.60    8.54
   3 -17  -1  128.64    4.15
  -3 -17   1  136.86    4.18
   3  17  -1  136.50    3.74
  -3  17   1  144.42    5.04
   3 -17  -1  133.34    4.39
   3 -17  -2  315.03    9.79
  -3 -17   2  313.56    8.06
   3  17  -2  332.91    8.54
  -3  17   2  322.58    9.41
   3 -17  -2  332.45    8.83
  -3 -17   2  377.23   10.69
   3 -17  -3   77.49    7.23
   3  17  -3   77.10    3.21
  -3  17   3   79.36    4.27
   3 -17  -3   84.48    3.57
  -3 -17   3   75.05    4.18
   3 -17  -4  216.69    8.40
   3  17  -4  204.94    7.55
  -3  17   4  214.44    8.25
   3 -17  -4  192.81    6.76
  -3 -17   4  224.16    8.89
   3 -17  -5   41.96    3.99
   3  17  -5   39.14    2.36
  -3  17   5   42.06    2.83
  -3 -17   5   39.04    2.71
   3 -17  -6    4.22    1.78
   3  17  -6    6.15    1.15
  -3  17   6    7.75    1.59
  -3 -17   6    4.70    1.59
   3 -17  -7   16.91    1.77
  -3  17   7   16.46    2.32
  -3 -18  -3   26.00    3.46
  -3  18  -3   19.97    2.84
  -3  18  -3   24.25    3.18
   3 -18   3   23.41    3.06
  -3 -18  -2  259.25   10.24
  -3  18  -2  286.15   11.07
  -3  18  -2  294.68   11.67
   3 -18   2  287.32   11.32
  -3 -18  -2  269.38   10.57
  -3 -18  -1  362.95   10.87
  -3  18  -1  384.14   11.40
  -3  18  -1  385.87   11.81
   3 -18   1  371.66   11.34
  -3 -18  -1  369.48   11.13
   3 -18   0   91.19    4.33
  -3 -18   0   87.60    3.94
  -3  18   0   86.99    4.30
   3 -18   0   90.27    4.05
  -3 -18   0   95.65    4.84
   3 -18  -1   55.88    5.01
  -3 -18   1   53.00    2.58
   3  18  -1   58.29    2.49
  -3  18   1   55.18    3.65
   3 -18  -1   51.61    2.68
  -3 -18   1   53.71    2.99
   3 -18  -2   73.27    6.45
  -3 -18   2   65.76    2.78
   3  18  -2   61.77    2.65
  -3  18   2   71.74    3.99
   3 -18  -2   64.78    2.96
  -3 -18   2   78.79    4.58
   3 -18  -3  317.66   11.85
   3  18  -3  307.77   10.80
  -3  18   3  306.35   11.37
   3 -18  -3  304.35   10.67
  -3 -18   3  330.74   12.37
   3 -18  -4  128.68    4.62
   3  18  -4  129.40    4.34
  -3 -18   4  154.51    6.06
   3 -18  -5   33.42    4.74
   3  18  -5   41.14    2.86
  -3 -18   5   48.79    4.03
   3 -18  -6   20.81    2.84
   3  18  -6   19.93    2.49
  -3  18   6   18.08    3.06
  -3 -18   6   23.45    3.32
  -3 -19  -3   20.18    3.20
  -3  19  -3   22.78    3.13
  -3  19  -3   20.47    3.40
   3 -19   3   21.70    3.19
  -3 -19  -3   27.13    3.85
  -3 -19  -2   74.32    4.35
  -3  19  -2   64.39    3.53
  -3  19  -2   68.88    4.64
   3 -19   2   63.88    3.60
  -3 -19  -2   74.38    4.23
  -3 -19  -1   77.11    3.85
  -3  19  -1   86.53    4.16
  -3  19  -1   78.78    4.17
   3 -19   1   82.72    5.04
  -3 -19  -1   77.28    4.11
   3 -19   0   10.01    1.54
  -3 -19   0    9.08    1.18
  -3  19   0   12.26    2.29
   3 -19   0   10.88    1.31
  -3 -19   0    7.73    1.63
   3 -19  -1   59.92    5.79
  -3 -19   1   54.58    2.51
   3  19  -1   62.88    2.56
  -3  19   1   64.65    4.05
   3 -19  -1   58.84    2.97
  -3 -19   1   65.33    3.51
   3 -19  -2  126.06    5.29
  -3 -19   2  117.11    4.42
   3  19  -2  117.96    4.40
  -3  19   2  130.20    5.73
   3 -19  -2  121.60    4.81
  -3 -19   2  101.77    4.71
   3 -19  -3  124.45    9.13
   3  19  -3   98.78    3.89
  -3  19   3  101.96    4.82
   3 -19  -3  112.16    4.55
  -3 -19   3  107.12    5.34
   3 -19  -4   57.06    7.99
   3  19  -4   57.92    3.05
  -3  19   4   74.03    4.26
  -3 -19   4   57.20    3.46
   3  19  -5   38.24    3.48
  -3  19   5   47.10    3.32
  -3 -19   5   46.50    3.55
   3 -19  -6   25.46    3.63
   3  19  -6   19.92    2.90
  -3  19   6   19.61    3.27
  -3 -19   6   19.09    3.34
  -3 -20  -3   26.79    3.63
  -3  20  -3   22.91    3.06
  -3  20  -3   24.22    3.20
   3 -20   3   26.95    3.44
  -3 -20  -3   24.24    3.42
  -3 -20  -2  267.93    8.35
  -3  20  -2  275.71    8.55
  -3  20  -2  273.70    9.00
  -3 -20  -2  271.08    8.44
  -3 -20  -1   94.80    4.44
  -3  20  -1   91.47    4.28
  -3  20  -1  104.31    5.22
   3 -20   1   90.23    4.39
  -3 -20  -1   99.09    4.99
   3 -20   0   94.33    6.20
  -3 -20   0   80.77    3.23
  -3  20   0   88.92    4.34
   3 -20   0   86.16    3.49
  -3 -20   0   87.97    4.01
   3 -20  -1   11.91    1.82
  -3 -20   1   12.13    1.15
  -3  20   1   13.69    2.01
   3 -20  -1   11.86    1.48
  -3 -20   1   12.12    1.72
   3 -20  -2   21.16    3.39
  -3 -20   2   19.86    1.18
   3  20  -2   20.03    1.21
  -3  20   2   15.20    1.91
   3 -20  -2   15.95    1.35
  -3 -20   2   23.36    2.79
   3 -20  -3  135.83    4.85
   3  20  -3  136.97    4.46
   3 -20  -3  140.16    4.54
  -3 -20   3  154.45    6.00
   3 -20  -4  163.75    6.88
   3  20  -4  143.25    5.97
  -3 -20   4  155.24    7.08
   3 -20  -5   41.64    6.09
   3  20  -5   42.88    2.70
  -3  20   5   56.46    3.24
  -3 -20   5   48.67    2.90
   3 -20  -6    7.81    1.60
   3  20  -6    9.92    1.55
  -3  20   6   10.11    2.14
  -3 -20   6   11.63    2.69
  -3 -21  -2   82.01    5.60
  -3  21  -2   75.46    5.18
  -3  21  -2   73.41    5.44
  -3 -21  -2   74.90    5.36
  -3 -21  -1   20.89    2.39
  -3  21  -1   19.66    2.58
  -3  21  -1   12.99    2.24
   3 -21   1   16.31    1.85
  -3 -21  -1   12.96    1.91
   3 -21   0    9.96    2.12
  -3 -21   0   12.77    1.56
  -3  21   0   14.71    2.09
   3 -21   0   13.20    1.72
  -3 -21   0   12.55    2.22
   3 -21  -1   15.49    2.68
  -3 -21   1   15.16    1.34
  -3  21   1   18.98    2.53
   3 -21  -1   12.35    1.53
  -3 -21   1   13.18    1.91
   3 -21  -2    5.05    1.12
   3  21  -2    4.33    0.67
  -3  21   2    7.14    2.40
   3 -21  -2    4.71    1.08
  -3 -21   2    3.28    1.66
   3 -21  -3  152.83    6.49
   3  21  -3  142.25    5.79
  -3  21   3  154.36    7.22
   3 -21  -3  151.46    6.11
  -3 -21   3  154.44    7.00
   3 -21  -4   44.30    5.19
   3  21  -4   46.21    2.66
  -3  21   4   43.71    4.19
  -3 -21   4   47.04    3.82
   3 -21  -5  114.72    9.85
   3  21  -5  118.74    7.40
  -3  21   5  118.52    7.74
  -3 -21   5  115.71    7.82
  -3 -22  -2  107.30    6.22
  -3  22  -2  123.27    6.90
  -3  22  -2  131.13    7.61
   3 -22   2  114.47    6.74
  -3 -22  -2  127.86    7.40
  -3 -22  -1  132.35    4.79
  -3  22  -1  143.99    5.17
  -3  22  -1  150.43    5.89
  -3 -22  -1  140.71    5.44
   3 -22   0  174.71    7.86
  -3 -22   0  161.28    7.15
  -3  22   0  182.35    8.58
   3 -22   0  166.93    7.55
  -3 -22   0  166.25    7.72
   3 -22  -1  136.71    6.06
  -3 -22   1  118.95    4.87
  -3  22   1  104.23    5.24
   3 -22  -1  137.97    6.00
  -3 -22   1  129.01    5.91
   3 -22  -2   27.61    4.18
  -3  22   2   22.79    2.40
   3 -22  -2   26.79    2.13
  -3 -22   2   27.41    2.77
   3 -22  -3   80.15    8.77
   3  22  -3   71.91    3.60
   3 -22  -3   79.11    3.86
  -3 -22   3   75.25    4.81
   3 -22  -4   17.05    3.81
   3  22  -4   15.54    1.34
  -3  22   4   26.23    3.06
  -3 -22   4   14.94    2.24
   3 -22  -5   34.18    7.03
   3  22  -5   35.69    2.53
  -3  22   5   47.58    3.81
  -3 -22   5   50.36    4.52
  -3 -23  -2   46.19    3.21
  -3  23  -2   50.32    3.27
  -3  23  -2   42.47    3.72
   3 -23   2   44.32    3.18
  -3 -23  -2   46.10    3.42
  -3 -23  -1   16.27    2.28
  -3  23  -1   10.50    2.04
  -3  23  -1   22.35    3.49
   3 -23   1   18.54    2.91
  -3 -23  -1   15.01    2.57
   3 -23   0    8.84    2.32
  -3 -23   0    7.43    1.07
  -3  23   0   15.02    2.66
   3 -23   0   12.11    1.65
  -3 -23   0   12.01    2.01
   3 -23  -1    1.91    0.94
  -3 -23   1    2.21    0.86
  -3  23   1    2.37    1.80
   3 -23  -1    4.41    1.10
  -3 -23   1    6.54    2.46
   3 -23  -2   11.61    2.79
  -3  23   2   12.13    2.14
   3 -23  -2    8.41    1.48
  -3 -23   2   11.88    2.31
   3 -23  -3   36.32    4.83
  -3  23   3   32.78    3.20
   3 -23  -3   33.59    2.19
  -3 -23   3   41.13    3.75
   3 -23  -4   55.40    7.49
   3  23  -4   56.41    3.79
  -3  23   4   48.16    4.04
  -3 -23   4   69.17    5.37
   3 -23  -5  111.90    6.99
   3  23  -5  101.76    5.18
  -3  23   5  121.36    6.75
  -3 -23   5  118.09    6.54
  -3 -24  -1  104.03    6.08
  -3  24  -1  115.64    6.71
  -3  24  -1  106.03    6.69
   3 -24   1  104.37    6.20
  -3 -24  -1  111.89    6.78
   3 -24   0   66.76    7.18
  -3 -24   0   64.14    4.29
  -3  24   0   60.52    4.62
   3 -24   0   83.05    5.50
  -3 -24   0   70.83    5.11
   3 -24  -1  112.14    4.23
  -3  24   1  113.50    5.02
   3 -24  -1  117.31    4.34
  -3 -24   1  110.29    4.59
   3 -24  -2   42.30    4.77
   3 -24  -2   46.88    5.16
   3 -24  -3   22.28    4.60
  -3  24   3   30.33    3.94
   3 -24  -3   31.80    3.63
  -3 -24   3   31.31    4.21
   3 -24  -4   17.96    3.40
  -3  24   4   37.48    3.98
  -3 -24   4   26.65    3.70
  -3 -25  -1    5.00    1.28
  -3  25  -1    8.42    1.96
  -3  25  -1    7.70    2.67
   3 -25   1    1.65    1.19
  -3 -25  -1    3.04    1.38
   3 -25   0    9.00    1.93
  -3 -25   0   14.40    2.07
  -3  25   0   12.70    2.72
   3 -25   0   10.34    1.93
  -3 -25   0   12.55    2.71
   3 -25  -1   17.72    3.57
  -3  25   1   28.15    4.46
   3 -25  -1   24.15    3.41
  -3 -25   1   24.12    3.67
   3 -25  -2   30.32    7.64
  -3  25   2   49.78    4.48
   3 -25  -2   45.13    3.40
   3 -25  -3   26.14    4.70
  -3  25   3   31.44    4.41
  -3 -25   3   26.32    3.62
   3 -25  -4   58.04    6.32
  -3  25   4   62.54    4.15
  -3 -25   4   61.98    4.05
   3 -26   0   46.14    5.45
  -3 -26   0   53.88    3.15
  -3  26   0   59.31    4.04
   3 -26   0   51.62    3.28
  -3 -26   0   56.98    4.14
   3 -26  -1   13.39    2.28
   3 -26  -1   20.63    2.89
  -3 -26   1   22.99    3.53
   3 -26  -2   43.23    5.25
  -3  26   2   48.64    4.14
   3 -26  -2   48.07    3.14
  -3 -26   2   73.15    5.13
   3 -26  -3   54.03    7.98
  -3  26   3   76.12    4.67
  -3 -26   3   64.79    4.84
  -4   0  -4   21.04    2.89
   4   0   4   16.99    3.46
  -4   0  -3   85.77    4.74
  -4   0  -3   90.43    4.05
   4   0   3   83.28    9.38
  -4   0  -2   78.47    4.06
  -4   0  -2   76.44    3.22
   4   0   2   82.76    7.50
  -4   0  -1   27.02    2.29
  -4   0  -1   30.68    1.33
   4   0   1   31.30    4.06
  -4   0   0   69.78    2.91
  -4   0   0   64.85    1.83
   4   0   0   61.55    1.75
   4   0   0   61.58    4.86
  -4   0   1  208.77    4.83
  -4   0   1  195.40    3.78
   4   0  -1  206.96    4.64
  -4   0   2 1281.50   21.72
  -4   0   2 1110.37   18.37
  -4   0   2 1215.11   20.15
   4   0  -2 1199.36   20.32
  -4   0   3  513.36    9.31
  -4   0   3  509.59    9.05
   4   0  -3  498.27   10.09
   4   0  -4 2390.32   56.92
   4   0  -5   34.65    3.43
   4   0  -5   27.47    1.63
  -4   0   5   28.52    1.56
   4   0  -6   59.15    5.39
   4   0  -6   50.91    5.65
   4   0  -7    2.95    0.72
   4   0  -7    6.25    1.25
   4   0  -8   16.63    3.02
  -4  -1  -4    8.10    2.42
  -4   1  -4    2.12    1.56
  -4   1  -4    1.67    0.89
   4   1   4    4.78    1.09
   4  -1   4    4.60    1.37
  -4  -1  -3   77.08    4.45
  -4   1  -3   75.53    4.02
  -4  -1  -3   70.16    3.64
  -4   1  -3   77.11    3.71
   4  -1   3   69.36    6.99
   4   1   3   76.13    6.37
  -4   1  -2  400.23   14.67
  -4  -1  -2  378.28   13.37
  -4   1  -2  391.75   13.90
   4   1   2  392.06   14.32
   4  -1   2  400.64   14.59
  -4   1  -1  259.80    7.59
  -4  -1  -1  270.32    8.22
  -4  -1  -1  241.87    6.03
   4   1   1  258.55    7.20
   4  -1   1  271.04    7.77
  -4  -1   0  261.04    6.43
  -4   1   0  258.43    6.46
  -4  -1   0  245.05    4.86
  -4   1   0  253.21    5.18
   4   1   0  241.06    4.79
   4   1   0  255.17    5.80
   4  -1   0  268.55    6.23
  -4  -1   1   69.71    3.02
  -4   1   1   68.48    3.00
  -4  -1   1   64.57    1.66
  -4   1   1   67.82    2.03
   4   1  -1   76.93    7.17
   4  -1  -1   64.80    2.19
  -4  -1   2  280.23    5.75
  -4   1   2  280.14    6.03
  -4   1   2  223.70    4.34
  -4  -1   2  241.92    4.60
  -4  -1   2  249.82    4.95
  -4   1   2  254.07    5.17
   4   1  -2  261.02    5.89
   4  -1  -2  264.74    5.68
  -4  -1   3   16.65    1.56
  -4   1   3   13.04    1.45
   4   1  -3   15.39    2.00
   4  -1  -3   18.20    1.77
   4   1  -4   72.70    2.59
   4  -1  -4   64.62    5.83
   4   1  -5   13.69    1.75
   4  -1  -5   12.37    1.69
   4  -1  -5   13.53    1.25
   4   1  -5   16.75    2.29
  -4  -1   5    9.75    0.92
  -4   1   5   14.74    1.29
   4   1  -6  104.02    4.33
   4  -1  -6   96.63    4.27
   4  -1  -6  109.42    4.51
   4   1  -6  110.83    8.16
  -4  -1   6  110.75    4.21
   4  -1  -7   37.51    3.68
   4   1  -7   38.75    4.38
   4  -1  -7   43.79    4.86
   4   1  -8   72.70    7.75
   4  -1  -8   71.99    7.45
  -4  -2  -4   63.38    4.76
  -4   2  -4   73.52    5.54
  -4   2  -4   64.85    4.45
   4   2   4   65.08    6.20
   4  -2   4   55.25    9.51
  -4  -2  -3   64.29    4.33
  -4   2  -3   73.84    4.32
  -4  -2  -3   57.20    4.57
  -4   2  -3   62.46    3.25
   4   2   3   60.55    6.78
   4  -2   3   63.17    5.90
  -4  -2  -2  190.14    7.60
  -4   2  -2  199.30    8.25
  -4  -2  -2  193.76    7.53
  -4   2  -2  187.16    7.02
   4   2   2  220.60   14.12
   4  -2   2  176.45    9.06
  -4  -2  -1  190.64    6.64
  -4   2  -1  178.22    5.55
  -4   2  -1  180.01    4.92
   4   2   1  185.92    5.96
   4  -2   1  181.26   12.15
  -4  -2   0  185.87    5.70
  -4   2   0  183.30    5.63
  -4  -2   0  175.43    4.42
  -4   2   0  180.92    4.91
   4   2   0  164.78    4.16
   4   2   0  178.74    5.80
  -4  -2   1  532.20    9.89
  -4   2   1  497.90    9.27
  -4  -2   1  461.25    7.74
  -4  -2   1  508.44    8.53
  -4   2   1  504.43    8.91
   4   2  -1  494.19    9.55
   4  -2  -1  512.03    9.37
  -4  -2   2  802.78   13.98
  -4   2   2  773.10   13.69
  -4  -2   2  724.70   12.20
  -4   2   2  775.70   13.27
  -4  -2   2  751.91   12.55
   4   2  -2  771.54   13.60
   4  -2  -2  787.86   13.85
   4  -2  -3 1052.86   17.92
  -4  -2   3 1029.74   17.57
  -4   2   3 1046.98   17.84
   4   2  -3 1034.80   17.59
   4  -2  -3 1011.86   17.29
   4  -2  -4 1411.39   34.08
  -4  -2   4 1435.72   34.44
   4   2  -4 1387.30   25.76
   4  -2  -4 1390.22   25.70
   4   2  -5  117.01    3.29
   4  -2  -5  117.05    3.62
   4   2  -5  119.52    3.77
  -4  -2   5  118.60    3.54
  -4   2   5  120.97    3.40
   4   2  -6    9.85    1.57
   4  -2  -6   12.00    1.88
   4  -2  -6   14.39    1.46
   4   2  -6   16.95    2.29
  -4  -2   6   14.35    1.14
   4  -2  -7    1.20    0.61
   4  -2  -7    2.90    0.94
   4   2  -7    0.53    0.68
   4  -2  -8   16.31    3.21
   4   2  -8   15.76    2.88
  -4  -3  -4   32.45    4.45
  -4   3  -4   22.00    3.35
  -4   3  -4   33.28    3.81
   4   3   4   22.19    5.42
   4  -3   4   25.19    3.90
  -4  -3  -3  147.30    6.57
  -4   3  -3  150.71    6.83
   4   3   3  146.08    6.20
   4  -3   3  148.20    6.23
  -4  -3  -2  308.56   11.75
  -4   3  -2  306.93   11.58
  -4  -3  -2  270.97    9.97
  -4   3  -2  294.17   10.65
   4   3   2  301.37   11.35
   4  -3   2  297.29   11.30
  -4  -3  -1 1305.97   31.11
  -4   3  -1 1243.89   29.19
   4   3   1 1352.20   32.14
   4  -3   1 1311.92   31.24
  -4  -3   0  139.10    5.16
  -4   3   0  128.71    4.65
  -4  -3   0  126.74    3.20
  -4   3   0  129.86    3.89
   4   3   0  101.49    4.60
  -4  -3   1   89.70    3.05
  -4   3   1   90.69    3.18
  -4  -3   1   73.14    1.78
  -4  -3   1   76.36    1.62
  -4   3   1   84.92    2.60
   4   3  -1   87.72    5.25
   4  -3  -1   86.54    6.01
  -4  -3   2  308.87    6.21
  -4   3   2  300.22    6.19
  -4  -3   2  268.79    4.78
  -4   3   2  296.94    5.72
  -4  -3   2  276.23    4.89
   4   3  -2  295.05    5.92
   4  -3  -2  308.56    6.41
   4  -3  -3  203.12    4.68
  -4  -3   3  204.44    4.74
  -4   3   3  199.66    4.86
   4   3  -3  213.70    4.92
   4  -3  -3  202.66    4.54
   4  -3  -4    5.26    1.41
  -4  -3   4    3.43    1.06
   4   3  -4    3.74    0.93
   4  -3  -4    5.79    0.89
   4   3  -5   26.48    1.27
   4  -3  -5   24.00    2.97
   4   3  -5   25.08    2.54
  -4  -3   5   23.49    1.55
   4   3  -6   10.75    1.86
   4  -3  -6   11.51    1.78
   4  -3  -6   14.78    1.43
   4   3  -6   16.70    1.87
  -4  -3   6   13.94    1.29
   4  -3  -7   17.41    2.62
   4  -3  -7   26.01    2.12
   4   3  -7   17.31    2.97
   4  -3  -8   30.18    4.04
   4   3  -8   30.33    5.15
  -4  -4  -4   46.20    3.96
  -4   4  -4   45.55    3.69
  -4   4  -4   50.54    3.70
   4   4   4   39.71    6.55
   4  -4   4   38.67    6.21
  -4  -4  -3   69.04    4.29
  -4   4  -3   72.77    4.24
  -4   4  -3   66.18    3.19
   4   4   3   68.26    5.92
   4  -4   3   72.14    7.31
  -4  -4  -2   82.03    4.66
  -4   4  -2   82.09    4.13
  -4  -4  -2   69.68    4.62
  -4   4  -2   77.98    3.33
   4   4   2   89.02    6.33
   4  -4   2   93.55    4.44
  -4  -4  -1  257.05    8.51
  -4   4  -1  241.19    7.88
  -4  -4  -1  221.52    6.39
  -4   4  -1  222.42    6.68
   4   4   1  228.24   10.13
   4  -4   1  239.18    7.50
  -4  -4   0   90.73    4.00
  -4   4   0   83.50    3.30
  -4  -4   0   75.55    1.91
  -4   4   0   88.14    3.11
   4   4   0   80.18    2.81
  -4  -4   1  403.32    8.51
  -4   4   1  400.94    8.53
  -4   4   1  368.56    7.65
   4   4  -1  388.75    8.04
   4  -4  -1  412.92    8.98
  -4  -4   2   45.94    2.23
  -4   4   2   49.95    2.79
  -4  -4   2   44.53    1.08
  -4   4   2   47.73    2.00
  -4  -4   2   41.17    1.11
   4   4  -2   45.30    3.54
   4  -4  -2   45.77    1.73
   4  -4  -3  398.94    8.64
  -4  -4   3  416.28    8.40
  -4   4   3  408.61    8.42
   4  -4  -3  411.94    9.18
   4  -4  -4  112.21    3.54
  -4  -4   4  114.36    3.66
   4   4  -4  114.46    3.45
   4  -4  -4  114.42    3.41
   4  -4  -5  493.40   14.46
  -4  -4   5  509.78   14.13
   4   4  -5  482.58   13.59
  -4  -4   5  512.01   14.38
   4   4  -6   21.37    1.12
   4  -4  -6   24.21    2.76
   4   4  -6   25.14    3.14
  -4  -4   6   22.50    1.63
   4  -4  -7   41.14    6.30
   4  -4  -7   60.48    3.28
   4   4  -7   51.29    4.82
   4  -4  -8    8.60    1.78
   4   4  -8    8.65    1.80
  -4  -5  -4   43.71    3.66
  -4   5  -4   40.98    3.69
  -4   5  -4   46.13    3.46
   4   5   4   37.12    4.77
   4  -5   4   37.48    6.93
  -4   5  -3   88.48    4.71
  -4   5  -3   85.99    3.86
   4   5   3   93.39    7.71
  -4  -5  -2  233.85    8.97
  -4   5  -2  226.44    8.78
  -4   5  -2  220.78    8.03
   4   5   2  216.75    8.08
   4  -5   2  211.65    8.18
  -4  -5  -1  804.93   22.72
  -4   5  -1  791.54   22.28
  -4  -5  -1  716.53   19.42
  -4   5  -1  758.73   21.01
   4   5   1  745.00   20.85
   4  -5   1  698.31   19.68
  -4  -5   0  314.07    8.75
  -4   5   0  317.89    8.70
  -4   5   0  317.03    8.28
   4   5   0  322.32    9.02
   4  -5   0  317.47    8.53
  -4  -5   1  748.22   14.73
  -4   5   1  717.25   14.23
  -4   5   1  708.41   13.71
   4  -5  -1  692.72   13.51
   4  -5  -2   40.23    1.75
  -4  -5   2   47.36    2.40
  -4  -5   2   38.38    0.96
  -4   5   2   37.10    1.86
  -4  -5   2   35.17    0.93
   4   5  -2   36.07    1.62
   4  -5  -2   38.88    3.75
   4  -5  -3  102.48    3.61
  -4  -5   3  100.20    2.90
  -4  -5   3   99.57    2.31
  -4   5   3  109.40    3.37
   4  -5  -3  111.18    3.09
   4  -5  -4  486.04   12.90
  -4  -5   4  479.38   11.85
   4   5  -4  466.83   12.15
   4  -5  -4  450.71   11.07
   4  -5  -5  298.74    9.38
   4   5  -5  309.93   11.10
  -4  -5   5  312.70    9.16
   4  -5  -6  104.64    4.21
   4   5  -6  123.39    9.76
  -4  -5   6  106.90    4.22
   4  -5  -7   52.48    7.68
   4   5  -7   57.94    7.37
   4  -5  -8   35.18    4.89
   4  -5  -8   40.95    3.42
   4   5  -8   37.60    5.89
  -4  -6  -4   50.36    4.16
  -4   6  -4   52.06    4.27
  -4   6  -4   48.17    3.60
   4   6   4   41.09    6.82
   4  -6   4   59.20    4.40
  -4  -6  -3   74.81    4.05
  -4   6  -3   77.50    4.34
  -4   6  -3   66.71    3.38
   4   6   3   56.68    6.64
   4  -6   3   65.10    3.46
  -4  -6  -2    9.49    2.33
  -4   6  -2    4.02    1.75
  -4   6  -2    4.55    1.39
   4   6   2    5.74    1.80
   4  -6   2    3.71    1.78
  -4  -6  -1   87.11    4.83
  -4   6  -1   75.19    3.50
  -4   6  -1   87.53    3.27
   4   6   1   91.18    7.72
   4  -6   1   76.66    3.43
  -4  -6   0  181.52    6.02
  -4   6   0  163.37    5.02
  -4   6   0  172.34    5.13
   4   6   0  190.61   10.88
   4  -6   0  169.82    4.95
  -4  -6   1  114.15    3.69
  -4   6   1  118.28    4.00
  -4   6   1   93.73    2.68
   4  -6  -1  127.11    3.45
   4  -6  -2  194.16    4.56
  -4  -6   2  192.39    4.92
  -4  -6   2  180.94    3.45
  -4   6   2  194.63    4.88
  -4  -6   2  187.09    3.58
   4   6  -2  202.59    4.76
   4  -6  -2  189.44    4.37
   4  -6  -3  609.27   12.81
  -4  -6   3  585.70   11.39
   4   6  -3  593.96   11.15
  -4  -6   3  537.61   10.14
  -4   6   3  585.19   11.66
   4  -6  -3  590.33   11.42
   4  -6  -4  304.30    8.00
  -4  -6   4  302.11    7.69
   4   6  -4  296.63    8.64
  -4   6   4  301.38    8.28
   4  -6  -4  294.56    7.54
  -4  -6   4  304.59    8.22
   4  -6  -5  539.56   15.35
  -4  -6   5  528.69   14.53
   4   6  -5  572.20   16.09
  -4  -6   5  581.21   16.59
   4  -6  -6   76.32    7.36
   4   6  -6   73.16    8.54
  -4  -6   6   74.00    3.13
   4  -6  -7   55.77    6.77
   4   6  -7   57.92    5.66
   4  -6  -8   14.73    3.10
   4   6  -8   17.75    3.83
  -4  -7  -4   11.28    2.38
  -4   7  -4   10.07    2.11
  -4   7  -4   10.85    1.58
   4   7   4   10.74    2.11
   4  -7   4    9.85    1.65
  -4  -7  -3    3.12    1.56
  -4   7  -3   11.60    2.40
  -4   7  -3    2.58    1.06
   4   7   3    4.12    1.53
   4  -7   3    6.00    1.56
  -4  -7  -2  494.53   14.74
  -4   7  -2  478.24   14.12
  -4   7  -2  434.95   15.17
   4   7   2  462.23   17.58
   4  -7   2  473.76   13.93
  -4  -7  -1  225.98    7.56
  -4   7  -1  239.51    7.85
  -4   7  -1  241.33    7.35
   4   7   1  235.47    7.53
   4  -7   1  222.01    6.99
  -4  -7   0  491.00   12.59
  -4   7   0  481.15   11.97
   4   7   0  487.97   13.70
   4  -7   0  476.74   12.09
  -4  -7   1  480.17   12.30
  -4   7   1  453.53   11.80
  -4   7   1  461.96   11.70
   4   7  -1  453.60   11.58
   4  -7  -1  467.24   11.90
   4  -7  -2   51.80    1.97
  -4  -7   2   53.40    2.38
  -4  -7   2   49.64    1.03
  -4  -7   2   50.75    1.06
  -4   7   2   54.36    2.25
   4  -7  -2   59.33    2.04
   4  -7  -3  163.81    5.05
  -4  -7   3  167.33    4.74
   4   7  -3  161.33    4.39
  -4  -7   3  148.07    3.88
  -4   7   3  168.89    5.09
   4  -7  -3  164.32    5.03
   4  -7  -4  134.54    4.32
  -4  -7   4  126.43    3.70
   4   7  -4  149.38    7.30
  -4   7   4  130.85    4.71
   4  -7  -4  123.49    3.45
  -4  -7   4  139.47    4.91
   4  -7  -5  624.43   19.04
  -4  -7   5  617.13   16.82
   4   7  -5  650.54   18.20
  -4  -7   5  645.66   18.12
   4  -7  -6  192.03    7.55
   4   7  -6  189.06    7.23
  -4  -7   6  192.37    7.19
   4  -7  -7   20.95    3.87
   4   7  -7   22.46    3.20
   4  -7  -8   10.88    2.06
   4   7  -8   17.40    3.30
  -4  -8  -4   28.54    3.71
  -4   8  -4   29.31    3.89
  -4   8  -4   32.37    2.67
   4   8   4   26.76    4.81
   4  -8   4   30.60    2.71
  -4  -8  -3   11.35    2.16
  -4   8  -3   11.32    1.83
  -4   8  -3    9.72    1.55
   4   8   3    9.46    2.43
   4  -8   3   10.63    1.87
  -4  -8  -2   35.86    2.85
  -4   8  -2   33.04    2.63
  -4   8  -2   25.32    1.83
   4   8   2   32.42    4.51
   4  -8   2   35.73    2.23
  -4  -8  -1   31.15    2.29
  -4   8  -1   34.02    2.39
  -4   8  -1   36.56    2.28
   4   8   1   35.24    2.64
   4  -8   1   32.31    2.19
  -4  -8   0 1074.14   25.84
  -4   8   0 1073.58   25.79
  -4   8   0 1069.77   25.48
   4   8   0 1126.05   26.96
   4  -8   0 1069.43   25.60
  -4  -8   1    9.29    1.75
  -4   8   1   10.74    1.64
  -4   8   1    0.80    1.47
   4   8  -1   12.71    1.22
   4  -8  -1   10.90    1.17
  -4  -8   2  121.54    3.90
  -4   8   2  141.62    4.56
   4  -8  -2  135.67    3.98
   4  -8  -3  176.20    6.99
  -4  -8   3  184.41    5.21
   4   8  -3  164.29    4.30
  -4  -8   3  164.14    4.27
  -4   8   3  174.80    5.22
   4  -8  -3  178.06    5.33
   4  -8  -4  394.49   12.08
  -4  -8   4  324.36    7.80
  -4  -8   4  400.46    9.68
   4   8  -4  392.93    9.70
  -4   8   4  377.27    9.96
   4  -8  -4  386.35    9.32
  -4  -8   4  395.26   10.22
   4  -8  -5  206.48    6.38
   4   8  -5  217.57    6.21
  -4  -8   5  209.38    6.16
   4  -8  -6  203.56    7.60
   4   8  -6  204.12    7.71
  -4  -8   6  190.20    7.04
   4  -8  -7   41.88    6.77
   4   8  -7   41.44    5.26
   4  -8  -8   60.64    8.47
   4   8  -8   70.81    7.50
  -4   9  -4  108.98    5.86
  -4   9  -4   99.34    5.21
   4   9   4  100.95    5.22
   4  -9   4  107.26    5.70
  -4  -9  -3  196.97    7.08
  -4   9  -3  194.97    6.81
  -4   9  -3  194.84    6.34
   4   9   3  201.04    6.53
   4  -9   3  183.94    6.27
  -4  -9  -2  427.22   12.86
  -4   9  -2  433.91   17.36
  -4   9  -2  412.73   12.06
   4   9   2  419.02   12.50
   4  -9   2  448.45   17.95
  -4  -9  -1   77.89    3.36
  -4   9  -1   78.25    3.37
  -4   9  -1   66.21    2.94
   4   9   1   68.76    6.56
   4  -9   1   73.07    3.04
  -4  -9   0  287.99    8.07
  -4   9   0  292.64    8.18
  -4   9   0  295.99    8.20
   4   9   0  315.10    8.48
   4  -9   0  287.01    7.79
  -4  -9   1  158.43    4.99
  -4   9   1  169.84    5.52
  -4   9   1  151.77    4.57
   4   9  -1  164.82    4.83
   4  -9  -1  150.66    4.45
   4  -9  -2  224.98    6.26
  -4  -9   2  215.70    5.97
  -4   9   2  224.94    6.41
   4  -9  -2  212.36    5.83
   4  -9  -3  105.71    3.45
  -4  -9   3  105.73    3.31
   4   9  -3   98.27    3.14
  -4  -9   3   91.09    2.53
  -4   9   3  117.32    4.42
   4  -9  -3  110.12    3.27
   4  -9  -4   11.78    1.93
   4   9  -4   11.28    1.25
  -4   9   4    9.45    1.62
   4  -9  -4   13.25    1.35
  -4  -9   4   10.33    1.74
   4  -9  -5  130.08    4.20
   4   9  -5  128.67    4.14
  -4   9   5  128.00    4.50
  -4  -9   5  126.13    4.31
   4  -9  -6   80.52    7.69
   4   9  -6   82.13    3.21
  -4  -9   6   78.08    3.08
   4  -9  -7   47.53    7.00
   4   9  -7   48.33    5.26
   4  -9  -8   36.35    5.52
   4   9  -8   42.29    6.38
  -4 -10  -4   79.58    4.97
  -4  10  -4   80.08    4.63
  -4  10  -4   74.70    4.38
   4  10   4   45.62    7.65
   4 -10   4   72.58    4.41
  -4 -10  -3   79.10    3.89
  -4  10  -3   72.43    3.49
  -4  10  -3   74.40    3.51
   4  10   3   70.57    4.52
   4 -10   3   72.43    3.39
  -4 -10  -2  216.72    7.30
  -4  10  -2  243.16    8.24
  -4  10  -2  221.99    7.23
   4  10   2  226.24    7.78
   4 -10   2  222.65    7.25
  -4 -10  -1    4.46    2.27
  -4  10  -1    1.96    1.51
  -4  10  -1    5.78    1.89
   4  10   1    7.28    1.48
   4 -10   1    4.53    1.23
  -4 -10   0  211.06    7.16
  -4  10   0  215.63    7.22
  -4  10   0  213.92    6.88
   4  10   0  217.21    6.92
   4 -10   0  205.77    6.58
  -4 -10   1   89.93    3.51
  -4  10   1   79.23    3.19
  -4  10   1   80.90    3.14
   4 -10  -1   81.48    2.81
   4 -10  -2  236.28    9.64
  -4 -10   2  238.88    6.47
  -4  10   2  224.14    6.46
   4 -10  -2  234.92    6.24
   4 -10  -3  122.74    3.88
  -4 -10   3  108.12    3.45
   4  10  -3  116.17    3.11
  -4 -10   3  108.38    2.95
  -4  10   3  109.64    4.25
   4 -10  -3  117.42    3.39
  -4 -10   3  113.80    4.38
   4 -10  -4   62.59    5.24
  -4 -10   4   65.24    2.24
   4  10  -4   63.50    5.02
  -4  10   4   67.12    3.20
   4 -10  -4   65.76    4.23
  -4 -10   4   68.20    3.58
   4 -10  -5    5.11    0.90
   4  10  -5    6.58    0.96
  -4  10   5    7.08    2.39
  -4 -10   5    5.57    2.23
   4 -10  -6   24.08    4.32
  -4 -10   6   29.93    2.24
   4 -10  -7   28.64    5.26
   4  10  -7   29.05    3.09
  -4 -10   7   32.35    2.06
   4 -10  -8   28.14    5.95
   4  10  -8   37.33    5.72
  -4 -11  -3  316.80    9.97
  -4  11  -3  326.31   33.57
  -4  11  -3  314.00    9.56
   4  11   3  319.06   32.78
   4 -11   3  313.91    9.88
  -4 -11  -2  253.62   10.70
  -4  11  -2  262.08   11.21
  -4  11  -2  226.82    9.49
   4  11   2  235.38    9.79
   4 -11   2  243.01   10.25
  -4 -11  -1  260.49    9.70
  -4  11  -1  270.04   10.03
  -4  11  -1  272.89   10.07
   4  11   1  284.62   10.36
  -4 -11   0  131.21    4.69
  -4  11   0  131.47    4.93
  -4  11   0  135.08    4.63
   4 -11   0  135.51    4.38
   4 -11  -1   39.65    2.38
  -4 -11   1   34.90    2.39
  -4  11   1   24.31    1.97
   4 -11  -1   34.39    1.95
   4 -11  -2  139.32    8.71
  -4 -11   2  126.41    3.95
  -4  11   2  140.76    5.15
   4 -11  -2  126.05    3.78
  -4 -11   3  175.74    4.74
   4  11  -3  184.88    4.65
  -4  11   3  176.57    5.48
   4 -11  -3  190.45    5.13
  -4 -11   3  203.37    6.74
   4 -11  -4   40.36    4.33
  -4 -11   4   35.51    1.38
   4  11  -4   34.96    3.79
  -4  11   4   35.48    2.77
   4 -11  -4   34.86    2.53
  -4 -11   4   37.72    2.63
   4 -11  -5  178.41    6.75
   4  11  -5  173.26    6.37
  -4  11   5  174.90    7.19
  -4 -11   5  183.54    7.10
   4 -11  -6  139.15    6.18
   4  11  -6  125.37    5.51
  -4  11   6  135.43    6.44
  -4 -11   6  143.56    6.34
   4 -11  -7   76.92    8.16
  -4 -11   7   97.20    3.92
  -4 -12  -3   85.94    6.22
  -4  12  -3   73.41    5.35
  -4  12  -3   77.12    5.27
   4  12   3   79.05    5.21
   4 -12   3   75.75    5.27
  -4 -12  -2  167.29    7.18
  -4  12  -2  167.28    7.34
  -4  12  -2  162.77    6.92
   4  12   2  156.44    6.53
   4 -12   2  158.21    6.81
  -4 -12  -1   54.98    3.67
  -4  12  -1   48.13    3.18
  -4  12  -1   50.56    3.07
   4  12   1   58.58    3.01
  -4 -12   0  113.89    4.23
  -4  12   0  127.42    4.64
  -4  12   0  112.20    4.27
   4 -12   0  116.48    4.18
   4 -12  -1  413.97   12.09
  -4 -12   1  416.26   12.11
  -4  12   1  442.81   13.10
   4 -12  -1  419.53   12.15
   4 -12  -2  217.03    7.34
  -4 -12   2  190.65    5.85
  -4  12   2  197.88    6.93
   4 -12  -2  199.56    6.15
  -4 -12   3  487.53   13.55
   4  12  -3  488.36   13.58
  -4  12   3  518.71   15.05
   4 -12  -3  512.73   14.39
  -4 -12   3  530.02   15.37
   4 -12  -4  471.96   12.94
   4  12  -4  447.91   11.36
  -4  12   4  474.88   12.63
   4 -12  -4  482.34   12.40
  -4 -12   4  476.11   12.68
   4 -12  -5  178.87    6.85
   4  12  -5  178.54    6.55
  -4  12   5  186.93    7.65
  -4 -12   5  186.59    7.36
   4 -12  -6   45.35    5.64
   4  12  -6   45.20    5.28
  -4  12   6   50.59    3.70
  -4 -12   6   40.59    3.07
   4 -12  -7    7.21    1.76
   4  12  -7    5.79    0.99
  -4 -12   7    7.49    1.63
  -4 -13  -3   98.97    7.04
  -4  13  -3   96.25    6.78
  -4  13  -3   96.52    6.56
   4 -13   3   95.76    6.58
  -4 -13  -2    6.67    1.78
  -4  13  -2    3.70    1.69
  -4  13  -2    3.15    1.35
   4 -13   2    6.02    1.89
  -4 -13  -1  208.42    7.16
  -4  13  -1  196.57    6.58
  -4  13  -1  199.81    6.86
   4 -13   1  196.75    6.67
  -4 -13   0   35.04    3.06
  -4  13   0   26.32    2.04
  -4  13   0   27.67    2.59
   4 -13   0   32.94    2.23
   4 -13  -1   74.93    3.19
  -4 -13   1   71.37    3.11
  -4  13   1   66.51    4.09
   4 -13  -1   80.70    3.33
   4 -13  -2  256.29    8.46
  -4 -13   2  229.22    6.87
  -4  13   2  223.47    7.55
   4 -13  -2  237.41    7.17
   4 -13  -3  118.11   13.55
  -4 -13   3   98.52    3.00
   4  13  -3  102.19    3.03
  -4  13   3  112.38    4.39
   4 -13  -3  118.88    3.68
  -4 -13   3  113.65    4.28
   4 -13  -4   13.95    1.84
   4  13  -4   17.56    1.83
  -4  13   4   12.76    1.92
   4 -13  -4   17.89    1.21
  -4 -13   4   11.41    1.83
   4 -13  -5   75.42    6.61
   4  13  -5   66.35    5.39
  -4  13   5   62.70    3.74
  -4 -13   5   78.33    3.78
   4 -13  -6   33.79    4.56
   4  13  -6   29.46    4.12
  -4  13   6   38.42    4.00
  -4 -13   6   34.89    3.68
   4 -13  -7   22.94    5.52
   4  13  -7   25.77    4.62
  -4  13   7   29.64    4.60
  -4 -13   7   35.44    3.07
  -4 -14  -3   46.24    4.02
  -4  14  -3   46.18    3.57
  -4  14  -3   39.77    3.11
   4 -14   3   35.65    2.71
  -4 -14  -2   -0.37    1.27
  -4  14  -2    3.20    1.67
  -4  14  -2    1.13    1.37
   4 -14   2    3.15    1.74
  -4 -14  -1   57.00    2.84
  -4  14  -1   69.00    4.02
  -4  14  -1   58.35    3.13
   4 -14   1   64.04    3.20
  -4 -14   0   23.02    2.46
  -4  14   0   22.18    1.88
  -4  14   0   23.21    2.54
   4 -14   0   19.64    1.67
   4 -14  -1  488.73   12.86
  -4 -14   1  459.95   12.00
  -4  14   1  508.11   13.60
   4 -14  -1  481.43   12.57
   4 -14  -2  378.42   10.54
  -4 -14   2  342.49    9.00
  -4  14   2  358.31   10.06
   4 -14  -2  350.99    9.32
  -4 -14   2  340.23    9.44
   4 -14  -3  707.10   18.32
  -4 -14   3  611.51   15.10
   4  14  -3  607.69   15.02
  -4  14   3  650.59   16.86
   4 -14  -3  666.99   16.68
  -4 -14   3  664.61   17.16
   4 -14  -4  377.13   13.51
   4  14  -4  346.15   13.14
  -4  14   4  394.43   14.17
   4 -14  -4  376.75   12.92
  -4 -14   4  382.71   13.80
   4 -14  -5  110.54    4.20
   4  14  -5  103.11    3.69
  -4  14   5  105.63    4.59
  -4 -14   5  109.11    4.24
   4 -14  -6   41.59    7.39
   4  14  -6   39.58    6.41
  -4  14   6   41.87    4.51
  -4 -14   6   43.89    4.28
   4 -14  -7   26.01    4.88
   4  14  -7   23.99    3.89
  -4  14   7   31.24    3.47
  -4 -14   7   30.28    2.44
  -4 -15  -3   11.79    2.25
  -4  15  -3    7.15    1.84
  -4  15  -3    8.38    1.58
   4 -15   3    9.25    1.82
  -4 -15  -2  135.79    5.24
  -4  15  -2  135.31    5.00
  -4  15  -2  125.57    4.68
   4 -15   2  123.91    4.60
  -4 -15  -1  255.68   10.64
  -4  15  -1  279.81   11.82
  -4  15  -1  270.15   11.31
   4 -15   1  260.05   10.82
  -4 -15   0   41.46    2.95
  -4  15   0   51.41    3.06
  -4  15   0   45.07    2.87
   4 -15   0   46.02    2.63
   4 -15  -1   21.65    1.82
  -4 -15   1   18.24    1.73
  -4  15   1   20.21    2.32
   4 -15  -1   22.23    1.72
   4 -15  -2   57.77    6.17
  -4 -15   2   47.73    2.47
  -4  15   2   49.82    3.41
   4 -15  -2   56.68    2.78
  -4 -15   2   58.53    4.03
   4 -15  -3   65.04    7.16
  -4 -15   3   64.38    2.78
   4  15  -3   57.23    2.98
  -4  15   3   63.74    3.62
   4 -15  -3   61.52    2.77
  -4 -15   3   66.36    3.73
   4 -15  -4    7.81    1.41
   4  15  -4    7.93    0.94
  -4  15   4   11.70    3.33
   4 -15  -4    5.45    0.73
  -4 -15   4    4.96    1.59
   4 -15  -5    8.13    1.52
   4  15  -5   10.15    1.47
  -4  15   5    8.58    1.67
  -4 -15   5   12.47    2.45
   4 -15  -6   15.69    2.43
   4  15  -6   17.03    2.93
  -4  15   6   11.41    2.09
  -4 -15   6   16.46    1.80
   4 -15  -7    4.86    1.28
  -4  15   7   12.55    2.54
  -4 -15   7    6.62    1.66
  -4 -16  -3   51.83    3.54
  -4  16  -3   60.88    3.87
  -4  16  -3   51.84    3.59
   4 -16   3   51.81    3.27
  -4 -16  -2    2.40    1.47
  -4  16  -2    4.47    2.41
  -4  16  -2    3.70    1.61
   4 -16   2    2.91    1.65
  -4 -16  -1    1.95    1.32
  -4  16  -1    5.19    2.51
  -4  16  -1    3.62    1.89
   4 -16   1    5.95    1.22
  -4 -16   0   53.68    2.91
  -4  16   0   50.14    2.72
  -4  16   0   48.66    2.72
   4 -16   0   47.82    2.61
   4 -16  -1   41.12    2.66
  -4 -16   1   36.13    2.16
  -4  16   1   37.97    2.73
   4 -16  -1   38.33    2.32
  -4 -16   1   43.88    3.15
   4 -16  -2   16.24    2.91
  -4 -16   2   14.83    1.41
  -4  16   2   17.50    2.95
   4 -16  -2   12.48    1.10
  -4 -16   2   13.84    1.96
   4 -16  -3   54.58    7.18
  -4 -16   3   49.20    2.13
  -4  16   3   52.18    3.17
   4 -16  -3   49.79    2.34
  -4 -16   3   53.76    3.58
   4  16  -4  314.68    9.02
  -4  16   4  309.76   10.01
   4 -16  -4  262.64    7.59
  -4 -16   4  335.10   10.45
   4 -16  -5   82.43    7.52
   4  16  -5   73.44    6.42
  -4  16   5   79.69    4.37
  -4 -16   5   72.09    4.24
   4 -16  -6   55.10    7.11
   4  16  -6   48.95    6.30
  -4  16   6   62.41    4.75
  -4 -16   6   74.79    5.32
   4 -16  -7    7.41    1.52
   4  16  -7    6.66    1.40
  -4  16   7    4.97    2.43
  -4 -16   7    4.76    1.73
  -4 -17  -2  229.39   13.94
  -4  17  -2  245.48   14.72
  -4  17  -2  219.57   13.42
   4 -17   2  238.93   14.43
  -4 -17  -1  114.61    5.54
  -4  17  -1  130.72    6.24
  -4  17  -1  139.80    6.89
   4 -17   1  128.90    6.08
  -4 -17   0  104.51    4.87
  -4  17   0  101.85    5.30
  -4  17   0   99.29    5.02
   4 -17   0   95.89    4.56
   4 -17  -1   84.32    3.88
  -4 -17   1   84.33    3.43
  -4  17   1   77.85    3.95
   4 -17  -1   78.59    3.21
   4 -17  -2   81.56    7.37
  -4 -17   2   83.61    3.56
  -4  17   2   87.31    4.70
   4 -17  -2   81.23    3.59
  -4 -17   2   80.54    3.97
   4 -17  -3    6.38    1.36
  -4  17   3    7.92    1.89
   4 -17  -3    4.06    1.07
  -4 -17   3    7.03    2.59
   4 -17  -4   49.77    7.95
   4  17  -4   54.24    4.81
  -4  17   4   57.10    3.64
  -4 -17   4   62.95    4.34
   4 -17  -5   15.35    3.20
   4  17  -5   12.92    2.40
  -4  17   5   14.34    2.65
  -4 -17   5   15.37    2.66
   4 -17  -6   11.94    2.42
   4  17  -6    9.40    1.84
  -4  17   6   18.76    3.47
  -4 -17   6   10.61    2.32
  -4 -18  -2   39.52    3.21
  -4  18  -2   34.44    2.85
  -4  18  -2   33.97    2.77
   4 -18   2   43.97    3.58
  -4 -18  -1    9.79    1.97
  -4  18  -1    9.80    2.64
  -4  18  -1   -0.60    1.68
   4 -18   1    7.61    1.77
  -4 -18   0   70.47    3.79
  -4  18   0   76.03    4.52
  -4  18   0   66.36    3.57
   4 -18   0   66.55    3.68
  -4 -18   0   82.80    4.52
   4 -18  -1   61.13    3.40
  -4 -18   1   71.00    3.48
  -4  18   1   76.78    4.65
   4 -18  -1   66.41    3.51
  -4 -18   1   76.42    4.46
   4 -18  -2  125.51    4.56
  -4 -18   2  119.35    4.04
  -4  18   2  143.83    5.79
   4 -18  -2  122.07    4.26
  -4 -18   2  127.92    4.86
   4 -18  -3  214.65   14.94
  -4  18   3  214.02    9.31
   4 -18  -3  202.82    8.28
  -4 -18   3  213.15    9.17
   4 -18  -4  282.39   11.08
  -4  18   4  276.26   11.28
  -4 -18   4  279.54   11.34
   4 -18  -5   74.32    7.62
   4  18  -5   52.96    5.71
  -4  18   5   72.46    3.79
  -4 -18   5   75.96    3.63
   4 -18  -6   36.60    6.30
   4  18  -6   26.95    5.09
  -4  18   6   55.19    4.74
  -4 -18   6   39.40    3.56
  -4 -19  -2   56.95    3.80
  -4  19  -2   55.42    3.65
  -4  19  -2   51.81    3.75
  -4 -19  -1  140.76    8.81
  -4  19  -1  152.50    9.58
  -4  19  -1  161.86   10.26
   4 -19   1  143.05    8.97
  -4 -19  -1  154.44    9.74
  -4 -19   0  143.72    6.57
  -4  19   0  151.32    7.13
  -4  19   0  165.39    7.78
   4 -19   0  148.16    6.94
  -4 -19   0  159.67    7.38
   4 -19  -1  156.52    6.66
  -4 -19   1  149.76    6.20
  -4  19   1  165.09    7.10
   4 -19  -1  169.13    7.04
  -4 -19   1  164.65    7.52
   4 -19  -2    7.63    1.32
  -4 -19   2    3.47    0.63
  -4  19   2   10.75    2.65
   4 -19  -2    5.21    1.29
  -4 -19   2    1.34    1.56
   4 -19  -3    8.39    1.37
  -4  19   3   12.84    2.22
   4 -19  -3    3.30    1.15
  -4 -19   3    5.82    1.62
   4 -19  -4   18.64    2.98
  -4  19   4   27.74    3.82
  -4 -19   4   24.99    3.47
   4 -19  -5   12.53    3.04
  -4  19   5   19.68    3.47
  -4 -19   5   15.56    3.03
   4 -19  -6   70.83   11.37
   4  19  -6   62.23    7.41
  -4  19   6   81.97    5.05
  -4 -19   6   89.95    5.14
  -4 -20  -1    6.68    1.72
  -4  20  -1    6.44    1.85
  -4  20  -1    3.30    2.61
   4 -20   1    5.28    1.88
  -4 -20  -1    8.67    2.03
  -4 -20   0   29.93    2.34
  -4  20   0   28.33    2.59
  -4  20   0   29.51    2.71
   4 -20   0   28.82    2.37
   4 -20  -1    4.59    1.63
  -4 -20   1    7.86    1.39
  -4  20   1   11.09    2.71
   4 -20  -1    4.72    1.44
  -4 -20   1    5.53    2.51
   4 -20  -2   57.46    6.66
  -4  20   2   80.25    4.62
   4 -20  -2   66.40    3.48
  -4 -20   2   59.96    3.78
   4 -20  -3   66.86    6.76
  -4  20   3   70.05    4.20
   4 -20  -3   73.14    3.70
  -4 -20   3   68.51    4.13
   4 -20  -4  102.03    6.46
  -4  20   4  114.64    5.29
  -4 -20   4  109.25    5.11
  -4  20   5  159.24   10.48
  -4 -20   5  175.54   18.63
  -4 -21  -1   99.71    5.96
  -4  21  -1  104.78    6.36
  -4  21  -1  113.84    7.00
   4 -21   1  100.64    6.00
  -4 -21  -1  105.57    6.24
  -4 -21   0   24.75    2.98
  -4  21   0   27.95    3.69
  -4  21   0   24.50    3.83
   4 -21   0   29.20    3.67
  -4 -21   0   24.45    3.23
   4 -21  -1    3.93    1.30
  -4 -21   1    5.01    1.16
  -4  21   1    7.29    2.50
   4 -21  -1    4.80    0.97
  -4 -21   1    9.13    2.41
   4 -21  -2   10.42    2.48
  -4  21   2   13.42    2.91
   4 -21  -2   14.38    1.61
  -4 -21   2   15.06    2.31
   4 -21  -3   55.04    6.02
  -4  21   3   55.91    4.23
   4 -21  -3   50.01    2.38
  -4 -21   3   58.29    3.31
   4 -21  -4   38.92    6.78
  -4  21   4   38.72    3.64
  -4 -21   4   49.66    4.39
   4 -21  -5   21.85    4.92
  -4  21   5   27.82    4.03
  -4 -21   5   30.74    3.35
  -4 -22  -1   30.93    2.50
  -4  22  -1   33.64    2.93
  -4  22  -1   31.70    3.13
   4 -22   1   32.84    2.92
  -4 -22  -1   34.27    2.87
  -4 -22   0   20.96    3.10
  -4  22   0   23.55    3.44
  -4  22   0   23.93    3.89
   4 -22   0   19.78    3.05
  -4 -22   0   25.53    4.16
   4 -22  -1   12.57    3.46
  -4 -22   1   12.22    1.75
  -4  22   1   18.70    3.09
   4 -22  -1   19.44    2.67
  -4 -22   1   10.02    2.39
  -4  22   2   75.62    5.76
   4 -22  -2   65.87    4.45
  -4 -22   2   70.78    5.38
   4 -22  -3   53.29    5.93
  -4  22   3   58.78    5.18
   4 -22  -3   50.57    3.44
  -4 -22   3   51.57    4.45
   4 -22  -4   32.24    7.67
  -4  22   4   35.26    3.53
  -4 -22   4   35.39    3.32
   4 -22  -5   34.30    7.24
  -4  22   5   43.60    3.53
  -4 -22   5   47.53    3.35
  -4 -23   0   99.01    5.08
  -4  23   0  110.67    6.79
  -4  23   0  123.63    7.63
   4 -23   0  102.15    6.08
  -4 -23   0  107.14    6.76
   4 -23  -1    8.14    2.58
  -4  23   1    8.72    2.47
   4 -23  -1    8.04    1.56
  -4 -23   1    8.05    2.52
   4 -23  -2   27.07    6.33
  -4  23   2   33.35    4.64
   4 -23  -2   31.49    4.20
  -4 -23   2   29.89    4.34
   4 -23  -3   16.37    4.09
  -4  23   3   21.91    3.55
   4 -23  -3   17.86    2.56
  -4 -23   3   33.85    4.82
   4 -23  -4    6.14    1.83
  -4  23   4   11.92    3.08
  -4 -23   4    9.36    2.11
   4 -24  -1    8.88    2.36
  -4  24   1   11.44    1.91
   4 -24  -1    5.94    1.13
  -4 -24   1    9.41    2.19
   4 -24  -2   13.40    2.87
  -4  24   2   15.97    2.95
   4 -24  -2   19.94    2.74
  -4 -24   2   15.87    2.65
   4 -24  -3   23.06    4.17
  -4  24   3   27.47    2.93
  -4 -24   3   29.07    2.95
  -5   0  -3  104.41    6.54
   5   0   3   96.88    5.74
   5   0   2   34.08    4.89
  -5   0  -1  145.61    5.44
   5   0   1  161.30    5.89
  -5   0   0   63.55    3.66
  -5   0   0   57.47    2.37
   5   0   0   62.24    6.30
  -5   0   1    8.67    2.50
  -5   0   1    7.27    0.70
   5   0  -1    9.42    1.60
  -5   0   2  361.29    9.72
  -5   0   2  358.04    8.76
   5   0  -2  352.72    9.06
  -5   0   3   35.97    2.78
  -5   0   3   31.26    1.95
   5   0  -3   33.04    3.58
  -5   0   4   80.12    3.52
  -5   0   4   76.04    2.90
   5   0  -4   76.51    2.86
  -5   0   5  270.16    9.95
   5   0  -6   12.96    1.06
   5   0  -7    4.60    1.17
   5   0  -8   93.82    5.53
  -5  -1  -3   17.96    3.02
  -5   1  -3   16.54    3.01
   5  -1   3   20.54    3.68
   5   1   3   21.48    4.01
  -5  -1  -2    8.75    2.43
  -5   1  -2    6.27    2.01
   5   1   2    8.01    2.38
   5  -1   2    6.91    1.62
  -5  -1  -1  338.54   10.73
  -5   1  -1  327.32   10.25
   5   1   1  329.86   17.79
   5  -1   1  334.16   10.60
  -5  -1   0   28.00    2.79
  -5   1   0   36.52    2.73
  -5   1   0   31.43    1.62
   5   1   0   36.53    6.13
   5  -1   0   34.79    5.10
  -5  -1   1   94.99    4.00
  -5   1   1   96.44    4.43
  -5  -1   1   90.56    2.80
  -5   1   1  104.52    3.34
   5   1  -1  103.12    3.98
   5  -1  -1  107.63    8.40
  -5   1   2  111.33    4.73
  -5  -1   2   90.39    4.23
  -5  -1   2   91.43    3.04
  -5   1   2   93.14    3.19
   5  -1  -2   93.04    7.38
   5   1  -2  106.92    7.04
  -5  -1   3  187.27    5.49
  -5   1   3  187.08    6.14
  -5  -1   3  194.57    5.92
  -5   1   3  193.66    5.41
   5   1  -3  210.95    6.95
   5  -1  -3  196.34    6.13
  -5  -1   4  425.52   12.26
  -5   1   4  428.11   12.42
  -5  -1   4  420.90   11.99
  -5   1   4  420.36   12.07
   5   1  -4  419.99   12.01
   5  -1  -4  424.54   12.31
   5  -1  -5  261.70    9.61
  -5  -1   5  253.49    9.37
   5   1  -6  198.37    5.94
   5  -1  -6  209.59    6.67
   5  -1  -7   21.63    4.09
   5   1  -7   28.46    2.69
   5   1  -8    3.28    1.09
   5  -1  -8    6.41    1.57
  -5  -2  -3   41.96    3.87
  -5   2  -3   37.11    4.11
   5   2   3   31.01    3.45
   5  -2   3   33.15    6.50
  -5  -2  -2   43.25    4.22
  -5   2  -2   41.08    4.14
   5   2   2   39.81    4.92
   5  -2   2   47.68    5.21
  -5  -2  -1   62.75    3.67
  -5   2  -1   55.64    3.65
  -5   2  -1   52.51    2.09
   5   2   1   57.63    7.91
   5  -2   1   68.01    5.86
  -5  -2   0   52.76    3.35
  -5   2   0   68.33    4.12
  -5   2   0   52.46    2.33
   5   2   0   53.88    9.09
  -5  -2   1  128.72    4.84
  -5   2   1  144.03    5.24
  -5  -2   1  122.22    3.51
  -5   2   1  141.31    4.45
   5   2  -1  136.74    4.96
   5  -2  -1  131.29    8.77
  -5  -2   2   15.10    2.07
  -5   2   2   19.92    2.27
  -5  -2   2   19.76    1.11
  -5   2   2   16.32    1.38
   5   2  -2   20.10    3.24
   5  -2  -2   18.42    2.41
  -5  -2   3  365.51   10.79
  -5   2   3  385.04   11.55
  -5   2   3  365.62   10.80
  -5  -2   3  335.13    9.54
   5   2  -3  354.31   10.35
   5  -2  -3  366.20   10.58
  -5  -2   4  449.83   12.91
  -5   2   4  465.39   13.58
  -5   2   4  452.75   12.96
   5  -2  -4  430.44   12.92
   5  -2  -5  168.99    6.49
  -5  -2   5  165.82    6.47
   5  -2  -6   47.75    4.76
  -5  -2   6   50.74    2.27
   5   2  -6   46.39    2.22
  -5  -2   6   43.36    2.26
   5  -2  -7   22.82    4.58
   5   2  -7   43.66    3.91
   5   2  -8   43.82    8.52
  -5  -3  -3    9.10    1.80
  -5   3  -3   11.28    2.51
   5  -3   3   13.46    2.88
  -5  -3  -2   25.61    3.25
  -5   3  -2   28.35    3.56
   5   3   2   32.96    4.70
   5  -3   2   32.01    4.68
  -5  -3  -1   97.40    4.70
  -5   3  -1   82.06    2.88
   5   3   1   91.68    3.60
   5  -3   1   95.21    7.43
  -5  -3   0  214.73    8.70
  -5   3   0  223.04    8.82
  -5   3   0  201.15    7.40
   5   3   0  217.08    8.37
  -5  -3   1  190.48    6.59
  -5   3   1  179.06    6.48
  -5   3   1  171.85    5.28
   5   3  -1  182.39    6.34
   5  -3  -1  203.80   11.74
  -5  -3   2  385.42   11.58
  -5   3   2  367.42   11.17
  -5  -3   2  349.71    9.62
  -5   3   2  375.67   10.73
   5   3  -2  366.29   12.28
   5  -3  -2  364.04   10.81
  -5  -3   3  561.49   16.00
  -5   3   3  558.84   16.15
  -5   3   3  575.38   16.34
  -5  -3   3  519.71   14.33
   5   3  -3  545.55   15.94
   5  -3  -3  555.53   15.79
   5  -3  -4  667.82   18.73
  -5  -3   4  689.69   19.27
  -5   3   4  635.84   17.94
   5  -3  -4  657.53   18.39
   5  -3  -5  275.60   11.10
  -5  -3   5  280.34   10.21
   5  -3  -6  177.82    5.59
  -5  -3   6  185.08    5.62
   5   3  -6  183.56    5.83
  -5  -3   6  190.06    5.99
   5  -3  -7   78.44    3.83
   5   3  -7   85.21    4.37
   5   3  -8    2.08    1.33
  -5   4  -3   22.32    3.37
   5   4   3   14.40    2.59
   5  -4   3   19.66    3.53
  -5  -4  -2  140.47    6.01
  -5   4  -2  126.17    5.37
   5   4   2  125.71    4.71
   5  -4   2  110.84    9.12
  -5  -4  -1   42.05    2.97
  -5   4  -1   35.97    1.72
   5   4   1   45.32    4.58
   5  -4   1   43.90    4.61
  -5  -4   0   91.17    5.03
  -5   4   0   88.38    4.35
  -5   4   0   88.82    3.80
   5   4   0   89.61    8.27
   5  -4   0   87.21    6.69
  -5  -4   1  253.17    7.55
  -5   4   1  249.54    7.60
  -5   4   1  251.72    6.88
   5   4  -1  241.52    7.09
   5  -4  -1  242.29    6.88
  -5  -4   2  136.45    5.21
  -5   4   2  124.30    4.62
  -5  -4   2  117.55    3.33
  -5   4   2  119.08    3.95
   5   4  -2  131.38    4.71
   5  -4  -2  135.23   10.50
  -5  -4   3  483.05   13.89
  -5   4   3  473.77   13.81
  -5   4   3  465.41   13.63
  -5  -4   3  416.30   11.55
   5   4  -3  486.36   14.04
   5  -4  -3  468.89   14.09
   5  -4  -4  189.80    5.66
  -5  -4   4  197.34    5.85
  -5   4   4  196.16    5.85
   5  -4  -4  193.28    5.45
   5  -4  -5  108.63    9.32
  -5  -4   5  102.94    4.17
  -5   4   5  101.25    4.38
  -5  -4   5  107.57    4.69
   5  -4  -6  109.09    4.52
   5   4  -6   92.13    7.61
  -5  -4   6   99.02    3.85
   5  -4  -7  113.34    4.95
   5   4  -7  112.55    9.40
   5   4  -8   23.10    5.25
  -5  -5  -3    5.42    1.73
  -5   5  -3    1.49    1.68
   5   5   3    3.62    1.23
   5  -5   3    2.40    1.12
  -5  -5  -2   27.83    2.63
  -5   5  -2   26.94    2.95
  -5   5  -2   28.56    1.91
   5   5   2   26.73    2.90
   5  -5   2   33.18    4.49
  -5  -5  -1    9.29    2.44
  -5   5  -1    0.95    1.84
  -5   5  -1    3.41    1.26
   5   5   1    4.44    1.13
   5  -5   1    3.04    1.11
  -5  -5   0  369.94   13.57
  -5   5   0  344.79   12.63
  -5   5   0  350.49   12.27
   5   5   0  378.02   20.29
   5  -5   0  339.63   12.17
  -5  -5   1   32.73    2.55
  -5   5   1   24.61    2.41
  -5   5   1   31.51    2.01
   5   5  -1   22.97    3.42
   5  -5  -1   35.18    4.18
  -5  -5   2  266.69    8.31
  -5   5   2  256.52    8.11
  -5   5   2  249.36    7.41
   5   5  -2  275.58    8.44
   5  -5  -2  264.02    9.27
  -5  -5   3  593.30   16.74
  -5   5   3  579.96   16.56
  -5   5   3  565.75   16.00
  -5  -5   3  530.68   14.53
   5   5  -3  585.48   16.54
   5  -5  -3  580.24   17.52
   5  -5  -4  244.13    6.87
  -5  -5   4  239.21    6.60
  -5   5   4  231.38    6.67
   5  -5  -4  241.22    6.48
   5  -5  -5   43.15    4.68
  -5  -5   5   44.63    2.35
   5   5  -5   42.50    2.11
  -5   5   5   35.28    2.15
   5  -5  -5   42.27    1.87
  -5  -5   5   39.95    2.30
   5  -5  -6   37.39    4.88
   5   5  -6   36.86    4.99
  -5  -5   6   43.75    2.92
   5  -5  -7   26.00    4.35
   5   5  -7   27.04    5.33
   5   5  -8    1.73    0.76
  -5  -6  -3   50.41    3.76
  -5   6  -3   39.62    3.05
   5   6   3   35.53    5.16
   5  -6   3   40.60    7.10
  -5  -6  -2  279.90    9.17
  -5   6  -2  255.79    7.72
   5   6   2  259.97    8.34
   5  -6   2  274.80   16.40
  -5  -6  -1   39.40    3.49
  -5   6  -1   30.93    2.57
  -5   6  -1   36.45    2.35
   5   6   1   36.10    5.40
   5  -6   1   33.08    3.52
  -5  -6   0   22.90    2.68
  -5   6   0   27.55    3.03
  -5   6   0   31.84    2.17
   5   6   0   28.70    3.33
   5  -6   0   23.78    4.56
  -5  -6   1   35.02    2.72
  -5   6   1   34.28    2.34
  -5   6   1   38.53    2.01
   5  -6  -1   40.17    4.21
  -5  -6   2   49.78    3.06
  -5   6   2   50.86    3.50
  -5   6   2   34.22    1.83
   5   6  -2   45.94    2.52
   5  -6  -2   47.67    3.73
  -5  -6   3  180.37    5.86
  -5   6   3  165.65    5.64
  -5  -6   3  141.89    4.09
   5  -6  -3  172.53    6.27
   5  -6  -4   17.78    2.51
  -5  -6   4   12.66    1.44
  -5   6   4   13.25    1.50
   5  -6  -4   10.30    1.43
   5  -6  -5   12.98    2.04
  -5  -6   5   10.63    1.16
   5   6  -5   14.59    0.99
  -5   6   5   12.58    1.72
   5  -6  -5   12.55    0.88
  -5  -6   5   10.92    1.57
   5  -6  -6   76.25    7.35
   5   6  -6   75.87    3.58
  -5  -6   6   82.90    4.32
   5  -6  -7  226.97    7.02
   5   6  -7  221.37    8.14
   5   6  -8  114.55    5.93
  -5  -7  -2    5.87    2.55
  -5   7  -2    5.14    1.92
  -5   7  -2    3.06    0.95
   5   7   2    6.21    1.33
   5  -7   2    3.08    1.23
  -5  -7  -1   13.36    2.56
  -5   7  -1   10.65    2.62
  -5   7  -1   11.87    1.40
   5   7   1   11.58    2.03
   5  -7   1    9.41    1.38
  -5  -7   0   52.31    3.27
  -5   7   0   48.00    2.95
  -5   7   0   57.54    2.99
   5   7   0   52.51    4.85
   5  -7   0   50.32    2.71
  -5  -7   1    9.41    2.59
  -5   7   1   10.08    1.80
  -5   7   1    8.80    1.37
   5   7  -1    8.32    1.26
   5  -7  -1   13.97    2.43
  -5  -7   2  208.07    6.44
  -5   7   2  212.13    6.48
  -5   7   2  199.86    5.83
   5   7  -2  215.12    6.30
   5  -7  -2  198.72    7.12
   5  -7  -3  237.04    6.81
  -5  -7   3  242.22    6.85
  -5   7   3  248.19    7.22
   5  -7  -3  226.78    7.75
   5  -7  -4  155.90    7.75
  -5  -7   4  173.42    6.61
  -5   7   4  181.41    7.28
   5  -7  -4  170.29    6.41
   5  -7  -5    4.42    0.74
  -5  -7   5    2.50    1.05
   5   7  -5    4.80    0.66
  -5   7   5    8.23    2.41
   5  -7  -5    2.73    0.52
  -5  -7   5    3.82    1.24
   5  -7  -6   47.32    6.47
   5   7  -6   50.70    5.21
  -5   7   6   52.90    3.19
  -5  -7   6   57.98    3.36
   5  -7  -7   24.37    3.85
   5   7  -7   23.99    3.80
  -5  -8  -2  159.49   10.33
  -5   8  -2  144.40    9.23
  -5   8  -2  145.42    8.96
   5   8   2  150.75    9.34
   5  -8   2  138.89    8.71
  -5  -8  -1   77.71    4.59
  -5   8  -1   65.13    4.18
  -5   8  -1   63.36    3.06
   5   8   1   63.31    3.50
   5  -8   1   65.45    3.45
  -5  -8   0   59.64    3.84
  -5   8   0   45.49    2.51
   5   8   0   57.52    5.18
   5  -8   0   57.12    3.12
  -5  -8   1   30.28    2.76
  -5   8   1   23.71    2.20
  -5   8   1   23.86    2.03
   5   8  -1   29.97    2.29
   5  -8  -1   26.70    1.94
  -5  -8   2   93.30    3.82
  -5   8   2   99.03    3.99
  -5   8   2   85.37    3.04
   5   8  -2   95.73    3.64
   5  -8  -2   96.38    3.31
   5  -8  -3  139.74    4.67
  -5  -8   3  137.40    4.52
  -5   8   3  134.90    5.14
   5  -8  -3  133.42    4.43
   5  -8  -4   39.62    5.30
  -5  -8   4   39.75    2.33
  -5   8   4   39.69    2.83
   5  -8  -4   41.32    4.32
   5  -8  -5  144.80    8.05
   5   8  -5  142.84    5.58
  -5   8   5  156.37    6.32
  -5  -8   5  147.14    6.05
   5  -8  -6  116.38    7.26
   5   8  -6  102.47    7.87
  -5   8   6  113.30    5.42
   5  -8  -7  153.04    9.34
   5   8  -7  150.16    9.07
  -5  -9  -2    5.74    2.47
  -5   9  -2    2.68    1.81
  -5   9  -2    4.95    1.30
   5  -9   2    3.40    1.81
  -5  -9  -1   43.34    3.40
  -5   9  -1   46.07    3.43
  -5   9  -1   41.46    3.05
   5   9   1   43.96    4.23
   5  -9   1   47.67    3.35
  -5  -9   0   48.97    3.13
  -5   9   0   45.03    3.15
  -5   9   0   42.71    2.40
   5   9   0   44.30    3.98
   5  -9   0   47.82    2.67
  -5  -9   1  125.28    5.55
  -5   9   1  119.45    5.22
  -5   9   1  119.84    4.89
   5   9  -1  128.83    5.24
   5  -9  -1  116.37    4.89
  -5  -9   2  143.29    6.01
  -5   9   2  141.53    6.04
  -5   9   2  131.24    5.44
   5  -9  -2  131.48    5.28
   5  -9  -3  501.27   17.96
  -5  -9   3  553.32   19.06
  -5   9   3  590.26   20.50
   5  -9  -3  518.05   18.99
   5  -9  -4  274.88   10.75
  -5  -9   4  268.03    9.48
   5   9  -4  254.45    8.77
  -5   9   4  290.64   10.96
   5  -9  -4  268.67    9.48
  -5  -9   4  277.65   10.14
   5  -9  -5   14.92    2.48
  -5   9   5   18.05    2.41
  -5  -9   5   13.69    1.87
   5  -9  -6   23.58    4.73
   5   9  -6   21.76    2.68
  -5   9   6   29.55    3.23
  -5  -9   6   28.47    2.34
   5  -9  -7   10.82    1.85
   5   9  -7   14.35    2.80
  -5 -10  -2  123.00    8.55
  -5  10  -2  106.55    7.30
  -5  10  -2  104.90    6.91
   5  10   2   82.00   11.73
   5 -10   2  103.45    6.97
  -5  10  -1  221.95    9.98
  -5  10  -1  229.58    9.93
   5  10   1  240.36   10.49
  -5 -10   0   70.66    3.31
  -5  10   0   77.43    4.07
  -5  10   0   75.66    3.20
   5  10   0   84.41    3.77
   5 -10   0   73.73    3.39
  -5 -10   1   41.55    2.93
  -5  10   1   33.05    2.90
  -5  10   1   35.05    2.35
   5  10  -1   40.58    2.70
   5 -10  -1   38.77    2.20
  -5 -10   2   48.52    2.97
  -5  10   2   59.74    3.95
  -5  10   2   52.29    3.29
   5 -10  -2   55.29    2.72
   5 -10  -3    7.91    1.32
  -5 -10   3    9.24    1.45
  -5  10   3    7.19    2.19
   5 -10  -3    8.90    1.33
   5 -10  -4   13.01    1.77
  -5 -10   4   10.97    1.34
  -5  10   4    8.21    1.57
   5 -10  -4   12.33    1.55
  -5 -10   4   15.34    2.34
   5 -10  -5  128.03   10.22
  -5  10   5  106.13    4.27
  -5 -10   5  110.15    4.20
   5 -10  -6   82.80    4.14
   5  10  -6   75.52    3.69
  -5  10   6   81.94    4.42
  -5 -10   6   86.68    4.52
   5 -10  -7   26.31    5.40
   5  10  -7   20.78    4.61
  -5  10   7   33.12    4.98
  -5 -11  -2   84.65    6.51
  -5  11  -2   82.70    6.14
  -5  11  -2   71.59    5.09
   5  11   2   79.78    5.61
   5 -11   2   66.82    4.82
  -5 -11  -1   85.74    4.72
  -5  11  -1   84.42    4.65
  -5  11  -1   73.36    4.04
   5  11   1   76.13    4.07
  -5 -11   0  112.60    5.54
  -5  11   0  111.44    5.64
  -5  11   0  111.18    5.32
   5  11   0  110.75    5.26
   5 -11   0  111.30    5.14
  -5 -11   1   96.16    4.62
  -5  11   1   90.83    4.30
  -5  11   1   85.84    4.06
   5 -11  -1   83.69    3.79
  -5 -11   2   65.45    3.35
  -5  11   2   67.04    4.20
  -5  11   2   64.63    3.64
   5 -11  -2   63.10    2.96
   5 -11  -3  391.86   13.97
  -5 -11   3  371.33   13.00
  -5  11   3  381.02   13.70
   5 -11  -3  365.32   13.05
   5 -11  -4  229.22    9.14
  -5 -11   4  210.41    7.50
  -5  11   4  227.13    8.60
   5 -11  -4  222.68    7.93
  -5 -11   4  226.26    8.82
   5 -11  -5   11.88    1.66
   5  11  -5    7.48    1.41
  -5  11   5   16.63    2.35
  -5 -11   5   15.88    2.26
   5 -11  -6   62.01    7.13
   5  11  -6   57.46    6.22
  -5  11   6   71.08    4.55
  -5 -11   6   59.40    3.47
   5 -11  -7    7.15    2.06
  -5  11   7   11.98    2.66
  -5 -12  -2   42.21    3.64
  -5  12  -2   46.03    3.74
  -5  12  -2   34.47    2.70
   5  12   2   42.86    3.17
   5 -12   2   38.52    3.02
  -5 -12  -1   91.58    4.47
  -5  12  -1   90.73    4.05
  -5  12  -1   83.99    3.51
   5  12   1   90.63    3.78
   5 -12   1   83.35    3.71
  -5 -12   0   51.10    4.28
  -5  12   0   47.49    3.85
  -5  12   0   42.65    3.36
   5 -12   0   39.67    2.89
  -5 -12   1   86.87    3.82
  -5  12   1   79.50    3.51
   5 -12  -1   81.00    3.41
  -5 -12   2  103.85    4.63
  -5  12   2   97.01    4.64
   5 -12  -2   94.02    3.99
   5 -12  -3   44.79    4.50
  -5 -12   3   47.77    2.53
  -5  12   3   46.53    3.24
   5 -12  -3   46.51    2.31
   5 -12  -4   30.46    4.06
  -5  12   4   28.30    2.22
   5 -12  -4   20.57    2.46
  -5 -12   4   33.20    2.39
   5 -12  -5   43.80    4.73
  -5  12   5   42.91    3.65
  -5 -12   5   46.12    3.70
   5 -12  -6   52.20    5.76
   5  12  -6   41.85    5.31
  -5  12   6   57.40    3.25
  -5 -12   6   57.73    3.15
   5 -12  -7   10.43    2.20
   5  12  -7    9.36    1.85
  -5  12   7   14.16    2.90
  -5 -13  -2   55.44    4.39
  -5  13  -2   39.37    3.02
  -5  13  -2   38.91    2.79
   5 -13   2   31.60    2.81
  -5 -13  -1   31.20    4.12
  -5  13  -1   21.69    2.96
  -5  13  -1   19.63    2.54
   5 -13   1   28.56    3.56
  -5 -13   0   15.98    2.00
  -5  13   0   21.44    3.09
  -5  13   0   14.73    2.00
   5 -13   0   17.32    2.20
  -5 -13   1   47.99    3.31
  -5  13   1   56.86    3.52
  -5  13   1   42.71    2.69
   5 -13  -1   47.35    2.86
   5 -13  -2   38.54    2.41
  -5 -13   2   32.17    2.20
  -5  13   2   31.19    2.28
   5 -13  -2   27.50    1.82
   5 -13  -3   78.17    8.02
  -5 -13   3   69.55    2.79
  -5  13   3   76.20    3.82
   5 -13  -3   71.36    2.74
  -5 -13   3   75.31    3.95
   5 -13  -4  168.19    8.64
  -5  13   4  180.84    8.12
   5 -13  -4  170.77    7.42
  -5 -13   4  174.03    7.71
   5 -13  -5   45.72    5.63
  -5  13   5   42.87    3.36
  -5 -13   5   46.89    3.90
   5 -13  -6   63.40    8.84
   5  13  -6   64.45    6.47
  -5 -13   6   79.09    3.82
   5 -13  -7   14.23    4.00
   5  13  -7   17.01    3.54
  -5  13   7   27.16    2.67
  -5 -13   7   30.60    2.49
  -5 -14  -1   47.48    3.99
  -5  14  -1   47.46    3.79
  -5  14  -1   44.65    3.73
   5 -14   1   47.01    3.67
  -5 -14   0    2.50    1.55
  -5  14   0   -0.09    1.68
  -5  14   0    5.23    2.16
   5 -14   0    2.20    1.01
  -5 -14   1   13.67    1.89
  -5  14   1   16.34    2.28
  -5  14   1   15.54    2.21
   5 -14  -1   13.48    1.78
   5 -14  -2   29.72    2.08
  -5 -14   2   24.46    1.90
  -5  14   2   29.68    2.40
   5 -14  -2   27.78    1.93
   5 -14  -3   29.60    3.85
  -5 -14   3   36.82    2.07
  -5  14   3   37.60    2.71
   5 -14  -3   30.14    1.91
  -5 -14   3   44.37    3.31
   5 -14  -4   39.53    5.29
  -5  14   4   56.63    5.49
   5 -14  -4   38.77    3.78
  -5 -14   4   46.11    3.75
   5 -14  -5   56.93    6.47
  -5  14   5   75.31    4.38
  -5 -14   5   85.15    4.78
   5 -14  -6   32.18    6.42
  -5  14   6   39.79    3.72
  -5 -14   6   46.60    3.89
  -5 -15  -1   66.78    5.43
  -5  15  -1   61.28    5.06
  -5  15  -1   67.27    5.04
   5 -15   1   55.39    4.07
  -5 -15   0   34.29    2.88
  -5  15   0   43.96    3.13
  -5  15   0   39.61    2.99
   5 -15   0   37.43    2.68
  -5 -15   1   30.65    2.43
  -5  15   1   39.47    3.27
  -5  15   1   35.05    3.09
   5 -15  -1   33.35    2.46
   5 -15  -2  148.20    6.29
  -5  15   2  164.24    7.22
   5 -15  -2  150.42    6.17
   5 -15  -3  157.45   11.68
  -5 -15   3  135.79    5.54
  -5  15   3  158.19    7.12
   5 -15  -3  149.89    6.04
  -5 -15   3  165.32    7.22
   5 -15  -4  140.04   13.81
  -5  15   4  135.41    6.55
   5 -15  -4  134.42    5.41
  -5 -15   4  136.92    6.38
   5 -15  -5   43.24    7.06
  -5  15   5   52.33    3.47
  -5 -15   5   45.97    5.68
   5 -15  -6    4.58    1.45
  -5  15   6    3.23    2.34
  -5 -15   6    2.69    1.52
  -5 -16  -1    8.40    1.83
  -5  16  -1    9.58    2.17
  -5  16  -1   10.73    1.97
   5 -16   1   11.76    1.91
  -5 -16   0   74.20    5.24
  -5  16   0   76.52    5.42
  -5  16   0   74.07    5.56
   5 -16   0   70.16    4.88
  -5 -16   1   16.63    2.17
  -5  16   1   21.33    2.89
  -5  16   1   17.69    2.73
   5 -16  -1   13.99    1.91
   5 -16  -2   82.93    4.28
  -5 -16   2   87.48    4.02
  -5  16   2   82.31    4.66
   5 -16  -2   88.33    4.07
  -5 -16   2   87.36    5.11
   5 -16  -3   13.88    2.04
  -5  16   3   12.30    2.34
   5 -16  -3   12.16    1.37
  -5 -16   3   17.88    2.46
   5 -16  -4   67.64    9.50
  -5  16   4   68.40    4.15
  -5 -16   4   75.80    4.84
   5 -16  -5   57.87    7.54
  -5 -16   5   65.43    4.91
   5 -16  -6    6.27    1.69
  -5  16   6    6.96    2.34
  -5 -16   6    7.52    2.29
  -5 -17  -1   49.54    4.00
  -5  17  -1   49.33    3.33
  -5  17  -1   51.05    3.66
   5 -17   1   49.52    3.44
  -5 -17   0   60.64    4.52
  -5  17   0   57.15    4.31
  -5  17   0   60.73    4.69
   5 -17   0   51.80    3.86
  -5 -17   1   55.33    2.76
  -5  17   1   64.00    3.29
  -5  17   1   65.40    3.64
   5 -17  -1   63.06    3.10
   5 -17  -2  345.03   15.52
  -5 -17   2  327.16   13.58
  -5  17   2  364.48   16.62
   5 -17  -2  339.95   14.24
   5 -17  -3  141.73   14.92
  -5  17   3  153.67    7.26
   5 -17  -3  137.78    6.10
  -5 -17   3  149.87    7.18
  -5  17   4   57.22    3.19
  -5 -17   4   56.68    3.64
   5 -17  -5  111.37    7.13
  -5  17   5  119.25    7.82
  -5 -17   5  115.48    7.49
   5 -17  -6   12.72    2.78
  -5  17   6   10.77    2.01
  -5 -17   6   18.59    2.70
  -5 -18   0    4.09    1.32
  -5  18   0    1.39    1.97
  -5  18   0    5.79    1.64
   5 -18   0    3.67    1.71
  -5 -18   1   14.20    2.10
  -5  18   1   14.03    2.41
  -5  18   1   10.60    2.26
   5 -18  -1   12.78    2.02
   5 -18  -2   14.70    1.95
  -5 -18   2   11.21    1.45
  -5  18   2   12.17    2.04
   5 -18  -2   13.04    1.62
  -5 -18   2   12.22    2.49
   5 -18  -3   13.53    2.14
  -5  18   3   17.59    2.33
   5 -18  -3   15.95    1.35
  -5 -18   3   22.14    3.12
   5 -18  -4   36.09    8.24
  -5 -18   4   38.88    3.90
   5 -18  -5   24.06    4.52
  -5  18   5   27.46    4.45
  -5 -18   5   33.99    4.63
  -5 -19   0  100.71    5.49
  -5  19   0  102.37    5.67
  -5  19   0   95.19    5.39
   5 -19   0   92.09    4.96
  -5 -19   0   90.51    5.40
  -5 -19   1   47.27    3.55
  -5  19   1   49.35    4.53
  -5  19   1   43.56    3.75
   5 -19  -1   50.31    3.84
  -5 -19   1   44.71    4.22
   5 -19  -2   42.25    3.36
  -5  19   2   37.86    3.45
   5 -19  -2   36.63    2.73
  -5 -19   2   36.29    3.79
   5 -19  -3   46.31    8.44
  -5  19   3   46.73    3.83
   5 -19  -3   45.10    3.14
  -5 -19   3   60.84    5.06
   5 -19  -4   48.49    7.31
  -5  19   4   58.72    4.70
  -5 -19   4   59.53    4.68
   5 -19  -5   32.05    6.03
  -5  19   5   49.98    3.80
  -5 -19   5   37.89    3.61
  -5 -20   1   74.60    4.69
  -5  20   1   87.89    5.85
  -5  20   1   89.35    5.59
   5 -20  -1   72.00    4.55
  -5 -20   1   83.39    5.48
   5 -20  -2   20.95    3.15
  -5  20   2   18.81    3.17
   5 -20  -2   17.19    2.57
  -5 -20   2   24.67    4.20
   5 -20  -3    1.96    1.33
  -5  20   3    6.76    2.67
   5 -20  -3    2.09    1.19
  -5 -20   3   12.15    2.97
   5 -20  -4   25.27    5.96
  -5  20   4   37.70    3.24
  -5 -20   4   33.58    3.02
  -5  21   1    9.87    1.89
  -5  21   1   15.04    2.48
   5 -21  -1    6.96    1.61
  -5 -21   1   12.38    2.05
   5 -21  -2    4.27    1.42
  -5  21   2    6.30    2.44
   5 -21  -2    4.77    1.14
  -5 -21   2    5.51    2.01
   5 -21  -3   26.98    5.33
  -5  21   3   33.89    3.50
  -5 -21   3   32.39    3.48
   5 -21  -4   18.16    4.59
  -5  21   4   22.00    2.98
  -5 -21   4   15.86    2.45
  -6   0  -1   28.01    4.35
   6   0   1   38.54    6.95
  -6   0   0   43.84    5.01
   6   0   0   38.44    5.00
  -6   0   1  249.32   10.56
   6   0  -1  223.66   10.76
  -6   0   2  348.66   10.90
   6   0  -2  333.12    9.97
  -6   0   3  167.57    5.75
   6   0  -3  165.34    5.42
  -6   0   4    4.86    1.18
  -6   0   4    2.95    0.72
   6   0  -4    5.99    1.19
  -6   0   5    3.36    1.15
  -6   0   5    3.85    1.60
  -6   0   6   25.29    2.53
  -6   1  -1   12.40    3.24
  -6  -1  -1    9.88    2.39
   6  -1   1    6.77    2.37
  -6   1   0   65.62    4.10
  -6  -1   0   63.64    4.47
   6   1   0   51.15    8.40
  -6   1   1   48.84    3.86
  -6  -1   1   44.11    3.59
   6   1  -1   46.27    6.17
   6  -1  -1   42.41    4.46
  -6   1   2   16.31    2.64
  -6  -1   2   18.72    2.17
   6   1  -2   15.97    2.29
   6  -1  -2   11.27    1.99
  -6   1   3   51.94    3.25
  -6  -1   3   58.91    3.30
  -6   1   3   50.71    2.21
   6   1  -3   59.69    5.55
   6  -1  -3   53.29    4.64
  -6  -1   4   35.77    2.45
  -6   1   4   35.93    2.39
  -6  -1   4   35.00    1.84
  -6   1   4   33.82    1.89
   6   1  -4   32.34    1.89
   6  -1  -4   27.88    3.89
  -6  -1   5  155.96    6.67
  -6   1   5  154.08    6.90
  -6  -1   5  146.82    6.30
  -6   1   5  157.14    6.83
  -6  -1   6   18.77    2.01
  -6   1   6   28.07    2.98
  -6   1   6   15.46    1.80
  -6  -2  -1  102.32    7.46
  -6   2  -1  101.45    7.63
   6   2   1   78.44    9.15
   6  -2   1   80.76   10.64
  -6  -2   0    8.42    2.07
  -6   2   0    6.44    2.21
   6   2   0    3.62    1.00
   6  -2   0    5.12    1.35
  -6  -2   1   58.42    3.63
  -6   2   1   55.24    5.07
   6   2  -1   46.98    6.22
   6  -2  -1   58.46    5.82
  -6  -2   2    8.28    2.37
  -6   2   2    6.65    1.83
   6   2  -2    7.28    1.06
   6  -2  -2    6.37    1.53
  -6  -2   3   42.84    2.83
  -6   2   3   42.76    2.83
  -6   2   3   38.61    2.01
   6   2  -3   36.12    5.25
   6  -2  -3   41.56    5.54
  -6  -2   4    0.51    1.19
  -6   2   4    4.50    1.47
  -6   2   4    2.04    1.20
   6   2  -4    1.68    0.83
   6  -2  -4    5.63    1.22
  -6  -2   5    9.61    1.47
  -6   2   5   10.76    1.61
  -6   2   5    9.68    1.75
  -6  -2   5    5.20    1.36
   6  -2  -5    7.20    1.06
  -6  -2   6   16.79    1.88
  -6   2   6   22.78    2.59
  -6   2   6   17.16    2.31
  -6  -3  -1    9.75    2.18
  -6   3  -1   14.22    3.08
   6   3   1   16.98    4.02
   6  -3   1   17.99    4.27
  -6  -3   0   33.63    2.94
   6   3   0   28.55    5.43
   6  -3   0   33.20    6.25
  -6  -3   1   12.14    2.01
  -6   3   1   27.80    3.55
   6   3  -1   18.43    2.55
   6  -3  -1   23.21    4.14
  -6  -3   2   52.10    2.84
  -6   3   2   47.30    3.07
  -6   3   2   60.30    2.55
   6   3  -2   60.37    4.87
   6  -3  -2   52.87    5.03
  -6  -3   3   24.03    2.44
  -6   3   3   28.69    2.13
  -6   3   3   24.87    1.69
   6   3  -3   24.30    4.19
   6  -3  -3   21.55    2.50
  -6  -3   4   97.16    3.94
  -6   3   4  102.56    4.23
  -6   3   4  109.11    4.00
   6  -3  -4   86.19    9.26
  -6  -3   5  154.06    6.38
  -6   3   5  151.98    6.51
  -6   3   5  149.26    6.18
  -6  -3   5  149.29    5.93
   6  -3  -5  149.21    5.97
  -6   3   6   88.57    3.69
  -6  -3   6   74.30    2.86
   6  -3  -7   50.08    3.50
  -6  -4  -1   20.09    3.40
  -6   4  -1   18.59    3.62
   6   4   1   12.46    3.46
   6  -4   1   18.36    3.65
  -6  -4   0   23.78    2.56
  -6   4   0   24.66    2.66
   6   4   0   23.74    3.18
   6  -4   0   24.68    4.42
  -6  -4   1   22.92    2.48
  -6   4   1   28.29    2.73
   6   4  -1   29.43    6.50
   6  -4  -1   20.97    3.71
  -6  -4   2  150.77    6.82
  -6   4   2  161.23    7.24
  -6   4   2  161.42    5.17
   6   4  -2  140.46   11.29
   6  -4  -2  160.37    7.12
  -6  -4   3   84.39    3.83
  -6   4   3   85.95    4.00
  -6   4   3   78.11    3.14
   6   4  -3   77.62    3.24
   6  -4  -3   79.12    3.21
  -6  -4   4    2.88    1.16
  -6   4   4    4.43    1.47
  -6   4   4    2.27    1.87
   6  -4  -4    1.82    0.79
  -6  -4   5    6.72    1.78
  -6   4   5    5.67    2.40
  -6   4   5    2.91    1.26
   6  -4  -5    2.48    0.79
   6  -4  -6   28.61    2.05
  -6   4   6   29.30    2.54
  -6  -4   6   22.49    1.73
   6  -4  -7    9.85    1.67
  -6  -5  -1   12.61    2.75
  -6   5  -1    7.06    2.45
   6   5   1    9.52    1.90
   6  -5   1   11.08    2.44
  -6  -5   0    3.51    3.31
  -6   5   0    9.78    2.69
   6   5   0    4.72    1.22
   6  -5   0    4.50    1.60
  -6  -5   1   25.32    3.19
  -6   5   1   15.58    2.48
   6   5  -1   16.92    2.20
   6  -5  -1   17.09    2.66
  -6  -5   2   39.34    2.78
  -6   5   2   34.39    3.39
  -6   5   2   35.65    2.32
   6   5  -2   33.16    5.45
   6  -5  -2   41.17    6.19
  -6  -5   3  132.37    5.04
  -6   5   3  127.90    5.15
  -6   5   3  113.52    4.06
   6   5  -3  114.27    4.40
   6  -5  -3  121.78    4.45
  -6  -5   4  146.21    6.39
  -6   5   4  156.08    6.98
  -6   5   4  148.73    6.67
   6  -5  -4  128.67   10.60
  -6  -5   5    3.65    1.29
  -6   5   5    2.57    1.35
   6  -5  -5    1.35    0.77
   6  -5  -6   52.36    2.33
  -6   5   6   54.20    3.06
  -6  -5   6   59.85    2.72
   6  -5  -7    3.15    0.73
  -6   5   7    3.07    1.45
  -6  -6  -1  105.78    6.57
  -6   6  -1   99.32    6.16
   6   6   1   89.55   12.44
   6  -6   1   95.16    7.77
  -6  -6   0   88.60    4.50
  -6   6   0   89.55    4.45
   6   6   0   81.92    8.32
   6  -6   0   81.01    3.45
  -6  -6   1   26.40    3.46
  -6   6   1   25.11    3.10
  -6   6   1   21.63    1.99
   6   6  -1   18.32    4.19
   6  -6  -1   17.62    2.27
  -6  -6   2   49.83    3.39
  -6   6   2   49.99    3.55
  -6   6   2   49.19    2.86
   6   6  -2   55.47    3.19
   6  -6  -2   41.40    6.73
  -6  -6   3  122.91    5.79
  -6   6   3  137.21    6.74
  -6   6   3  126.07    5.63
   6   6  -3  127.31    5.67
   6  -6  -3  128.73   10.43
  -6  -6   4  135.61    5.95
  -6   6   4  141.84    6.65
  -6   6   4  130.24    5.96
   6  -6  -4  130.24    5.85
   6  -6  -5    9.90    1.52
  -6  -6   5    7.86    1.24
  -6   6   5   13.39    2.06
   6  -6  -5    6.78    1.37
   6  -6  -6    6.65    1.20
  -6  -6   6    9.25    1.52
   6  -6  -7    1.33    0.98
  -6   6   7    1.69    1.41
  -6  -7  -1   38.81    3.43
   6   7   1   39.59    7.04
   6  -7   1   37.73    6.43
  -6  -7   0    2.72    1.92
  -6   7   0    4.74    2.60
   6   7   0    4.94    1.77
   6  -7   0    4.23    1.35
  -6  -7   1   14.27    2.44
  -6   7   1   17.44    2.90
  -6   7   1   14.36    1.83
   6  -7  -1   17.24    2.89
  -6  -7   2    5.61    2.31
  -6   7   2    4.06    1.26
   6   7  -2    3.44    1.39
   6  -7  -2    2.71    0.68
  -6  -7   3   49.28    3.45
  -6   7   3   44.85    3.51
  -6   7   3   39.04    2.62
   6  -7  -3   36.73    5.08
  -6  -7   4   88.75    4.42
  -6   7   4   86.22    4.61
  -6   7   4   82.17    4.15
   6  -7  -4   77.49    7.34
   6  -7  -5   28.44    2.88
  -6   7   5   26.48    3.01
  -6  -7   5   27.18    2.97
   6  -7  -6    6.53    1.32
  -6   7   6    7.41    1.93
  -6  -7   6    8.23    1.67
   6  -7  -7   12.70    3.01
  -6   7   7   20.26    2.80
  -6  -8  -1   61.10    4.30
  -6   8  -1   57.21    3.88
   6   8   1   48.95    8.39
   6  -8   1   44.02    6.77
  -6  -8   0   38.60    3.58
   6   8   0   37.00    5.30
   6  -8   0   32.68    4.99
  -6  -8   1   69.97    3.96
  -6   8   1   62.82    3.78
  -6   8   1   63.64    3.30
   6   8  -1   69.36    3.85
   6  -8  -1   62.92    6.57
  -6  -8   2   47.68    3.59
  -6   8   2   50.13    4.31
   6   8  -2   41.98    2.98
   6  -8  -2   42.46    4.85
  -6  -8   3   62.25    3.79
  -6   8   3   50.62    3.72
  -6   8   3   55.34    4.86
   6  -8  -3   58.60    4.71
  -6  -8   4   99.39    4.66
  -6   8   4   92.30    4.48
  -6   8   4   91.27    4.41
   6  -8  -4   86.93    7.70
   6  -8  -5    5.77    1.11
  -6   8   5    5.40    1.63
  -6  -8   5    4.65    1.91
   6  -8  -6   20.28    4.01
  -6   8   6   21.29    3.14
  -6  -8   6   23.68    3.04
   6  -8  -7    5.98    1.56
  -6   8   7    9.94    1.75
  -6  -9  -1   27.71    2.69
  -6   9  -1   32.44    2.92
   6   9   1   25.82    4.76
  -6  -9   0   32.69    4.49
  -6   9   0   27.16    4.16
  -6   9   0   28.56    3.39
   6   9   0   23.28    2.98
   6  -9   0   27.62    4.39
  -6  -9   1    9.85    2.98
  -6   9   1    2.65    1.86
   6   9  -1    1.03    0.94
   6  -9  -1    2.43    1.30
  -6  -9   2   17.72    2.77
  -6   9   2   10.85    1.98
  -6   9   2   16.37    2.21
   6  -9  -2   17.65    3.10
  -6  -9   3   64.50    3.52
  -6   9   3   68.49    3.80
  -6   9   3   64.92    3.52
   6  -9  -3   64.37    6.32
  -6  -9   4   26.83    2.68
  -6   9   4   30.22    3.49
   6  -9  -4   20.09    3.75
   6  -9  -5   13.06    1.77
  -6   9   5    9.96    2.27
  -6  -9   5    6.64    1.34
   6  -9  -6   10.88    2.40
  -6   9   6   12.21    2.21
  -6  -9   6   17.54    2.79
   6  -9  -7   81.30    5.68
  -6   9   7  105.74    5.98
  -6 -10   0   22.28    3.40
  -6  10   0   26.58    4.21
  -6  10   0   22.07    3.16
   6  10   0   23.23    3.53
   6 -10   0   18.46    4.08
  -6 -10   1   21.37    2.61
  -6  10   1   17.63    2.06
  -6  10   1   20.66    1.98
   6  10  -1   12.67    1.41
   6 -10  -1   17.80    3.25
  -6 -10   2   17.98    2.70
  -6  10   2   22.08    3.34
  -6  10   2   22.50    2.62
   6 -10  -2   17.12    2.72
  -6 -10   3   69.14    3.96
  -6  10   3   69.08    4.20
  -6  10   3   58.76    3.46
   6 -10  -3   55.22    5.43
   6 -10  -4   13.52    1.73
  -6 -10   4   15.77    1.85
  -6  10   4   15.75    2.44
   6 -10  -4   15.53    2.85
   6 -10  -5    5.74    1.29
  -6  10   5   11.47    2.04
  -6 -10   5    8.49    1.66
   6 -10  -6   11.34    3.14
  -6  10   6   19.88    3.32
  -6 -10   6   15.55    2.37
  -6 -11   0    7.67    2.44
  -6  11   0    0.39    1.56
  -6  11   0    2.27    1.16
   6  11   0    0.43    0.99
   6 -11   0    1.27    1.41
  -6 -11   1   14.67    2.67
  -6  11   1   21.14    2.99
  -6  11   1   13.57    2.25
   6 -11  -1   14.26    3.34
  -6 -11   2   18.11    2.54
  -6  11   2   17.58    2.30
   6 -11  -2   11.38    2.32
  -6 -11   3   52.01    3.15
  -6  11   3   65.75    4.36
  -6  11   3   66.58    3.94
   6 -11  -3   57.41    5.57
  -6  11   4   46.74    3.37
   6 -11  -4   29.87    5.77
   6 -11  -5   18.43    3.73
  -6  11   5   25.18    3.80
  -6 -11   5   28.22    3.86
   6 -11  -6   28.24    5.39
  -6  11   6   31.48    3.18
  -6 -11   6   31.94    2.82
  -6 -12   0   68.00    4.74
  -6  12   0   66.29    5.00
  -6  12   0   64.49    4.00
   6 -12   0   66.40    4.25
  -6 -12   1   15.79    2.43
  -6  12   1   20.73    2.93
   6 -12  -1   21.78    2.82
  -6 -12   2   98.56    4.00
  -6  12   2  105.67    4.93
  -6  12   2  105.52    4.33
   6 -12  -2  101.69    4.03
  -6 -12   3   96.56    3.95
  -6  12   3   96.78    4.36
  -6  12   3  100.78    4.41
   6 -12  -3   88.54    7.00
   6 -12  -4   56.36    3.24
  -6  12   4   53.28    3.39
   6 -12  -4   41.45    6.61
  -6 -12   4   47.36    3.11
   6 -12  -5    3.40    0.83
  -6  12   5    5.59    2.46
  -6 -12   5    2.88    1.64
   6 -12  -6    5.22    1.68
  -6  12   6   14.17    2.37
  -6 -12   6   11.39    2.15
  -6 -13   0    3.08    1.38
  -6  13   0    7.59    1.69
  -6  13   0    5.38    1.77
   6 -13   0    5.90    1.61
  -6 -13   1   12.48    2.66
  -6  13   1   12.58    2.47
  -6  13   1   12.53    2.29
   6 -13  -1   10.53    2.04
  -6 -13   2   24.18    3.60
  -6  13   2   13.40    2.88
  -6  13   2   14.02    2.30
   6 -13  -2   18.49    2.80
  -6 -13   3   81.22    3.46
  -6  13   3   86.81    4.01
  -6  13   3   90.87    4.26
   6 -13  -3   58.01    6.83
   6 -13  -4   70.61    4.92
  -6  13   4   63.47    4.87
   6 -13  -4   57.20    6.87
  -6 -13   4   82.81    5.97
   6 -13  -5   59.48    8.27
  -6  13   5   59.84    4.77
  -6 -13   5   62.31    4.59
   6 -13  -6   37.36    6.08
  -6  13   6   44.06    3.23
  -6 -13   6   47.30    3.35
  -6 -14   1   20.75    3.20
  -6  14   1   20.35    3.67
  -6  14   1   13.56    2.30
   6 -14  -1   15.63    2.17
  -6 -14   2   85.28    5.76
  -6  14   2   81.15    5.73
  -6  14   2   78.62    5.57
   6 -14  -2   75.21    5.01
  -6  14   3   80.86    6.41
  -6  14   3   67.19    4.95
   6 -14  -3   58.62    7.30
   6 -14  -4   24.07    3.41
  -6  14   4   22.96    3.52
  -6 -14   4   28.14    3.65
   6 -14  -5    9.37    2.94
  -6  14   5   12.07    1.90
  -6 -14   5    8.49    1.85
  -6 -15   1   16.73    2.61
  -6  15   1   21.99    3.87
  -6  15   1   12.82    2.17
   6 -15  -1   11.02    1.84
  -6 -15   2   57.08    4.31
  -6  15   2   68.67    5.56
  -6  15   2   70.90    5.34
   6 -15  -2   58.35    4.18
  -6  15   3   61.16    4.99
   6 -15  -3   42.79    5.83
  -6 -15   3   63.98    4.92
   6 -15  -4   23.71    3.34
  -6  15   4   31.27    4.81
  -6 -15   4   21.73    3.73
   6 -15  -5   12.84    3.48
  -6  15   5   12.03    2.20
  -6 -15   5   17.82    2.65
  -6 -16   1   78.44    4.61
  -6  16   1   74.81    4.58
   6 -16  -1   87.39    4.85
  -6 -16   2   20.06    2.64
  -6  16   2   16.41    2.66
   6 -16  -2   17.18    2.25
  -6  16   3   30.03    2.59
   6 -16  -3   28.60    3.45
  -6 -16   3   32.42    3.01
   6 -16  -4   16.19    2.37
  -6  16   4   18.18    3.00
  -6 -16   4   20.09    2.88
  -6  16   5    7.17    2.45
  -6  17   2   15.66    2.24
  -6  17   2   24.57    2.73
   6 -17  -2   22.39    2.12
  -6 -17   2   24.16    2.49
   6 -17  -3   62.91    4.11
  -6  17   3   71.79    4.99
   6 -17  -3   64.13    3.57
  -6 -17   3   66.82    4.95
   6 -17  -4   77.15    4.60
  -6  17   4   70.94    4.60
  -6 -17   4   86.82    5.40
  -7   0   1  156.55    8.28
   7   0  -1  153.08    7.75
  -7   0   2  153.27   10.24
   7   0  -2  130.29   14.47
  -7   0   3  296.07   35.37
   7   0  -3  284.58   17.55
  -7   0   4   20.79    3.43
   7   0  -4   17.48    3.34
  -7   0   5   90.82    6.34
  -7   1   1   18.45    2.86
  -7  -1   1   21.80    3.12
   7   1  -1    8.02    1.93
   7  -1  -1   13.75    2.79
  -7   1   2   25.44    4.01
  -7  -1   2   27.48    4.34
   7  -1  -2   16.99    3.82
   7   1  -2   16.85    3.97
  -7  -1   3   15.75    3.04
  -7   1   3   14.32    3.04
   7   1  -3    6.51    1.61
   7  -1  -3    3.34    1.43
  -7  -1   4   13.17    2.42
  -7   1   4   16.20    2.82
   7   1  -4   15.77    2.20
   7  -1  -4    9.80    2.16
  -7  -1   5   61.61    4.65
  -7   1   5   56.45    4.43
   7  -1  -5   41.67    3.08
  -7   1   6    5.37    1.62
  -7  -2   1   58.58    3.99
  -7   2   1   49.32    3.60
   7   2  -1   40.17    6.08
   7  -2  -1   52.82    5.05
  -7  -2   2   36.33    3.67
  -7   2   2   19.41    3.45
   7   2  -2   27.85    6.35
   7  -2  -2   23.26    5.02
  -7  -2   3  171.43   10.57
  -7   2   3  192.52   11.99
   7   2  -3  159.85   14.74
   7  -2  -3  173.86   10.59
  -7  -2   4   24.58    3.42
  -7   2   4   17.88    2.96
   7   2  -4   22.55    2.82
   7  -2  -4   18.19    3.89
  -7  -2   5   17.21    2.65
  -7   2   5   17.12    2.91
   7  -2  -5   14.79    2.23
  -7   2   6   18.28    1.78
  -7  -3   1   16.03    2.17
  -7   3   1   15.39    2.29
   7   3  -1   15.79    3.31
   7  -3  -1   17.06    3.11
  -7  -3   2   50.80    4.71
  -7   3   2   38.52    3.51
   7   3  -2   39.52    5.55
   7  -3  -2   31.35    6.31
  -7  -3   3    6.75    2.40
  -7   3   3    9.94    2.71
   7   3  -3    1.78    0.97
   7  -3  -3    2.98    1.12
  -7  -3   4   22.19    3.20
  -7   3   4   30.24    4.14
   7   3  -4   31.29    3.83
   7  -3  -4   25.27    5.25
  -7  -3   5   38.87    3.33
  -7   3   5   47.91    4.10
   7  -3  -5   45.39    3.39
  -7   3   6    5.88    1.34
  -7  -4   1   38.93    3.84
  -7   4   1   35.87    3.02
   7   4  -1   24.99    5.67
   7  -4  -1   27.57    3.69
  -7  -4   2   88.38    6.46
  -7   4   2   85.70    6.49
   7   4  -2   64.90    9.34
   7  -4  -2   64.85    7.41
  -7  -4   3   48.20    4.19
  -7   4   3   33.01    4.48
   7   4  -3   36.39    3.02
   7  -4  -3   31.01    6.34
  -7  -4   4   79.28    5.50
  -7   4   4   75.71    5.26
   7  -4  -4   69.61    7.93
  -7  -4   5   14.43    2.60
  -7   4   5   13.15    2.69
   7  -4  -5    9.35    1.56
  -7   4   6    5.28    1.47
  -7  -5   1   14.58    2.64
  -7   5   1   11.00    2.24
   7   5  -1    7.87    1.60
  -7  -5   2   59.99    4.26
  -7   5   2   57.86    4.15
   7   5  -2   47.26    7.09
   7  -5  -2   45.02    6.41
  -7  -5   3    4.50    2.16
  -7   5   3    7.77    2.04
   7   5  -3    2.07    1.06
  -7  -5   4   19.69    3.22
  -7   5   4   19.12    3.41
   7  -5  -4   17.38    3.17
  -7   5   5   10.13    2.25
  -7   5   6   17.71    1.90
  -7   5   6   29.53    2.44
  -7  -6   2   82.38    5.33
  -7   6   2   81.72    5.50
   7   6  -2   82.20    5.15
   7  -6  -2   75.91    7.56
  -7  -6   3   14.38    2.85
  -7   6   3    9.37    2.11
   7   6  -3   15.15    2.53
   7  -6  -3   13.51    2.49
  -7  -6   4   95.11    6.71
  -7   6   4   90.16    6.61
   7  -6  -4   85.02    5.77
  -7   6   5   17.16    2.83
  -7  -7   2   16.79    2.84
  -7   7   2   12.46    3.13
   7   7  -2   14.36    2.14
   7  -7  -2   11.87    2.77
  -7  -7   3    4.37    2.11
  -7   7   3    1.51    1.86
   7  -7  -3    1.58    1.05
  -7  -7   4   54.27    4.04
  -7   7   4   56.43    4.33
   7  -7  -4   34.07    5.39
  -7   7   5   11.40    3.07
  -7   7   5    7.90    2.38
  -7  -8   2   75.55    4.45
  -7   8   2   79.75    5.19
   7   8  -2   74.97    4.26
   7  -8  -2   58.61    5.73
  -7  -8   3   51.74    3.87
  -7   8   3   49.94    4.17
   7  -8  -3   40.47    7.37
  -7  -8   4   49.12    3.65
  -7   8   4   51.46    3.90
   7  -8  -4   35.74    7.07
  -7   8   5   11.09    1.68
  -7   8   5   10.52    1.75
  -7  -9   2   16.18    1.91
  -7   9   2   21.97    2.91
   7  -9  -2   17.95    2.68
  -7  -9   3   18.70    3.17
  -7   9   3   19.93    3.49
   7  -9  -3    9.44    2.89
  -7   9   4   22.49    3.11
  -7   9   4   27.81    3.74
   7  -9  -4   16.33    3.77
  -7   9   5   18.68    2.33
  -7   9   5   18.43    2.21
  -7  -9   5   11.56    1.88
  -7 -10   3  102.30    5.44
  -7  10   3  109.88    6.20
   7 -10  -3   80.14    9.37
  -7  10   4   75.37    5.09
  -7  10   4   64.06    4.13
   7 -10  -4   36.30    6.62

_computing_structure_solution     'SHELXT 2014/4 (Sheldrick, 2014)'
;
_shelx_hkl_checksum              21082
_shelx_shelxl_version_number     2014/7
_olex2_submission_special_instructions 'No special instructions were received'
loop_
_space_group_symop_operation_xyz
'x, y, z'
'-x, y+1/2, -z'
loop_
_atom_site_label
_atom_site_type_symbol
_atom_site_fract_x
_atom_site_fract_y
_atom_site_fract_z
_atom_site_U_iso_or_equiv
_atom_site_adp_type
_atom_site_occupancy
_atom_site_site_symmetry_order
_atom_site_calc_flag
_atom_site_refinement_flags_posn
S1 S 0.33281(9) 0.54364(2) 0.45693(8) 0.02580(13) Uani 1 1 d .
O1 O 1.2513(3) 0.46412(9) 0.9157(3) 0.0344(4) Uani 1 1 d .
H1 H 1.2941 0.4917 1.0048 0.052 Uiso 1 1 calc GR
O2 O 0.0724(3) 0.55234(8) 0.4186(3) 0.0361(4) Uani 1 1 d .
O3 O 0.3988(3) 0.54707(9) 0.2723(2) 0.0339(3) Uani 1 1 d .
N1 N 0.4133(4) 0.47862(8) 0.5675(3) 0.0249(4) Uani 1 1 d .
C1 C 0.6735(4) 0.45538(10) 0.6279(3) 0.0231(4) Uani 1 1 d .
H1B H 0.7654 0.4834 0.5765 0.028 Uiso 1 1 calc R
C2 C 0.8190(4) 0.44926(11) 0.8834(4) 0.0286(5) Uani 1 1 d .
H2A H 0.8284 0.4878 0.9509 0.034 Uiso 1 1 calc R
H2B H 0.7229 0.4233 0.9352 0.034 Uiso 1 1 calc R
C3 C 1.0886(4) 0.42494(11) 0.9633(4) 0.0306(5) Uani 1 1 d .
H3A H 1.1613 0.4181 1.1235 0.037 Uiso 1 1 calc R
H3B H 1.0810 0.3872 0.8911 0.037 Uiso 1 1 calc R
C4 C 0.6518(4) 0.39650(9) 0.5104(4) 0.0239(4) Uani 1 1 d .
C5 C 0.4976(5) 0.35137(10) 0.5276(5) 0.0352(5) Uani 1 1 d .
H5 H 0.4073 0.3572 0.6121 0.042 Uiso 1 1 calc R
C6 C 0.4781(6) 0.29776(11) 0.4193(5) 0.0474(8) Uani 1 1 d .
H6 H 0.3730 0.2681 0.4303 0.057 Uiso 1 1 calc R
C7 C 0.6132(6) 0.28821(12) 0.2959(5) 0.0486(7) Uani 1 1 d .
H7 H 0.5992 0.2522 0.2235 0.058 Uiso 1 1 calc R
C8 C 0.7705(6) 0.33240(13) 0.2795(5) 0.0448(6) Uani 1 1 d .
H8 H 0.8635 0.3259 0.1977 0.054 Uiso 1 1 calc R
C9 C 0.7884(5) 0.38661(11) 0.3863(4) 0.0327(5) Uani 1 1 d .
H9 H 0.8926 0.4163 0.3742 0.039 Uiso 1 1 calc R
C10 C 0.5278(4) 0.59521(9) 0.6592(4) 0.0270(4) Uani 1 1 d .
C11 C 0.4742(5) 0.60601(11) 0.8416(4) 0.0331(5) Uani 1 1 d .
H11 H 0.3346 0.5881 0.8504 0.040 Uiso 1 1 calc R
C12 C 0.6324(6) 0.64384(11) 1.0093(4) 0.0405(6) Uani 1 1 d .
H12 H 0.5979 0.6512 1.1312 0.049 Uiso 1 1 calc R
C13 C 0.8411(5) 0.67092(11) 0.9986(5) 0.0431(7) Uani 1 1 d .
C14 C 0.8904(5) 0.65941(12) 0.8149(5) 0.0417(6) Uani 1 1 d .
H14 H 1.0297 0.6774 0.8060 0.050 Uiso 1 1 calc R
C15 C 0.7354(5) 0.62151(11) 0.6449(5) 0.0337(5) Uani 1 1 d .
H15 H 0.7706 0.6139 0.5234 0.040 Uiso 1 1 calc R
C16 C 1.0132(8) 0.71188(16) 1.1852(6) 0.0706(11) Uani 1 1 d .
H16A H 0.9097 0.7382 1.2250 0.106 Uiso 1 1 calc GR
H16B H 1.1181 0.7346 1.1351 0.106 Uiso 1 1 calc GR
H16C H 1.1206 0.6888 1.3135 0.106 Uiso 1 1 calc GR
H1A H 0.364(6) 0.4753(13) 0.674(5) 0.037(8) Uiso 1 1 d .
loop_
_atom_site_aniso_label
_atom_site_aniso_U_11
_atom_site_aniso_U_22
_atom_site_aniso_U_33
_atom_site_aniso_U_23
_atom_site_aniso_U_13
_atom_site_aniso_U_12
S1 0.0244(2) 0.0286(2) 0.0220(2) 0.0003(2) 0.00792(17) 0.0025(2)
O1 0.0271(8) 0.0505(11) 0.0279(8) -0.0063(7) 0.0142(7) -0.0089(7)
O2 0.0252(7) 0.0420(11) 0.0358(8) 0.0006(7) 0.0083(6) 0.0055(7)
O3 0.0396(8) 0.0384(8) 0.0242(7) 0.0011(8) 0.0144(6) 0.0000(9)
N1 0.0223(9) 0.0280(9) 0.0259(9) -0.0001(7) 0.0120(7) -0.0004(7)
C1 0.0195(9) 0.0271(10) 0.0214(10) 0.0003(8) 0.0078(8) -0.0005(8)
C2 0.0229(10) 0.0410(13) 0.0211(10) -0.0013(9) 0.0089(8) -0.0036(9)
C3 0.0249(10) 0.0390(13) 0.0234(10) 0.0030(9) 0.0064(9) -0.0027(9)
C4 0.0208(9) 0.0233(10) 0.0227(9) 0.0021(8) 0.0049(8) 0.0020(7)
C5 0.0292(11) 0.0288(11) 0.0438(14) 0.0027(10) 0.0125(10) -0.0008(9)
C6 0.0364(14) 0.0254(12) 0.0655(19) 0.0004(12) 0.0084(14) -0.0043(10)
C7 0.0434(15) 0.0297(12) 0.0566(17) -0.0145(12) 0.0069(13) 0.0064(11)
C8 0.0460(15) 0.0424(14) 0.0419(15) -0.0116(11) 0.0154(12) 0.0079(12)
C9 0.0333(12) 0.0343(12) 0.0290(11) -0.0032(9) 0.0122(9) 0.0005(9)
C10 0.0286(11) 0.0225(10) 0.0274(11) 0.0004(8) 0.0098(9) 0.0030(8)
C11 0.0402(13) 0.0291(11) 0.0307(11) 0.0018(9) 0.0161(10) 0.0011(9)
C12 0.0575(17) 0.0317(12) 0.0278(11) -0.0016(10) 0.0146(11) 0.0049(11)
C13 0.0433(15) 0.0284(12) 0.0403(14) -0.0038(11) 0.0023(11) 0.0023(11)
C14 0.0317(13) 0.0330(12) 0.0544(16) -0.0014(12) 0.0133(12) -0.0018(10)
C15 0.0326(12) 0.0305(12) 0.0399(13) 0.0011(10) 0.0175(11) 0.0013(10)
C16 0.072(2) 0.053(2) 0.061(2) -0.0209(16) 0.0048(18) -0.0116(17)
loop_
_atom_type_symbol
_atom_type_description
_atom_type_scat_dispersion_real
_atom_type_scat_dispersion_imag
_atom_type_scat_source
C C 0.0033 0.0016 'International Tables Vol C Tables 4.2.6.8 and 6.1.1.4'
H H 0.0000 0.0000 'International Tables Vol C Tables 4.2.6.8 and 6.1.1.4'
N N 0.0061 0.0033 'International Tables Vol C Tables 4.2.6.8 and 6.1.1.4'
O O 0.0106 0.0060 'International Tables Vol C Tables 4.2.6.8 and 6.1.1.4'
S S 0.1246 0.1234 'International Tables Vol C Tables 4.2.6.8 and 6.1.1.4'
loop_
_geom_angle_atom_site_label_1
_geom_angle_atom_site_label_2
_geom_angle_atom_site_label_3
_geom_angle
O2 S1 O3 119.64(10)
O2 S1 N1 106.16(11)
O2 S1 C10 108.71(11)
O3 S1 N1 107.72(11)
O3 S1 C10 107.00(11)
N1 S1 C10 106.99(11)
C3 O1 H1 109.5
S1 N1 H1A 108(2)
C1 N1 S1 120.22(15)
C1 N1 H1A 114(2)
N1 C1 H1B 108.8
N1 C1 C2 109.56(18)
N1 C1 C4 109.01(17)
C2 C1 H1B 108.8
C4 C1 H1B 108.8
C4 C1 C2 111.75(18)
C1 C2 H2A 108.8
C1 C2 H2B 108.8
H2A C2 H2B 107.7
C3 C2 C1 113.79(19)
C3 C2 H2A 108.8
C3 C2 H2B 108.8
O1 C3 C2 112.3(2)
O1 C3 H3A 109.1
O1 C3 H3B 109.2
C2 C3 H3A 109.2
C2 C3 H3B 109.1
H3A C3 H3B 107.9
C5 C4 C1 120.7(2)
C9 C4 C1 120.3(2)
C9 C4 C5 119.0(2)
C4 C5 H5 119.8
C6 C5 C4 120.4(3)
C6 C5 H5 119.8
C5 C6 H6 119.8
C7 C6 C5 120.4(3)
C7 C6 H6 119.8
C6 C7 H7 120.0
C6 C7 C8 119.9(2)
C8 C7 H7 120.0
C7 C8 H8 120.1
C7 C8 C9 119.8(3)
C9 C8 H8 120.1
C4 C9 C8 120.5(2)
C4 C9 H9 119.8
C8 C9 H9 119.8
C11 C10 S1 117.61(18)
C15 C10 S1 121.29(19)
C15 C10 C11 121.0(2)
C10 C11 H11 120.5
C12 C11 C10 118.9(2)
C12 C11 H11 120.5
C11 C12 H12 119.4
C11 C12 C13 121.2(3)
C13 C12 H12 119.4
C12 C13 C14 118.7(2)
C12 C13 C16 120.4(3)
C14 C13 C16 120.9(3)
C13 C14 H14 119.4
C15 C14 C13 121.2(3)
C15 C14 H14 119.4
C10 C15 C14 118.9(3)
C10 C15 H15 120.6
C14 C15 H15 120.6
C13 C16 H16A 109.5
C13 C16 H16B 109.5
C13 C16 H16C 109.5
H16A C16 H16B 109.5
H16A C16 H16C 109.5
H16B C16 H16C 109.5
loop_
_geom_bond_atom_site_label_1
_geom_bond_atom_site_label_2
_geom_bond_distance
S1 O2 1.4322(18)
S1 O3 1.4373(16)
S1 N1 1.6172(19)
S1 C10 1.765(2)
O1 H1 0.8200
O1 C3 1.426(3)
N1 C1 1.480(3)
N1 H1A 0.87(3)
C1 H1B 0.9800
C1 C2 1.536(3)
C1 C4 1.519(3)
C2 H2A 0.9700
C2 H2B 0.9700
C2 C3 1.519(3)
C3 H3A 0.9700
C3 H3B 0.9700
C4 C5 1.394(3)
C4 C9 1.388(3)
C5 H5 0.9300
C5 C6 1.387(4)
C6 H6 0.9300
C6 C7 1.377(5)
C7 H7 0.9300
C7 C8 1.389(5)
C8 H8 0.9300
C8 C9 1.396(4)
C9 H9 0.9300
C10 C11 1.397(3)
C10 C15 1.384(3)
C11 H11 0.9300
C11 C12 1.385(4)
C12 H12 0.9300
C12 C13 1.386(4)
C13 C14 1.394(4)
C13 C16 1.519(4)
C14 H14 0.9300
C14 C15 1.389(4)
C15 H15 0.9300
C16 H16A 0.9600
C16 H16B 0.9600
C16 H16C 0.9600
loop_
_geom_hbond_atom_site_label_D
_geom_hbond_atom_site_label_H
_geom_hbond_atom_site_label_A
_geom_hbond_distance_DH
_geom_hbond_distance_HA
_geom_hbond_distance_DA
_geom_hbond_angle_DHA
_geom_hbond_site_symmetry_A
O1 H1 O3 0.82 2.04 2.842(3) 167.9 1_656
N1 H1A O1 0.87(3) 2.00(3) 2.870(3) 178(3) 1_455
loop_
_geom_torsion_atom_site_label_1
_geom_torsion_atom_site_label_2
_geom_torsion_atom_site_label_3
_geom_torsion_atom_site_label_4
_geom_torsion
S1 N1 C1 C2 113.53(19)
S1 N1 C1 C4 -123.90(17)
S1 C10 C11 C12 176.55(19)
S1 C10 C15 C14 -176.64(19)
O2 S1 N1 C1 179.74(16)
O2 S1 C10 C11 40.8(2)
O2 S1 C10 C15 -142.9(2)
O3 S1 N1 C1 50.45(18)
O3 S1 C10 C11 171.27(17)
O3 S1 C10 C15 -12.4(2)
N1 S1 C10 C11 -73.50(19)
N1 S1 C10 C15 102.9(2)
N1 C1 C2 C3 179.31(19)
N1 C1 C4 C5 -52.0(3)
N1 C1 C4 C9 128.8(2)
C1 C2 C3 O1 65.2(3)
C1 C4 C5 C6 179.8(2)
C1 C4 C9 C8 179.5(2)
C2 C1 C4 C5 69.3(3)
C2 C1 C4 C9 -109.9(2)
C4 C1 C2 C3 58.4(3)
C4 C5 C6 C7 0.8(4)
C5 C4 C9 C8 0.3(3)
C5 C6 C7 C8 0.1(4)
C6 C7 C8 C9 -0.8(4)
C7 C8 C9 C4 0.6(4)
C9 C4 C5 C6 -1.0(4)
C10 S1 N1 C1 -64.29(19)
C10 C11 C12 C13 0.1(4)
C11 C10 C15 C14 -0.4(4)
C11 C12 C13 C14 -0.1(4)
C11 C12 C13 C16 -179.5(3)
C12 C13 C14 C15 -0.2(4)
C13 C14 C15 C10 0.4(4)
C15 C10 C11 C12 0.2(4)
C16 C13 C14 C15 179.3(3)
