#------------------------------------------------------------------------------
#$Date: 2016-03-04 10:55:13 +0200 (Fri, 04 Mar 2016) $
#$Revision: 177376 $
#$URL: svn://www.crystallography.net/cod/cif/1/54/27/1542725.cif $
#------------------------------------------------------------------------------
#
# This file is available in the Crystallography Open Database (COD),
# http://www.crystallography.net/
#
# All data on this site have been placed in the public domain by the
# contributors.
#
data_1542725
loop_
_publ_author_name
'Pan, Hongjie'
'Huang, Hu'
'Liu, Weigang'
'Tian, Hua'
'Shi, Yian'
_publ_section_title
;
 Phosphine Oxide-Sc(OTf)3 Catalyzed Highly Regio- and Enantioselective
 Bromoaminocyclization of (E)-Cinnamyl Tosylcarbamates. An Approach to a
 Class of Synthetically Versatile Functionalized Molecules.
;
_journal_issue                   5
_journal_name_full               'Organic letters'
_journal_page_first              896
_journal_paper_doi               10.1021/acs.orglett.5b03459
_journal_volume                  18
_journal_year                    2016
_chemical_absolute_configuration ad
_chemical_formula_moiety         'C17 H16 Br N O4 S'
_chemical_formula_sum            'C17 H16 Br N O4 S'
_chemical_formula_weight         410.28
_chemical_name_systematic
;
 ?
;
_space_group_crystal_system      monoclinic
_space_group_IT_number           4
_space_group_name_Hall           'P 2yb'
_space_group_name_H-M_alt        'P 1 21 1'
_symmetry_space_group_name_Hall  'P 2yb'
_symmetry_space_group_name_H-M   'P 1 21 1'
_atom_sites_solution_hydrogens   geom
_audit_creation_date             2014-11-19
_audit_creation_method
;
Olex2 1.2
(compiled 2013.12.10 svn.r2850 for OlexSys, GUI svn.r4736)
;
_cell_angle_alpha                90
_cell_angle_beta                 94.539(4)
_cell_angle_gamma                90
_cell_formula_units_Z            2
_cell_length_a                   7.819(2)
_cell_length_b                   11.246(3)
_cell_length_c                   9.640(2)
_cell_measurement_reflns_used    2776
_cell_measurement_temperature    173.1500
_cell_measurement_theta_max      27.4792
_cell_measurement_theta_min      2.1193
_cell_volume                     845.0(4)
_computing_cell_refinement       'CrystalClear (Rigaku Inc., 2007)'
_computing_data_collection       'CrystalClear (Rigaku Inc., 2007)'
_computing_data_reduction        'CrystalClear (Rigaku Inc., 2007)'
_computing_molecular_graphics    'Olex2 (Dolomanov et al., 2009)'
_computing_publication_material  'Olex2 (Dolomanov et al., 2009)'
_computing_structure_refinement  'SHELXL (Sheldrick, 2013)'
_computing_structure_solution
;
'SHELXS (Sheldrick, 2013)'
;
_diffrn_ambient_temperature      173.1500
_diffrn_detector_area_resol_mean 28.5714
_diffrn_measured_fraction_theta_full 0.990
_diffrn_measured_fraction_theta_max 0.991
_diffrn_measurement_device
;
Saturn724+ (2x2 bin mode)
;
_diffrn_measurement_device_details
;
AFC10: Fixed Chi 2 circle
;
_diffrn_measurement_device_type  'Saturn724+ CCD'
_diffrn_measurement_method       '\w scans at fixed \c = 45\%'
_diffrn_orient_matrix_type       d*Trek
_diffrn_orient_matrix_UB_11      0.0254
_diffrn_orient_matrix_UB_12      0.0159
_diffrn_orient_matrix_UB_13      -0.1247
_diffrn_orient_matrix_UB_21      0.0177
_diffrn_orient_matrix_UB_22      0.0859
_diffrn_orient_matrix_UB_23      0.0146
_diffrn_orient_matrix_UB_31      0.1012
_diffrn_orient_matrix_UB_32      -0.0225
_diffrn_orient_matrix_UB_33      0.0093
_diffrn_radiation_detector       CCD
_diffrn_radiation_monochromator  'Graphite Monochromator'
_diffrn_radiation_type           MoK\a
_diffrn_radiation_wavelength     0.71073
_diffrn_reflns_av_R_equivalents  0.0355
_diffrn_reflns_av_unetI/netI     0.0396
_diffrn_reflns_laue_measured_fraction_full 0.990
_diffrn_reflns_laue_measured_fraction_max 0.991
_diffrn_reflns_limit_h_max       10
_diffrn_reflns_limit_h_min       -10
_diffrn_reflns_limit_k_max       14
_diffrn_reflns_limit_k_min       -13
_diffrn_reflns_limit_l_max       12
_diffrn_reflns_limit_l_min       -12
_diffrn_reflns_number            9215
_diffrn_reflns_point_group_measured_fraction_full 0.953
_diffrn_reflns_point_group_measured_fraction_max 0.944
_diffrn_reflns_theta_full        26.000
_diffrn_reflns_theta_max         27.479
_diffrn_reflns_theta_min         3.180
_diffrn_source                   'Sealed Tube'
_diffrn_source_current           30.0000
_diffrn_source_power             1.5000
_diffrn_source_voltage           50.0000
_exptl_absorpt_coefficient_mu    2.577
_exptl_absorpt_correction_T_max  1.0000
_exptl_absorpt_correction_T_min  0.6675
_exptl_absorpt_correction_type   multi-scan
_exptl_absorpt_process_details   'CrystalClear (Rigaku Inc., 2007)'
_exptl_crystal_colour            Colorless
_exptl_crystal_density_diffrn    1.613
_exptl_crystal_description       Plate
_exptl_crystal_F_000             416
_exptl_crystal_size_max          0.22
_exptl_crystal_size_mid          0.2
_exptl_crystal_size_min          0.09
_refine_diff_density_max         0.267
_refine_diff_density_min         -0.235
_refine_diff_density_rms         0.052
_refine_ls_abs_structure_details
;
 Flack x determined using 1481 quotients [(I+)-(I-)]/[(I+)+(I-)]
 (Parsons and Flack (2004), Acta Cryst. A60, s61).
;
_refine_ls_abs_structure_Flack   0.018(5)
_refine_ls_extinction_method     none
_refine_ls_goodness_of_fit_ref   1.107
_refine_ls_hydrogen_treatment    constr
_refine_ls_matrix_type           full
_refine_ls_number_parameters     218
_refine_ls_number_reflns         3669
_refine_ls_number_restraints     1
_refine_ls_restrained_S_all      1.107
_refine_ls_R_factor_all          0.0316
_refine_ls_R_factor_gt           0.0301
_refine_ls_shift/su_max          0.000
_refine_ls_shift/su_mean         0.000
_refine_ls_structure_factor_coef Fsqd
_refine_ls_weighting_details
'w=1/[\s^2^(Fo^2^)+(0.0227P)^2^+0.1319P] where P=(Fo^2^+2Fc^2^)/3'
_refine_ls_weighting_scheme      calc
_refine_ls_wR_factor_gt          0.0620
_refine_ls_wR_factor_ref         0.0629
_reflns_Friedel_coverage         0.813
_reflns_friedel_fraction_full    0.912
_reflns_friedel_fraction_max     0.893
_reflns_number_gt                3551
_reflns_number_total             3669
_reflns_threshold_expression     'I > 2\s(I)'
_cod_data_source_file            ol5b03459_si_002.cif
_cod_data_source_block           sa3720
_cod_database_code               1542725
_shelxl_version_number           2013-4
_shelx_space_group_comment
;
The symmetry employed for this shelxl refinement is uniquely defined
by the following loop, which should always be used as a source of
symmetry information in preference to the above space-group names.
They are only intended as comments.
;
_diffrn_number_total             2040
_olex2_refinement_description
;
1. Fixed Uiso
 At 1.2 times of:
  All C(H) groups, All C(H,H) groups
 At 1.5 times of:
  All C(H,H,H) groups
2.a Ternary CH refined with riding coordinates:
 C1(H1), C2(H2)
2.b Secondary CH2 refined with riding coordinates:
 C3(H3A,H3B)
2.c Aromatic/amide H refined with riding coordinates:
 C6(H6), C7(H7), C8(H8), C9(H9), C10(H10), C12(H12), C13(H13), C15(H15),
 C16(H16)
2.d Idealised Me refined as rotating group:
 C17(H17A,H17B,H17C)
;
_shelx_res_file
;
TITL sa3720 in P2(1)
CELL 0.71073 7.8188 11.246 9.6401 90 94.539 90
ZERR 2 0.002 0.0027 0.0024 0 0.004 0
LATT -1
SYMM -X,0.5+Y,-Z

SFAC C H Br N O S
UNIT 34 32 2 2 8 2

L.S. 4
PLAN  20
BOND
MORE -1
fmap 2
acta 52
CONF
OMIT -4 0 5
OMIT 0 -6 2
OMIT -1 7 5
OMIT 0 -5 2
OMIT 2 5 6
OMIT 1 7 5
OMIT 0 -4 3
OMIT 0 0 1
OMIT 0 -3 2
REM <HKL>D:/D/SXRD/sa(3700-3799)/sa3720/sa3720.hkl</HKL>

WGHT    0.022700    0.131900
FVAR       8.38822
BR1   3    0.647396    0.120200    0.649570    11.00000    0.04853    0.03129 =
         0.02856    0.00814    0.00457   -0.00445
S1    6    0.946857    0.434510    0.534602    11.00000    0.02487    0.02442 =
         0.02431    0.00126    0.00004   -0.00505
O1    5    0.467302    0.369550    0.579236    11.00000    0.02173    0.04489 =
         0.03132    0.00074    0.00416    0.00450
O2    5    0.653002    0.497003    0.674233    11.00000    0.04066    0.03040 =
         0.02583   -0.00321    0.00001    0.01151
O3    5    0.932056    0.560145    0.518443    11.00000    0.04289    0.02648 =
         0.03977    0.00705   -0.00353   -0.00759
O4    5    1.044402    0.367744    0.443201    11.00000    0.02212    0.04439 =
         0.02929   -0.00143    0.00584   -0.00643
N1    4    0.747884    0.374817    0.509601    11.00000    0.02009    0.02165 =
         0.02094   -0.00195    0.00046   -0.00060
C1    1    0.725709    0.267994    0.420041    11.00000    0.02116    0.01963 =
         0.02234   -0.00026    0.00209   -0.00029
AFIX  13
H1    2    0.830753    0.220310    0.431970    11.00000   -1.20000
AFIX   0
C2    1    0.578630    0.195424    0.470221    11.00000    0.02974    0.03411 =
         0.02032    0.00131    0.00046   -0.01160
AFIX  13
H2    2    0.547982    0.133055    0.401721    11.00000   -1.20000
AFIX   0
C3    1    0.426431    0.273328    0.482628    11.00000    0.02333    0.04971 =
         0.02825    0.00202    0.00186   -0.00690
AFIX  23
H3A   2    0.389167    0.305769    0.392006    11.00000   -1.20000
H3B   2    0.332969    0.226623    0.514652    11.00000   -1.20000
AFIX   0
C4    1    0.623834    0.418139    0.592055    11.00000    0.02524    0.02832 =
         0.01929    0.00494   -0.00020    0.00732
C5    1    0.690242    0.296738    0.266198    11.00000    0.01894    0.03031 =
         0.02091   -0.00281    0.00316    0.00045
C6    1    0.676009    0.411795    0.216016    11.00000    0.03108    0.02716 =
         0.02887    0.00238    0.00297   -0.00093
AFIX  43
H6    2    0.688882    0.475668    0.277227    11.00000   -1.20000
AFIX   0
C7    1    0.642346    0.432246    0.073623    11.00000    0.04065    0.04284 =
         0.02993    0.01430    0.00102   -0.00354
AFIX  43
H7    2    0.632636    0.509825    0.040527    11.00000   -1.20000
AFIX   0
C8    1    0.623520    0.339110   -0.017654    11.00000    0.04766    0.06279 =
         0.01911    0.00537   -0.00043   -0.00938
AFIX  43
H8    2    0.599294    0.353337   -0.112202    11.00000   -1.20000
AFIX   0
C9    1    0.640651    0.223691    0.031205    11.00000    0.05572    0.04842 =
         0.02575   -0.00998    0.00526   -0.00691
AFIX  43
H9    2    0.630428    0.160216   -0.030731    11.00000   -1.20000
AFIX   0
C10   1    0.673106    0.202726    0.172739    11.00000    0.03827    0.03337 =
         0.02954   -0.00374    0.00692   -0.00092
AFIX  43
H10   2    0.683471    0.125004    0.205273    11.00000   -1.20000
AFIX   0
C11   1    1.015710    0.399206    0.707590    11.00000    0.02063    0.02861 =
         0.02407   -0.00229    0.00003   -0.00386
C12   1    1.070942    0.284251    0.737393    11.00000    0.02783    0.03120 =
         0.02676   -0.00303   -0.00035    0.00009
AFIX  43
H12   2    1.070896    0.227187    0.667566    11.00000   -1.20000
AFIX   0
C13   1    1.126129    0.256325    0.873328    11.00000    0.03199    0.03717 =
         0.03493    0.00786   -0.00291    0.00324
AFIX  43
H13   2    1.163767    0.179479    0.894300    11.00000   -1.20000
AFIX   0
C14   1    1.126845    0.339849    0.979204    11.00000    0.02332    0.05243 =
         0.02666    0.00064    0.00101   -0.00336
C15   1    1.070462    0.453743    0.945680    11.00000    0.03497    0.04714 =
         0.03264   -0.01465   -0.00226   -0.00132
AFIX  43
H15   2    1.070645    0.510909    1.015402    11.00000   -1.20000
AFIX   0
C16   1    1.013559    0.484617    0.810124    11.00000    0.03802    0.02854 =
         0.03426   -0.00695   -0.00640    0.00111
AFIX  43
H16   2    0.974885    0.561209    0.789060    11.00000   -1.20000
AFIX   0
C17   1    1.186630    0.310098    1.126257    11.00000    0.04506    0.07183 =
         0.02903    0.00332   -0.00272   -0.00357
AFIX 137
H17A  2    1.095280    0.323990    1.185195    11.00000   -1.50000
H17B  2    1.283062    0.359227    1.155966    11.00000   -1.50000
H17C  2    1.219936    0.227974    1.132035    11.00000   -1.50000
AFIX   0
HKLF 4

REM  sa3720 in P2(1)
REM R1 =  0.0301 for    3551 Fo > 4sig(Fo)  and  0.0316 for all    3669 data
REM    218 parameters refined using      1 restraints

END

WGHT      0.0227      0.1319

REM Highest difference peak  0.267,  deepest hole -0.235,  1-sigma level  0.052
Q1    1   0.6942  0.1258  0.5437  11.00000  0.05    0.27
Q2    1   0.6899  0.3039  0.3439  11.00000  0.05    0.22
Q3    1   0.7383  0.2860  0.3198  11.00000  0.05    0.22
Q4    1   1.0845  0.3578  0.7068  11.00000  0.05    0.21
Q5    1   0.6601  0.3537  0.2413  11.00000  0.05    0.21
Q6    1   1.0257  0.4313  0.7579  11.00000  0.05    0.20
Q7    1   0.3175  0.1184  0.4809  11.00000  0.05    0.19
Q8    1   0.7193  0.0239  0.6151  11.00000  0.05    0.19
Q9    1   0.5612  0.1417  0.6566  11.00000  0.05    0.19
Q10   1   0.9998  0.2975  1.1206  11.00000  0.05    0.18
Q11   1   1.3304  0.2853  1.1414  11.00000  0.05    0.18
Q12   1   0.6820  0.2522  0.2277  11.00000  0.05    0.18
Q13   1   0.6084  0.2855  0.0247  11.00000  0.05    0.18
Q14   1   0.8672  0.6611  0.4600  11.00000  0.05    0.18
Q15   1   0.8629  0.4223  0.5182  11.00000  0.05    0.18
Q16   1   0.7403  0.3153  0.4608  11.00000  0.05    0.18
Q17   1   0.9966  0.3627  0.4977  11.00000  0.05    0.18
Q18   1   1.3074  0.3811  0.7596  11.00000  0.05    0.17
Q19   1   0.9951  0.3411  0.3229  11.00000  0.05    0.17
Q20   1   0.6950  0.2784 -0.1640  11.00000  0.05    0.17
;
_shelx_res_checksum              87808
_shelx_hkl_file
;
   0   0  -1   54.66   29.41   1 0.97363-0.97955-0.19681 0.19681-0.11536 0.04162
   0   0  -2304325.0 4266.19   1 0.97299-0.98484-0.17334 0.17334-0.15242 0.00494
   0   0   2271710.3 3826.94   1 0.96416-0.95236-0.26530 0.26530-0.00291 0.15041
   0   0  -2282528.5 3923.40   1-0.99697 0.98513-0.07744 0.07744 0.00588-0.15336
   0   0   2275110.2 3838.82   1 0.46984-0.45819 0.88196-0.88196 0.03707 0.11040
   0   0  -3 6454.06  304.53   1 0.97047-0.98825-0.14946 0.14946-0.18932-0.03189
   0   0   3 6174.98  316.47   1-0.95754 0.97523 0.21865-0.21865 0.18790 0.03316
   0   0  -3 7552.24  643.59   1 0.26139-0.27889 0.95616-0.95616-0.13199-0.08923
   0   0   3 6400.35  216.73   1 0.50804-0.49056 0.85838-0.85838 0.07115 0.15006
   0   0  -4 5754.33  545.72   1 0.96603-0.98974-0.12514 0.12514-0.22608-0.06888
   0   0   4 4823.83  528.31   1 0.94841-0.92481-0.30862 0.30862 0.07255 0.22242
   0   0   4 4497.77  573.01   1-0.93498 0.95858 0.27565-0.27565 0.22317 0.07157
   0   0  -4 5817.64  597.92   1 0.21665-0.24005 0.96209-0.96209-0.16563-0.12939
   0   0   4 5022.32  255.49   1 0.54497-0.52167 0.83180-0.83180 0.10534 0.18962
   0   0  -510300.97 1234.85   1 0.95960-0.98914-0.10130 0.10130-0.26248-0.10640
   0   0   5 7871.33  315.62   1-0.90756 0.93691 0.33152-0.33152 0.25771 0.11080
   0   0  -5 9803.20  862.12   1 0.16975-0.19900 0.96518-0.96518-0.19902-0.16976
   0   0  -6103402.1 3169.99   1 0.95123-0.98668-0.07611 0.07611-0.29894-0.14372
   0   0   690920.69 2736.18   1-0.87414 0.90936 0.38798-0.38798 0.29213 0.15008
   0   0  -6102959.9 3282.43   1 0.12148-0.15658 0.96502-0.96502-0.23230-0.21024
   0   0  -732392.69 1269.41   1 0.94078-0.98214-0.05045 0.05045-0.33522-0.18121
   0   0   727320.23 1060.24   1-0.83452 0.87561 0.44413-0.44413 0.32606 0.18985
   0   0   729941.92 1118.79   1 0.91287-0.87245 0.36223-0.36223 0.18829 0.32803
   0   0  -732313.08 1350.76   1 0.07176-0.11272 0.96144-0.96144-0.26546-0.25083
   0   0  -8 1305.82  431.19   1 0.92817-0.97544-0.02429 0.02429-0.37134-0.21887
   0   0   8 1514.46  247.77   1 0.87745-0.83127 0.42190-0.42190 0.22817 0.36191
   0   0  -8 2284.51  405.23   1 0.01884-0.06563 0.95425-0.95425-0.29838-0.29168
   0   0  -914283.88 1027.97   1 0.91330-0.96648 0.00236-0.00236-0.40727-0.25672
   0   0   915080.37 1037.10   1 0.83398-0.78202 0.48195-0.48195 0.26868 0.39516
   0   0  -915380.57 1044.30   1-0.03406-0.01857 0.94290-0.94290-0.33130-0.33253
   0   0 -1030359.45 1532.32   1-0.08884 0.03035 0.92712-0.92712-0.36406-0.37352
   0   0  11 7308.96  806.23   1-0.87644 0.94118-0.05873 0.05873 0.47789 0.33273
   0   0  12  543.19  325.79   1-0.85384 0.92447-0.08716 0.08716 0.51317 0.37115
   0  -1   0  131.76   50.81   1-0.99888 0.99888-0.03160-0.03160 0.03506-0.03506
   0   1   0   48.66   34.77   1 0.82641-0.82641 0.03159 0.03159 0.56217-0.56217
   0  -1   2149240.5 2173.67   1 0.97267-0.96082-0.21670 0.15349-0.08329 0.23077
   0  -1  -2150310.5 2137.97   1 0.97183-0.98368-0.22523 0.16202-0.06934-0.07813
   0  -1  -2152281.8 2203.49   1-0.99810 0.98625-0.05893-0.00427 0.01768-0.16516
   0  -1   2158564.4 2186.26   1-0.77177 0.78357 0.51655-0.57973 0.37086-0.22342
   0  -1   2152005.4 2182.13   1 0.72359-0.71194 0.62284-0.68603 0.29744-0.14995
   0  -1  -3 8106.28  301.06   1 0.97315-0.99093-0.17599 0.11278-0.14829-0.07293
   0  -1   3 7955.05  806.22   1 0.96779-0.95009-0.25013 0.18693-0.02852 0.24976
   0  -1  -3 7719.46  299.89   1-0.99456 0.97678-0.10359 0.04039-0.01085-0.21036
   0   1   311414.79  470.42   1-0.97507 0.99277 0.16140-0.09825 0.15222 0.06884
   0  -1   3 8088.15  233.17   1-0.85874 0.87635 0.41095-0.47411 0.30605-0.08494
   0  -1  -3 7859.70  260.72   1-0.10729 0.08974 0.92087-0.98406-0.37480 0.15352
   0   1   312265.59  459.13   1 0.20899-0.19143 0.96282-0.89963-0.17115 0.39242
   0  -1   3 8257.08  289.07   1 0.69148-0.67401 0.67459-0.73778 0.25839-0.03716
   0  -1  -4187284.4 2732.97   1 0.96905-0.99275-0.14048 0.07727-0.20299-0.09197
   0   1   4198274.9 2880.43   1 0.92155-0.89795-0.35485 0.41805 0.15750 0.13748
   0   1   4182215.5 2663.65   1-0.95874 0.98234 0.21518-0.15204 0.18574 0.10900
   0  -1   4190021.8 2676.84   1-0.85005 0.87353 0.42324-0.48640 0.31348-0.01867
   0  -1  -4189754.7 2750.07   1-0.06529 0.04190 0.93441-0.99760-0.35015 0.05511
   0   1   4198520.7 2862.44   1 0.33899-0.31565 0.93799-0.87482-0.07249 0.36747
   0   1  -4204566.9 2978.00   1 0.43226-0.45560 0.90174-0.83857 0.00370-0.29868
   0  -1   4184605.3 2703.62   1 0.68288-0.65958 0.68699-0.75018 0.24840 0.04656
   0  -1  -5218156.3 5270.91   1 0.96216-0.99180-0.10932 0.04612-0.24955-0.11914
   0   1  -5216993.2 5159.09   1 0.95525-0.98479-0.08751 0.15071-0.28254-0.08634
   0   1   5190173.2 4497.22   1 0.91242-0.88292-0.36708 0.43029 0.18088 0.18784
   0  -1   5210715.0 4907.27   1-0.82277 0.85213 0.45910-0.52225 0.33505 0.03346
   0  -1   5213187.5 4968.69   1 0.92054-0.89167 0.34747-0.41072 0.17848 0.19031
   0  -1  -5216008.9 5075.83   1-0.05942 0.03018 0.93611-0.99929-0.34664-0.02215
   0   1  -5213299.2 5047.45   1 0.35564-0.38482 0.93273-0.86957-0.05928-0.30942
   0   1   5203369.6 4789.01   1 0.43053-0.40136 0.90256-0.83940 0.00224 0.36647
   0  -1   5202011.7 4771.68   1 0.68715-0.65803 0.68091-0.74409 0.25334 0.11537
   0   1  -673544.25 2322.09   1 0.94753-0.98299-0.06648 0.12969-0.31264-0.13001
   0  -1  -684388.12 2608.16   1 0.95297-0.98843-0.08092 0.01772-0.29203-0.15063
   0   1   664576.23 1984.35   1-0.91140 0.94662 0.32431-0.26115 0.25329 0.18892
   0  -1   674781.92 2251.40   1-0.78629 0.82168 0.50100-0.56419 0.36157 0.08073
   0  -1   676185.83 2294.90   1 0.88994-0.85530 0.40222-0.46546 0.21497 0.22758
   0  -1  -677321.31 2380.93   1-0.07263 0.03754 0.93222-0.99540-0.35451-0.08803
   0   1  -676456.07 2373.12   1 0.28547-0.32048 0.95159-0.88843-0.11387-0.32858
   0   1   671765.39 2196.06   1 0.50048-0.46551 0.86335-0.80018 0.06430 0.37814
   0   1  -731774.08 1239.65   1 0.93784-0.97921-0.04398 0.10718-0.34424-0.17220
   0  -1  -724800.38  993.48   1 0.94156-0.98292-0.05220-0.01099-0.33276-0.18367
   0  -1   723533.18  850.66   1-0.73963 0.78092 0.54856-0.61175 0.38989 0.12614
   0  -1   725258.07  929.00   1 0.85155-0.81114 0.45907-0.52231 0.25319 0.26313
   0  -1  -724801.45  943.64   1-0.09735 0.05641 0.92430-0.98748-0.36904-0.14727
   0   1  -731904.67 1212.88   1 0.21976-0.26072 0.96177-0.89859-0.16337-0.35292
   0   1  -830469.12 1345.46   1 0.92609-0.97336-0.02033 0.08354-0.37674-0.21348
   0  -1  -827993.59 1166.55   1 0.92786-0.97513-0.02369-0.03950-0.37216-0.21805
   0  -1   825580.75  982.29   1-0.68339 0.73058 0.59790-0.66109 0.41889 0.17085
   0  -1   829115.53 1129.05   1 0.80416-0.75798 0.51731-0.58055 0.29274 0.29734
   0   1   828307.20 1202.19   1 0.91164-0.86545 0.36452-0.30127 0.18981 0.40026
   0  -1  -831909.02 1287.51   1-0.12982 0.08303 0.91259-0.97578-0.38770-0.20237
   0   1  -829964.72 1267.41   1 0.15515-0.20197 0.96548-0.90230-0.20919-0.38086
   0   1  -921843.87 1495.12   1 0.91216-0.96535 0.00425 0.05895-0.40979-0.25420
   0  -1  -917224.66 1180.78   1 0.91178-0.96497 0.00488-0.06808-0.41063-0.25337
   0  -1   915603.89 1004.52   1 0.74695-0.69472 0.57545-0.63869 0.33303 0.33078
   0   1   919881.10 1322.26   1 0.87752-0.82556 0.42180-0.35855 0.22810 0.43574
   0   1  -919773.52 1319.09   1 0.09130-0.14397 0.96326-0.90007-0.25256-0.41125
   0   1  10 3518.03  599.08   1-0.89339 0.95224-0.03518 0.09838 0.44789 0.28904
   0   1  10 2562.06  444.51   1 0.83568-0.77795 0.47980-0.41656 0.26722 0.47038
   0   1 -10 2484.85  552.12   1 0.02573-0.08421 0.95545-0.89226-0.29401-0.44357
   0   1  1124237.75 1891.46   1-0.87211 0.93685-0.06442 0.12761 0.48503 0.32560
   0  -1  1129018.55 2227.70   1-0.87758 0.94232-0.05722-0.00597 0.47599 0.33464
   0   1 -1121310.79 1848.21   1-0.03892-0.02541 0.94167-0.87848-0.33426-0.47708
   0   1  1216317.95 1481.48   1-0.84792 0.91854-0.09415 0.15734 0.52168 0.36264
   0  -1  1218076.41 1729.67   1-0.85627 0.92689-0.08424 0.02105 0.50960 0.37472
   0  -2   0229765.0 3235.16   1-0.99788 0.99788-0.06320-0.06320 0.01496-0.01496
   0   2   0226961.5 3197.92   1-0.99348 0.99348 0.06320 0.06320 0.09486-0.09486
   0   2   0217820.2 3060.69   1 0.82990-0.82990 0.06318 0.06318 0.55431-0.55431
   0   2  -2187068.0 2738.64   1 0.95563-0.96745-0.08865 0.21506-0.28088 0.13333
   0  -2  -2179413.5 2501.29   1 0.95442-0.96622-0.29461 0.16821 0.04774-0.19523
   0   2   2179662.7 2499.17   1 0.68691-0.67516-0.51383 0.64024 0.51392-0.36638
   0   2   2174585.8 2535.70   1-0.98752 0.99932 0.10534 0.02093 0.11706 0.03031
   0   2  -2181953.4 2622.71   1 0.74064-0.75229 0.59102-0.46464 0.31958-0.46707
   0  -2   2180481.8 2598.85   1 0.80518-0.79343 0.41714-0.54348 0.42150-0.27400
   0  -2   3205883.5 3010.11   1 0.97127-0.95349-0.22975 0.10334-0.06191 0.28313
   0  -2  -3213885.4 3020.92   1 0.97359-0.99137-0.19888 0.07247-0.11204-0.10917
   0  -2  -3215511.6 3128.80   1-0.99478 0.97701-0.10151-0.02490-0.00951-0.21170
   0   2   3200149.5 2852.26   1-0.10166 0.11921 0.92283-0.79646-0.37154 0.59282
   0   2  -3203342.5 2948.28   1 0.65347-0.67094 0.72562-0.59924 0.21550-0.43673
   0  -2   3209775.0 3033.45   1 0.77782-0.76020 0.50515-0.63149 0.37391-0.15265
   0   2   3213095.7 3043.77   1 0.42209-0.40455-0.73343 0.85979 0.53283-0.31160
   0  -2  -4231785.9 3323.04   1 0.97045-0.99416-0.14933 0.02292-0.18952-0.10543
   0   2   4224880.5 3213.34   1 0.86179-0.83829-0.41878 0.54515 0.28623 0.00875
   0   2   4208034.9 3035.62   1-0.96656 0.99016 0.19121-0.06493 0.17083 0.12391
   0   2   4232875.7 3326.37   1 0.10191-0.07851 0.96402-0.83766-0.24548 0.54051
   0   2  -4231708.9 3373.59   1 0.56841-0.59171 0.81276-0.68643 0.12773-0.42270
   0  -2   4216665.5 3158.93   1 0.76123-0.73774 0.54657-0.67291 0.34895-0.05394
   0   2  -5 3287.92  598.70   1 0.94900-0.97854-0.07021 0.19662-0.30735-0.06153
   0  -2  -5 3290.10  458.90   1 0.96274-0.99237-0.11148-0.01492-0.24637-0.12233
   0   2   5 2919.46  191.34   1 0.86474-0.83536-0.41627 0.54264 0.28095 0.08777
   0  -2   5 2815.26  114.10   1-0.46168 0.49121 0.73522-0.86162 0.49627-0.12769
   0  -2   5 3048.73  145.54   1 0.68946-0.66044 0.62437-0.75086 0.36714 0.00164
   0   2   5 2426.68  406.11   1 0.25049-0.22123 0.95781-0.83144-0.14086 0.50965
   0   2  -5 2268.33  238.31   1 0.48773-0.51687 0.87138-0.74505 0.05288-0.42159
   0   2  -6117723.5 3621.99   1 0.94198-0.97743-0.05316 0.17957-0.33142-0.11123
   0  -2  -6126619.8 3812.03   1 0.95237-0.98782-0.07924-0.04716-0.29445-0.14821
   0  -2   6118690.2 3490.89   1 0.69826-0.66344 0.61741-0.74390 0.36225 0.08028
   0   2   6107917.1 3241.33   1 0.36267-0.32766 0.93037-0.80404-0.05366 0.49612
   0   2  -6110099.5 3348.19   1 0.41218-0.44719 0.91100-0.78468-0.01317-0.42928
   0   2  -7137045.0 4525.33   1 0.93297-0.97434-0.03378 0.16019-0.35834-0.15810
   0  -2  -7168306.1 5466.55   1 0.93960-0.98096-0.04782-0.07858-0.33890-0.17754
   0  -2   7151985.4 4846.82   1-0.48012 0.52146 0.72651-0.85292 0.49157 0.02443
   0  -2   7159108.7 5076.42   1 0.66396-0.62334 0.64360-0.77009 0.38068 0.13561
   0   2  -7146639.7 4800.47   1 0.33903-0.37987 0.93797-0.81165-0.07246-0.44373
   0   2  -825859.69 1483.73   1 0.92195-0.96922-0.01269 0.13909-0.38710-0.20312
   0  -2  -820106.48 1701.52   1 0.92446-0.97173-0.01728-0.10912-0.38088-0.20934
   0  -2   819264.36 1920.36   1 0.60338-0.55696 0.68420-0.81070 0.40961 0.18044
   0   2  -826782.76 1469.54   1 0.26798-0.31466 0.95500-0.82868-0.12706-0.46288
   0   2  -9 7867.94  660.42   1 0.90881-0.96199 0.00976 0.11664-0.41709-0.24690
   0  -2  -9 8083.62  700.77   1 0.90685-0.96003 0.01291-0.13932-0.42125-0.24274
   0   2   9 6017.87  588.44   1 0.90111-0.84915 0.38343-0.25694 0.20242 0.46142
   0   2  -9 6645.33 1108.19   1 0.19893-0.25159 0.96364-0.83727-0.17836-0.48545
   0   2  1026760.84 2187.91   1-0.88671 0.94556-0.04473 0.17112 0.46014 0.27679
   0  -2  1026634.69 2253.73   1-0.89380 0.95266-0.03457-0.09181 0.44711 0.28983
   0   2  1026483.98 2195.85   1 0.86664-0.80890 0.43797-0.31149 0.23897 0.49863
   0   2 -1026542.67 2214.58   1 0.12952-0.18803 0.96528-0.83891-0.22683-0.51074
   0  -2  11 7355.93  761.83   1-0.87609 0.94083-0.05920-0.06718 0.47849 0.33214
   0   2  11 6085.15 1082.50   1-0.86364 0.92838-0.07519 0.20158 0.49845 0.31218
   0   2 -11 5409.09 1400.14   1 0.05981-0.12418 0.96007-0.83370-0.27327-0.53805
   0  -2  12 4177.53 1193.51   1-0.85583 0.92646-0.08477-0.04162 0.51025 0.37408
   0   2  12 3601.08  994.52   1-0.83748 0.90811-0.10607 0.23246 0.53606 0.34827
   0  -3   0 -132.07  108.34   1 0.95762-0.95762-0.09480-0.09480-0.27197 0.27197
   0  -3   0  276.57  217.53   1-0.84737 0.84737-0.09479-0.09479 0.52247-0.52247
   0  -3   0  -68.54  168.62   1-0.99548 0.99548-0.09481-0.09481-0.00522 0.00522
   0   3   0 1847.26  432.34   1 0.83250-0.83250 0.09478 0.09478 0.54584-0.54584
   0  -3   0  -24.46  179.18   1 0.80366-0.80366-0.09478-0.09478 0.58749-0.58749
   0  -3  -2 -112.42   40.40   1 0.88186-0.89361-0.40063 0.21108 0.24860-0.39609
   0   3  -3128200.9 2015.62   1 0.94528-0.96301-0.06093 0.25054-0.32050 0.09917
   0   3   3125279.9 1776.47   1 0.57117-0.55380-0.54432 0.73399 0.61438-0.39312
   0   3   3118434.0 1860.96   1-0.97845 0.99615 0.14805 0.04136 0.14387 0.07719
   0   3   3127316.5 1893.52   1 0.60889-0.59142-0.52516 0.71473 0.59452-0.37331
   0   3  -412999.22  864.22   1 0.94453-0.96816-0.05912 0.24873-0.32305 0.02794
   0  -3  -410834.87  504.05   1 0.97014-0.99385-0.14725-0.04236-0.19269-0.10226
   0   3   414617.36  415.16   1 0.72730-0.70379-0.49845 0.68807 0.47177-0.17668
   0   3   415083.87  472.36   1-0.10615 0.12955 0.92127-0.73171-0.37414 0.66918
   0   3  -413906.76  538.25   1 0.64827-0.67156 0.73191-0.54235 0.20985-0.50482
   0   3   414797.41  485.87   1 0.52703-0.50365-0.62887 0.81841 0.57161-0.27663
   0   3  -597046.02 2473.09   1 0.94069-0.97023-0.05023 0.23985-0.33552-0.03336
   0  -3  -576155.93 1958.39   1 0.96059-0.99014-0.10473-0.08487-0.25746-0.11142
   0   3   589046.53 2144.73   1 0.77289-0.74351-0.47727 0.66689 0.41813-0.04927
   0   3   581033.54 1972.02   1 0.07161-0.04235 0.96142-0.77187-0.26556 0.63435
   0   3  -590412.10 2269.12   1 0.57568-0.60481 0.80648-0.61697 0.13481-0.50352
   0   3   593344.05 2294.43   1 0.46952-0.44029-0.68952 0.87906 0.55145-0.18272
   0  -3  -6 2865.38  432.49   1 0.94826-0.98371-0.06832-0.12128-0.31004-0.13262
   0   3  -6 1709.72  356.19   1 0.93450-0.96996-0.03691 0.22653-0.35402-0.08864
   0   3   6 1053.20  139.41   1 0.78508-0.74982-0.47079 0.66041 0.40248 0.04014
   0   3   6  867.70  163.52   1 0.21615-0.18104 0.96214-0.77259-0.16599 0.60853
   0   3  -6 2313.01  342.17   1 0.50264-0.53761 0.86194-0.67244 0.06626-0.50872
   0   3   6 2223.04  323.42   1 0.43493-0.39985-0.72204 0.91158 0.53804-0.09556
   0   3  -742032.69 1581.16   1 0.92621-0.96758-0.02057 0.21018-0.37642-0.14002
   0  -3  -746912.78 1621.51   1 0.93360-0.97496-0.03505-0.15455-0.35658-0.15985
   0   3  -739003.94 1620.42   1 0.43098-0.47183 0.90235-0.71287 0.00262-0.51883
   0   3   741481.31 1486.57   1 0.41903-0.37811-0.73609 0.92563 0.53158-0.01535
   0  -3  -867062.32 3376.38   1 0.91657-0.96385-0.00320-0.18640-0.39984-0.19038
   0   3  -880378.58 4094.91   1 0.91587-0.96314-0.00199 0.19161-0.40145-0.18876
   0   3  -878323.28 3961.55   1 0.35917-0.40585 0.93155-0.74207-0.05646-0.53347
   0   3   877094.65 3871.90   1 0.41769-0.37092-0.73724 0.92678 0.53103 0.05893
   0   3  -934980.38 1980.36   1 0.90343-0.95661 0.01830 0.17130-0.42833-0.23566
   0   3   929698.89 1662.10   1 0.91415-0.86219 0.35981-0.17008 0.18668 0.47716
   0   3  -932420.99 1793.62   1 0.28769-0.34021 0.95112-0.76164-0.11219-0.55149
   0   3   932325.19 1770.02   1 0.42772-0.37511-0.72847 0.91801 0.53513 0.12857
   0   3  10 2449.09  411.99   1-0.87472 0.93357-0.06101 0.25059 0.48076 0.25618
   0  -3  10 2295.69  497.91   1-0.88921 0.94807-0.04120-0.14838 0.45562 0.28132
   0   3  10 3339.40  556.57   1 0.88472-0.82698 0.41061-0.22088 0.22059 0.51701
   0   3 -10 3314.74  676.48   1 0.21692-0.27543 0.96206-0.77251-0.16543-0.57214
   0   3  10 2689.98  393.75   1 0.44684-0.38838-0.71115 0.90069 0.54276 0.19469
   0   3  1110333.74 1076.04   1-0.84945 0.91419-0.09235 0.28194 0.51951 0.29112
   0  -3  11 7301.83  955.17   1-0.87230 0.93704-0.06417-0.12541 0.48472 0.32590
   0   3  1112632.89 1320.02   1 0.84879-0.78528 0.46278-0.27305 0.25570 0.55566
   0   3 -11 8267.05 1451.59   1 0.14490-0.20927 0.96551-0.77596-0.21628-0.59504
   0  -3  12 2875.76  857.21   1-0.85293 0.92355-0.08824-0.10133 0.51450 0.36982
   0  -4   0165176.2 2374.25   1 0.96631-0.96631-0.12641-0.12641-0.22418 0.22418
   0  -4   0163350.8 2339.16   1-0.81870 0.81870-0.12639-0.12639 0.56013-0.56013
   0   4   0184930.8 2727.99   1-0.98340 0.98340 0.12628 0.12628 0.13022-0.13022
   0  -4   0156404.7 2309.29   1 0.79575-0.79575-0.12637-0.12637 0.59228-0.59228
   0  -4  -1188687.7 2652.53   1 0.94867-0.95458-0.06937-0.18344-0.30855 0.23477
   0  -4   1184378.5 2682.96   1 0.97216-0.96624-0.16340-0.08941-0.16787 0.24161
   0  -4  -1189712.0 2652.26   1-0.50567 0.49982-0.35488 0.10203 0.78635-0.86009
   0  -4  -1190652.1 2835.37   1-0.99386 0.98793-0.10965-0.14317-0.01473-0.05900
   0   4   1185948.5 2771.46   1-0.98414 0.99004 0.12274 0.12981 0.12800-0.05431
   0   4  -1184317.4 2666.68   1-0.97593 0.97003 0.15811 0.09444 0.15017-0.22386
   0   4  -1188589.7 2780.47   1 0.82768-0.83359 0.29572-0.04301 0.47694-0.55070
   0   4   1182481.3 2670.92   1 0.81312-0.80720-0.05108 0.30383 0.57984-0.50606
   0  -4  -1184025.9 2679.75   1 0.72129-0.72717-0.33149 0.07865 0.60814-0.68193
   0   4  -213608.48  440.44   1 0.92207-0.93388-0.01290 0.26572-0.38680 0.23924
   0   4   212372.87  384.25   1-0.98130 0.99310 0.13589 0.11666 0.13625 0.01112
   0   4  -212013.23  286.37   1-0.94810 0.93630 0.24412 0.00843 0.20370-0.35108
   0   4  -212592.22  415.73   1 0.79772-0.80947 0.44457-0.19189 0.40741-0.55491
   0   4   212173.28  412.21   1 0.76726-0.75551-0.21795 0.47078 0.60315-0.45558
   0  -4  -3  -81.89   37.03   1 0.97313-0.99091-0.21032-0.04249-0.09364-0.12757
   0   4  -444232.10 1287.64   1 0.93251-0.95615-0.03285 0.28567-0.35962 0.06451
   0  -4  -441168.72 1007.30   1 0.96566-0.98937-0.12348-0.12934-0.22856-0.06640
   0   4   442917.05 1043.35   1 0.43065-0.40749-0.56285 0.81575 0.70550-0.41047
   0   4  -439657.85 1133.90   1 0.69478-0.71808 0.66968-0.41693 0.26227-0.55724
   0   4   444275.92 1164.71   1 0.64957-0.62628-0.46352 0.71628 0.60266-0.30772
   0   4  -5 9133.94  631.42   1 0.93016-0.95970-0.02816 0.28098-0.36606-0.00282
   0  -4  -5 7965.97  621.14   1 0.95247-0.98202-0.07953-0.17328-0.29403-0.07484
   0   4   5 8416.46  323.08   1 0.59598-0.56704-0.53906 0.79196 0.59514-0.22636
   0   4   5 6247.23  703.69   1-0.07992 0.10917 0.92997-0.67723-0.35882 0.72762
   0   4  -5 7988.27  432.08   1 0.63202-0.66114 0.75065-0.49789 0.19252-0.56123
   0   4   5 7165.49  407.89   1 0.60074-0.57164-0.53659 0.78935 0.59259-0.22392
   0   4  -624275.01 1099.22   1 0.92501-0.96046-0.01831 0.27112-0.37949-0.06317
   0  -4  -623153.83  870.73   1 0.93746-0.97292-0.04316-0.20965-0.34538-0.09728
   0   4   620903.19  778.83   1 0.65824-0.62298-0.52315 0.77598 0.54131-0.09868
   0   4  -623857.19  961.90   1 0.56628-0.60124 0.81457-0.56189 0.12567-0.56813
   0   4   623325.78  940.07   1 0.56549-0.53057-0.58309 0.83585 0.58328-0.14088
   0  -4  -734000.83 1295.97   1 0.92054-0.96190-0.01015-0.24265-0.39051-0.12592
   0   4  -741729.39 1681.03   1 0.49831-0.53910 0.86474-0.61207 0.06236-0.57855
   0   4   741236.56 1613.95   1 0.54372-0.50280-0.60954 0.86226 0.57690-0.06067
   0   4  -828616.75 1734.13   1 0.90789-0.95516 0.01124 0.24157-0.41904-0.17117
   0   4  -827906.60 1726.62   1 0.42991-0.47659 0.90287-0.65022 0.00171-0.59166
   0   4   830268.75 1735.23   1 0.53484-0.48808-0.61993 0.87265 0.57412 0.01584
   0   4   912346.17 1486.17   1-0.87931 0.93228-0.05489 0.30768 0.47305 0.19019
   0   4   911802.73 1465.07   1 0.92094-0.86898 0.34668-0.09371 0.17796 0.48588
   0   4  -910476.36 1735.59   1 0.35981-0.41233 0.93134-0.67869-0.05595-0.60773
   0   4   912090.29 1467.35   1 0.53674-0.48412-0.61774 0.87046 0.57472 0.08899
   0   4  1012742.92  994.60   1-0.85465 0.91350-0.08619 0.33898 0.51199 0.22494
   0  -4  1012039.77 1036.24   1-0.88262 0.94147-0.05041-0.20237 0.46737 0.26957
   0   4  1014336.29 1189.46   1 0.89504-0.83731 0.39378-0.14081 0.20933 0.52827
   0   4 -1013950.43 1744.12   1 0.28876-0.34711 0.95089-0.69825-0.11137-0.62605
   0  -4  11 5067.76 1055.65   1-0.86641 0.93115-0.07172-0.18106 0.49414 0.31649
   0   4  11 6557.29  936.12   1 0.86346-0.79995 0.44254-0.18957 0.24204 0.56932
   0   4 -11 4641.83 1183.71   1 0.21731-0.28168 0.96202-0.70929-0.16514-0.64618
   0  -4  12 4265.59  771.71   1-0.84779 0.91842-0.09429-0.15848 0.52186 0.36246
   0  -5   0    8.30  156.31   1 0.97158-0.97158-0.15801-0.15801-0.17620 0.17620
   0  -5   0  395.51  167.09   1-0.78695 0.78695-0.15799-0.15799 0.59643-0.59643
   0   5   0  424.14  131.40   1-0.97600 0.97600 0.15785 0.15785 0.15000-0.15000
   0   5   0  185.15  263.28   1 0.83511-0.83511 0.15794 0.15794 0.52691-0.52691
   0  -5   1116154.0 1900.82   1 0.97341-0.96748-0.18113-0.13489-0.14021 0.21395
   0  -5  -1121475.3 1783.85   1 0.96821-0.97413-0.13582-0.18020-0.21004 0.13630
   0  -5  -1121953.0 1754.96   1-0.53867 0.53282-0.33689 0.02082 0.77222-0.84596
   0  -5   1116137.9 1808.35   1-0.86894 0.87482-0.06850-0.24747 0.49014-0.41645
   0   5  -1108639.3 1673.57   1-0.96760 0.96170 0.18780 0.12789 0.16871-0.24239
   0   5  -1112197.4 1808.39   1 0.82793-0.83384 0.29364 0.02224 0.47779-0.55155
   0  -5  -2 -101.35   36.28   1 0.27881-0.29048-0.56520 0.24907 0.77640-0.92389
   0   5  -3 3800.42  289.75   1-0.86975 0.85214 0.39468-0.07890 0.29620-0.51731
   0   5  -3 3763.18  194.24   1 0.85056-0.86788 0.46041-0.14419 0.25409-0.47538
   0   5  -3 3540.13  324.39   1 0.76808-0.78570 0.53024-0.21439 0.35900-0.58026
   0   5   3 3400.23  314.45   1 0.76312-0.74549-0.22962 0.54567 0.60407-0.38271
   0   5  -485163.70 2688.00   1 0.91782-0.94145-0.00536 0.32138-0.39695 0.10184
   0   5   480466.44 2362.55   1-0.18062 0.20402-0.48738 0.80344 0.85429-0.55932
   0   5  -478775.35 2310.15   1-0.52172 0.49810 0.70529-0.38927 0.47995-0.77482
   0   5  -481669.18 2569.49   1 0.72202-0.74532 0.62560-0.30966 0.29545-0.59042
   0   5   484946.46 2609.12   1 0.72425-0.70075-0.32504 0.64109 0.60810-0.31295
   0   5  -5115331.4 3936.94   1 0.91727-0.94681-0.00440 0.32042-0.39823 0.02934
   0  -5  -5120455.8 3933.88   1 0.92511-0.95465-0.01849-0.29752-0.37924 0.01035
   0   5   5110598.2 3612.05   1 0.25708-0.22790-0.56430 0.88044 0.78451-0.41578
   0   5  -5106738.4 3608.70   1 0.66836-0.69748 0.70674-0.39080 0.23194-0.60065
   0   5   5107734.5 3615.20   1 0.68746-0.65836-0.39783 0.71378 0.60754-0.23887
   0   5  -6118295.8 3977.96   1 0.91337-0.94882 0.00223 0.31378-0.40711-0.03555
   0  -5  -6109257.5 3523.33   1 0.91046-0.94592 0.00706-0.32308-0.41352-0.02914
   0   5   6109731.6 3534.03   1 0.43462-0.39989-0.56256 0.87868 0.70329-0.26075
   0   5  -6109774.7 3673.84   1 0.61001-0.64497 0.77414-0.45829 0.16907-0.61152
   0   5   6107659.9 3564.46   1 0.65843-0.62350-0.44897 0.76492 0.60406-0.16166
   0   5  -713676.07 1471.25   1 0.90683-0.94820 0.01293 0.30308-0.42128-0.09516
   0   5  -713242.73 1451.19   1 0.54778-0.58857 0.82961-0.51377 0.10799-0.62419
   0   5   714927.38 1561.73   1 0.63831-0.59756-0.48139 0.79734 0.60067-0.08454
   0   5   825707.89 1604.61   1-0.87164 0.91873-0.06502 0.38100 0.48579 0.10375
   0   5  -827376.64 1771.34   1 0.48289-0.52951 0.87432-0.55848 0.04858-0.63852
   0   5   826344.70 1675.78   1 0.62750-0.58093-0.49795 0.81390 0.59856-0.00869
   0  -5   910051.91  810.17   1-0.88735 0.94032-0.04383-0.27214 0.45899 0.20425
   0   5   9 9367.13  807.81   1 0.92362-0.87166 0.34131-0.02510 0.17439 0.48945
   0   5  -9 8698.14 1070.98   1 0.41660-0.46912 0.90903-0.59323-0.00947-0.65421
   0   5   9 9320.79  676.19   1 0.62555-0.57317-0.50086 0.81681 0.59816 0.06543
   0  -5  10 5192.43 1254.91   1-0.87407 0.93292-0.06187-0.25411 0.48184 0.25510
   0   5  10 4968.69 1167.70   1 0.90028-0.84254 0.38487-0.06866 0.20338 0.53422
   0   5 -10 3514.14  973.27   1 0.34769-0.40604 0.93530-0.61950-0.06561-0.67181
   0  -5  1112357.72 1647.99   1-0.85851 0.92325-0.08152-0.23445 0.50627 0.30436
   0   5  1113078.85 1645.10   1 0.87185-0.80834 0.43033-0.11412 0.23383 0.57753
   0   5 -11 7343.36 1948.83   1 0.27689-0.34108 0.95333-0.63752-0.12036-0.69081
   0  -6   0152259.7 3670.32   1 0.97363-0.97363-0.18961-0.18961-0.12681 0.12681
   0  -6   0155077.6 3663.23   1-0.75176 0.75176-0.18956-0.18956 0.63160-0.63160
   0  -6   170271.61 2830.06   1 0.97350-0.96757-0.20233-0.17690-0.10652 0.18026
   0   6  -147524.11 2055.20   1-0.95769 0.95179 0.21821 0.16062 0.18763-0.26132
   0   6  -153202.41 1441.88   1 0.82691-0.83281 0.30193 0.07713 0.47438-0.54814
   0  -6  -2  117.45   45.15   1 0.07340-0.08499-0.54530 0.16605 0.83501-0.98244
   0  -6   3126326.9 3864.45   1-0.89350 0.91115-0.03502-0.34414 0.44768-0.22660
   0   6  -3141418.0 4589.21   1-0.87805 0.86044 0.38187-0.00293 0.28843-0.50954
   0   6  -3145546.3 4305.73   1 0.87136-0.88868 0.43106-0.05161 0.23432-0.45560
   0   6   3133206.4 4023.29   1 0.79474-0.77711-0.12852 0.50777 0.59317-0.37181
   0   6  -470339.50 2279.16   1 0.90033-0.92396 0.02309 0.35613-0.43459 0.13948
   0   6  -465879.36 1959.79   1-0.70787 0.68427 0.57737-0.19824 0.40687-0.70175
   0   6  -467668.81 2018.49   1 0.66878-0.69199 0.64007-0.26060 0.37819-0.67322
   0   6  -467676.22 2212.72   1 0.73797-0.76126 0.59625-0.21712 0.31603-0.61100
   0   6   467653.17 2137.42   1 0.76951-0.74600-0.21145 0.59071 0.60260-0.30746
   0   6  -5 4637.83  518.20   1 0.90187-0.93142 0.02071 0.35850-0.43149 0.06260
   0   6  -5 4089.74  409.89   1 0.69156-0.72068 0.67447-0.29534 0.25848-0.62720
   0   6   5 3753.89  411.50   1 0.74461-0.71523-0.27786 0.65711 0.60690-0.23797
   0   6   617621.75  664.09   1 0.02280 0.01195-0.53666 0.91591 0.84348-0.40119
   0   6   616954.34  648.20   1-0.82183 0.85714-0.12310 0.50227 0.55627-0.11410
   0   6  -617609.24  860.85   1 0.63949-0.67443 0.74220-0.36307 0.20043-0.64289
   0   6   617073.78  829.33   1 0.72316-0.68790-0.32744 0.70670 0.60812-0.16540
   0   6   741520.20 2234.75   1-0.82406 0.86525-0.12073 0.49990 0.55348-0.03762
   0  -6   744892.72 2589.17   1-0.89453 0.93573-0.03351-0.34566 0.44573 0.07012
   0   6  -747009.62 2664.68   1 0.58326-0.62405 0.79972-0.42071 0.14225-0.65844
   0   6   743189.76 2411.42   1 0.70714-0.66601-0.36106 0.74031 0.60793-0.09142
   0  -6   8 8097.62 1196.68   1-0.88653 0.93362-0.04498-0.33419 0.46046 0.12909
   0   6  -8 7173.67  998.85   1 0.52309-0.56971 0.84803-0.46901 0.08493-0.67487
   0   6   8 6987.87  897.22   1 0.69657-0.65001-0.38056 0.75970 0.60823-0.01836
   0  -6   9 7328.29  993.47   1-0.87619 0.92916-0.05907-0.32010 0.47832 0.18492
   0   6   9 7126.68 1047.32   1 0.92337-0.87141 0.34183 0.03762 0.17474 0.48910
   0   6  -9 9951.90 1273.88   1 0.45987-0.51232 0.88752-0.50851 0.02837-0.69205
   0   6   9 8766.70 1048.82   1 0.69366-0.64128-0.38615 0.76529 0.60803 0.05556
   0  -6  1030001.24 2362.82   1-0.86356 0.92241-0.07530-0.30387 0.49858 0.23835
   0   6  1028296.70 2178.69   1 0.90188-0.84415 0.38207-0.00262 0.20151 0.53609
   0   6 -1029627.20 2231.49   1 0.39468-0.45303 0.91840-0.53943-0.02766-0.70976
   0  -6  11 6705.28  984.95   1-0.84862 0.91336-0.09333-0.28584 0.52069 0.28993
   0   6  11 8002.62 1061.50   1 0.87580-0.81229 0.42442-0.04496 0.22986 0.58150
   0   6 -11 5573.49 1567.46   1 0.32620-0.39039 0.94168-0.56272-0.08252-0.72865
   0  -7   0  271.18  150.74   1 0.97226-0.97226-0.22122-0.22122-0.07592 0.07592
   0  -7   0   80.96  182.84   1-0.71336 0.71336-0.22115-0.22115 0.66498-0.66498
   0   7   0  532.09  316.66   1 0.83396-0.83396 0.22112 0.22112 0.50556-0.50556
   0  -7  -170540.92 2512.32   1 0.97121-0.97714-0.23022-0.21221-0.06112-0.01261
   0  -7  -170246.00 2116.59   1-0.51251 0.50666-0.35123-0.09125 0.78355-0.85729
   0  -7   169571.53 2176.44   1-0.80364 0.80953-0.14177-0.30060 0.57797-0.50428
   0   7  -161603.00 2010.26   1 0.82495-0.83085 0.31643 0.12581 0.46831-0.54207
   0   7   165616.76 2100.27   1 0.83431-0.82841 0.12669 0.31555 0.53652-0.46276
   0  -7  -288611.00 2618.93   1 0.96051-0.97231-0.27763-0.16477 0.01818-0.16568
   0  -7   297563.37 3014.21   1-0.84762 0.85939-0.09449-0.34787 0.52210-0.37471
   0   7  -286610.25 2628.66   1-0.92322 0.91148 0.30093 0.14116 0.23893-0.38634
   0   7  -285500.80 2695.22   1 0.80717-0.81891 0.40921 0.03297 0.42545-0.57296
   0   7   297131.92 3008.36   1 0.82703-0.81519 0.03665 0.40565 0.56095-0.41340
   0  -7   315826.04  798.10   1-0.86988 0.88754-0.06729-0.37507 0.48863-0.26755
   0   7  -315369.60 1014.50   1-0.87414 0.85653 0.38797 0.05412 0.29213-0.51324
   0   7  -319029.47  770.18   1 0.87413-0.89145 0.42692 0.01576 0.23154-0.45282
   0   7  -319113.76  858.53   1 0.78069-0.79831 0.49727-0.05508 0.37846-0.59971
   0   7   316918.36  774.95   1 0.81423-0.79647-0.04541 0.48772 0.57876-0.35743
   0   7  -413054.80  496.15   1-0.75465 0.73106 0.53398-0.09166 0.38124-0.67612
   0   7  -412638.08  486.94   1 0.73604-0.75925 0.58539-0.14267 0.33992-0.63495
   0   7  -414107.88  764.20   1 0.74649-0.76998 0.57878-0.13659 0.32826-0.62326
   0   7   415043.00  741.31   1 0.79826-0.77458-0.11673 0.55904 0.59089-0.29579
   0  -7   577877.96 2972.37   1-0.88447 0.91389-0.04786-0.39451 0.46413-0.09566
   0   7  -558700.56 2059.31   1-0.30891 0.27959 0.79303-0.35054 0.52503-0.89383
   0   7  -564794.29 2272.38   1 0.24385-0.27315 0.82143-0.37865 0.51553-0.88431
   0   7  -565165.83 2493.99   1 0.70610-0.73522 0.65218-0.20986 0.27579-0.64451
   0   7   565880.24 2487.51   1 0.78127-0.75189-0.17535 0.61781 0.59904-0.23011
   0  -7   6 8061.75 1007.59   1-0.88372 0.91903-0.04889-0.39348 0.46544-0.02327
   0   7  -6 3154.78  487.37   1 0.65951-0.69445 0.71812-0.27580 0.22211-0.66457
   0   7   6 3051.79  464.12   1 0.76631-0.73105-0.22066 0.66313 0.60338-0.16066
   0  -7   719855.42 1470.79   1-0.87954 0.92074-0.05459-0.38777 0.47267 0.04318
   0   7  -723275.91 1549.46   1 0.60836-0.64915 0.77580-0.33362 0.16739-0.68358
   0   7   723108.33 1497.56   1 0.75463-0.71350-0.25249 0.69496 0.60561-0.08910
   0   7  -832137.11 1704.12   1 0.55273-0.59935 0.82570-0.38351 0.11269-0.70262
   0   7   830250.17 1557.61   1 0.74731-0.70030-0.27119 0.71365 0.60661-0.01631
   0  -7   929449.30 2227.46   1-0.86298 0.91595-0.07602-0.36634 0.49947 0.16377
   0   7   934137.69 2486.00   1 0.92081-0.86885 0.34694 0.09575 0.17813 0.48571
   0   7  -934114.37 2409.20   1 0.49345-0.54589 0.86783-0.42565 0.05799-0.72167
   0  -7  10 5718.62 1155.26   1-0.85104 0.90989-0.09049-0.35188 0.51724 0.21970
   0   7  10 5306.99 1050.63   1 0.90072-0.84298 0.38411 0.05858 0.20287 0.53473
   0   7 -10 5632.93  947.27   1 0.43157-0.48992 0.90207-0.45994 0.00312-0.74055
   0  -8   032851.68 1246.18   1 0.96721-0.96721-0.25280-0.25280-0.02404 0.02404
   0  -8   039951.02 1414.55   1-0.67129 0.67129-0.25275-0.25275 0.69676-0.69676
   0   8   040533.40 1541.70   1 0.83197-0.83197 0.25271 0.25271 0.49390-0.49390
   0  -8  -120865.84 1150.47   1 0.96277-0.96867-0.27025-0.23534 0.00553-0.07927
   0  -8  -126083.94  933.38   1-0.47859 0.47274-0.36891-0.13678 0.79677-0.87051
   0  -8   123402.01  917.96   1-0.76623 0.77211-0.17707-0.32849 0.61768-0.54399
   0   8  -133633.91 1402.64   1 0.82213-0.82803 0.33491 0.17051 0.46035-0.53411
   0   8   129411.81 1173.30   1 0.83518-0.82927 0.17215 0.33327 0.52233-0.44857
   0  -8  -231694.53 1240.98   1 0.93884-0.95064-0.32744-0.17816 0.10654-0.25403
   0  -8  -235985.85 1211.77   1-0.05033 0.03875-0.52162 0.01595 0.85169-0.99912
   0  -8   235026.59 1327.91   1-0.81604 0.82781-0.12916-0.37640 0.56337-0.41598
   0   8  -235313.80 1297.62   1 0.92043-0.93197 0.34770 0.15823 0.17863-0.32615
   0   8  -238254.37 1459.71   1 0.80542-0.81716 0.41622 0.08913 0.42196-0.56946
   0   8   237301.03 1440.13   1 0.83256-0.82072 0.09566 0.40983 0.54560-0.39804
   0  -8   3111771.3 3753.81   1-0.84305 0.86071-0.09976-0.40580 0.52848-0.30740
   0   8  -3111463.1 3643.77   1 0.86865-0.88597 0.43505 0.07088 0.23700-0.45828
   0   8  -3116193.7 3909.58   1 0.78152-0.79914 0.49495 0.01041 0.37979-0.60105
   0   8   3111340.5 3728.89   1 0.82567-0.80791 0.02575 0.47973 0.56355-0.34222
   0  -8   482582.60 3096.00   1-0.85732 0.88086-0.08297-0.42259 0.50804-0.21326
   0   8  -469568.46 2491.70   1-0.76690 0.74330 0.52160-0.01610 0.37388-0.66875
   0   8  -480418.70 2880.16   1 0.75919-0.78240 0.56389-0.05792 0.32504-0.62007
   0   8  -487245.40 3287.88   1 0.75094-0.77444 0.56943-0.06407 0.33438-0.62939
   0   8   480258.87 2985.60   1 0.81608-0.79240-0.03553 0.54103 0.57683-0.28173
   0  -8   510388.50 1286.48   1-0.86377 0.89319-0.07504-0.43052 0.49826-0.12979
   0   8  -5 6584.68  668.26   1 0.47841-0.50761 0.74945-0.24339 0.45764-0.82649
   0   8  -510258.22 1180.78   1 0.71473-0.74385 0.63809-0.13258 0.28634-0.65506
   0   8   5 9470.73 1058.66   1 0.80553-0.77593-0.08670 0.59220 0.58616-0.21729
   0  -8   634285.31 2229.08   1-0.86493 0.90024-0.07358-0.43198 0.49646-0.05429
   0   8  -628225.52 1848.10   1 0.67254-0.70748 0.70120-0.19569 0.23663-0.67908
   0   8   627683.01 1783.89   1 0.79523-0.75997-0.12668 0.63235 0.59292-0.15019
   0  -8   716317.49 1180.74   1-0.86218 0.90338-0.07701-0.42855 0.50069 0.01516
   0   8  -713131.68  920.47   1 0.62540-0.66617 0.75790-0.25239 0.18558-0.70178
   0   8   712634.57  784.27   1 0.78731-0.74617-0.15522 0.66089 0.59669-0.08018
   0  -8   8  712.83  493.77   1-0.85628 0.90337-0.08422-0.42133 0.50958 0.07996
   0   8  -8 1792.20  601.11   1 0.57417-0.62079 0.80779-0.30244 0.13334-0.72328
   0   8   8 1641.27  468.66   1 0.78230-0.73529-0.17202 0.67769 0.59867-0.00837
   0   8   9 9386.47 1219.85   1 0.91632-0.86436 0.35569 0.15024 0.18394 0.47990
   0   8  -910762.29 1232.54   1 0.51862-0.57107 0.85117-0.34582 0.08082-0.74450
   0  -8  10 6019.80  978.26   1-0.83643 0.89529-0.10724-0.39832 0.53746 0.19947
   0   8  10 2277.69  681.43   1 0.89727-0.83954 0.39002 0.11591 0.20682 0.53078
   0   8 -10 3538.06  958.59   1 0.45937-0.51764 0.88780-0.38245 0.02793-0.76535
   0  -9   0  918.00  389.63   1-0.62524 0.62524-0.28434-0.28434 0.72678-0.72678
   0   9   0  534.09  442.34   1 0.82900-0.82900 0.28430 0.28430 0.48157-0.48157
   0  -9  -128144.54 1153.25   1 0.94851-0.95441-0.30841-0.26039 0.07217-0.14592
   0  -9  -135401.65 1323.36   1-0.43552 0.42967-0.38995-0.17896 0.81133-0.88507
   0  -9   134048.94 1368.89   1-0.72515 0.73104-0.21175-0.35693 0.65521-0.58152
   0   9  -144357.46 1836.50   1 0.81845-0.82435 0.35610 0.21250 0.45090-0.52466
   0   9   143332.83 1814.64   1 0.83426-0.82836 0.21457 0.35403 0.50790-0.43414
   0  -9  -257532.62 2049.39   1 0.90820-0.91995-0.37206-0.19660 0.19166-0.33915
   0  -9  -263465.09 2255.96   1-0.04261 0.03102-0.52335-0.04552 0.85104-0.99848
   0  -9   263513.66 2383.73   1-0.78101 0.79278-0.16357-0.40518 0.60271-0.45532
   0   9  -246477.60 1818.52   1 0.90708-0.91863 0.37286 0.19631 0.19537-0.34289
   0   9  -249270.80 2002.23   1 0.80233-0.81408 0.42802 0.14050 0.41599-0.56349
   0   9   248876.78 2028.12   1 0.83497-0.82316 0.14877 0.41982 0.52979-0.38227
   0  -9   325708.11 1462.97   1-0.81290 0.83056-0.13240-0.43635 0.56714-0.34606
   0   9  -322966.03 1260.87   1 0.85813-0.87545 0.45005 0.11913 0.24710-0.46838
   0   9  -322796.31 1329.25   1 0.78016-0.79778 0.49873 0.06979 0.37762-0.59888
   0   9   324155.09 1406.81   1 0.83206-0.81431 0.08860 0.48007 0.54755-0.32622
   0  -9   4 7465.37  863.06   1-0.83092 0.85446-0.11333-0.45543 0.54472-0.24994
   0   9  -411174.56  967.81   1 0.76359-0.78680 0.55962 0.00958 0.32209-0.61712
   0   9   4 9864.28  951.30   1 0.82692-0.80325 0.03576 0.53291 0.56116-0.26606
   0  -9   515609.87 1134.39   1-0.84018 0.86960-0.10303-0.46572 0.53242-0.16395
   0   9  -524616.26 1689.70   1 0.71912-0.74824 0.63063-0.06194 0.29181-0.66052
   0   9   521067.11 1426.55   1 0.82072-0.79112-0.00852 0.57720 0.57126-0.20238
   0  -9   6 6779.34  735.09   1-0.84346 0.87877-0.09930-0.46946 0.52792-0.08575
   0   9  -610928.72  886.12   1 0.68043-0.71537 0.69043-0.12173 0.24559-0.68805
   0   9   6 8655.05  605.58   1 0.81462-0.77910-0.04334 0.61202 0.57836-0.13571
   0  -9   7 9493.93 1034.69   1-0.84233 0.88353-0.10059-0.46817 0.52948-0.01362
   0   9  -7 9266.55  861.04   1 0.63690-0.67767 0.74517-0.17647 0.19767-0.71387
   0   9   7 7381.12 1406.46   1 0.80965-0.76821-0.06804 0.63672 0.58295-0.06652
   0  -9   826963.60 2175.50   1-0.83768 0.88476-0.10584-0.46291 0.53579 0.05375
   0   9   823895.37 1910.82   1 0.92503-0.87885 0.33845 0.23073 0.17249 0.41759
   0   9  -827811.45 2172.81   1 0.58921-0.63582 0.79428-0.22576 0.14813-0.73807
   0   9   825044.51 1894.68   1 0.80657-0.75921-0.08213 0.65082 0.58539 0.00480
   0  -9   927449.66 2490.84   1-0.83003 0.88299-0.11430-0.45446 0.54587 0.11737
   0   9   928517.98 2538.58   1 0.91008-0.85812 0.36739 0.20178 0.19173 0.47211
   0   9  -927497.55 2416.36   1 0.53703-0.58947 0.83786-0.26934 0.09787-0.76155
   0 -10   036130.81 1855.41   1-0.57477 0.57477-0.31594-0.31594 0.75486-0.75486
   0  10   035325.99 1935.33   1 0.82503-0.82503 0.31589 0.31589 0.46854-0.46854
   0 -10  -1 2056.55  269.00   1-0.38413 0.37828-0.41315-0.21896 0.82567-0.89941
   0 -10   1 2694.63  369.51   1-0.68046 0.68634-0.24611-0.38577 0.69021-0.61653
   0  10  -1 2069.06  448.02   1 0.91929-0.92506 0.34994 0.28248 0.18012-0.25388
   0  10  -1 3145.03  613.90   1 0.81403-0.81991 0.37912 0.25257 0.44000-0.51376
   0  10   1 3909.93  618.42   1 0.83180-0.82590 0.25489 0.37689 0.49308-0.41932
   0 -10  -233638.07 1805.98   1-0.00712-0.00445-0.53087-0.10121 0.84742-0.99485
   0 -10   239318.61 2236.03   1-0.74219 0.75396-0.19770-0.43417 0.64035-0.49297
   0  10  -233020.46 1919.67   1 0.89159-0.90313 0.39952 0.23289 0.21317-0.36069
   0  10  -231818.73 1914.86   1 0.79809-0.80983 0.44330 0.18839 0.40807-0.55558
   0  10   232147.69 1927.87   1 0.83483-0.82302 0.19766 0.43412 0.51379-0.36627
   0 -10   346802.44 2916.41   1-0.77927 0.79693-0.16518-0.46677 0.60451-0.38343
   0  10  -346944.50 2872.01   1 0.84387-0.86119 0.46927 0.16314 0.26009-0.48137
   0  10  -341152.51 2655.40   1 0.77710-0.79472 0.50708 0.12461 0.37278-0.59404
   0  10   347412.60 2987.59   1 0.83490-0.81719 0.14559 0.48619 0.53078-0.30950
   0 -10   422356.08 1391.20   1-0.80125 0.82479-0.14414-0.48781 0.58070-0.28592
   0  10  -419649.68 1091.13   1 0.75764-0.78085 0.56537 0.06707 0.32607-0.62109
   0  10  -420812.38 1293.12   1 0.75101-0.77450 0.56930 0.06239 0.33447-0.62948
   0  10   419144.37 1211.87   1 0.83283-0.80916 0.09980 0.53205 0.54444-0.24934
   0 -10   5 1302.02  577.00   1-0.81355 0.84297-0.13173-0.50022 0.56637-0.19789
   0  10  -5 1533.75  377.99   1 0.72033-0.74945 0.62854 0.00333 0.29333-0.66204
   0  10   5 1040.32  241.77   1 0.82975-0.80015 0.06159 0.57027 0.55472-0.18584
   0 -10   617434.55 1469.31   1-0.81916 0.85447-0.12591-0.50605 0.55956-0.11740
   0  10  -620493.61 1657.19   1 0.68440-0.71935 0.68483-0.05295 0.25016-0.69262
   0  10   616022.07 1293.69   1 0.82643-0.79091 0.03172 0.60014 0.56213-0.11948
   0 -10   718308.55 1625.45   1-0.81982 0.86102-0.12521-0.50674 0.55875-0.04288
   0  10  -718401.32 1597.03   1 0.64383-0.68460 0.73717-0.10528 0.20507-0.72127
   0  10   719126.71 1507.92   1 0.82365-0.78222 0.01092 0.62094 0.56697-0.05055
   0 -10   8 1489.38  523.21   1-0.81658 0.86366-0.12860-0.50335 0.56272 0.02683
   0  10   8 1780.39  707.61   1 0.91666-0.87048 0.35502 0.27739 0.18350 0.40658
   0  10  -8  230.01  363.39   1 0.59915-0.64576 0.78487-0.15318 0.15806-0.74800
   0 -10   9 8009.43 1103.06   1-0.81003 0.86300-0.13533-0.49662 0.57055 0.09269
   0  10   9 7778.57 1123.98   1 0.90221-0.85025 0.38150 0.25091 0.20113 0.46271
   0  10  -9 8040.02 1052.67   1 0.54993-0.60237 0.82792-0.19623 0.11003-0.77371
   0 -11   0 1025.09  314.10   1-0.51913 0.51913-0.34766-0.34766 0.78078-0.78078
   0  11   0 1769.00  640.50   1 0.92036-0.92036 0.34783 0.34783 0.17872-0.17872
   0  11   0 1268.60  568.82   1 0.82001-0.82001 0.34748 0.34748 0.45479-0.45479
   0 -11   115336.23  910.62   1-0.63157 0.63746-0.28017-0.41489 0.72292-0.64923
   0  11  -117002.28 1067.56   1 0.90278-0.90855 0.38051 0.31515 0.20047-0.27423
   0  11  -117796.22 1225.48   1 0.80851-0.81439 0.40365 0.29121 0.42820-0.50195
   0  11   115411.25 1117.56   1 0.82793-0.82203 0.29368 0.40128 0.47778-0.40402
   0 -11   232702.00 1811.19   1-0.69961 0.71138-0.23179-0.46327 0.67587-0.52849
   0  11  -237697.23 2042.96   1 0.87394-0.88549 0.42721 0.26844 0.23173-0.37926
   0  11  -239923.55 2253.61   1 0.79274-0.80449 0.46119 0.23367 0.39855-0.54605
   0  11   240052.16 2308.19   1 0.83265-0.82085 0.24352 0.45144 0.49737-0.34985
   0 -11   3  319.27  314.95   1-0.74185 0.75951-0.19799-0.49707 0.64066-0.41959
   0  11  -3  389.91  297.00   1 0.82643-0.84374 0.49129 0.20436 0.27502-0.49630
   0  11  -3  479.50  376.43   1 0.77258-0.79020 0.51894 0.17592 0.36579-0.58705
   0  11   3  641.43  356.37   1 0.83481-0.81711 0.19812 0.49684 0.51363-0.29235
   0 -11   418520.50 1630.76   1-0.76813 0.79167-0.17536-0.51979 0.61580-0.32102
   0  11   417573.77 1519.22   1 0.83511-0.81151 0.15852 0.53643 0.52672-0.23168
   0 -11   533407.91 2508.68   1-0.78370 0.81313-0.16105-0.53410 0.59988-0.23141
   0  11  -536764.92 2719.08   1 0.71903-0.74815 0.63080 0.06427 0.29169-0.66040
   0  11   536466.78 2667.30   1 0.83418-0.80458 0.12551 0.56953 0.53701-0.16813
   0 -11   619552.02 1683.70   1-0.79185 0.82716-0.15331-0.54184 0.59115-0.14898
   0  11  -615486.06 1325.22   1 0.68528-0.72023 0.68358 0.01148 0.25118-0.69363
   0 -11   7 3929.14  821.20   1-0.79449 0.83569-0.15075-0.54439 0.58825-0.07239
   0  11   7 2144.40  671.43   1 0.91803-0.87762 0.35239 0.34327 0.18175 0.33457
   0  11  -7 3873.16  833.95   1 0.64712-0.68788 0.73329-0.03821 0.20861-0.72480
   0  11   7 5081.46 1002.59   1 0.83164-0.79021 0.08308 0.61196 0.54905-0.03262
   0 -11   8 5488.21  986.17   1-0.79280 0.83988-0.15239-0.54275 0.59011-0.00055
   0  11   8 4395.55  837.95   1 0.90678-0.86059 0.37340 0.32226 0.19573 0.39435
   0  11  -8 7603.91 1205.83   1 0.60496-0.65158 0.77919-0.08433 0.16393-0.75387
   0  12   031468.48 2604.70   1 0.90338-0.90338 0.37945 0.37945 0.19976-0.19976
   0  12   033894.15 2836.73   1 0.81405-0.81405 0.37902 0.37902 0.44005-0.44005
   0 -12   123986.43 1952.83   1-0.57797 0.58386-0.31401-0.44423 0.75321-0.67952
   0  12  -119270.67 1655.63   1 0.88430-0.89007 0.41127 0.34763 0.22103-0.29480
   0  12   118108.77 1593.30   1 0.91507-0.90930 0.35806 0.40084 0.18552-0.11176
   0  12  -123326.59 2021.27   1 0.80200-0.80787 0.42925 0.32878 0.41536-0.48911
   0  12   119664.50 1691.64   1 0.82271-0.81680 0.33134 0.42680 0.46191-0.38815
   0 -12   2 8720.54 1879.23   1-0.65278 0.66455-0.26579-0.49245 0.70937-0.56200
   0  12  -211756.80 1032.43   1 0.85407-0.86562 0.45564 0.30326 0.25088-0.39840
   0  12   211394.60 1050.07   1 0.92157-0.91003 0.34542 0.41348 0.17712-0.02960
   0  12  -211885.04 1097.02   1 0.78632-0.79806 0.48107 0.27696 0.38763-0.53513
   0  12   211138.58 1046.12   1 0.82869-0.81689 0.28713 0.47101 0.48043-0.33291
   0 -12   3 7743.34  740.97   1-0.70060 0.71825-0.23104-0.52720 0.67510-0.45404
   0  12  -3 9554.66  827.21   1 0.80600-0.82332 0.51525 0.24365 0.29133-0.51261
   0  12   3 8699.31  904.78   1 0.92418-0.90686 0.34018 0.41872 0.17365 0.04763
   0  12  -311197.41 1012.96   1 0.76673-0.78435 0.53353 0.22450 0.35700-0.57825
   0  12   3 9689.84  901.64   1 0.83238-0.81467 0.24738 0.51075 0.49592-0.27464
   0 -12   4 4910.97  895.21   1-0.73124 0.75478-0.20680-0.55144 0.65001-0.35525
   0  12   4 3867.70  796.73   1 0.92365-0.90056 0.34126 0.41764 0.17436 0.12067
   0  12  -4 3882.45  854.36   1 0.74307-0.76656 0.58575 0.17228 0.32362-0.61862
   0  12   4 4916.00  972.11   1 0.83432-0.81072 0.21299 0.54514 0.50845-0.21341
   0 -12   5 1277.27  537.13   1-0.75033 0.77976-0.19078-0.56746 0.63292-0.26448
   0  12   5 1422.37  686.84   1 0.92039-0.89152 0.34777 0.41113 0.17868 0.19012
   0  12  -5 2786.92  685.00   1 0.71562-0.74474 0.63659 0.12166 0.28745-0.65616
   0  12   5  717.21  381.23   1 0.83508-0.80557 0.18478 0.57335 0.51816-0.14936
   0 -12   6 4575.91  982.35   1-0.76133 0.79664-0.18142-0.57692 0.62245-0.18029
   0  12   6 6233.65  888.02   1 0.91459-0.87995 0.35899 0.39991 0.18614 0.25642
   0  12  -6 4285.01  886.20   1 0.68361-0.71855 0.68596 0.07229 0.24924-0.69170
   0  12   6 5040.65  996.88   1 0.83516-0.79975 0.16352 0.59462 0.52513-0.08257
   0 -12   7 6471.98  954.85   1-0.76615 0.80734-0.17714-0.58120 0.61776-0.10190
   0  12   7 9894.51 1538.27   1 0.90627-0.86585 0.37432 0.38458 0.19634 0.31997
   0  12  -7 7239.37 1044.69   1 0.64739-0.68816 0.73296 0.02530 0.20891-0.72510
   0  13   0   23.38  339.92   1 0.88442-0.88442 0.41107 0.41107 0.22090-0.22090
   0  13   0 1100.11  590.07   1 0.80682-0.80682 0.41060 0.41060 0.42477-0.42477
   0  13  -110088.71  932.78   1 0.86372-0.86950 0.44216 0.37998 0.24179-0.31555
   0  13   110099.08 1101.15   1 0.89754-0.89176 0.38957 0.43257 0.20652-0.13276
   0  13  -111521.08 1144.14   1 0.79444-0.80031 0.45567 0.36553 0.40152-0.47527
   0  13   111081.41 1092.26   1 0.81614-0.81024 0.36813 0.45319 0.44539-0.37163
   0 -13   220290.36 2024.81   1-0.60122 0.61299-0.29974-0.52169 0.74072-0.59335
   0  13  -220025.26 2028.81   1 0.83186-0.84340 0.48460 0.33754 0.27048-0.41800
   0  13   220783.01 2193.42   1 0.90521-0.89366 0.37622 0.44593 0.19761-0.05008
   0  13  -220728.66 2157.56   1 0.77879-0.79054 0.50251 0.31869 0.37544-0.52294
   0  13   223613.96 2400.44   1 0.82307-0.81127 0.32902 0.49230 0.46291-0.31539
   0 -13   3 1093.73  390.96   1-0.65504 0.67269-0.26423-0.55721 0.70788-0.48681
   0  13   3 1190.91  398.18   1 0.90874-0.89142 0.36984 0.45230 0.19336 0.02791
   0  13  -3 2820.52  806.50   1 0.75962-0.77724 0.55028 0.27092 0.34662-0.56788
   0  13   3 2871.60  660.29   1 0.82787-0.81017 0.29414 0.52718 0.47759-0.25631
   0 -13   4 3393.99  720.98   1-0.69046 0.71400-0.23870-0.58273 0.68284-0.38808
   0  13   4 2633.92  776.62   1 0.90893-0.88584 0.36950 0.45265 0.19313 0.10190
   0  13  -4 2246.20  628.17   1 0.73707-0.76037 0.59798 0.22347 0.31485-0.60982
   0  13   4 1856.77  478.73   1 0.83100-0.80739 0.26427 0.55704 0.48947-0.19443
   0 -13   5 9248.23 1189.83   1-0.71335 0.74277-0.22116-0.60028 0.66499-0.29654
   0  13   5 8253.71 1265.22   1 0.90623-0.87737 0.37438 0.44776 0.19638 0.17241
   0  13   5 6411.43  922.57   1 0.83288-0.80337 0.24017 0.58114 0.49861-0.12981
   0  14   020098.33 1793.35   1 0.86335-0.86335 0.44269 0.44269 0.24215-0.24215
   0  14   018373.88 1740.30   1 0.79841-0.79841 0.44219 0.44219 0.40866-0.40866
   0  14   1 4779.60 1092.47   1 0.87798-0.87221 0.42110 0.46429 0.22763-0.15386
   0  14  -1 3822.09  792.60   1 0.84089-0.84666 0.47315 0.41223 0.26272-0.33648
   0  14  -1 3714.01  799.85   1 0.78575-0.79163 0.48275 0.40162 0.38669-0.46045
   0  14   1 2923.76  696.57   1 0.80838-0.80250 0.40423 0.48014 0.42792-0.35416
   0  14   2 6194.80 1095.63   1 0.88690-0.87536 0.40712 0.47826 0.21826-0.07074
   0  14  -2 6130.78  916.88   1 0.77012-0.78186 0.52518 0.35919 0.36206-0.50956
   0  14   2 4541.43  714.75   1 0.81599-0.80424 0.36960 0.51478 0.44446-0.29696
   0  14   3 9325.56 1280.88   1 0.89144-0.87412 0.39976 0.48563 0.21333 0.00794
   0  14  -310384.27 1346.85   1 0.75126-0.76887 0.56877 0.31560 0.33481-0.55607
   0  14   310070.31 1296.53   1 0.82147-0.80377 0.33893 0.54556 0.45858-0.23730
   1   0 -12 6250.42  697.00   1 0.90644-0.88613 0.01355-0.01355-0.42209-0.46323
   1   0 -11 1399.12  535.85   1 0.92627-0.90005-0.02068 0.02068-0.37626-0.43528
   1   0 -10 1562.86  331.78   1 0.94287-0.91074-0.05523 0.05523-0.32852-0.40925
   1   0 -10 1222.52  227.82   1-0.10632 0.13906 0.92121-0.92121-0.37424-0.36334
   1   0  -914827.00 2114.98   1 0.95622-0.91818-0.09044 0.09044-0.27830-0.38569
  -1   0   915090.36 1283.70   1 0.67883-0.71779 0.63255-0.63255 0.37289 0.29092
   1   0  -915119.24 1330.10   1-0.04081 0.07940 0.94118-0.94118-0.33541-0.32842
   1   0  -8111888.8 4361.89   1 0.96623-0.92235-0.12604 0.12604-0.22473-0.36519
  -1   0   8109855.0 3954.61   1 0.71752-0.76228 0.60153-0.60153 0.35116 0.23889
   1   0  -8110194.7 3942.55   1 0.02437 0.02006 0.95522-0.95522-0.29487-0.29519
   1   0  -797520.37 3331.30   1 0.97224-0.92244-0.16417 0.16417-0.16669-0.34949
  -1   0   781127.19 2710.28   1-0.96847 0.91873 0.18493-0.18493 0.16692 0.34890
  -1   0   797302.39 3272.02   1 0.74594-0.79651 0.57638-0.57638 0.33368 0.18261
   1   0  -793207.49 3119.46   1 0.09281-0.04256 0.96338-0.96338-0.25156-0.26473
  -1   0   787319.87 2918.35   1 0.75027-0.80041 0.57088-0.57088 0.33344 0.18281
   1   0  -6 8808.45 1092.74   1 0.97340-0.91767-0.20507 0.20507-0.10212-0.34032
  -1   0   6 5742.90  490.94   1-0.99242 0.93681 0.07139-0.07139 0.09998 0.34244
  -1   0   6 7527.86  427.81   1 0.76356-0.81992 0.55965-0.55965 0.32211 0.12042
   1   0  -6 7428.71  669.40   1 0.16225-0.10615 0.96537-0.96537-0.20426-0.23828
  -1   0   6 6803.79  317.61   1 0.73915-0.79517 0.59353-0.59353 0.31837 0.12412
   1   0  -5349950.3 8271.27   1 0.96767-0.90598-0.25066 0.25066-0.02763-0.34110
  -1   0   5338061.8 7858.18   1-0.99844 0.93691-0.05080 0.05080 0.02286 0.34583
  -1   0   5351424.0 8183.79   1 0.76800-0.83017 0.55528-0.55528 0.31910 0.04968
   1   0  -5360184.3 8369.52   1 0.23881-0.17686 0.95949-0.95949-0.14948-0.21930
  -1   0   5344721.3 8003.33   1 0.73606-0.79814 0.59993-0.59993 0.31351 0.05519
   1   0  -4274263.4 3951.07   1 0.95091-0.88332-0.30305 0.30305 0.06264-0.35763
  -1   0   4277896.9 3949.11   1 0.75332-0.82130 0.56948-0.56948 0.32890-0.03388
   1   0  -4283522.0 3991.37   1 0.33034-0.26248 0.94052-0.94052-0.07929-0.21567
  -1   0   4276182.5 3873.15   1 0.74517-0.81294 0.58148-0.58148 0.32647-0.03146
  -1   0   389671.31 1381.51   1 0.79632-0.86985-0.46444 0.46444 0.38749-0.16625
  -1   0   394107.40 1429.89   1 0.70548-0.77926 0.61156-0.61156 0.35816-0.13688
   1   0  -390482.10 1346.28   1 0.91705-0.84322 0.35428-0.35428 0.18300-0.40429
   1   0  -395611.75 1379.61   1 0.46358-0.38985 0.88548-0.88548 0.03160-0.25283
  -1   0   394502.98 1358.65   1 0.78401-0.85765 0.48784-0.48784 0.38383-0.16258
  -1   0   2236571.3 3343.46   1 0.71811-0.79754-0.50220 0.50220 0.48176-0.33422
  -1   0   2244583.8 3444.87   1 0.59238-0.67192 0.69080-0.69080 0.41456-0.26702
   1   0  -2237039.9 3334.80   1 0.76801-0.68843 0.55527-0.55527 0.31909-0.46661
  -1   0   2242596.2 3346.30   1 0.83300-0.91245 0.10238-0.10238 0.54371-0.39616
  -1   0   165349.97  970.69   1 0.49932-0.58472-0.55600 0.55600 0.66447-0.59072
  -1   0   162770.98  937.69   1 0.35187-0.43724 0.79534-0.79534 0.49357-0.41981
   1   0   1  566.88  167.21   1-0.51735 0.61439-0.34862 0.34862 0.78153-0.70779
   1   0   1  145.82   88.68   1-0.32107 0.41814 0.78936-0.78936 0.52326-0.44950
  -1   0  -1  353.41   75.30   1 0.10727-0.20432 0.96435-0.96435-0.24189 0.16813
   1   0   1  278.00   67.25   1 0.20745-0.11040 0.96295-0.96295-0.17225 0.24601
   1   0   2516285.1 7169.18   1-0.74984 0.85278-0.19120 0.19120 0.63337-0.48599
  -1   0  -2539277.1 7462.00   1-0.72617 0.62324 0.56109-0.56109 0.39729-0.54473
   1   0   2517681.7 7240.66   1 0.30216-0.19929 0.94787-0.94787-0.10113 0.24862
   1   0   3495901.8 6915.89   1 0.94337-0.83442-0.05639 0.05639-0.32689 0.54823
  -1   0  -3515422.4 7170.31   1-0.87395 0.76526 0.38827-0.38827 0.29231-0.51342
   1   0   3507950.5 7061.37   1-0.62434 0.73316 0.64229-0.64229 0.44457-0.22341
   1   0   444014.73  816.69   1 0.96849-0.85349-0.13737 0.13737-0.20769 0.50266
   1   0   441935.76  839.28   1-0.85986 0.97454-0.07987 0.07987 0.50423-0.20945
  -1   0  -442763.62  850.22   1-0.95043 0.83579 0.23810-0.23810 0.19996-0.49472
   1   0   443338.97  761.25   1-0.66367 0.77840 0.61349-0.61349 0.42796-0.13308
  -1   0  -446155.02  910.78   1 0.13580-0.25042 0.96541-0.96541-0.22253-0.07249
   1   0   445521.15  893.46   1 0.43077-0.31623 0.90245-0.90245 0.00245 0.29252
   1   0   551135.92 1409.53   1-0.86990 0.99047-0.06727 0.06727 0.48861-0.12013
  -1   0  -548265.45 1289.90   1-0.98697 0.86643 0.10833-0.10833 0.11894-0.48739
   1   0   549707.32 1268.44   1-0.67232 0.79294 0.60676-0.60676 0.42405-0.05545
  -1   0  -552134.97 1489.87   1 0.11006-0.23052 0.96450-0.96450-0.24001-0.12876
   1   0   613364.25  681.95   1-0.87025 0.99670-0.06683 0.06683 0.48805-0.04588
  -1   0  -613413.37 1166.84   1-0.99882 0.87212-0.01331 0.01331 0.04666-0.48909
   1   0   611544.04  446.21   1-0.66213 0.78865 0.61468-0.61468 0.42865 0.01366
  -1   0  -613969.90  598.29   1 0.07779-0.20411 0.96206-0.96206-0.26150-0.18104
   1   0   7 1364.05  299.78   1-0.86474 0.99708-0.07382 0.07382 0.49675 0.01910
   1   0   7 1305.44  191.12   1-0.63843 0.77085 0.63231-0.63231 0.43883 0.07719
  -1   0  -7 1689.13  235.92   1 0.04085-0.17302 0.95749-0.95749-0.28552-0.23077
   1   0   840590.03 2152.24   1-0.85502 0.99325-0.08575 0.08575 0.51145 0.07810
  -1   0  -842846.58 2218.43   1-0.00107-0.13694 0.95043-0.95043-0.31092-0.27914
   1   0   941327.42 2621.71   1-0.84181 0.98592-0.10118 0.10118 0.53019 0.13305
  -1   0  -946993.86 2898.26   1-0.04476-0.09911 0.94015-0.94015-0.33780-0.32602
   1   0  10 1652.55  506.68   1-0.82543 0.97543-0.11926 0.11926 0.55174 0.18519
  -1   0 -10 1314.06  360.66   1-0.09123-0.05848 0.92634-0.92634-0.36547-0.37211
   1   0  11 5055.69  974.60   1-0.80597 0.96185-0.13944 0.13944 0.57529 0.23534
  -1   0 -11 3466.34  694.35   1-0.14039-0.01518 0.90846-0.90846-0.39367-0.41767
   1   0  1219714.83 2325.07   1-0.78335 0.94512-0.16138 0.16138 0.60025 0.28407
   1   1 -1212913.60 1257.79   1 0.90585-0.88554 0.01449 0.04870-0.42333-0.46200
   1  -1 -1212618.41 1200.41   1 0.90479-0.88447 0.01618-0.07938-0.42554-0.45978
   1  -1 -1110124.65  924.68   1 0.92592-0.89969-0.02001-0.04319-0.37718-0.43437
   1   1 -1110966.29 1044.83   1 0.92474-0.89852-0.01781 0.08101-0.38016-0.43138
   1  -1 -1064603.19 3166.98   1 0.94354-0.91141-0.05679-0.00640-0.32633-0.41144
   1   1 -1054331.96 2708.71   1 0.94065-0.90852-0.05016 0.11337-0.33562-0.40215
  -1   1  1053851.29 2611.30   1 0.71503-0.74819 0.60364-0.54039 0.35262 0.38494
   1   1 -1053774.97 2580.63   1 0.03395-0.00121 0.95679-0.89361-0.28875-0.44883
   1   1  -932000.92 3526.95   1 0.95363-0.91559-0.08280 0.14600-0.28934-0.37465
   1  -1  -949661.47 3073.62   1 0.95756-0.91952-0.09462 0.03142-0.27222-0.39177
  -1  -1   946176.26 2795.48   1 0.53914-0.57781 0.72048-0.78373 0.43614 0.22777
  -1   1   934829.81 2184.44   1 0.75691-0.79587 0.56608-0.50283 0.32655 0.33726
   1   1  -933786.43 2148.27   1 0.11362-0.07508 0.96469-0.90150-0.23761-0.42620
   1   1  -829376.20 2573.34   1 0.96373-0.91985-0.11534 0.17855-0.24066-0.34926
   1  -1  -829686.84 1259.25   1 0.96774-0.92387-0.13338 0.07018-0.21371-0.37621
  -1  -1   822712.95  953.51   1-0.89579 0.85168 0.35260-0.41576 0.27060 0.31902
  -1  -1   828338.84 1119.18   1 0.58258-0.62708 0.69659-0.75985 0.41874 0.17140
  -1   1   825485.58 1141.10   1 0.79010-0.83507 0.53269-0.46945 0.30325 0.28682
   1   1  -824816.46 1052.91   1 0.19341-0.14902 0.96403-0.90084-0.18230-0.40775
  -1   1   821185.95  842.85   1 0.71411-0.75872 0.63912-0.57593 0.28558 0.30435
   1   1  -746709.55 1975.78   1 0.97049-0.92069-0.14964 0.21284-0.18905-0.32713
   1  -1  -739207.86 1482.00   1 0.97313-0.92332-0.17555 0.11234-0.14897-0.36720
  -1  -1   732693.52 1156.23   1-0.94901 0.89927 0.24180-0.30494 0.20226 0.31356
  -1  -1   734403.03 1226.48   1 0.60810-0.65867 0.68127-0.74452 0.40751 0.10878
  -1   1   750742.16 1849.51   1 0.81647-0.86720 0.50320-0.43996 0.28312 0.23320
   1  -1  -736327.44 1280.56   1-0.13195 0.18224 0.91177-0.97496-0.38890-0.12740
   1   1  -748991.77 1841.21   1 0.27630-0.22595 0.95344-0.89028-0.12081-0.39539
  -1   1   745891.59 1574.91   1 0.68134-0.73177 0.68915-0.62597 0.24663 0.26955
   1  -1  -682091.56 2565.89   1 0.97221-0.91648-0.22171 0.15850-0.07511-0.36732
   1   1  -695586.71 2972.06   1 0.97355-0.91782-0.18562 0.24883-0.13313-0.30930
  -1  -1   673074.75 2198.19   1-0.98640 0.93076 0.11135-0.17449 0.12084 0.32128
  -1  -1   678922.05 2383.23   1 0.61487-0.67123 0.67701-0.74026 0.40445 0.03809
  -1   1   691251.00 2813.25   1 0.83541-0.89191 0.48015-0.41691 0.26746 0.17510
   1  -1  -680783.85 2438.26   1-0.10656 0.16270 0.92113-0.98431-0.37438-0.06817
   1   1  -689608.89 2718.67   1 0.36711-0.31092 0.92882-0.86566-0.05009-0.39236
  -1   1   687537.70 2624.84   1 0.64489-0.70115 0.73592-0.67273 0.20621 0.23624
  -1  -1   677004.99 2340.12   1 0.79127-0.84729 0.46591-0.52908 0.39599 0.04650
   1   1  -531121.29 1155.51   1 0.97193-0.91028-0.22432 0.28752-0.07084-0.29785
   1  -1  -519623.99  652.78   1 0.96146-0.89977-0.27460 0.21140 0.01298-0.38171
  -1  -1   521000.94  609.99   1 0.59523-0.65725 0.68909-0.75235 0.41333-0.04448
  -1  -1   520671.54  609.92   1 0.79666-0.85855 0.44822-0.51139 0.40548-0.03673
   1   1  -426941.90  613.18   1 0.96346-0.89587-0.26782 0.33102 0.00137-0.29635
   1  -1  -432429.82  747.96   1 0.93331-0.86572-0.33696 0.27376 0.12403-0.41902
  -1  -1   432718.86  694.65   1 0.86910-0.93676-0.41246 0.34927 0.27298 0.02199
  -1   1   428788.38  594.16   1 0.75551-0.82319-0.48588 0.54909 0.43943-0.14434
  -1  -1   431336.07  568.49   1 0.53025-0.59811 0.72503-0.78829 0.43949-0.14441
  -1   1   430287.82  679.54   1 0.84664-0.91470 0.46563-0.40239 0.25762 0.03741
   1  -1  -433881.28  566.13   1-0.12905 0.19689 0.91289-0.97607-0.38726 0.09222
  -1   1   427607.65  481.68   1 0.55235-0.62025 0.82600-0.76284 0.11232 0.18264
   1   1  -426593.80  514.90   1 0.58454-0.51664 0.79856-0.73539 0.14351-0.43848
  -1  -1   432009.68  586.34   1 0.81069-0.87846 0.39436-0.45753 0.43272-0.13772
   1   1  -3269370.7 3866.77   1 0.94354-0.87005-0.31863 0.38183 0.09054-0.31178
  -1  -1   3241784.2 3483.97   1 0.85644-0.92996-0.42321 0.36003 0.29562-0.07438
   1  -1  -3252063.9 3583.43   1 0.86817-0.79464-0.41328 0.35010 0.27470-0.49594
  -1   1   3255478.9 3618.37   1 0.69258-0.76614-0.51184 0.57504 0.50827-0.28696
  -1  -1   3244705.4 3430.01   1 0.38590-0.45960 0.78487-0.84812 0.48482-0.26351
   1   1  -3261165.3 3641.29   1 0.81507-0.74125 0.50483-0.44159 0.28422-0.50551
  -1   1   3257451.9 3564.09   1 0.46878-0.54251 0.88257-0.81940 0.03614 0.18508
   1   1  -3269440.9 3778.76   1 0.71631-0.64258 0.63543-0.57224 0.28830-0.50953
  -1  -1   3237114.3 3335.95   1 0.83016-0.90376 0.27316-0.33634 0.48600-0.26472
   1   1  -2148822.7 2181.20   1 0.89943-0.82003-0.38230 0.44549 0.21178-0.35927
  -1  -1   2126003.9 1806.79   1 0.12003-0.19951 0.83789-0.90111 0.53247-0.38494
   1   1  -2141075.2 1999.30   1 0.45949-0.37996 0.75750-0.69425 0.46372-0.61126
  -1   1   2146917.2 2183.50   1 0.78825-0.86783 0.53453-0.47128 0.30484-0.15732
   1   1  -2142342.9 2026.65   1 0.82551-0.74601 0.31247-0.24930 0.46998-0.61750
  -1   1   2145050.8 1996.88   1 0.79285-0.87239-0.13554 0.19875 0.59414-0.44657
   1   1  -1262835.9 3679.84   1 0.78889-0.70361-0.46867 0.53185 0.39747-0.47122
  -1   1   1260135.4 3624.28   1 0.18567-0.27105-0.55929 0.62252 0.80790-0.73415
  -1  -1   1257325.8 3583.47   1-0.23801 0.15268 0.81161-0.87482 0.53351-0.45975
  -1   1   1258443.0 3632.48   1 0.68566-0.77104 0.62733-0.56408 0.36921-0.29546
   1  -1  -1257961.1 3551.80   1 0.78761-0.70222 0.47720-0.54037 0.38978-0.46354
   1   1  -1263830.1 3667.66   1 0.77113-0.68571-0.20669 0.26990 0.60218-0.67597
  -1  -1   1264664.0 3681.33   1 0.70178-0.78715-0.37039 0.30720 0.60853-0.53479
  -1  -1   0263057.7 3646.66   1 0.32487-0.41609-0.56610 0.50288 0.75761-0.75761
  -1   1   0302242.0 4194.67   1-0.36076 0.26957-0.42306 0.48628 0.83118-0.83118
  -1   1   0285554.3 3977.90   1 0.45817-0.54938 0.75805-0.69480 0.46414-0.46414
   1  -1   0257388.3 3590.92   1 0.55962-0.46841 0.70957-0.77282 0.42816-0.42816
  -1   1   0299467.7 4161.98   1 0.52090-0.61211 0.84958-0.78641 0.08291-0.08291
  -1  -1   0265743.6 3701.89   1 0.43354-0.52475-0.72329 0.66011 0.53748-0.53748
   1   1   1129680.2 1831.48   1-0.24449 0.34154-0.46693 0.53015 0.84981-0.77607
  -1  -1  -1125996.0 1775.87   1-0.46133 0.36429-0.37752 0.31431 0.80289-0.87663
   1  -1   1128291.4 1855.37   1-0.63297 0.73002-0.27924 0.21605 0.72205-0.64836
   1   1   1136333.1 1972.98   1-0.64383 0.74086 0.62839-0.56520 0.43657-0.36285
   1  -1   1128919.6 1836.40   1 0.24068-0.14359 0.82203-0.88528 0.51607-0.44231
  -1   1  -1132863.4 1934.74   1 0.45948-0.55652 0.88774-0.82457 0.02803-0.10177
   1   1   2105244.7 1552.17   1-0.66793 0.77087-0.25515 0.31834 0.69910-0.55173
   1  -1   291673.42 1469.00   1-0.78302 0.88594-0.16169 0.09849 0.60060-0.45321
  -1  -1  -293512.00 1439.88   1-0.15484 0.05190 0.90256-0.96574-0.40174 0.25423
   1   1   2104215.6 1587.73   1 0.01863 0.08429 0.95422-0.89103-0.29851 0.44603
  -1   1  -2105114.0 1612.20   1 0.40791-0.51078 0.91286-0.84970-0.01672-0.13075
   1  -1   289179.63 1384.31   1 0.54191-0.43904 0.83416-0.89733 0.10245 0.04502
   1   1   372360.17 1157.42   1 0.95093-0.84198-0.07531 0.13851-0.30008 0.52142
   1  -1   380600.59 1320.72   1 0.94176-0.83281-0.05267-0.01053-0.33212 0.55345
   1   1   369998.99 1099.43   1-0.80038 0.90918-0.14500 0.20819 0.58168-0.36060
   1  -1   380474.75 1314.58   1-0.84112 0.94992-0.10196 0.03877 0.53113-0.31005
  -1  -1  -384477.87 1337.72   1-0.93029 0.82156 0.28605-0.34920 0.22959-0.45065
  -1   1  -375286.54 1129.25   1-0.75929 0.65047 0.52935-0.46616 0.37849-0.59964
   1   1   372139.65 1173.40   1-0.76630 0.87512 0.52222-0.45903 0.37424-0.15309
  -1  -1  -383454.36 1347.73   1-0.09174-0.01703 0.92617-0.98935-0.36576 0.14448
   1   1   370936.42 1272.63   1 0.15822-0.04946 0.96544-0.90226-0.20706 0.42833
   1  -1   379403.87 1302.83   1 0.55144-0.44275 0.82673-0.88990 0.11146 0.10976
   1   1   4128264.8 1925.50   1 0.97220-0.85720-0.16380 0.22700-0.16727 0.46223
   1   1   4125956.0 1921.16   1-0.84477 0.95946-0.09779 0.16099 0.52610-0.23132
  -1   1  -4127115.4 1850.35   1-0.91666 0.80211 0.31414-0.25098 0.24705-0.54187
   1   1   4129688.5 1970.84   1-0.77560 0.89033 0.51251-0.44932 0.36845-0.07357
  -1   1  -4129445.7 2062.05   1 0.31066-0.42520 0.94580-0.88264-0.09460-0.20037
   1  -1   4136410.0 2085.42   1 0.56978-0.45526 0.81159-0.87476 0.12907 0.16589
   1   1   5102113.1 2476.77   1 0.97192-0.85099-0.22440 0.28761-0.07070 0.43940
   1   1   5111415.5 2720.66   1-0.85973 0.98030-0.08003 0.14323 0.50443-0.13595
  -1  -1  -598690.71 2421.54   1-0.99188 0.87111 0.07531-0.13852 0.10244-0.47113
  -1   1  -5107897.9 2577.14   1-0.98185 0.86131 0.13346-0.07032 0.13473-0.50317
   1   1   5106706.8 2592.58   1-0.76947 0.89009 0.51894-0.45576 0.37229-0.00370
   1  -1   595239.28 2275.27   1-0.48081 0.60148 0.72618-0.78938 0.49139-0.12281
  -1  -1  -598047.99 2428.33   1-0.06334-0.05713 0.93498-0.99817-0.34898-0.01980
  -1   1  -5111054.1 2770.33   1 0.26232-0.38269 0.95600-0.89284-0.13129-0.23742
   1  -1   6 5680.64  437.40   1-0.87266 0.99911-0.06371 0.00051 0.48415-0.04198
   1   1   6 4128.99  366.79   1-0.86184 0.98829-0.07744 0.14063 0.50123-0.05906
  -1   1  -6 4801.48  364.64   1-0.99891 0.87222-0.02633 0.08953 0.03841-0.48084
  -1  -1  -6 6270.86  802.22   1-0.99886 0.87217-0.01666-0.04654 0.04453-0.48697
   1  -1   6 5466.74  262.03   1-0.49374 0.62031 0.71981-0.78302 0.48793-0.04563
  -1  -1  -6 5930.21  770.88   1-0.07444-0.05188 0.93167-0.99485-0.35558-0.08696
  -1   1  -6 4929.18  798.71   1 0.21405-0.34036 0.96235-0.89916-0.16750-0.27503
   1   1   764184.14 2214.77   1-0.85679 0.98914-0.08361 0.14680 0.50882 0.00703
   1  -1   768757.53 2408.78   1-0.86736 0.99970-0.07052 0.00732 0.49265 0.02320
  -1  -1  -768000.53 2285.70   1-0.99457 0.86195-0.10350 0.04029-0.01078-0.50538
   1  -1   763577.41 2099.80   1-0.48109 0.61356 0.72605-0.78925 0.49132 0.02469
  -1  -1  -772150.59 2454.27   1-0.09518-0.03699 0.92502-0.98821-0.36777-0.14853
  -1   1  -766451.59 2411.45   1 0.16427-0.29643 0.96533-0.90214-0.20285-0.31345
   1   1   849865.76 2584.96   1-0.84688 0.98511-0.09535 0.15855 0.52315 0.06640
   1  -1   861963.96 3232.87   1-0.85816 0.99639-0.08195 0.01875 0.50679 0.08276
  -1  -1  -866614.48 3388.36   1-0.12296-0.01506 0.91519-0.97837-0.38379-0.20627
  -1   1  -853445.07 2763.28   1 0.11338-0.25140 0.96467-0.90149-0.23777-0.35228
   1  -1   911887.40  993.59   1-0.84569 0.98980-0.09674 0.03354 0.52482 0.13842
   1   1   911314.24  878.96   1-0.83310 0.97721-0.11094 0.17413 0.54188 0.12136
   1  -1   912013.40  811.18   1 0.91312-0.77001 0.36175-0.42500 0.18797 0.47586
  -1  -1  -912745.66  940.61   1-0.15621 0.01233 0.90198-0.96517-0.40251-0.26132
  -1   1  -912131.58 1268.91   1 0.06120-0.20506 0.96024-0.89706-0.27237-0.39144
   1   1  1024480.15 2017.81   1-0.81585 0.96585-0.12936 0.19255 0.56360 0.17334
   1  -1  1019031.33 1673.14   1-0.83021 0.98021-0.11410 0.05090 0.54564 0.19130
  -1   1 -1027479.58 2432.88   1 0.00614-0.15586 0.95188-0.88869-0.30640-0.43118
   1  -1  1116841.38 1442.84   1-0.81179 0.96767-0.13354 0.07034 0.56846 0.24217
  -1   1 -1124533.88 1888.33   1-0.04920-0.10636 0.93895-0.87577-0.34049-0.47085
   1  -1  12  880.25  392.05   1-0.79038 0.95215-0.15472 0.09152 0.59274 0.29158
   1   1  12  609.19  393.22   1-0.77130 0.93307-0.17249 0.23569 0.61264 0.27169
   1   2 -1224256.13 2744.50   1 0.90332-0.88300 0.01847 0.10793-0.42855-0.45677
   1  -2 -1153821.83 3893.57   1 0.92326-0.89704-0.01508-0.11132-0.38386-0.42769
   1   2 -1156904.53 8171.44   1 0.92152-0.89530-0.01193 0.13833-0.38812-0.42343
   1  -2 -1028463.48 2528.69   1 0.94239-0.91025-0.05411-0.07229-0.33010-0.40767
   1   2 -1030771.37 2549.96   1 0.93698-0.90484-0.04212 0.16853-0.34682-0.39095
  -1   2  1031728.58 2590.00   1 0.76737-0.80052 0.55591-0.42942 0.31953 0.41803
   1   2 -1029976.35 2422.99   1 0.15692-0.12422 0.96546-0.83909-0.20797-0.52960
   1   2  -9 1533.17  558.93   1 0.94978-0.91173-0.07224 0.19865-0.30445-0.35954
   1  -2  -9  306.41  243.27   1 0.95756-0.91952-0.09461-0.03179-0.27224-0.39175
  -1   2   9  625.49  272.12   1 0.80291-0.84210 0.51871-0.39223 0.29369 0.37015
   1   2  -9  491.85  206.71   1 0.24015-0.20160 0.95931-0.83294-0.14849-0.51532
   1   2  -828934.34 2614.33   1 0.95995-0.91599-0.10249 0.22890-0.26074-0.32947
   1  -2  -824960.03 1408.85   1 0.96835-0.92448-0.13661 0.01020-0.20884-0.38108
  -1  -2   823161.21 1182.31   1 0.29427-0.33863 0.81066-0.93717 0.50618 0.08385
  -1   2   824404.78 1389.34   1 0.83241-0.87737 0.48391-0.35743 0.27001 0.32007
   1   2  -824468.92 1348.29   1 0.32438-0.27986 0.94219-0.81587-0.08395-0.50599
  -1   2   821475.08 1125.83   1 0.63831-0.68292 0.74356-0.61718 0.19917 0.39076
   1  -2  -714098.25 1500.66   1 0.97348-0.92367-0.18303 0.05662-0.13722-0.37895
   1   2  -715117.51 2029.96   1 0.96757-0.91776-0.13248 0.25890-0.21506-0.30111
  -1  -2   712273.81  566.91   1-0.88655 0.83657 0.36819-0.49450 0.28010 0.23581
  -1  -2   713728.07  509.61   1 0.30598-0.35620 0.80781-0.93432 0.50378 0.01249
  -1   2   713745.95  730.63   1 0.85586-0.90659 0.45319-0.32671 0.24922 0.26709
   1   2  -713347.85  915.57   1 0.41254-0.36218 0.91084-0.78452-0.01287-0.50332
  -1   2   713046.79  532.73   1 0.57577-0.62619 0.80640-0.68006 0.13489 0.38130
   1   2  -6 3388.26  454.76   1 0.97221-0.91648-0.16387 0.29029-0.16715-0.27528
   1  -2  -6 2811.50  367.63   1 0.97055-0.91482-0.23488 0.10846-0.05343-0.38901
  -1  -2   6 1960.13  291.05   1-0.96144 0.90580 0.20721-0.33349 0.18079 0.26134
  -1  -2   6 2114.12  153.30   1 0.27178-0.32785 0.81576-0.94227 0.51054-0.06801
  -1   2   6 2872.19  331.81   1 0.87348-0.92999 0.42790-0.30142 0.23220 0.21036
  -1   2   6 2650.66  184.21   1 0.49307-0.54932 0.86807-0.74173 0.05765 0.38479
   1   2  -6 2688.32  301.97   1 0.50359-0.44734 0.86132-0.73498 0.06712-0.50957
   1  -2  -515840.19  540.07   1 0.95395-0.89226-0.29578 0.16938 0.04980-0.41853
  -1   2   517114.77  538.21   1 0.69783-0.75964-0.50994 0.63636 0.50296-0.13410
  -1  -2   515841.45  418.29   1-0.99882 0.93729-0.03650-0.08991 0.03195 0.33674
  -1  -2   517303.87  469.06   1 0.17366-0.23559 0.83252-0.95903 0.52605-0.15727
  -1   2   520302.24  742.98   1 0.88509-0.94737 0.41002-0.28353 0.22020 0.14860
  -1   2   518337.40  595.15   1 0.37651-0.43854 0.92543-0.79911-0.04250 0.41121
   1   2  -518991.79  590.23   1 0.59958-0.53751 0.78445-0.65811 0.15850-0.52722
  -1  -2   516453.97  556.35   1 0.82285-0.88464 0.33042-0.45678 0.46230-0.09350
  -1   2   519070.35  541.53   1 0.42333-0.48531-0.73234 0.85870 0.53334-0.16461
  -1   2   4170144.7 2478.25   1 0.64222-0.70990-0.52784 0.65426 0.55581-0.26072
  -1  -2   4191454.6 2680.66   1-0.00898-0.05876 0.84110-0.96755 0.54079-0.24573
  -1   2   4173226.8 2628.28   1 0.88977-0.95782 0.40250-0.27601 0.21516 0.07987
  -1   2   4172793.2 2460.44   1 0.18508-0.25288 0.96452-0.83816-0.18822 0.48325
   1   2  -4175715.0 2577.32   1 0.69618-0.62827 0.66759-0.54121 0.26392-0.55889
  -1  -2   4192222.3 2789.22   1 0.83062-0.89832 0.26839-0.39475 0.48787-0.19283
  -1   2   4174645.8 2473.81   1 0.52927-0.59709-0.62633 0.75269 0.57234-0.27735
   1   2  -383912.62 1371.58   1 0.96265-0.88916-0.27065 0.39705 0.00620-0.22744
  -1  -2   396121.09 1527.87   1 0.89051-0.96404-0.39194 0.26557 0.23100-0.00977
   1  -2  -3100482.6 1499.97   1 0.80827-0.73474-0.45729 0.33092 0.37090-0.59214
  -1   2   388552.79 1331.89   1 0.52236-0.59618-0.55279 0.67924 0.64927-0.42800
  -1  -2   398761.29 1416.06   1-0.26551 0.19191 0.80497-0.93139 0.53058-0.30930
   1   2  -389985.95 1292.12   1 0.54828-0.47458 0.71568-0.58917 0.43263-0.65394
  -1   2   390982.65 1503.08   1 0.88516-0.95899 0.40991-0.28342 0.22012 0.00115
   1   2  -389394.98 1385.51   1 0.78290-0.70925 0.49104-0.36470 0.38202-0.60327
  -1  -2   397418.97 1475.04   1 0.83511-0.90871 0.15795-0.28431 0.52691-0.30563
  -1   2   391081.21 1314.83   1 0.69703-0.77076-0.37968 0.50606 0.60826-0.38706
   1   2  -2109616.3 1674.70   1 0.94440-0.86501-0.31692 0.44333 0.08745-0.23494
   1  -2  -298088.25 1439.19   1 0.56131-0.48170-0.54622 0.41977 0.62173-0.76925
  -1   2   2110253.2 1603.07   1 0.27044-0.34998-0.56489 0.69134 0.77958-0.63209
  -1  -2   2100602.0 1457.89   1-0.51211 0.43277 0.71040-0.83681 0.48277-0.33533
   1   2  -2107311.4 1533.28   1-0.05231 0.13180 0.83902-0.71257 0.54157-0.68910
  -1   2   2106393.0 1648.54   1 0.86569-0.94529 0.43934-0.31285 0.23989-0.09237
   1   2  -2109565.2 1629.06   1 0.83323-0.75373 0.23459-0.10823 0.50067-0.64819
  -1   2   2110592.0 1575.07   1 0.82752-0.90697 0.04079 0.08557 0.55994-0.41239
   1  -2  -297673.40 1393.24   1 0.64526-0.56571-0.47043 0.34405 0.60192-0.74939
   1   2  -1321945.0 4515.27   1 0.90339-0.81811-0.37778 0.50415 0.20286-0.27661
   1  -2  -1307388.0 4278.65   1 0.07930 0.00607-0.54622 0.41980 0.83387-0.90759
   1   2  -1321195.9 4471.91   1-0.48275 0.56799 0.72524-0.59883 0.49088-0.56460
   1  -2  -1310774.6 4377.26   1 0.90330-0.81792 0.37960-0.50608 0.19986-0.27362
   1  -2  -1314529.6 4364.76   1 0.83475-0.74935 0.13971-0.26607 0.53259-0.60635
   1   2  -1320113.0 4488.96   1 0.80522-0.71985-0.08807 0.21445 0.58639-0.66017
  -1  -2   1314290.3 4407.25   1 0.74938-0.83479-0.26600 0.13958 0.60635-0.53257
  -1  -2   0329884.9 4568.80   1 0.60978-0.70097-0.53584 0.40940 0.58397-0.58397
   1  -2   0335309.5 4677.77   1-0.41840 0.50959-0.39790 0.27147 0.81646-0.81646
  -1   2   0360899.9 5019.54   1-0.57287 0.48168-0.31712 0.44354 0.75580-0.75580
  -1  -2   0341175.3 4783.10   1-0.80295 0.71188 0.48294-0.60926 0.34931-0.34931
  -1   2   0363665.5 5080.21   1 0.70993-0.80112 0.60789-0.48140 0.35559-0.35559
   1  -2   0314224.3 4400.58   1 0.82219-0.73104 0.49641-0.62290 0.27850-0.27850
  -1   2   0360491.4 5025.69   1 0.72541-0.81661 0.61961-0.49323 0.29975-0.29975
  -1  -2   0334735.6 4686.07   1 0.60405-0.69525-0.53198 0.40560 0.59338-0.59338
   1   2   1211440.7 2931.61   1 0.31884-0.22178-0.56606 0.69252 0.76020-0.68645
  -1  -2  -1216641.1 2998.00   1-0.16887 0.07183-0.49088 0.36445 0.85470-0.92844
  -1   2  -1205966.1 2938.69   1-0.79690 0.69987-0.14841 0.27481 0.58558-0.65928
  -1   2  -1209134.3 2953.74   1 0.47208-0.56913 0.75219-0.62568 0.45971-0.53348
  -1   2  -1213013.8 3054.33   1 0.64431-0.74134 0.73660-0.61022 0.20559-0.27933
   1   2   1216322.8 3105.17   1 0.53296-0.43591-0.62210 0.74846 0.57352-0.49977
   1   2   2445589.1 6139.99   1-0.45098 0.55387-0.38257 0.50899 0.80638-0.65889
   1  -2   2503540.2 7040.81   1-0.79410 0.89701-0.15114 0.02475 0.58869-0.44130
  -1  -2  -2511101.2 7031.07   1-0.85913 0.75621-0.08077-0.04561 0.50534-0.65273
   1   2   2434029.5 6097.06   1-0.81914 0.92195 0.46360-0.33729 0.33775-0.19034
  -1   2  -2459992.3 6355.09   1 0.02582-0.12879 0.84162-0.71517 0.53944-0.68697
   1  -2   2519872.2 7173.14   1 0.49884-0.39595 0.74024-0.86676 0.45076-0.30322
   1  -2   2506322.7 7079.55   1 0.69186-0.58901 0.67403-0.80041 0.25883-0.11135
   1   2   2466885.0 6532.99   1 0.40301-0.30011-0.74970 0.87606 0.52489-0.37740
   1  -2   3129349.6 2044.78   1 0.94413-0.83517-0.05817-0.06823-0.32439 0.54573
   1   2   3106446.4 1617.13   1 0.96491-0.85583-0.12021 0.24662-0.23343 0.45465
  -1   2  -3108893.6 1561.91   1-0.50821 0.39935 0.71243-0.58603 0.48388-0.70503
   1   2   4147548.4 3481.24   1 0.97306-0.85806-0.21149 0.33790-0.09174 0.38671
   1   2   4148079.7 3499.08   1-0.81054 0.92522-0.13482 0.26121 0.56995-0.27517
   1  -2   4144520.8 3495.52   1-0.86279 0.97747-0.07626-0.05013 0.49977-0.20499
  -1  -2  -4154397.9 3701.66   1-0.98314 0.86850 0.12752-0.25380 0.13100-0.42576
  -1   2  -4150660.1 3521.37   1-0.84777 0.73321 0.42639-0.30008 0.31538-0.61020
   1   2   4142504.8 3490.31   1-0.83183 0.94638 0.44761-0.32130 0.32816-0.03334
   1  -2   4151913.2 3542.47   1 0.04983 0.06486 0.84138-0.96784 0.53812-0.24305
   1   2   4143090.7 3411.46   1 0.09255 0.02205 0.96336-0.83699-0.25173 0.54676
  -1   2  -4147421.6 3649.66   1 0.44453-0.55907 0.89564-0.76932 0.01416-0.30914
   1   2   5102697.4 2469.11   1 0.96327-0.84258-0.26850 0.39490 0.00253 0.36619
   1   2   5108030.1 2614.90   1-0.83748 0.95805-0.10607 0.23246 0.53606-0.16759
   1  -2   5100314.2 2546.64   1-0.87049 0.99106-0.06652-0.05987 0.48766-0.11919
  -1  -2  -5106267.6 2679.45   1-0.99535 0.87458 0.04641-0.17282 0.08432-0.45302
  -1   2  -5107554.5 2549.24   1-0.97751 0.85698 0.15186-0.02558 0.14626-0.51470
  -1   2  -5105844.7 2641.39   1 0.38516-0.50554 0.92216-0.79584-0.03546-0.33325
   1   2   6210218.4 6241.98   1-0.84427 0.97072-0.09837 0.22476 0.52680-0.08464
   1  -2   6187903.6 5673.39   1-0.87071 0.99716-0.06623-0.06015 0.48731-0.04514
  -1   2  -6199568.6 5850.31   1-0.99699 0.87029-0.07725 0.20366 0.00600-0.44844
  -1  -2  -6199426.5 5955.57   1-0.99890 0.87221-0.02878-0.09762 0.03685-0.47928
   1  -2   6174558.9 5129.04   1-0.16057 0.28696 0.82660-0.95303 0.53938-0.09681
  -1   2  -6218954.3 6539.33   1 0.32713-0.45334 0.94142-0.81510-0.08180-0.36065
   1   2   723992.78 1006.08   1-0.84110 0.97345-0.10198 0.22838 0.53116-0.01530
   1  -2   718294.38  913.37   1-0.86597 0.99831-0.07228-0.05410 0.49484 0.02101
  -1  -2  -717349.59  746.91   1-0.99470 0.86208-0.10226-0.02415-0.00999-0.50618
   1  -2   717349.32  623.95   1-0.17979 0.31205 0.82338-0.94981 0.53824-0.02192
  -1   2  -723446.98 1004.56   1 0.26966-0.40171 0.95470-0.82837-0.12580-0.39040
   1  -2   822312.17 1343.42   1-0.85747 0.99570-0.08279-0.04359 0.50782 0.08173
   1   2   823646.34 1332.38   1-0.83175 0.96997-0.11242 0.23881 0.54364 0.04591
   1  -2   822636.92 1165.32   1 0.91043-0.77310 0.36674-0.49323 0.19130 0.39878
  -1   2  -826574.43 1463.25   1 0.21285-0.35087 0.96246-0.83610-0.16837-0.42168
   1  -2   933396.91 1974.69   1-0.84579 0.98990-0.09662-0.02976 0.52468 0.13856
   1   2   927053.73 1565.88   1-0.81776 0.96187-0.12737 0.25376 0.56128 0.10196
  -1   2  -928252.80 1606.69   1 0.15497-0.29884 0.96548-0.83912-0.20932-0.45449
   1   2  1022018.86 1847.40   1-0.79980 0.94980-0.14557 0.27196 0.58233 0.15460
   1  -2  1019364.58 1667.90   1-0.83119 0.98119-0.11303-0.01335 0.54437 0.19257
  -1   2 -1021643.09 1920.93   1 0.09627-0.24599 0.96364-0.83727-0.24925-0.48832
   1   2  11 1602.42  455.18   1-0.77811 0.93400-0.16626 0.29265 0.60571 0.20492
   1  -2  11 2370.69  628.73   1-0.81375 0.96963-0.13153 0.00514 0.56613 0.24450
  -1   2 -11 1599.39  430.01   1 0.03499-0.19057 0.95696-0.83059-0.28809-0.52325
   1  -3 -11 1762.71  428.93   1 0.91756-0.89134-0.00491-0.18469-0.39755-0.41400
   1   3 -11 2661.24  596.76   1 0.91671-0.89048-0.00344 0.19305-0.39953-0.41202
  -1   3  11 1796.89  536.53   1 0.76242-0.78978 0.56075-0.37102 0.32288 0.48845
   1   3 -10 7927.82 1031.48   1 0.93185-0.89971-0.03151 0.22112-0.36146-0.37631
   1  -3 -10 4099.88 1093.83   1 0.93885-0.90672-0.04617-0.14343-0.34119-0.39658
  -1   3  10 7117.82  912.39   1 0.79996-0.83338 0.52199-0.33226 0.29593 0.44167
   1   3 -10 6355.81 1372.48   1 0.25536-0.22251 0.95716-0.76768-0.13647-0.60095
   1   3  -946198.28 3810.73   1 0.94456-0.90651-0.05920 0.24881-0.32295-0.34105
   1  -3  -940226.84 2172.37   1 0.95586-0.91782-0.08935-0.10025-0.27988-0.38412
  -1   3   943281.23 2384.48   1 0.83160-0.87079 0.48492-0.29519 0.27069 0.39315
   1   3  -940090.68 2309.03   1 0.33902-0.30034 0.93798-0.74849-0.07247-0.59122
  -1   3   942794.45 2247.47   1 0.52477-0.56336-0.63143 0.82097 0.57087 0.09283
   1   3  -812263.29 1944.26   1 0.95493-0.91098-0.08657 0.27618-0.28390-0.30631
   1  -3  -810561.37 1602.90   1 0.96799-0.92411-0.13466-0.05495-0.21179-0.37813
  -1   3   813363.56 1461.25   1 0.85756-0.90252 0.45084-0.26111 0.24764 0.34244
   1   3  -813223.88 2090.95   1 0.42298-0.37846 0.90612-0.71664-0.00413-0.58581
  -1   3   814247.35 1459.33   1 0.52251-0.56695-0.63396 0.82350 0.57013 0.01982
   1   3  -7106465.3 3600.63   1 0.96316-0.91336-0.11312 0.30274-0.24395-0.27223
   1  -3  -7101610.8 3354.55   1 0.97355-0.92375-0.18556-0.00404-0.13322-0.38296
  -1   3   799345.82 3364.56   1 0.87832-0.92906 0.42057-0.23084 0.22727 0.28904
  -1   3   786160.63 2834.49   1 0.43713-0.48749 0.89935-0.70987 0.00784 0.50835
   1   3  -797875.88 3257.21   1 0.50638-0.45596 0.85948-0.66998 0.06965-0.58584
  -1   3   798485.75 3211.45   1 0.53632-0.58660-0.61822 0.80776 0.57459-0.05836
  -1   3   6138725.2 4668.68   1 0.89418-0.95069 0.39522-0.20549 0.21029 0.23226
  -1   3   6126074.5 4137.16   1 0.30024-0.35642 0.94832-0.75884-0.10261 0.54507
   1   3  -6129687.0 4320.61   1 0.59046-0.53421 0.79312-0.60361 0.14937-0.59183
  -1   3   6138956.6 4563.02   1 0.57108-0.62736-0.57601 0.76558 0.58485-0.14245
   1   3  -5148201.8 3683.50   1 0.97253-0.91088-0.16738 0.35700-0.16171-0.20698
   1  -3  -5132542.5 3184.86   1 0.94612-0.88443-0.31344 0.12384 0.08119-0.44992
  -1   3   5131449.1 3129.58   1 0.57067-0.63292-0.54442 0.73409 0.61476-0.24597
  -1   3   5141218.8 3464.39   1 0.90513-0.96741 0.37635-0.18663 0.19770 0.17110
  -1   3   5137455.7 3238.69   1 0.11209-0.17404 0.96461-0.77506-0.23865 0.60744
   1   3  -5139278.8 3356.82   1 0.67181-0.60973 0.70217-0.51261 0.23581-0.60452
  -1   3   5137645.7 3249.85   1 0.62931-0.69141-0.49521 0.68478 0.59893-0.23026
   1   3  -445958.29 1274.39   1 0.97364-0.90606-0.19491 0.38453-0.11838-0.17657
   1  -3  -457225.16 1415.60   1 0.88503-0.81738-0.39752 0.20796 0.24226-0.53724
  -1   3   448509.34 1214.75   1 0.46790-0.53594-0.55962 0.74929 0.68402-0.38899
  -1  -3   455364.87 1303.92   1-0.77376 0.70623 0.51446-0.70402 0.36961-0.07474
   1   3  -445927.24 1082.88   1 0.77135-0.70330 0.55207-0.36235 0.31656-0.61160
  -1   3   445777.93 1118.83   1-0.15067 0.08283 0.90429-0.71473-0.39943 0.69446
   1   3  -447330.41 1234.02   1 0.74603-0.67826 0.57972-0.39021 0.32763-0.62264
  -1  -3   450757.63 1299.00   1 0.83516-0.90286 0.17622-0.36576 0.52100-0.22596
  -1   3   450382.37 1247.06   1 0.70960-0.77739-0.35606 0.54568 0.60801-0.31286
   1   3  -347042.60  953.34   1 0.97204-0.89853-0.22331 0.41293-0.07249-0.14872
  -1   3   346283.73  938.03   1 0.90970-0.98353 0.36809-0.17837 0.19220 0.02908
   1   3  -346936.26  858.75   1 0.80513-0.73149 0.41734-0.22783 0.42140-0.64265
   1   3  -2207483.9 3050.97   1 0.96702-0.88763-0.25368 0.44328-0.02257-0.12491
   1  -3  -2218640.8 3078.15   1 0.39750-0.31796-0.56460 0.37492 0.72333-0.87082
  -1  -3   2216480.1 3068.05   1-0.84317 0.76383 0.43266-0.62213 0.31916-0.17175
   1   3  -2211724.0 2978.43   1-0.44324 0.52258 0.74351-0.55390 0.50071-0.64814
  -1   3   2203625.8 3002.73   1 0.89908-0.97869 0.38692-0.19720 0.20475-0.05723
  -1   3   2209121.4 2961.40   1 0.83233-0.91178 0.09231 0.09724 0.54653-0.39897
   1  -3  -2221205.5 3119.05   1 0.71654-0.63700-0.34164 0.15201 0.60814-0.75572
  -1  -3   1 7811.64  278.05   1 0.86879-0.95407-0.41274 0.22318 0.27356-0.19982
   1  -3  -1 6580.46  227.58   1-0.10572 0.19107-0.50829 0.31865 0.85466-0.92841
  -1   3   1 6051.11  236.41   1-0.44402 0.35868-0.38591 0.57555 0.80864-0.73490
  -1  -3   1 8231.18  589.31   1-0.87989 0.79469 0.37895-0.56843 0.28665-0.21295
   1   3  -1 7749.94  249.75   1-0.68290 0.76813 0.59831-0.40874 0.41912-0.49284
  -1   3   1 6329.26  318.22   1 0.87207-0.95744 0.43001-0.24028 0.23361-0.15985
  -1   3   1 7263.27  285.63   1 0.82473-0.91013 0.31797-0.12843 0.46766-0.39390
   1  -3  -1 6811.83  244.91   1 0.82543-0.74006 0.02388-0.21344 0.56399-0.63776
  -1  -3   1 6876.55  286.25   1 0.76085-0.84626-0.23588 0.04625 0.60453-0.53074
   1   3   0433429.0 6018.28   1 0.93554-0.84435-0.33322 0.52282 0.11713-0.11713
  -1  -3   0415561.1 5751.33   1 0.76157-0.85276-0.48296 0.29334 0.43213-0.43213
   1  -3   0422453.5 5880.13   1-0.50069 0.59188-0.35751 0.16787 0.78834-0.78834
  -1   3   0427158.4 5942.25   1-0.70923 0.61806-0.22438 0.41395 0.66830-0.66830
  -1  -3   0422132.5 5930.22   1-0.91259 0.82152 0.32203-0.51150 0.25190-0.25190
  -1   3   0434514.1 6077.24   1 0.78208-0.87334 0.49335-0.30384 0.38070-0.38070
   1   3   0404459.0 5684.30   1 0.75655-0.66526-0.24743 0.43706 0.60530-0.60530
   1   3   1189675.6 2635.44   1 0.86214-0.76511-0.41848 0.60804 0.28560-0.21186
  -1  -3  -1210864.9 2919.15   1 0.23757-0.33463-0.56324 0.37356 0.79139-0.86514
  -1   3  -1182099.1 2633.21   1-0.84653 0.74950-0.09576 0.28534 0.52364-0.59733
  -1  -3  -1208634.8 3069.16   1-0.94026 0.84332 0.26344-0.45286 0.21564-0.28933
   1   3   1184517.3 2712.26   1-0.83925 0.93620 0.43790-0.24843 0.32231-0.24861
  -1   3  -1188560.6 2699.78   1 0.68502-0.78201 0.62782-0.43808 0.36956-0.44331
   1  -3   1196920.6 2806.22   1 0.88876-0.79184 0.40414-0.59387 0.21626-0.14250
  -1   3  -1187052.2 2730.43   1 0.72460-0.82163 0.62105-0.43148 0.29872-0.37246
   1   3   1196243.8 2858.43   1 0.66331-0.56630-0.44074 0.63031 0.60477-0.53104
   1   3   261029.80  866.09   1 0.23339-0.13050-0.56299 0.75267 0.79282-0.64533
   1   3   259915.41 1058.27   1-0.85990 0.96272 0.40927-0.21980 0.30504-0.15763
  -1   3  -260577.19  941.83   1 0.41330-0.51619 0.77539-0.58562 0.47742-0.62496
   1  -3   261741.10 1048.41   1 0.77128-0.66827 0.52225-0.71176 0.36382-0.21632
   1   3   261083.28 1047.65   1 0.56679-0.46395-0.58146 0.77103 0.58365-0.43618
   1   3   3177355.8 2495.99   1 0.97150-0.86242-0.22799 0.41761-0.06480 0.28602
   1   3   3181546.7 2544.15   1-0.53878 0.64752-0.33682 0.52646 0.77217-0.55094
  -1  -3  -3153416.1 2355.96   1-0.97963 0.87090 0.14312-0.33254 0.14078-0.36185
  -1   3  -3179755.4 2526.46   1-0.08853-0.02030 0.83606-0.64639 0.54143-0.76273
   1   3   3185486.4 2754.02   1 0.48526-0.37652-0.67377 0.86331 0.55725-0.33601
   1   3   4324777.0 7528.57   1 0.95401-0.83922-0.29563 0.48523 0.04953 0.24545
   1   3   4347147.0 8043.79   1-0.73369 0.84839-0.20479 0.39435 0.64788-0.35313
   1  -3   4295705.2 6974.50   1-0.85626 0.97095-0.08425-0.10533 0.50961-0.21483
  -1  -3  -4305175.8 7184.98   1-0.99139 0.87654 0.07875-0.26837 0.10459-0.39955
   1  -3   4299407.3 6917.77   1 0.68293-0.56853 0.62943-0.81916 0.37069-0.07566
  -1   3  -4341144.0 8003.28   1 0.53776-0.65228 0.83731-0.64780 0.09856-0.39353
   1   3   4366977.4 8581.85   1 0.42584-0.31124-0.73014 0.91968 0.53436-0.23938
   1   3   556111.30 1487.81   1 0.93509-0.81440-0.33397 0.52358 0.11852 0.25020
   1   3   561082.15 1871.48   1-0.79231 0.91288-0.15287 0.34246 0.59065-0.22218
   1  -3   550572.23 1482.95   1-0.86436 0.98493-0.07430-0.11528 0.49734-0.12887
  -1  -3  -549157.32 1617.71   1-0.99771 0.87694 0.01644-0.20606 0.06546-0.43416
   1  -3   549516.46 1176.77   1 0.59605-0.47585 0.68868-0.87841 0.41283-0.04404
  -1   3  -562170.14 1997.00   1 0.47661-0.59696 0.87805-0.68854 0.04302-0.41174
   1   3   6 8188.29  714.52   1 0.91525-0.78866-0.36343 0.55303 0.17385 0.26862
   1   3   6 8894.22  462.01   1-0.81104 0.93750-0.13430 0.32389 0.56935-0.12718
   1  -3   6 9863.99  631.29   1-0.86528 0.99174-0.07314-0.11644 0.49591-0.05374
  -1  -3  -6 9075.49  505.32   1-0.99859 0.87190-0.04622-0.14339 0.02577-0.46821
   1  -3   6 9831.56  352.12   1 0.53113-0.40489 0.72458-0.91435 0.43916 0.00344
  -1   3  -6 8603.14 1161.88   1 0.41670-0.54291 0.90899-0.71951-0.00939-0.43306
   1   3   723305.68  968.19   1-0.81308 0.94542-0.13222 0.32180 0.56693-0.05107
   1  -3   728336.83 1223.19   1-0.86132 0.99366-0.07807-0.11150 0.50201 0.01384
  -1  -3  -726509.38 1058.10   1-0.99391 0.86129-0.10923-0.08038-0.01446-0.50171
   1  -3   726057.49  836.75   1 0.55510-0.42330 0.71211-0.90185 0.42982 0.08647
  -1   3  -721537.02  901.46   1 0.35643-0.48847 0.93247-0.74299-0.05866-0.45754
   1   3   8 9874.34 1060.27   1-0.80598 0.94421-0.13942 0.32901 0.57527 0.01428
   1  -3   813103.18 1455.91   1-0.85362 0.99185-0.08742-0.10216 0.51349 0.07606
  -1   3  -810518.19 1807.60   1 0.29606-0.43394 0.94928-0.75980-0.10581-0.48413
   1   3   9 2823.53  457.06   1-0.79271 0.93683-0.15248 0.34206 0.59020 0.07304
   1  -3   9 3541.35  668.40   1-0.84277 0.98688-0.10009-0.08949 0.52888 0.13436
  -1   3  -9 2933.91  540.52   1 0.23591-0.37978 0.95987-0.77032-0.15160-0.51221
   1   3  1023350.09 1738.45   1-0.77452 0.92451-0.16957 0.35915 0.60939 0.12754
   1  -3  1026739.04 2030.75   1-0.82902 0.97902-0.11539-0.07419 0.54717 0.18976
  -1   3 -1027731.19 2544.10   1 0.17441-0.32413 0.96501-0.77547-0.19574-0.54183
   1   3  1029108.29 2165.69   1 0.39620-0.24653-0.75534 0.94488 0.52200 0.21545
   1  -3  1116134.84 1775.60   1-0.81248 0.96836-0.13283-0.05675 0.56764 0.24299
   1   3  1116485.18 1663.17   1 0.91578-0.76112 0.35672-0.16700 0.18463 0.62673
  -1   3 -1113223.23 2828.47   1 0.11185-0.26742 0.96460-0.77505-0.23881-0.57251
   1  -3  12 9335.22 1242.40   1-0.79312 0.95489-0.15208-0.03749 0.58976 0.29456
  -1   3 -12 3825.20 1393.58   1 0.04786-0.20928 0.95850-0.76895-0.28101-0.60407
  -1  -4  12 6015.90 1023.39   1-0.89345 0.87293-0.03509-0.21769 0.44777 0.43656
   1   4 -1111988.38 1300.73   1 0.91030-0.88407 0.00733 0.24548-0.41387-0.39767
  -1   4  1112672.44 1351.28   1 0.78767-0.81503 0.53514-0.28216 0.30526 0.50607
   1   4 -11 8666.14 1685.17   1 0.25234-0.22532 0.95764-0.70500-0.13871-0.67245
   1   4 -10 4463.39  978.14   1 0.92520-0.89307-0.01867 0.27148-0.37900-0.35877
   1  -4 -10 6975.75 1329.12   1 0.93182-0.89969-0.03146-0.22135-0.36153-0.37624
  -1   4  10 4445.50  957.51   1 0.82106-0.85448 0.49777-0.24480 0.27942 0.45818
   1   4 -10 2761.18  755.21   1 0.33451-0.30167 0.93931-0.68667-0.07601-0.66141
   1   4  -9 9309.44 1207.13   1 0.93785-0.89980-0.04398 0.29680-0.34423-0.31976
   1  -4  -9 8016.11 1196.75   1 0.95166-0.91361-0.07727-0.17553-0.29727-0.36673
  -1   4   9 8456.04 1135.51   1 0.84924-0.88843 0.46217-0.20920 0.25529 0.40855
   1   4  -9 8371.27 1583.03   1 0.41527-0.37659 0.90963-0.65698-0.01059-0.65310
   1   4  -827386.19 2862.93   1 0.94837-0.90441-0.06859 0.32141-0.30965-0.28056
   1  -4  -827528.46 2226.74   1 0.96620-0.92232-0.12589-0.12692-0.22495-0.36497
  -1   4   828638.51 1762.12   1 0.87238-0.91734 0.42954-0.17657 0.23330 0.35678
   1   4  -825812.72 1502.44   1 0.49367-0.44908 0.86769-0.61502 0.05819-0.64813
  -1   4   825271.15 1421.42   1 0.64431-0.68894-0.47195 0.72471 0.60176-0.01189
   1   4  -735127.45 2723.07   1 0.95687-0.90701-0.09245 0.34527-0.27538-0.24105
   1  -4  -737586.28 1443.67   1 0.97342-0.92362-0.18154-0.07128-0.13957-0.37661
  -1   4   731323.49 1376.26   1 0.89093-0.94166 0.40060-0.14763 0.21389 0.30242
  -1   4   727382.42 1099.27   1 0.28256-0.33291 0.95219-0.69955-0.11608 0.63228
   1   4  -733524.56 1371.87   1 0.57091-0.52048 0.81062-0.55795 0.13016-0.64635
  -1   4   733325.43 1286.13   1 0.66140-0.71185-0.44398 0.69674 0.60450-0.08836
   1   4  -6 5833.44  528.34   1 0.96362-0.90789-0.11493 0.36776-0.24126-0.20117
   1  -4  -6 3532.65  467.57   1 0.96842-0.91263-0.24700-0.00579-0.03374-0.40873
  -1   4   6 3753.19  250.13   1 0.47884-0.53530-0.55845 0.81135 0.67737-0.23483
  -1   4   6 4069.12  440.63   1 0.90516-0.96167 0.37630-0.12333 0.19766 0.24489
  -1   4   6 2754.98  404.11   1 0.11031-0.16641 0.96452-0.71179-0.23984 0.68239
   1   4  -6 2933.07  275.36   1 0.64439-0.58813 0.73651-0.48376 0.20567-0.64813
  -1   4   6 3730.52  288.27   1 0.69153-0.74781-0.39019 0.64295 0.60788-0.16547
   1   4  -585402.30 2698.88   1 0.96843-0.90677-0.13703 0.38986-0.20821-0.16049
   1  -4  -580446.38 2427.10   1 0.93936-0.87767-0.32650 0.07369 0.10482-0.47355
  -1   4   578964.17 2376.48   1 0.38648-0.44851-0.56507 0.81798 0.72892-0.36019
  -1   4   580977.19 2572.74   1 0.91514-0.97742 0.35794-0.10497 0.18544 0.18336
  -1   4   571068.16 2138.50   1-0.10438 0.04239 0.92189-0.66914-0.37312 0.74191
   1   4  -584217.16 2604.64   1 0.71255-0.65047 0.64171-0.38896 0.28366-0.65237
  -1   4   581578.41 2463.57   1 0.73360-0.79551-0.30403 0.55687 0.60776-0.23883
   1   4  -4121957.8 3058.48   1 0.97157-0.90399-0.15793 0.41075-0.17633-0.11862
   1  -4  -4115575.5 2739.29   1 0.85654-0.78888-0.42313 0.17039 0.29545-0.59044
  -1   4   4115244.2 2729.85   1 0.22164-0.28952-0.56221 0.81511 0.79673-0.50175
   1   4  -4112490.6 2615.24   1 0.32610-0.25831 0.80260-0.54958 0.49947-0.79449
   1   4  -4117846.0 2875.68   1 0.77046-0.70269 0.52431-0.27163 0.36258-0.65759
  -1   4   4116083.7 2770.71   1 0.77862-0.84641-0.18382 0.43666 0.59995-0.30481
   1   4  -3 9562.68 1184.30   1 0.97322-0.89971-0.17719 0.43001-0.14640-0.07481
  -1   4   3 6525.29  260.12   1-0.04334-0.03045-0.52319 0.77602 0.85111-0.62996
  -1  -4   3 4840.86  349.28   1-0.96350 0.89016 0.20093-0.45349 0.17688 0.04418
   1   4  -3 6184.08  218.57   1-0.32958 0.40318 0.78671-0.53386 0.52197-0.74326
  -1   4   3 7352.15  486.27   1 0.92080-0.99463 0.34695-0.09398 0.17813 0.04314
   1   4  -3 6359.77  343.30   1 0.81359-0.73994 0.38123-0.12855 0.43901-0.66026
  -1   4   3 5991.17  294.15   1 0.81651-0.89004-0.03319 0.28593 0.57637-0.35504
   1  -4  -3 4057.59  254.88   1 0.56851-0.49478-0.57928 0.32652 0.58413-0.80533
   1  -4  -225270.33  457.00   1 0.24718-0.16764-0.56380 0.31089 0.78805-0.93554
  -1  -4   225112.35  503.13   1-0.95288 0.87364 0.23157-0.48413 0.19592-0.04854
   1  -4  -224258.60  516.33   1 0.73262-0.65308-0.30628 0.05345 0.60781-0.75539
   1   4  -1135059.8 2028.49   1 0.97335-0.88798-0.20628 0.45910-0.10016 0.02642
  -1  -4   1144297.0 2117.60   1 0.89417-0.97945-0.38808 0.13534 0.22326-0.14952
  -1   4   1128826.4 1873.81   1-0.64104 0.55576-0.27382 0.52657 0.71699-0.64330
   1   4  -1129940.9 1928.54   1-0.76896 0.85419 0.51947-0.26672 0.37260-0.44632
  -1   4   1130187.2 2020.84   1 0.89552-0.98089 0.39299-0.14002 0.20880-0.13504
  -1   4   1129106.3 1938.05   1 0.82816-0.91356 0.29173-0.03901 0.47857-0.40481
   1   4  -1129715.9 1993.43   1 0.82695-0.74158 0.03601 0.21673 0.56110-0.63488
   1  -4  -1145348.9 2136.83   1 0.81421-0.72884-0.04547-0.20726 0.57877-0.65255
   1   4   067633.26 1208.10   1 0.97323-0.88194-0.20852 0.46135-0.09654 0.09654
  -1  -4   063847.58  984.15   1 0.83086-0.92202-0.44247 0.18973 0.33744-0.33744
   1  -4   063335.76 1024.60   1-0.53839 0.62958-0.33704 0.08419 0.77235-0.77235
  -1   4   065990.21 1065.51   1-0.79982 0.70867-0.14556 0.39834 0.58232-0.58232
   1   4   066016.03 1105.68   1-0.83485 0.92592 0.44369-0.19107 0.32580-0.32580
  -1   4   066662.31 1128.40   1 0.85695-0.94810 0.45168-0.19871 0.24820-0.24820
  -1   4   068623.73 1171.17   1 0.80120-0.89246 0.43219-0.17951 0.41385-0.41385
   1  -4   061105.74 1005.97   1 0.83512-0.74382 0.15886-0.41158 0.52662-0.52662
   1   4   069082.80 1178.88   1 0.79088-0.69959-0.14266 0.39550 0.59509-0.59509
   1  -4   179963.96 1288.34   1-0.70285 0.79990-0.22932-0.02343 0.67335-0.59966
  -1   4  -180839.00 1301.56   1-0.88422 0.78719-0.04820 0.30099 0.46457-0.53826
   1   4   176153.54 1269.38   1-0.86588 0.96283 0.40049-0.14787 0.29972-0.22602
  -1   4  -180443.55 1326.40   1 0.76005-0.85719 0.54930-0.29662 0.34724-0.42099
   1  -4   2184950.9 2727.56   1 0.92935-0.82631-0.02658-0.22622-0.36821 0.51577
  -1  -4  -2195754.2 2949.83   1-0.98223 0.87939 0.13173-0.38429 0.13364-0.28102
  -1   4  -2213771.5 3172.44   1 0.71107-0.81392 0.64415-0.39139 0.28184-0.42933
  -1   4  -3130154.8 3050.41   1 0.28365-0.39246 0.81313-0.56011 0.50828-0.72954
   1   4   3133653.2 3236.35   1 0.60382-0.49517-0.53230 0.78506 0.59333-0.37213
   1   4   5 6560.57  269.30   1 0.85022-0.72968-0.42817 0.68092 0.30623 0.06249
   1   4   5 6907.43  324.08   1-0.69477 0.81537-0.23546 0.48822 0.67958-0.31114
  -1   4  -5 7710.92  480.55   1 0.54288-0.66323 0.83342-0.58074 0.10336-0.47207
   1   4   5 6730.22  420.15   1 0.51147-0.39103-0.64616 0.89888 0.56644-0.19771
   1   4   623242.20  839.88   1 0.84280-0.71639-0.43385 0.68659 0.31851 0.12396
   1   4   625428.18  927.26   1-0.74729 0.87377-0.19339 0.44614 0.63572-0.19359
   1  -4   634237.57 1403.98   1-0.85686 0.98332-0.08352-0.16925 0.50872-0.06656
  -1  -4  -633741.06 1319.18   1-0.99766 0.87097-0.06714-0.18569 0.01245-0.45489
  -1   4  -622069.82  916.77   1 0.48398-0.61016 0.87367-0.62099 0.04955-0.49200
   1   4   625506.69 1029.67   1 0.48568-0.35939-0.67336 0.92607 0.55740-0.11492
   1   4   7 9764.24  451.95   1 0.82747-0.69518-0.44482 0.69756 0.34266 0.17355
   1   4   712378.01  604.65   1-0.76309 0.89544-0.17986 0.43264 0.62074-0.10488
   1  -4   7 9443.93  688.56   1-0.85384 0.98618-0.08716-0.16562 0.51317 0.00268
  -1   4  -711933.45 1434.71   1 0.42494-0.55698 0.90521-0.65257-0.00248-0.51372
   1   4   713685.66  764.85   1 0.47205-0.33992-0.68703 0.93975 0.55240-0.03617
   1   4   8 3403.91  395.77   1-0.76253 0.90076-0.18036 0.43314 0.62129-0.03173
   1  -4   8 6981.74  860.34   1-0.84702 0.98525-0.09519-0.15759 0.52295 0.06660
  -1   4  -8 3849.84  743.83   1 0.36448-0.50236 0.92974-0.67710-0.05221-0.53773
   1   4   8 3940.43  509.85   1 0.46888-0.33091-0.69014 0.94286 0.55121 0.03874
   1   4   931579.44 1577.17   1-0.75243 0.89656-0.18898 0.44173 0.63097 0.03222
   1  -4   932389.66 1797.74   1-0.83701 0.98112-0.10659-0.14618 0.53669 0.12655
  -1   4  -933931.36 1788.93   1 0.30313-0.44684 0.94764-0.69500-0.10039-0.56329
   1   4   931279.75 1618.25   1 0.47460-0.33078-0.68451 0.93723 0.55334 0.11036
   1  -4  10 7375.10 1675.67   1-0.82410 0.97410-0.12068-0.13209 0.55343 0.18351
  -1   4 -10 6473.72 1770.03   1 0.24134-0.39106 0.95914-0.70641-0.14761-0.58995
   1   4  10 7972.99  734.94   1 0.48786-0.33820-0.67112 0.92384 0.55819 0.17926
   1  -4  11 4916.35  944.62   1-0.80840 0.96429-0.13698-0.11579 0.57245 0.23818
   1   4  11 4103.84  804.40   1 0.92193-0.76728 0.34471-0.09174 0.17665 0.63471
  -1   4 -11 4005.93 1102.24   1 0.17767-0.33325 0.96488-0.71215-0.19344-0.61788
   1   5 -11 6472.87  938.39   1 0.90225-0.87602 0.02013 0.29588-0.43073-0.38082
  -1   5  11 6373.07  971.59   1 0.80350-0.83114 0.51805-0.20184 0.29324 0.51812
   1   5 -11 5036.59 1236.54   1 0.31737-0.29036 0.94407-0.62827-0.08940-0.72177
   1   5 -1025603.34 2003.32   1 0.91695-0.88481-0.00385 0.31987-0.39898-0.33879
  -1   5  1024893.61 1879.71   1 0.83410-0.86751 0.48180-0.16559 0.26857 0.46902
   1   5 -1021827.53 1593.74   1 0.39623-0.36338 0.91776-0.60196-0.02638-0.71104
   1  -5  -955462.45 2639.65   1 0.94313-0.90509-0.05583-0.26018-0.32768-0.33632
  -1   5   951349.12 2599.85   1 0.85959-0.89878 0.44801-0.13180 0.24573 0.41811
   1   5  -951918.66 2554.76   1 0.47165-0.43288 0.88093-0.56509 0.03865-0.70233
   1   5  -816976.17 1291.86   1 0.94006-0.89610-0.04883 0.36485-0.33749-0.25273
   1  -5  -819442.65 1251.65   1 0.96170-0.91783-0.10762-0.20840-0.25206-0.33786
  -1   5   816691.89 1214.70   1 0.88052-0.92548 0.41719-0.10098 0.22501 0.36507
   1   5  -819416.53 1330.14   1 0.54496-0.50037 0.83181-0.51596 0.10533-0.69527
  -1   5   816768.10 1083.13   1 0.72580-0.77008-0.32164 0.63769 0.60807-0.01777
   1   5  -7 5152.76  824.86   1 0.94874-0.89888-0.06956 0.38558-0.30828-0.20816
   1  -5  -7 2219.61  473.68   1 0.97260-0.92280-0.16822-0.14780-0.16040-0.35578
  -1   5   7 3700.56  630.42   1 0.89729-0.94802 0.39000-0.07378 0.20680 0.30951
   1   5  -7 4711.43  584.74   1 0.61452-0.56410 0.76953-0.45369 0.17369-0.68988
  -1   5   7 4747.34  575.83   1 0.73904-0.78920-0.29132 0.60737 0.60741-0.09090
   1   5  -637078.93 1473.52   1 0.95569-0.89991-0.08882 0.40484-0.28065-0.16201
   1  -5  -627460.31 1032.58   1 0.96957-0.91384-0.24092-0.07510-0.04338-0.39905
  -1   5   634523.65 1195.50   1 0.27774-0.33394-0.56516 0.88130 0.77681-0.33434
  -1   5   634270.01 1445.72   1 0.91015-0.96666 0.36727-0.05106 0.19165 0.25091
  -1   5   628636.30  993.04   1-0.04687-0.00926 0.93958-0.62365-0.33908 0.78164
   1   5  -635423.60 1369.01   1 0.67860-0.62234 0.69296-0.37702 0.24350-0.68595
  -1   5   634400.77 1219.37   1 0.75954-0.81557-0.23944 0.55549 0.60478-0.16206
   1   5  -522324.51 1096.36   1 0.96101-0.89933-0.10622 0.42224-0.25527-0.11361
   1  -5  -523522.68  878.46   1 0.93553-0.87384-0.33324 0.01723 0.11717-0.48590
  -1   5   519492.07  710.01   1 0.13275-0.19496-0.55359 0.86964 0.82213-0.45355
  -1   5   519969.98  907.40   1 0.91919-0.98147 0.35013-0.03391 0.18024 0.18855
   1   5  -519708.36  838.61   1 0.73589-0.67381 0.60024-0.28430 0.31330-0.68201
  -1   5   520834.88  802.59   1 0.78449-0.84640-0.16478 0.48083 0.59784-0.22891
   1   5  -417144.50 1656.80   1 0.96502-0.89744-0.12069 0.43672-0.23272-0.06223
   1  -5  -410928.62  402.93   1 0.82836-0.76071-0.44421 0.12828 0.34129-0.63628
  -1   5   414334.91  504.82   1-0.08770 0.01970-0.51277 0.82882 0.85403-0.55916
  -1  -5   410098.94  351.92   1-0.99536 0.92791-0.09600-0.22003-0.00598 0.30094
   1   5  -413423.90  444.23   1-0.11719 0.18494 0.83293-0.51680 0.54081-0.83588
  -1   5   415947.88  874.55   1 0.92425-0.99230 0.34005-0.02384 0.17356 0.12148
   1   5  -413865.89  614.45   1 0.78272-0.71495 0.49155-0.17570 0.38173-0.67673
  -1   5   414415.67  592.53   1 0.80960-0.87722-0.06825 0.38419 0.58298-0.28788
   1  -5  -411563.93  454.43   1 0.44434-0.37652-0.71346 0.39756 0.54177-0.83676
   1   5  -3299603.0 7084.59   1 0.96748-0.89397-0.13205 0.44808-0.21572-0.00550
   1  -5  -3318531.4 7381.18   1 0.56485-0.49103-0.54555 0.22943 0.61911-0.84038
  -1   5   3303227.1 7028.93   1-0.36332 0.28967-0.42200 0.73806 0.83060-0.60938
  -1  -5   3313137.6 7286.51   1-0.99539 0.92202 0.04598-0.36202 0.08405 0.13716
   1   5  -3302451.7 7021.16   1-0.52929 0.60272 0.70119-0.38517 0.47768-0.69883
  -1   5   3320238.2 7583.83   1 0.92473-0.99856 0.33906-0.02284 0.17290 0.04837
   1   5  -3317946.1 7478.49   1 0.81649-0.74290 0.36636-0.05046 0.44621-0.66749
  -1   5   3307972.6 7194.85   1 0.82803-0.90156 0.04527 0.27065 0.55884-0.33751
   1  -5  -3315867.5 7360.52   1 0.61406-0.54032-0.51776 0.20181 0.59569-0.81689
   1   5  -2161974.7 3900.86   1 0.96856-0.88912-0.13772 0.45375-0.20716 0.05968
  -1  -5   2145909.5 3491.98   1 0.91963-0.99902-0.35754 0.04153 0.16260-0.01511
   1  -5  -2158521.8 3706.33   1 0.13054-0.05096-0.55332 0.23728 0.82267-0.97010
  -1   5   2156738.8 3670.93   1-0.61002 0.53062-0.29418 0.61012 0.73574-0.58837
  -1  -5   2161635.6 3850.50   1-0.98870 0.90946 0.09863-0.41434 0.11284 0.03453
   1   5  -2153405.9 3620.02   1-0.71623 0.79556 0.57004-0.25409 0.40256-0.55000
   1  -5  -2163779.2 3874.61   1 0.73478-0.65524-0.30132-0.01472 0.60770-0.75527
   1   5  -134503.55  738.72   1 0.96770-0.88234-0.13318 0.44921-0.21402 0.14028
  -1  -5   132151.55  626.81   1 0.90501-0.99029-0.37589 0.05996 0.19914-0.12539
   1  -5  -133649.89  640.05   1-0.28570 0.37104-0.45241 0.13635 0.84480-0.91854
  -1   5   133324.41  612.76   1-0.77086 0.68560-0.17289 0.48887 0.61308-0.53938
  -1  -5   133022.64 1097.42   1-0.98534 0.90021 0.11680-0.43250 0.12427-0.05058
   1   5  -132758.44 1238.31   1-0.80825 0.89346 0.47673-0.16094 0.34560-0.41931
  -1   5   135380.41  976.97   1 0.82835-0.91375 0.29014 0.02574 0.47921-0.40545
   1  -5  -130933.00  859.18   1 0.80277-0.71739-0.09851-0.21741 0.58809-0.66186
   1   5   022111.83  459.28   1 0.96102-0.86979-0.10623 0.42226-0.25524 0.25524
   1  -5   017745.45  441.23   1-0.55069 0.64189-0.33007 0.01401 0.76666-0.76666
  -1   5   022489.13  494.08   1-0.86182 0.77068-0.07745 0.39343 0.50125-0.50125
  -1   5   021744.08  503.71   1-0.99316 0.90201-0.11527 0.43131-0.01833 0.01833
  -1  -5   017193.37  531.39   1-0.98602 0.89498 0.11335-0.42905 0.12210-0.12210
   1   5   022288.44  543.35   1-0.85423 0.94530 0.41739-0.10160 0.30994-0.30994
  -1   5   022969.68  584.96   1 0.87620-0.96735 0.42381-0.10759 0.22945-0.22945
   1   5   022173.78  615.73   1 0.81069-0.71940-0.06309 0.37903 0.58206-0.58206
   1  -5   1231089.2 5423.79   1 0.91261-0.81547 0.00351-0.31953-0.40881 0.48258
   1   5   1252576.5 5846.91   1 0.92061-0.82347-0.01028 0.32630-0.39034 0.46411
  -1  -5  -1234304.1 5423.24   1 0.69012-0.78719-0.51270 0.19667 0.51073-0.58450
   1  -5   1237775.2 5589.88   1-0.69403 0.79108-0.23603-0.07990 0.68015-0.60646
  -1  -5  -1225815.9 5358.76   1-0.98909 0.89215 0.09636-0.41206 0.11141-0.18510
  -1   5  -1254236.3 5964.93   1 0.82058-0.91750 0.49834-0.18213 0.27981-0.35357
  -1   5  -1246701.0 5824.97   1 0.77698-0.87411 0.50742-0.19157 0.37259-0.44634
   1   5   1240426.8 5673.63   1 0.77440-0.67723-0.19689 0.51293 0.60127-0.52748
   1  -5   2 5693.33  360.88   1-0.77008 0.87300-0.17360-0.14237 0.61386-0.46647
  -1  -5  -2 5797.32  942.94   1-0.99280 0.88980 0.06852-0.38456 0.09819-0.24566
  -1   5  -2 9110.38  364.40   1 0.71221-0.81501 0.60599-0.28977 0.35427-0.50178
  -1   5  -2 7990.93  450.74   1 0.73774-0.84059 0.59669-0.28074 0.31573-0.46322
   1  -5   3148461.3 3637.42   1-0.81074 0.91954-0.13461-0.18136 0.56971-0.34862
  -1   5  -3120323.5 2841.34   1-0.99585 0.88693-0.09091 0.40695-0.00273-0.21848
  -1  -5  -3147345.4 3602.84   1-0.99639 0.88747 0.03513-0.35116 0.07723-0.29845
  -1   5  -3125062.0 2953.26   1 0.49725-0.60598 0.74098-0.42470 0.45131-0.67261
  -1   5  -3129571.1 3198.95   1 0.69212-0.80080 0.67364-0.35770 0.25914-0.48037
   1   5   3122415.9 3011.17   1 0.68309-0.57444-0.40590 0.72185 0.60714-0.38594
  -1   5  -4121382.3 3574.49   1-0.99791 0.88306 0.01290 0.30313 0.06323-0.35818
  -1  -5  -4146396.0 4484.33   1-0.99858 0.88373-0.00318-0.31285 0.05307-0.34802
  -1   5  -4129349.6 3804.93   1 0.06341-0.17811 0.84103-0.52491 0.53724-0.83231
  -1   5  -4127731.6 3905.65   1 0.64223-0.75673 0.73903-0.42309 0.20336-0.49833
   1   5   4126912.1 3864.65   1 0.64106-0.52658-0.47709 0.79304 0.60117-0.30624
   1   5   534090.08 1131.91   1 0.54873-0.42860-0.54851 0.86463 0.63089-0.26211
   1   5   533973.19 1131.00   1-0.41488 0.53531-0.39951 0.71557 0.81747-0.44876
   1  -5   548747.07 1874.05   1-0.84258 0.96315-0.10030-0.21567 0.52913-0.16066
  -1   5  -534013.60 1351.92   1 0.58952-0.70987 0.79399-0.47814 0.14844-0.51716
   1   5   536645.94 1380.01   1 0.60675-0.48645-0.52819 0.84414 0.59402-0.22535
   1   5   649241.01 1615.31   1 0.66678-0.54034-0.52050 0.83654 0.53336-0.09072
   1   5   651413.12 1692.48   1-0.60750 0.73398-0.29578 0.61172 0.73718-0.29505
   1  -5   648144.57 1831.18   1-0.84570 0.97216-0.09672-0.21925 0.52481-0.08264
  -1  -5  -652402.83 1912.41   1-0.99589 0.86920-0.09045-0.22558-0.00243-0.43999
  -1   5  -650786.12 1833.39   1 0.53425-0.66043 0.83993-0.52409 0.09528-0.53773
   1   5   655400.68 1952.31   1 0.58169-0.45557-0.56230 0.87825 0.58774-0.14534
   1  -5   7123265.1 6252.83   1-0.84375 0.97609-0.09896-0.21701 0.52752-0.01166
  -1   5  -796213.21 4830.38   1 0.47711-0.60911 0.87776-0.56192 0.04346-0.55966
   1   5   7112914.9 5636.92   1 0.56605-0.43411-0.58239 0.89834 0.58344-0.06730
   1   5   863331.75 3800.82   1-0.68591 0.82416-0.24209 0.55803 0.68623-0.09672
   1  -5   862098.54 3924.43   1-0.83789 0.97612-0.10560-0.21037 0.53551 0.05404
  -1   5  -864925.83 4025.34   1 0.41897-0.55685 0.90796-0.59216-0.00749-0.58245
   1   5   865280.99 3980.53   1 0.55897-0.42100-0.59111 0.90701 0.58148 0.00848
   1  -5   9 7352.86 1097.13   1-0.82876 0.97287-0.11568-0.20029 0.54751 0.11573
  -1   5  -9 6366.24 1133.53   1 0.35867-0.50239 0.93172-0.61592-0.05686-0.60682
   1   5   9 6846.10  936.10   1 0.56021-0.41639-0.58958 0.90548 0.58184 0.08187
   1  -5  10 7358.83 1009.61   1-0.81667 0.96667-0.12850-0.18747 0.56260 0.17433
  -1   5 -10 3259.18  963.56   1 0.29681-0.44636 0.94911-0.63331-0.10524-0.63219
   1   5  10 5506.83  961.56   1 0.56889-0.41948-0.57880 0.89475 0.58424 0.15308
   1  -5  11 5733.08  891.81   1-0.80179 0.95767-0.14361-0.17236 0.58009 0.23054
   1   5  11 4163.69  829.68   1 0.92436-0.76970 0.33982-0.02361 0.17341 0.63795
  -1  -6  11 2840.92  893.34   1-0.89300 0.86660-0.03574-0.34342 0.44861 0.36201
  -1   6  11 3932.34 1117.02   1 0.81338-0.84102 0.50681-0.12735 0.28557 0.52579
   1   6 -11 3323.99 1156.05   1 0.36891-0.34190 0.92818-0.54922-0.04864-0.76253
  -1   6  1018435.92 1576.91   1 0.84144-0.87485 0.47244-0.09299 0.26223 0.47537
   1   6 -1013585.37 2337.78   1 0.44368-0.41083 0.89608-0.51712 0.01343-0.75086
   1   6  -9 9818.34 1239.40   1 0.91936-0.88132-0.00807 0.38729-0.39331-0.27068
  -1   6   9 8412.61 1108.26   1 0.86482-0.90401 0.44059-0.06114 0.24073 0.42311
   1   6  -9 9924.04 1227.33   1 0.51412-0.47535 0.85428-0.47526 0.07669-0.74037
   1  -6  -836919.60 1937.90   1 0.95128-0.90732-0.07625-0.30297-0.29874-0.29147
   1   6  -836133.38 2089.33   1 0.92981-0.88586-0.02748 0.40670-0.36699-0.22323
  -1   6   837732.65 2184.68   1 0.88401-0.92897 0.41173-0.03228 0.22135 0.36873
   1   6  -840732.26 2242.45   1 0.58140-0.53680 0.80140-0.42239 0.14041-0.73035
  -1   6   836850.58 1954.27   1 0.77564-0.81992-0.19311 0.57237 0.60090-0.01061
   1   6  -756743.82 3181.28   1 0.93843-0.88857-0.04524 0.42447-0.34248-0.17396
   1  -6  -758513.72 3143.18   1 0.96902-0.91922-0.14034-0.23889-0.20320-0.31298
  -1   6   756161.83 3202.11   1 0.89935-0.95009 0.38646-0.00700 0.20444 0.31188
   1   6  -755854.30 3091.28   1 0.64354-0.59310 0.73751-0.35838 0.20476-0.72096
  -1   6   756609.09 3069.95   1 0.78411-0.83427-0.16603 0.54529 0.59798-0.08148
   1   6  -6 4543.06  846.34   1 0.94530-0.88953-0.06098 0.44021-0.32043-0.12223
   1  -6  -6 2908.48  532.30   1 0.97216-0.91643-0.22215-0.15707-0.07438-0.36805
  -1   6   6 2717.91  476.41   1 0.91109-0.96760 0.36553 0.01392 0.19049 0.25207
   1   6  -6 3132.40  369.30   1 0.70015-0.64389 0.66153-0.28239 0.26863-0.71109
  -1   6   6 3497.26  372.74   1 0.79662-0.85265-0.12138 0.50064 0.59216-0.14944
   1   6  -564204.79 2331.45   1 0.95048-0.88880-0.07411 0.45334-0.30179-0.06709
   1  -6  -567163.99 2218.84   1 0.93710-0.87541-0.33052-0.04868 0.11217-0.48090
  -1   6   558644.78 1918.09   1-0.18365 0.12170-0.48647 0.86574 0.85417-0.48545
   1   6  -557552.26 1834.26   1 0.35633-0.29430 0.79419-0.41465 0.49222-0.86107
   1   6  -560458.44 1927.48   1 0.75177-0.68948 0.57109-0.19164 0.32967-0.69848
  -1   6   561567.01 2291.51   1 0.91930-0.98158 0.34990 0.02954 0.18010 0.18870
   1   6  -560834.20 2150.31   1 0.74876-0.68686 0.57406-0.19504 0.33136-0.70012
  -1   6   559591.90 2029.28   1 0.81140-0.87309-0.05965 0.43877 0.58143-0.21255
   1   6  -458028.69 2142.55   1 0.95395-0.88636-0.08370 0.46293-0.28803-0.00707
   1  -6  -455798.61 1853.72   1 0.80439-0.73673-0.45966 0.08055 0.37637-0.67136
  -1   6   454627.93 1817.66   1-0.41484 0.34705-0.39952 0.77880 0.81748-0.52251
   1   6  -452782.83 1755.15   1-0.35927 0.42701 0.77686-0.39759 0.51710-0.81214
  -1   6   456355.05 2068.48   1 0.92385-0.99190 0.34086 0.03859 0.17409 0.12094
   1   6  -458000.70 2069.58   1 0.78863-0.72087 0.47409-0.09507 0.39151-0.68651
  -1   6   456575.21 1974.03   1 0.82455-0.89216 0.01729 0.36182 0.56552-0.27042
   1   6  -316688.95 1408.94   1 0.95548-0.88198-0.08819 0.46741-0.28156 0.06023
   1  -6  -315115.02  518.80   1 0.48979-0.41597-0.55719 0.17784 0.67054-0.89181
  -1   6   312953.67  455.79   1-0.62620 0.55269-0.28371 0.66284 0.72620-0.50514
  -1  -6   314318.62  515.52   1-0.99818 0.92481-0.05711-0.32212 0.01884 0.20237
   1   6  -312831.67  470.42   1-0.62564 0.69908 0.64139-0.26226 0.44405-0.66521
  -1   6   312947.23  687.90   1 0.92425-0.99808 0.34004 0.03940 0.17355 0.04772
   1   6  -312825.72  641.06   1 0.81699-0.74340 0.36380 0.01526 0.44739-0.66867
  -1   6   313368.02  554.92   1 0.83322-0.90675 0.10610 0.27301 0.54266-0.32133
   1   6  -214403.03  556.46   1 0.95429-0.87489-0.08470 0.46393-0.28659 0.13904
   1  -6  -214228.64  439.48   1 0.05200 0.02758-0.54182 0.16257 0.83887-0.98631
  -1   6   213056.42  411.61   1-0.77054 0.69116-0.17319 0.55237 0.61340-0.46602
  -1  -6   215666.05 1114.78   1-0.99830 0.91900 0.00474-0.38398 0.05807 0.08940
   1   6  -213289.74  459.09   1-0.75597 0.83530 0.53267-0.15354 0.38046-0.52790
  -1   6   212249.95  553.85   1 0.91942-0.99903 0.34967 0.02978 0.17994-0.03242
  -1   6   214656.56  558.68   1 0.83470-0.91420 0.20230 0.17676 0.51219-0.36467
   1   6  -1186753.4 4428.37   1 0.94791-0.86259-0.06743 0.44666-0.31130 0.23752
  -1  -6   1146860.4 3499.39   1 0.90753-0.99281-0.37287-0.00623 0.19325-0.11950
   1  -6  -1151185.9 3573.28   1-0.31634 0.40168-0.44090 0.06163 0.83995-0.91370
  -1   6   1176638.5 4155.37   1-0.85539 0.77014-0.08529 0.46447 0.51089-0.43720
  -1  -6   1147228.2 3753.93   1-0.99662 0.91140 0.03226-0.41150 0.07542-0.00168
  -1   6   1177817.7 4277.89   1 0.90719-0.99257 0.37266 0.00679 0.19524-0.12147
  -1   6   1185406.5 4432.54   1 0.82713-0.91253 0.30023 0.07884 0.47509-0.40133
   1   6  -1183732.9 4429.93   1 0.83408-0.74871 0.12316 0.25595 0.53771-0.61148
   1  -6   016080.23  508.97   1 0.90430-0.81307 0.01695-0.39617-0.42655 0.42655
  -1  -6   015574.32  478.38   1 0.87173-0.96288-0.41012 0.03100 0.26811-0.26811
   1  -6   015771.62  553.23   1-0.54708 0.63827-0.33213-0.04713 0.76836-0.76836
  -1  -6   018919.66 1493.00   1-0.99607 0.90492 0.03882-0.41806 0.07955-0.07955
  -1  -6  -1 6015.71  214.89   1 0.75112-0.84819-0.48795 0.10870 0.44464-0.51841
   1  -6   1 6280.29  316.47   1-0.67773 0.77478-0.24810-0.13102 0.69218-0.61850
  -1  -6  -1 6245.38  248.10   1-0.84882 0.75179-0.09309-0.28607 0.52041-0.59410
  -1   6  -1 4517.07  302.34   1-0.99874 0.90166-0.04073 0.41998 0.02926-0.10300
  -1  -6  -1 7486.27  905.45   1-0.99670 0.89962 0.03134-0.41059 0.07485-0.14859
  -1   6  -1 3338.31  263.11   1 0.83945-0.93637 0.47500-0.09555 0.26397-0.33773
  -1   6  -1 3897.78  354.29   1 0.78490-0.88203 0.48525-0.10623 0.38529-0.45904
   1   6   1 3783.92  345.32   1 0.79979-0.70258-0.11068 0.48980 0.58998-0.51620
   1  -6   2117022.3 2894.39   1-0.75095 0.85388-0.19026-0.18886 0.63235-0.48497
  -1  -6  -2111382.0 2789.01   1-0.99786 0.89486 0.01388-0.39313 0.06385-0.21133
  -1   6  -297470.93 2363.56   1-0.99891 0.89591-0.02332 0.40257 0.04031-0.18779
  -1   6  -2111075.4 2693.77   1 0.75873-0.86152 0.56432-0.18485 0.32534-0.47286
  -1   6  -2105910.8 2658.55   1 0.75196-0.85497 0.56725-0.18823 0.33580-0.48330
   1   6   2106856.3 2716.11   1 0.76958-0.66654-0.21123 0.59049 0.60258-0.45501
   1  -6   3109258.0 3367.39   1-0.79245 0.90125-0.15273-0.22643 0.59050-0.36941
  -1   6  -3105134.4 3173.76   1-0.99720 0.88828 0.02454 0.35470 0.07056-0.29178
  -1  -6  -3110154.7 3412.52   1-0.99878 0.88985-0.01099-0.36824 0.04812-0.26934
  -1   6  -3111373.7 3323.38   1 0.60787-0.71646 0.68142-0.30195 0.40761-0.62888
  -1   6  -3113423.5 3505.89   1 0.71340-0.82207 0.64031-0.26117 0.28470-0.50593
   1   6   3114951.4 3539.15   1 0.73690-0.62798-0.29638 0.67563 0.60756-0.38620
   1  -6   424176.60 1102.75   1-0.81551 0.93020-0.12970-0.24946 0.56400-0.26922
  -1  -6  -427615.39 1182.25   1-0.99872 0.88387-0.04160-0.33764 0.02871-0.32367
  -1   6  -422476.59 1079.18   1-0.98392 0.86929 0.12381 0.25502 0.12867-0.42343
  -1   6  -424014.40  851.75   1 0.31110-0.42577 0.80652-0.42699 0.50271-0.79773
   1   6   423605.97 1025.05   1 0.70533-0.59054-0.36470 0.74395 0.60785-0.31271
   1  -6   594575.50 3239.73   1-0.82740 0.94797-0.11714-0.26202 0.54925-0.18077
  -1  -6  -589784.07 3063.23   1-0.99703 0.87626-0.07673-0.30251 0.00633-0.37503
  -1   6  -5108547.1 3455.19   1-0.85288 0.73245 0.41929-0.04035 0.31109-0.67961
  -1   6  -5107757.1 3426.68   1-0.35842 0.23789 0.77716-0.39788 0.51725-0.88605
  -1   6  -5107940.5 3631.89   1 0.62165-0.74197 0.76193-0.38279 0.18167-0.55039
   1   6   5110153.6 3679.44   1 0.67711-0.55681-0.41671 0.79585 0.60651-0.23784
   1  -6   649423.68 1995.66   1-0.83192 0.95837-0.11223-0.26694 0.54342-0.10125
  -1  -6  -651038.00 2059.27   1-0.99313 0.86643-0.11551-0.26373-0.01849-0.42394
  -1   6  -658728.05 2316.80   1 0.57084-0.69702 0.81068-0.43166 0.13010-0.57255
   1   6   661484.65 2373.80   1 0.65554-0.52942-0.45375 0.83289 0.60362-0.16122
   1  -6   7 3765.99  749.20   1-0.83117 0.96351-0.11305-0.26612 0.54439-0.02853
  -1   6  -7  690.70  286.42   1 0.51708-0.64908 0.85224-0.47323 0.07940-0.59560
   1   6   7 1286.41  456.33   1 0.64080-0.50886-0.47750 0.85663 0.60113-0.08499
   1  -6   8 7964.37 1167.47   1-0.82635 0.96458-0.11828-0.26089 0.55059 0.03896
  -1   6  -8 8359.16 1121.45   1 0.46095-0.59878 0.88693-0.50792 0.02931-0.61924
   1   6   8 7283.76  941.94   1 0.63304-0.49528-0.48953 0.86867 0.59967-0.00980
   1  -6   926343.25 2035.54   1-0.81813 0.96224-0.12699-0.25218 0.56083 0.10241
  -1   6  -921808.15 2101.16   1 0.40329-0.54701 0.91483-0.53587-0.02056-0.64313
   1   6   926048.47 1932.52   1 0.63202-0.48844-0.49109 0.87023 0.59947 0.06412
   1  -6  10 7082.42 1036.93   1-0.80688 0.95687-0.13853-0.24064 0.57424 0.16270
  -1   6 -10 2048.45  559.33   1 0.34293-0.49248 0.93679-0.55782-0.06938-0.66804
   1   6  10 1873.80  391.52   1 0.63730-0.48790-0.48296 0.86210 0.60048 0.13684
   1  -6  11 2117.84  929.08   1-0.79278 0.94866-0.15242-0.22675 0.59014 0.22049
   1   6  11  767.91  371.31   1 0.92406-0.76941 0.34042 0.03902 0.17380 0.63756
  -1   6 -11  736.20  403.34   1 0.28046-0.43584 0.95262-0.57366-0.11767-0.69350
  -1   7  10 8193.92 1163.83   1 0.84452-0.87793 0.46843-0.02573 0.25952 0.47808
   1   7 -10 8107.92 1108.79   1 0.47892-0.44598 0.87669-0.43451 0.04506-0.78249
   1   7  -910134.20  938.79   1 0.90727-0.86923 0.01223 0.43019-0.42035-0.24364
  -1   7   9 9627.86 1037.51   1 0.86623-0.90542 0.43856 0.00413 0.23936 0.42448
   1   7  -911479.74  949.49   1 0.54527-0.50650 0.83157-0.38939 0.10561-0.76930
   1   7  -8 1279.94  436.22   1 0.91746-0.87350-0.00473 0.44716-0.39779-0.19242
  -1   7   8 1012.75  446.31   1 0.88404-0.92900 0.41168 0.03100 0.22131 0.36876
   1   7  -8 1264.87  439.74   1 0.60701-0.56242 0.77715-0.33497 0.16602-0.75595
  -1   7   8  870.19  285.97   1 0.80604-0.84997-0.08449 0.52680 0.58579 0.00440
   1   7  -719836.93 1425.95   1 0.92574-0.87588-0.01968 0.46211-0.37762-0.13882
  -1   7   720138.50 1547.77   1 0.89824-0.94898 0.38836 0.05432 0.20571 0.31060
   1   7  -719315.37 1361.31   1 0.66314-0.61270 0.71352-0.27120 0.22612-0.74232
  -1   7   720801.95 1375.05   1 0.81077-0.86063-0.06267 0.50498 0.58198-0.06556
   1   7  -664025.94 3346.18   1 0.93216-0.87638-0.03213 0.47456-0.36061-0.08205
   1  -7  -653477.05 2646.72   1 0.97324-0.91751-0.17760-0.26483-0.14575-0.29668
  -1   7   654405.70 2920.45   1 0.90905-0.96556 0.36928 0.07341 0.19298 0.24957
   1   7  -659032.43 3041.76   1 0.71348-0.65722 0.64017-0.19785 0.28480-0.72726
  -1   7   654524.82 2765.84   1 0.81777-0.87355-0.02610 0.46840 0.57494-0.13229
   1   7  -5 -129.82   54.33   1 0.82409-0.76180 0.49413-0.05143 0.27695-0.64575
   1   7  -426110.19 1074.22   1 0.93886-0.87127-0.04619 0.48862-0.34116 0.04605
   1  -7  -427383.98  921.03   1 0.79000-0.72232-0.46806 0.02561 0.39599-0.69108
  -1   7   422517.20  776.67   1-0.69706 0.62943-0.23374 0.67605 0.67783-0.38308
   1   7  -421771.48  769.46   1-0.48226 0.54978 0.72548-0.28306 0.49101-0.78588
  -1   7   422325.02  987.74   1 0.92055-0.98860 0.34746 0.09523 0.17847 0.11656
   1   7  -424296.36 1084.78   1 0.79086-0.72309 0.46720-0.02501 0.39529-0.69029
  -1   7   424404.96  982.04   1 0.83188-0.89949 0.08616 0.35613 0.54821-0.25311
   1   7  -376501.08 2649.71   1 0.93823-0.86473-0.04481 0.48724-0.34308 0.12175
   1  -7  -394379.53 3099.01   1 0.43278-0.35895-0.56269 0.12012 0.70432-0.92559
  -1   7   374140.57 2450.35   1-0.80694 0.73345-0.13846 0.58083 0.57416-0.35308
   1   7  -368861.71 2309.53   1-0.67312 0.74655 0.60613-0.16381 0.42368-0.64484
  -1   7   381213.90 2923.75   1 0.92067-0.99450 0.34721 0.09547 0.17831 0.04296
   1   7  -376442.79 2667.35   1 0.81608-0.74244 0.36916 0.07302 0.44466-0.66591
  -1   7   377710.92 2665.42   1 0.83511-0.90871 0.15794 0.28430 0.52691-0.30563
   1   7  -227052.24  976.07   1 0.93306-0.85365-0.03395 0.47638-0.35811 0.21055
  -1   7   225909.79  838.50   1-0.87125 0.79188-0.06553 0.50790 0.48643-0.33904
  -1  -7   236335.82 1212.92   1-0.99744 0.91814-0.07075-0.37169 0.01014 0.13732
  -1   7   224837.38 1082.43   1 0.91598-0.99558 0.35634 0.08635 0.18438-0.03685
  -1   7   225390.79  968.98   1 0.83316-0.91266 0.23578 0.20647 0.50024-0.35272
   1   7  -225101.01  974.10   1 0.83080-0.75130 0.26651 0.17573 0.48860-0.63612
   1  -7  -126689.36  875.96   1 0.90918-0.82387 0.00915-0.45157-0.41628 0.34250
   1   7  -125708.67  903.66   1 0.91896-0.83364-0.00736 0.44979-0.39427 0.32049
   1  -7  -128859.32  958.76   1-0.32412 0.40946-0.43788-0.00459 0.83857-0.91231
  -1  -7   129646.09 1087.37   1-0.99879 0.91357-0.03802-0.40442 0.03098 0.04275
  -1   7   125360.62 1003.72   1 0.90468-0.99005 0.37716 0.06553 0.19824-0.12448
  -1   7   128253.93 1053.74   1 0.82491-0.91031 0.31673 0.12552 0.46818-0.39442
   1   7  -129954.09 1164.42   1 0.83515-0.74974 0.16192 0.28033 0.52564-0.59940
   1  -7   073081.67 2235.70   1 0.93495-0.84372-0.03783-0.40458-0.35275 0.35275
  -1  -7   078361.28 2365.10   1 0.87165-0.96281-0.41018-0.03210 0.26825-0.26825
   1  -7   080776.62 2475.33   1-0.53243 0.62362-0.34036-0.10211 0.77502-0.77502
  -1  -7   081104.64 2456.05   1-0.88406 0.79291-0.04842-0.39394 0.46485-0.46485
  -1  -7   084382.43 2661.29   1-0.99891 0.90776-0.02483-0.41762 0.03936-0.03936
  -1   7   078818.92 2490.06   1 0.88344-0.97459 0.41262 0.03006 0.22194-0.22194
  -1   7   080870.07 2547.84   1 0.80993-0.90119 0.39767 0.04451 0.43112-0.43112
   1   7   081633.68 2572.18   1 0.82953-0.73823 0.05936 0.38294 0.55529-0.55529
  -1  -7  -173593.31 2194.16   1 0.77286-0.86992-0.47729 0.03484 0.41817-0.49194
   1  -7   174401.00 2310.77   1-0.65552 0.75257-0.26389-0.17841 0.70756-0.63387
  -1  -7  -174162.00 2214.44   1-0.77446 0.67743-0.16962-0.27274 0.60945-0.68314
  -1  -7  -177023.14 2469.99   1-0.99891 0.90184-0.02536-0.41708 0.03902-0.11276
  -1   7  -170272.02 2211.47   1 0.84610-0.94302 0.46635-0.02365 0.25811-0.33187
  -1   7  -169330.13 2214.17   1 0.78797-0.88510 0.47611-0.03392 0.39039-0.46414
   1   7   167234.60 2178.04   1 0.81571-0.71849-0.03756 0.47987 0.57723-0.50346
   1  -7   230674.76 1091.25   1-0.72788 0.83082-0.20954-0.23277 0.65289-0.50551
  -1  -7  -232733.38 1205.39   1-0.99883 0.89583-0.03603-0.40642 0.03225-0.17973
  -1   7  -226910.90  959.94   1 0.78062-0.88341 0.54251-0.09979 0.31032-0.45783
  -1   7  -224440.61  979.85   1 0.75963-0.86263 0.55027-0.10808 0.34663-0.49413
   1   7   227630.96 1068.33   1 0.79602-0.69289-0.12535 0.56765 0.59214-0.44459
   1  -7   324347.67 1026.86   1-0.77080 0.87960-0.17295-0.26941 0.61314-0.39206
  -1  -7  -324927.61 1121.77   1-0.99830 0.88938-0.05444-0.38800 0.02054-0.24176
  -1   7  -327438.49 1044.91   1-0.98754 0.87880 0.10520 0.33677 0.11697-0.33804
  -1   7  -329879.48 1088.09   1 0.66466-0.77325 0.64309-0.20037 0.38032-0.60159
  -1   7  -328061.85 1138.02   1 0.72602-0.83470 0.61852-0.17620 0.30052-0.52175
   1   7   330473.75 1219.77   1 0.77295-0.66403-0.20128 0.64374 0.60169-0.38032
   1  -7   448432.08 1837.00   1-0.79577 0.91045-0.14952-0.29284 0.58684-0.29206
  -1  -7  -447648.86 1763.88   1-0.99686 0.88201-0.07896-0.36348 0.00490-0.29986
  -1   7  -448934.97 1791.49   1-0.96267 0.84803 0.20348 0.23850 0.17847-0.47323
  -1   7  -457877.81 1918.18   1 0.44876-0.56332 0.76188-0.31909 0.46705-0.76212
  -1   7  -459129.33 2145.35   1 0.68705-0.80155 0.68105-0.23873 0.25322-0.54819
   1   7   457082.87 2061.02   1 0.74999-0.63520-0.26443 0.70690 0.60627-0.31113
  -1   7  -5  -99.17   48.74   1-0.00232-0.11824 0.84128-0.39870 0.54059-0.90942
   1  -7   636879.62 2186.89   1-0.81555 0.94201-0.12967-0.31269 0.56396-0.12179
  -1   7  -634033.62 1986.17   1 0.59706-0.72323 0.78688-0.34470 0.15596-0.59842
   1   7   633391.63 1928.27   1 0.71195-0.58540-0.35123 0.79369 0.60807-0.16535
  -1   7  -731369.74 1823.75   1 0.54683-0.67883 0.83036-0.38817 0.10709-0.62329
   1   7   733834.35 1922.82   1 0.69875-0.56681-0.37633 0.81866 0.60836-0.09223
   1  -7   823334.94 2046.23   1-0.81242 0.95065-0.13289-0.30947 0.56771 0.02184
  -1   7  -816998.69 1489.68   1 0.49371-0.63153 0.86767-0.42549 0.05822-0.64816
   1   7   815611.21 1380.48   1 0.69158-0.55382-0.39010 0.83243 0.60788-0.01801
   1  -7   9 5872.34 1368.98   1-0.80517 0.94928-0.14024-0.30212 0.57621 0.08703
  -1   7  -9 5456.80 1558.86   1 0.43852-0.58224 0.89867-0.45654 0.00903-0.67272
   1   7   9 7184.71 1604.25   1 0.68982-0.54624-0.39343 0.83576 0.60774 0.05585
   1  -7  10 7054.41 1051.64   1-0.79477 0.94477-0.15048-0.29188 0.58794 0.14899
  -1   7 -10 9944.51 1942.88   1 0.38020-0.52975 0.92405-0.48193-0.03950-0.69792
  -1  -8  10 3508.26 1119.95   1-0.88187 0.84958-0.05143-0.45413 0.46867 0.26827
  -1   8  10 3878.74 1136.22   1 0.84424-0.87766 0.46879 0.03714 0.25976 0.47784
   1   8 -10 2829.34  790.70   1 0.50590-0.47296 0.85980-0.35445 0.06921-0.80663
  -1  -8   9  877.53  585.84   1-0.89364 0.85546-0.03482-0.47074 0.44742 0.21582
  -1   8   9 1328.35  493.77   1 0.86463-0.90382 0.44086 0.06507 0.24091 0.42292
   1   8  -9  364.95  340.11   1 0.56774-0.52898 0.81333-0.30798 0.12709-0.79077
   1   8  -830320.28 2300.06   1 0.90281-0.85886 0.01926 0.48636-0.42959-0.16062
  -1   8   828148.87 2201.29   1 0.88132-0.92628 0.41594 0.08999 0.22417 0.36591
   1   8  -829561.52 2216.61   1 0.62429-0.57968 0.75910-0.25359 0.18443-0.77437
   1   8  -739527.14 2148.87   1 0.91051-0.86065 0.00698 0.49865-0.41340-0.10303
  -1   8   737296.91 2087.37   1 0.89459-0.94533 0.39453 0.11140 0.20984 0.30648
   1   8  -739284.62 2026.52   1 0.67580-0.62536 0.69680-0.19129 0.24031-0.75651
  -1   8   737555.12 1879.46   1 0.82549-0.87534 0.02433 0.48116 0.56388-0.04746
   1   8  -6  535.57  384.85   1 0.91610-0.86033-0.00239 0.50802-0.40093-0.04173
  -1   8   6 1720.17  653.89   1 0.90462-0.96113 0.37726 0.12867 0.19830 0.24425
   1   8  -6  809.04  441.83   1 0.72123-0.66497 0.62698-0.12147 0.29446-0.73691
  -1   8   6   72.21  213.20   1 0.82893-0.88470 0.05353 0.45195 0.55677-0.11412
   1   8  -514738.20 1579.74   1 0.91933-0.85765-0.00801 0.51364-0.39340 0.02451
   1  -8  -5 9242.93  920.53   1 0.96940-0.90771-0.24175-0.26385-0.04249-0.32623
   1   8  -513730.32 1377.74   1 0.82912-0.76683 0.48800 0.01793 0.27278-0.64158
  -1   8   515988.79 1756.54   1 0.91144-0.97373 0.36488 0.14105 0.19005 0.17874
   1   8  -515346.03 1676.17   1 0.75943-0.69753 0.55072-0.04536 0.34635-0.71510
  -1   8   515435.93 1618.92   1 0.83247-0.89416 0.09427 0.41121 0.54598-0.17710
   1   8  -444596.01 1799.80   1 0.91967-0.85208-0.00861 0.51424-0.39259 0.09747
   1   8  -437342.13 1382.52   1-0.54616 0.61368 0.69174-0.18612 0.47243-0.76729
  -1   8   440458.57 1703.60   1 0.91493-0.98298 0.35834 0.14759 0.18571 0.10933
   1   8  -444581.16 1790.24   1 0.79065-0.72288 0.46784 0.03751 0.39494-0.68994
  -1   8   444919.67 1741.63   1 0.83489-0.90259 0.14528 0.36014 0.53088-0.23584
   1   8  -313435.14  704.19   1 0.91597-0.84247-0.00217 0.50780-0.40122 0.17989
   1  -8  -315381.92  567.00   1 0.91083-0.83733 0.00645-0.51209-0.41271 0.19138
   1  -8  -317171.48  617.75   1 0.39906-0.32535-0.56453 0.05871 0.72253-0.94376
  -1   8   315236.28  828.08   1 0.91466-0.98849 0.35884 0.14709 0.18604 0.03523
   1   8  -313944.12  789.19   1 0.81379-0.74014 0.38029 0.12506 0.43945-0.66071
  -1   8   312455.92  648.03   1 0.83464-0.90824 0.20407 0.30135 0.51158-0.29030
   1   8  -270529.17 2395.91   1 0.90571-0.82631 0.01471 0.49091-0.42362 0.27606
   1  -8  -264686.54 2127.96   1 0.92980-0.85039-0.02744-0.47818-0.36704 0.21948
   1  -8  -267988.97 2230.94   1-0.01241 0.09200-0.52979 0.02412 0.84803-0.99546
  -1   8   268026.52 2449.03   1 0.90982-0.98942 0.36788 0.13805 0.19205-0.04453
   1   8  -271980.85 2494.00   1 0.82835-0.74885 0.29008 0.21534 0.47924-0.62676
  -1   8   269532.01 2397.44   1 0.83059-0.91009 0.26878 0.23664 0.48771-0.34019
   1  -8  -1159155.6 5224.80   1 0.94441-0.85909-0.05884-0.44678-0.32344 0.24966
   1  -8  -1196321.7 6306.07   1-0.31559 0.40094-0.44119-0.06450 0.84008-0.91383
  -1  -8   1199367.7 6473.08   1-0.99507 0.90985-0.09881-0.40684-0.00778 0.08152
  -1   8   1185360.2 6193.12   1 0.89885-0.98422 0.38733 0.11860 0.20502-0.13126
  -1   8   1189560.7 6176.12   1 0.82177-0.90717 0.33712 0.16830 0.45938-0.38562
   1   8  -1197435.9 6458.21   1 0.83479-0.74939 0.19916 0.30626 0.51328-0.58704
  -1  -8   066654.81 2244.70   1 0.86413-0.95529-0.41679-0.08868 0.28204-0.28204
  -1  -8   068482.83 2315.06   1-0.83324 0.74210-0.11078-0.39478 0.54169-0.54169
  -1  -8   070495.11 2479.03   1-0.99667 0.90552-0.08138-0.42427 0.00336-0.00336
  -1   8   069536.29 2448.83   1 0.87900-0.97015 0.41953 0.08640 0.22658-0.22658
  -1   8   069166.99 2457.62   1 0.80776-0.89902 0.40679 0.09856 0.42665-0.42665
   1   8   070844.26 2506.43   1 0.83346-0.74217 0.11046 0.39502 0.54141-0.54141
  -1  -8  -1 3424.25  197.32   1 0.77363-0.87069-0.47689-0.02876 0.41720-0.49097
   1  -8   1 4812.50  427.92   1-0.62824 0.72529-0.28237-0.22312 0.72496-0.65127
  -1  -8  -1 3739.48  226.15   1-0.69995 0.60290-0.23154-0.27396 0.67561-0.74929
  -1  -8  -1 2785.55  323.94   1-0.99701 0.89993-0.07702-0.42863 0.00615-0.07988
  -1   8  -1 2589.62  331.40   1 0.84538-0.94230 0.46730 0.03863 0.25875-0.33251
  -1   8  -1 3227.82  378.18   1 0.78805-0.88519 0.47586 0.02949 0.39053-0.46428
   1   8   1 2108.06  381.69   1 0.82576-0.72855 0.02645 0.47904 0.56339-0.48961
   1  -8   219882.62  880.64   1-0.70101 0.80395-0.23073-0.27477 0.67479-0.52741
  -1  -8  -219531.69  939.90   1-0.99658 0.89358-0.08259-0.42307 0.00259-0.15007
  -1   8  -212695.75  595.16   1 0.78881-0.89160 0.53394-0.02797 0.30443-0.45195
  -1   8  -213674.52  702.01   1 0.76288-0.86588 0.54274-0.03738 0.35133-0.49883
   1   8   213599.14  719.56   1 0.81327-0.71014-0.05033 0.55582 0.57970-0.43214
   1  -8   3 8670.76  647.99   1-0.74574 0.85456-0.19470-0.31079 0.63714-0.41607
  -1  -8  -3 9615.53  609.60   1-0.99536 0.88644-0.09594-0.40971-0.00594-0.21527
  -1   8  -3 8979.54  469.23   1 0.69317-0.80177 0.62146-0.11549 0.36509-0.58636
  -1   8  -3 8258.40  641.32   1 0.73294-0.84162 0.60583-0.10032 0.30944-0.53066
   1   8   3 8317.37  547.45   1 0.79794-0.68889-0.11797 0.62346 0.59107-0.36974
   1  -8   418740.79  961.25   1-0.77305 0.88773-0.17091-0.33465 0.61088-0.31610
  -1  -8  -421456.65 1082.93   1-0.99313 0.87828-0.11554-0.39011-0.01851-0.27644
  -1   8  -413032.41  983.17   1-0.93981 0.82518 0.26449 0.24062 0.21629-0.51105
  -1   8  -417166.59  713.19   1 0.52380-0.63837 0.72826-0.22221 0.44187-0.73695
  -1   8  -418452.29  905.67   1 0.69787-0.81237 0.66502-0.15951 0.26592-0.56089
   1   8   416446.06  896.51   1 0.78138-0.66658-0.17500 0.68068 0.59900-0.30386
   1  -8   548824.17 2796.53   1-0.78877 0.90934-0.15626-0.34930 0.59449-0.22602
  -1   8  -549841.32 2664.98   1 0.19564-0.31617 0.82953-0.32349 0.52306-0.89184
  -1   8  -549064.38 2800.39   1 0.65846-0.77879 0.71944-0.21393 0.22096-0.58967
   1   8   548449.13 2738.82   1 0.76610-0.64543-0.22125 0.72692 0.60342-0.23449
   1  -8   653416.41 3370.42   1-0.79658 0.92303-0.14873-0.35683 0.58594-0.14378
  -1   8  -654718.84 3423.92   1 0.61540-0.74157 0.76863-0.26328 0.17459-0.61704
   1   8   657084.18 3541.18   1 0.75312-0.62657-0.25641 0.76209 0.60584-0.16312
   1  -8   7 2072.31  504.34   1-0.79860 0.93094-0.14675-0.35880 0.58369-0.06783
  -1   8  -7 2182.58  417.03   1 0.56853-0.70053 0.81266-0.30731 0.12785-0.64405
   1   8   7 2001.41  342.07   1 0.74343-0.61101-0.28075 0.78642 0.60702-0.09051
   1  -8   8 7537.19 1388.80   1-0.79611 0.93433-0.14919-0.35637 0.58647 0.00308
  -1   8  -8 9957.41  991.03   1 0.51841-0.65624 0.85132-0.34597 0.08062-0.67056
   1   8   8 6984.53 1568.51   1 0.73764-0.59934-0.29463 0.80030 0.60751-0.01721
   1  -8   913452.23 1507.68   1-0.78988 0.93399-0.15520-0.35036 0.59329 0.06995
  -1   8  -915267.12 1646.52   1 0.46524-0.60890 0.88456-0.37921 0.03305-0.69673
   1   8   915567.07 1635.71   1 0.73604-0.59186-0.29837 0.80405 0.60762 0.05645
   1  -8  10 9392.28 1264.89   1-0.78037 0.93037-0.16416-0.34140 0.60337 0.13357
  -1   8 -1011201.22 2424.46   1 0.40979-0.55934 0.91205-0.40676-0.01516-0.72226
  -1  -9   9 6801.85  826.64   1-0.87721 0.83904-0.05771-0.51105 0.47661 0.18663
  -1   9   910958.15 1228.47   1 0.86050-0.89969 0.44672 0.12245 0.24486 0.41898
   1   9  -911014.50 1105.98   1 0.58350-0.54473 0.79951-0.23099 0.14248-0.80616
  -1  -9   8 4390.20  946.83   1-0.88632 0.84226-0.04528-0.52347 0.46084 0.12870
  -1   9   8 5220.42 1025.00   1 0.87629-0.92125 0.42368 0.14550 0.22936 0.36072
   1   9  -8 5199.79  947.82   1 0.63596-0.59135 0.74623-0.17753 0.19668-0.78662
  -1  -9   734111.03 2559.45   1-0.89318 0.84323-0.03549-0.53327 0.44828 0.06757
  -1   9   730847.77 2315.44   1 0.88878-0.93952 0.40410 0.16507 0.21624 0.30008
   1   9  -733067.44 2466.17   1 0.68339-0.63296 0.68626-0.11756 0.24900-0.76520
  -1   9   728603.01 2067.59   1 0.83282-0.88267 0.09954 0.46914 0.54451-0.02809
  -1   9   635736.44 2048.79   1 0.89813-0.95464 0.38856 0.18061 0.20584 0.23671
   1   9  -633937.18 1799.35   1 0.72501-0.66875 0.62033-0.05164 0.29923-0.74169
  -1   9   631374.86 1608.75   1 0.83405-0.88982 0.12244 0.44624 0.53792-0.09527
  -1   9   518033.13 1348.17   1 0.90435-0.96663 0.37774 0.19144 0.19862 0.17017
   1   9  -521150.28 1494.21   1 0.75992-0.69803 0.54959 0.01893 0.34706-0.71581
  -1   9   520849.21 1375.93   1 0.83508-0.89688 0.15582 0.41278 0.52758-0.15878
   1   9  -4 4708.76  478.02   1 0.92045-0.85239 0.34765 0.22152 0.17860-0.47365
   1   9  -4 4035.60  563.62   1 0.78866-0.72089 0.47400 0.09452 0.39155-0.68656
  -1   9   4 4941.74  586.60   1 0.83483-0.90252 0.19767 0.37093 0.51379-0.21875
   1  -9  -314289.48 1433.19   1 0.38844-0.31473-0.56499-0.00404 0.72793-0.94917
  -1  -9   314377.62 1531.98   1-0.88976 0.81627-0.04041-0.52834 0.45462-0.23353
  -1   9   330187.25 1829.29   1 0.90657-0.98039 0.37378 0.19539 0.19599 0.02529
  -1   9   324369.38 1367.89   1 0.83242-0.90602 0.24678 0.32182 0.49614-0.27486
   1  -9  -219519.88  985.19   1 0.96245-0.88301-0.11040-0.45845-0.24797 0.10049
   1  -9  -224536.61  946.98   1-0.01019 0.08978-0.53024-0.03863 0.84778-0.99521
  -1  -9   223481.58 1036.83   1-0.87388 0.79450-0.06211-0.50664 0.48215-0.33476
  -1   9   231574.19 1488.66   1 0.90138-0.98098 0.38295 0.18622 0.20210-0.05458
   1   9  -230194.71 1312.85   1 0.82512-0.74562 0.31526 0.25334 0.46881-0.61633
  -1   9   230588.73 1322.87   1 0.82697-0.90647 0.30149 0.26711 0.47457-0.32705
   1  -9  -1 1788.55  247.26   1-0.29453 0.37988-0.44915-0.11975 0.84350-0.91725
  -1  -9   1 2233.02  324.87   1-0.84226 0.75700-0.10067-0.46809 0.52957-0.45588
  -1   9   1 1003.98  540.03   1 0.89037-0.97574 0.40152 0.16765 0.21451-0.14075
  -1   9   1 1855.49  380.62   1 0.81771-0.90311 0.36005 0.20855 0.44910-0.37534
   1   9  -1 2105.38  612.31   1 0.83319-0.74779 0.23527 0.33333 0.50042-0.57418
  -1  -9   029592.75 1128.44   1 0.85048-0.94164-0.42797-0.14069 0.30579-0.30579
   1  -9   033747.02 1319.95   1-0.47924 0.57043-0.36858-0.20032 0.79653-0.79653
  -1  -9   033062.66 1272.44   1-0.77716 0.68601-0.16714-0.40161 0.60669-0.60669
  -1   9   026118.70 1204.69   1 0.87114-0.96229 0.43139 0.13778 0.23454-0.23454
  -1   9   028458.79 1252.30   1 0.80427-0.89553 0.42069 0.14783 0.41971-0.41971
   1   9   028048.63 1294.66   1 0.83510-0.74380 0.15754 0.41106 0.52704-0.52704
  -1  -9  -142987.47 1555.24   1 0.76055-0.85761-0.48346-0.08539 0.43338-0.50715
   1  -9   150932.80 1953.84   1-0.59628 0.69334-0.30282-0.26586 0.74346-0.66977
  -1  -9  -148539.30 1760.03   1-0.62395 0.52690-0.28519-0.28349 0.72756-0.80125
  -1   9  -155053.81 2150.85   1 0.83962-0.93655 0.47478 0.09439 0.26382-0.33758
  -1   9  -154982.01 2190.78   1 0.78605-0.88318 0.48187 0.08665 0.38719-0.46094
   1   9   157226.10 2253.37   1 0.83172-0.73451 0.08406 0.48461 0.54878-0.47501
  -1  -9  -211365.01 1120.07   1 0.29147-0.39436-0.56559-0.00344 0.77145-0.91894
   1  -9   217693.58 1839.25   1-0.67041 0.77335-0.25338-0.31530 0.69737-0.55000
  -1   9  -219023.03 1960.61   1 0.78842-0.89121 0.53434 0.03486 0.30471-0.45223
  -1   9  -220079.07 1772.54   1 0.76310-0.86611 0.54222 0.02630 0.35165-0.49915
   1   9   217523.04 1853.76   1 0.82444-0.72131 0.01654 0.55213 0.56569-0.41814
   1  -9   334579.98 1858.75   1-0.71753 0.82635-0.21785-0.35083 0.66157-0.44050
  -1   9  -332343.50 1695.85   1 0.70519-0.81378 0.61180-0.04259 0.35833-0.57960
  -1   9  -331239.35 1740.69   1 0.73588-0.84456 0.60026-0.03156 0.31329-0.53452
   1   9   330717.86 1753.83   1 0.81460-0.70555-0.04344 0.61212 0.57838-0.35705
   1  -9   441071.14 2373.90   1-0.74720 0.86190-0.19347-0.37522 0.63581-0.34105
  -1   9  -438568.48 2113.92   1 0.56399-0.67856 0.70716-0.13785 0.42641-0.72149
  -1   9  -438255.67 2230.77   1 0.70386-0.81836 0.65573-0.08703 0.27309-0.56806
   1   9   435224.98 2044.35   1 0.80365-0.68868-0.09480 0.66348 0.58749-0.29239
   1  -9   535601.66 2333.88   1-0.76524 0.88581-0.17795-0.39081 0.61865-0.25017
  -1   9  -530725.26 2027.91   1 0.66763-0.78795 0.70770-0.13901 0.23112-0.59983
   1   9   526454.39 1764.88   1 0.79254-0.67187-0.13665 0.70554 0.59429-0.22536
   1  -9   615848.70 1005.52   1-0.77493 0.90139-0.16918-0.39957 0.60897-0.16680
  -1   9  -615928.49 1043.22   1 0.62745-0.75359 0.75568-0.18699 0.18771-0.63017
   1   9   615803.64  942.55   1 0.78319-0.65665-0.16908 0.73796 0.59834-0.15561
   1  -9   713859.97 1296.01   1-0.77852 0.91087-0.16588-0.40288 0.60528-0.08942
  -1   9  -720236.46 1638.84   1 0.58386-0.71586 0.79918-0.23066 0.14284-0.65903
   1   9   716382.13 1357.11   1 0.77607-0.64365-0.19178 0.76066 0.60077-0.08426
   1  -9   8 9330.20 1121.14   1-0.77734 0.91557-0.16697-0.40179 0.60650-0.01695
  -1   9  -815261.89 1369.00   1 0.53655-0.67438 0.83822-0.26970 0.09742-0.68736
   1   9   814250.65 1209.87   1 0.77177-0.63347-0.20478 0.77367 0.60201-0.01171
   1  -9   9 1002.71  478.19   1-0.77221 0.91633-0.17167-0.39709 0.61172 0.05152
  -1   9  -9 1079.06  500.95   1 0.48595-0.62961 0.87247-0.30395 0.05130-0.71498
  -1 -10   9  691.48  414.84   1-0.85834 0.82017-0.08173-0.55023 0.50651 0.15673
  -1  10   9 1494.27  550.35   1 0.85417-0.89335 0.45551 0.17690 0.25079 0.41305
   1  10  -9  240.53  358.21   1 0.59396-0.55519 0.78983-0.15814 0.15286-0.81654
  -1 -10   8 6045.64  999.86   1-0.86664 0.82258-0.07143-0.56052 0.49378 0.09576
  -1  10   8 3412.55  940.28   1 0.86919-0.91415 0.43425 0.19816 0.23647 0.35361
   1  10  -8 7331.29 1007.53   1 0.64300-0.59839 0.73814-0.10625 0.20418-0.79412
  -1 -10   7 6913.59  838.08   1-0.87242 0.82247-0.06402-0.56793 0.48454 0.03132
  -1  10   7 5470.52 1042.85   1 0.88102-0.93175 0.41641 0.21600 0.22448 0.29183
   1  10  -7 8225.35  819.24   1 0.68715-0.63671 0.68091-0.04902 0.25333-0.76953
  -1 -10   6 1365.36  638.31   1-0.87536 0.81953-0.06016-0.57179 0.47969-0.03753
  -1  10   6 1217.90  467.14   1 0.88976-0.94627 0.40251 0.22991 0.21517 0.22739
   1  10  -6  436.29  370.41   1 0.72578-0.66952 0.61895 0.01293 0.30022-0.74267
  -1  10   6  366.94  290.52   1 0.83509-0.89098 0.18412 0.44765 0.51838-0.07582
  -1 -10   526572.09 1505.44   1-0.87487 0.81316-0.06080-0.57115 0.48050-0.11203
  -1  10   529187.74 1695.54   1 0.89541-0.95770 0.39316 0.23926 0.20892 0.15988
   1  10  -526654.20 1487.73   1 0.75825-0.69635 0.55341 0.07828 0.34465-0.71341
  -1  10   530164.84 1602.92   1 0.83440-0.89620 0.21093 0.42084 0.50918-0.14038
  -1 -10   427274.49 1618.80   1-0.86985 0.80224-0.06734-0.56461 0.48869-0.19391
   1  10  -424504.91 1351.02   1 0.89858-0.83052 0.38779 0.24463 0.20533-0.50037
  -1  10   425572.36 1637.77   1 0.89781-0.96587 0.38910 0.24331 0.20621 0.08883
   1  10  -423297.21 1410.93   1 0.78522-0.71745 0.48431 0.14738 0.38582-0.68083
  -1  10   423470.12 1377.71   1 0.83250-0.90019 0.24573 0.38605 0.49654-0.20150
  -1 -10   314140.82 1052.25   1-0.85823 0.78474-0.08186-0.55009 0.50668-0.28560
  -1  10   317808.59 1344.35   1 0.89655-0.97038 0.39124 0.24117 0.20763 0.01364
   1  10  -320597.79 1482.90   1 0.80617-0.73253 0.41322 0.21847 0.42346-0.64471
  -1  10   316383.51 1159.83   1 0.82868-0.90228 0.28720 0.34458 0.48040-0.25912
   1 -10  -229166.52 1598.16   1 0.00970 0.06987-0.53419-0.09789 0.84530-0.99274
  -1 -10   228110.11 1636.62   1-0.83605 0.75667-0.10767-0.52428 0.53798-0.39059
  -1  10   220397.45 1866.15   1 0.89090-0.97050 0.40066 0.23176 0.21393-0.06641
   1  10  -220674.70 1854.99   1 0.82102-0.74152 0.34160 0.29017 0.45740-0.60492
  -1  10   223110.93 1580.64   1 0.82228-0.90178 0.33400 0.29778 0.46074-0.31322
   1 -10  -130633.93 1699.68   1-0.26303 0.34837-0.46053-0.17158 0.84777-0.92151
  -1 -10   130408.21 1729.30   1-0.79503 0.70977-0.15024-0.48172 0.58766-0.51396
  -1  10   120025.45 1750.49   1 0.87957-0.96495 0.41865 0.21376 0.22599-0.15223
  -1  10   121685.41 1863.61   1 0.81283-0.89822 0.38473 0.24696 0.43734-0.36359
   1  10  -124313.34 1632.76   1 0.83042-0.74502 0.27057 0.36120 0.48701-0.56077
   1 -10   030620.00 1714.92   1-0.44277 0.53396-0.38651-0.24560 0.80904-0.80904
  -1 -10   033021.35 1833.06   1-0.71578 0.62462-0.21924-0.41263 0.66300-0.66300
  -1  10   025867.91 1569.69   1 0.86046-0.95160 0.44679 0.18562 0.24491-0.24491
  -1  10   028574.38 1691.35   1 0.79961-0.89087 0.43796 0.19373 0.41086-0.41086
   1  10   027334.37 1674.37   1 0.83471-0.74341 0.20186 0.42992 0.51234-0.51234
  -1 -10  -128009.24 1542.67   1-0.54340 0.44636-0.33422-0.29789 0.77006-0.84380
   1 -10   128091.50 1632.67   1-0.55980 0.65684-0.32482-0.30730 0.76230-0.68856
  -1  10  -129105.39 1736.30   1 0.83003-0.92695 0.48687 0.14555 0.27201-0.34577
  -1  10  -131711.87 1909.24   1 0.78241-0.87954 0.49244 0.13925 0.38122-0.45497
   1  10   131866.99 1939.86   1 0.83467-0.73747 0.13698 0.49480 0.53343-0.45967
   1 -10   272631.49 3958.93   1-0.63607 0.73901-0.27717-0.35470 0.72012-0.57275
  -1  10  -281613.83 4428.51   1 0.78205-0.88485 0.54103 0.09142 0.30930-0.45681
  -1  10  -281508.34 4480.69   1 0.76106-0.86406 0.54699 0.08470 0.34869-0.49619
   1  10   285398.71 5219.19   1 0.83118-0.72805 0.07734 0.55452 0.55059-0.40304
   1 -10   336996.17 2332.26   1-0.68597 0.79479-0.24205-0.38982 0.68618-0.46512
  -1  10  -341029.68 2530.41   1 0.70657-0.81517 0.61066 0.02178 0.35753-0.57880
  -1  10  -340621.43 2585.44   1 0.73588-0.84456 0.60026 0.03162 0.31329-0.53451
   1  10   340152.92 2565.27   1 0.82546-0.71641 0.02411 0.60775 0.56394-0.34261
   1 -10   4 7593.44 1050.29   1-0.71835 0.83305-0.21721-0.41466 0.66090-0.36614
  -1  10  -4 6098.44  767.94   1 0.58305-0.69762 0.69632-0.06375 0.41854-0.71362
  -1  10  -4 7012.88  956.11   1 0.70624-0.82074 0.65196-0.02007 0.27596-0.57093
   1  10   4 6455.48  954.67   1 0.81853-0.70356-0.02172 0.65359 0.57404-0.27894
   1 -10   516519.78 1138.57   1-0.73870 0.85929-0.20063-0.43124 0.64347-0.27503
   1  10   512866.02  885.46   1 0.81143-0.69054-0.05948 0.69135 0.58140-0.21252
   1 -10   612062.34 1233.37   1-0.75044 0.87692-0.19069-0.44118 0.63282-0.19069
  -1  10  -610792.31 1057.09   1 0.63505-0.76119 0.74726-0.11537 0.19571-0.63817
   1  10   6 9186.42  869.11   1 0.80507-0.67826-0.08873 0.72060 0.58650-0.14385
   1 -10   711018.61 1209.46   1-0.75574 0.88810-0.18611-0.44576 0.62786-0.11204
  -1  10  -711824.15 1127.93   1 0.59409-0.72609 0.78971-0.15802 0.15299-0.66919
   1  10   710122.18  953.85   1 0.80016-0.66744-0.10917 0.74104 0.58975-0.07332
   1 -10   8 2297.75  738.52   1-0.75598 0.89423-0.18590-0.44597 0.62763-0.03812
  -1  10  -8 2873.19  697.16   1 0.54931-0.68714 0.82841-0.19672 0.10944-0.69938
   1  10   8 2526.04  615.56   1 0.79726-0.65861-0.12060 0.75247 0.59145-0.00125
  -1 -11   8 4509.29  795.99   1-0.84413 0.80007-0.09853-0.59662 0.52699 0.06256
  -1  11   8 5312.18  940.54   1 0.86018-0.90514 0.44718 0.24848 0.24517 0.34491
   1  11  -8 7058.29  988.65   1 0.64635-0.60174 0.73419-0.03912 0.20778-0.79772
  -1 -11   7 1236.99  601.69   1-0.84859 0.79864-0.09337-0.60178 0.52074-0.00488
  -1  11   7 1624.16  748.83   1 0.87142-0.92216 0.43097 0.26469 0.23426 0.28206
   1  11  -7 1633.41  498.31   1 0.68786-0.63742 0.67988 0.01518 0.25416-0.77036
  -1 -11   613265.04 1230.39   1-0.84974 0.79391-0.09201-0.60314 0.51909-0.07693
  -1  11   611385.50 1174.59   1 0.87960-0.93611 0.41860 0.27706 0.22595 0.21660
   1  11  -616543.72 1446.97   1 0.72417-0.66791 0.62182 0.07324 0.29817-0.74062
  -1  11   612384.70 1078.57   1 0.83289-0.88878 0.24008 0.45488 0.49865-0.05609
  -1 -11   5 2606.75  643.69   1-0.84681 0.78509-0.09543-0.59971 0.52325-0.15478
   1  11  -5 3985.26  963.62   1 0.75479-0.69290 0.56111 0.13376 0.33976-0.70851
  -1  11   5 4213.04 1005.67   1 0.83123-0.89302 0.26172 0.43324 0.49046-0.12166
  -1  11   4 2962.34  767.40   1 0.88653-0.95459 0.40771 0.28794 0.21865 0.07638
   1  11  -4 4276.59  704.42   1 0.78050-0.71273 0.49779 0.19707 0.37816-0.67317
  -1  11   4 4876.60  769.23   1 0.82828-0.89597 0.29074 0.40422 0.47897-0.18393
  -1 -11   353224.49 2623.21   1-0.82203 0.74854-0.12288-0.57227 0.55601-0.33493
  -1  11   355023.34 2799.44   1 0.88469-0.95852 0.41065 0.28501 0.22062 0.00065
   1  11  -353705.15 2616.64   1 0.92154-0.84771 0.34550 0.35016 0.17717-0.39845
   1  11  -354779.89 2782.04   1 0.80091-0.72726 0.43327 0.26159 0.41329-0.63454
  -1  11   349585.15 2481.48   1 0.82353-0.89713 0.32601 0.36895 0.46421-0.24293
  -1 -11   232233.38 1773.66   1-0.79308 0.71371-0.15212-0.54302 0.58980-0.44241
  -1  11   231744.55 1914.85   1 0.87845-0.95805 0.42037 0.27528 0.22714-0.07962
   1  11  -234442.20 1995.32   1 0.81617-0.73666 0.36868 0.32618 0.44488-0.59239
  -1  11   234064.50 1927.29   1 0.81649-0.89599 0.36637 0.32859 0.44621-0.29869
   1 -11  -1 1895.98  307.86   1-0.22204 0.30738-0.47440-0.22092 0.85184-0.92558
  -1 -11   1 1720.71  322.92   1-0.74218 0.65690-0.19772-0.49734 0.64036-0.56667
  -1  11   1 2150.45  591.57   1 0.86662-0.95200 0.43799 0.25766 0.23898-0.16522
  -1  11   1 2720.12  539.30   1 0.80681-0.89220 0.41065 0.28421 0.42474-0.35099
   1  11  -1 2481.05  583.03   1 0.82648-0.74108 0.30528 0.38968 0.47299-0.54675
   1 -11   022324.17 1259.57   1-0.40016 0.49136-0.40612-0.28920 0.82153-0.82153
  -1 -11   023855.32 1309.31   1-0.64903 0.55786-0.26838-0.42668 0.71184-0.71184
  -1  11   022464.01 1360.07   1 0.84726-0.93841 0.46481 0.23085 0.25707-0.25707
  -1  11   024168.70 1498.64   1 0.79382-0.88509 0.45768 0.23718 0.40044-0.40044
   1  11   026108.01 1566.28   1 0.83261-0.74131 0.24409 0.45087 0.49715-0.49715
   1 -11   114517.41  877.38   1-0.51868 0.61572-0.34791-0.34742 0.78097-0.70723
  -1  11  -113659.49 1668.26   1 0.81723-0.91415 0.50230 0.19335 0.28251-0.35627
  -1  11  -113105.34 1666.07   1 0.77735-0.87449 0.50641 0.18845 0.37318-0.44693
   1  11   113922.97 1719.00   1 0.83505-0.73785 0.18646 0.50850 0.51759-0.44383
   1 -11   2 3072.52  488.77   1-0.59784 0.70077-0.30186-0.39320 0.74260-0.59522
  -1  11  -2 2434.73  455.92   1 0.77107-0.87386 0.55222 0.14347 0.31700-0.46451
  -1  11  -2 3278.26  672.04   1 0.75718-0.86019 0.55581 0.13905 0.34313-0.49064
   1  11   2 3584.39  652.92   1 0.83456-0.73146 0.13351 0.56144 0.53448-0.38696
   1 -11   3 2705.37  398.91   1-0.65090 0.75972-0.26710-0.42796 0.71062-0.48955
  -1  11  -3 6832.31  498.70   1 0.70042-0.80901 0.61567 0.08002 0.36104-0.58231
  -1  11  -3 8051.37  785.27   1 0.73356-0.84223 0.60467 0.09039 0.31024-0.53147
   1  11   3 6157.30  599.62   1 0.83189-0.72284 0.08624 0.60881 0.54819-0.32687
   1 -11   410350.89 1284.32   1-0.68624 0.80095-0.24184-0.45322 0.68598-0.39122
  -1  11  -414065.70 1280.91   1 0.70578-0.82028 0.65269 0.04237 0.27540-0.57037
   1  11   412738.20 1220.09   1 0.82805-0.71308 0.04546 0.64959 0.55879-0.26369
   1 -11   5 1053.00  449.41   1-0.70919 0.82978-0.22441-0.47065 0.66833-0.29989
  -1  11  -5 2761.55  812.59   1 0.67420-0.79452 0.69897-0.00390 0.23850-0.60721
   1  11   5 2817.51  777.23   1 0.82379-0.70290 0.01185 0.68320 0.56676-0.19789
   1 -11   612255.07 1493.13   1-0.72313 0.84961-0.21338-0.48168 0.65691-0.21478
  -1  11  -611885.49 1320.51   1 0.63887-0.76501 0.74292-0.04784 0.19977-0.64222
   1  11   610719.63 1231.49   1 0.81981-0.69300-0.01409 0.70914 0.57245-0.12980
   1 -11   715912.92 1510.28   1-0.73027 0.86263-0.20759-0.48746 0.65084-0.13502
  -1  11  -713849.12 1418.47   1 0.60016-0.73216 0.78389-0.08904 0.15908-0.67528
   1  11   713268.97 1284.65   1 0.81673-0.68400-0.03197 0.72702 0.57612-0.05970
   1 -11   819136.16 2251.78   1-0.73203 0.87027-0.20615-0.48891 0.64932-0.05981
  -1  11  -820493.67 2415.34   1 0.55761-0.69544 0.82176-0.12690 0.11734-0.70728
  -1 -12   7 9361.71 1337.03   1-0.82147 0.77153-0.12347-0.63487 0.55671-0.04084
  -1  12   7 5016.37 1075.05   1 0.86003-0.91077 0.44738 0.31152 0.24531 0.27101
   1  12  -7 5453.26  818.77   1 0.68605-0.63562 0.68248 0.07577 0.25207-0.76827
  -1 -12   6 1853.20  622.83   1-0.82054 0.76471-0.12445-0.63389 0.55786-0.11569
  -1  12   6 1767.30  781.54   1 0.86769-0.92420 0.43645 0.32245 0.23794 0.20461
   1  12  -6 1009.34  423.21   1 0.72055-0.66429 0.62816 0.13009 0.29360-0.73606
  -1  12   6  375.53  302.21   1 0.82812-0.88401 0.29207 0.46607 0.47843-0.03587
  -1 -12   5 8577.96 1053.25   1-0.81481 0.75309-0.13043-0.62791 0.56485-0.19638
  -1  12   5 8190.23 1046.79   1 0.87224-0.93452 0.42975 0.32915 0.23344 0.13535
   1  12  -5 8446.97 1037.32   1 0.74978-0.68789 0.57190 0.18613 0.33278-0.70153
  -1  12   5 7235.80  914.12   1 0.82594-0.88773 0.30934 0.44879 0.47130-0.10250
  -1 -12   414325.49 1201.16   1-0.80260 0.73500-0.14280-0.61554 0.57916-0.28438
  -1  12   4 9680.60 1076.67   1 0.87348-0.94153 0.42791 0.33099 0.23220 0.06283
   1  12  -4 9827.38  950.40   1 0.77458-0.70681 0.51375 0.24428 0.36887-0.66387
  -1  12   410074.33  915.38   1 0.82235-0.89005 0.33355 0.42459 0.46094-0.16590
  -1 -12   3 -199.42  296.04   1-0.78101 0.70752-0.16357-0.59478 0.60270-0.38162
  -1  12   3  -13.92  475.65   1 0.87099-0.94482 0.43160 0.32730 0.23469-0.01340
   1  12  -3  405.35  254.97   1 0.89861-0.82478 0.38775 0.37115 0.20530-0.42658
   1  12  -3 -224.72  386.74   1 0.79464-0.72100 0.45499 0.30305 0.40189-0.62314
  -1  12   3  839.46  395.40   1 0.81702-0.89062 0.36364 0.39449 0.44746-0.22618
  -1 -12   2 1961.12  441.07   1-0.74468 0.66528-0.19560-0.56264 0.63810-0.49072
  -1  12   2 4207.48  973.97   1 0.86407-0.94368 0.44166 0.31724 0.24145-0.09393
   1  12  -2 4453.05 1019.26   1 0.81018-0.73067 0.39655 0.36148 0.43167-0.57917
  -1  12   2 4049.02  907.86   1 0.80969-0.88921 0.39868 0.35936 0.43063-0.28313
  -1 -12   113625.91 1034.36   1-0.68365 0.59837-0.24376-0.51449 0.68789-0.61420
  -1  12   115019.53 1355.31   1 0.85158-0.93695 0.45903 0.29987 0.25317-0.17941
  -1  12   113988.34 1229.71   1 0.79973-0.88512 0.43750 0.32053 0.41110-0.33735
   1  12  -113075.86 1121.08   1 0.82137-0.73597 0.33953 0.41860 0.45831-0.53207
   1 -12   0 7830.09  965.69   1-0.35127 0.44246-0.42698-0.33156 0.83324-0.83324
  -1  12   0 7739.79 1003.14   1 0.83169-0.92284 0.48481 0.27409 0.27062-0.27062
  -1  12   0 8540.56 1179.87   1 0.78693-0.87819 0.47925 0.27878 0.38865-0.38865
   1  12   0 7358.56 1050.47   1 0.82896-0.73765 0.28474 0.47340 0.48140-0.48140
   1 -12   1 1981.27  542.45   1-0.47271 0.56975-0.37187-0.38667 0.79890-0.72516
  -1  12  -1 1937.58  713.07   1 0.80154-0.89846 0.52024 0.23866 0.29473-0.36850
  -1  12  -1  640.61  395.65   1 0.77099-0.86813 0.52298 0.23505 0.36338-0.43713
   1  12   1  905.07  427.52   1 0.83331-0.73611 0.23329 0.52485 0.50115-0.42739
   1 -12   217425.08 1364.90   1-0.55549 0.65838-0.32731-0.43123 0.76438-0.61690
  -1  12  -214134.82 1149.51   1 0.75620-0.85899 0.56675 0.19219 0.32701-0.47453
  -1  12  -211858.00 1041.21   1 0.75171-0.85472 0.56779 0.19024 0.33545-0.48295
   1  12   213102.03 1160.62   1 0.83506-0.73195 0.18613 0.57201 0.51770-0.37018
   1 -12   3 5386.63 1245.60   1-0.61210 0.72092-0.29285-0.46540 0.73454-0.51348
  -1  12  -3 5159.79 1138.83   1 0.68839-0.79699 0.62520 0.13373 0.36772-0.58899
  -1  12  -3 4643.08 1127.18   1 0.72928-0.83796 0.61261 0.14564 0.30470-0.52593
   1  12   3 6927.43 1554.39   1 0.83487-0.72586 0.14410 0.61403 0.53124-0.30996
   1 -12   4 1770.79  490.39   1-0.65069 0.76540-0.26724-0.49101 0.71075-0.41600
  -1  12  -4 2921.27  692.52   1 0.70298-0.81748 0.65712 0.10113 0.27203-0.56700
   1  12   4 4485.36 1004.91   1 0.83332-0.71835 0.10791 0.65033 0.54214-0.24704
   1 -12   5 8919.76 1266.41   1-0.67645 0.79704-0.24902-0.50922 0.69310-0.32466
  -1  12  -5 8684.41 1179.97   1 0.67307-0.79340 0.70048 0.05777 0.23723-0.60594
   1  12   5 9242.92 1304.59   1 0.83125-0.71036 0.07820 0.68003 0.55036-0.18148
   1 -12   615224.18 1434.37   1-0.69276 0.81924-0.23698-0.52127 0.68110-0.23897
  -1  12  -616646.75 1624.94   1 0.63957-0.76571 0.74212 0.01614 0.20051-0.64297
   1  12   616333.12 1548.85   1 0.82914-0.70233 0.05551 0.70272 0.55627-0.11362
  -1 -13   514280.98 1741.71   1-0.77862 0.71690-0.16579-0.65575 0.60519-0.23672
  -1  13   518448.98 2333.61   1 0.85799-0.92027 0.45024 0.37190 0.24723 0.12156
  -1  13   514646.77 1775.50   1 0.81873-0.88052 0.35461 0.46671 0.45158-0.08278
  -1 -13   4  211.47  314.46   1-0.76218 0.69458-0.18067-0.64087 0.62163-0.32685
  -1  13   4  537.63  482.28   1 0.85860-0.92666 0.44938 0.37276 0.24666 0.04838
   1  13  -4 1869.88  648.60   1 0.76749-0.69972 0.53170 0.28950 0.35812-0.65312
  -1  13   4 1200.11  541.37   1 0.81492-0.88269 0.37485 0.44635 0.44201-0.14700
  -1 -13   3 5651.95  815.25   1-0.73477 0.66126-0.20389-0.61754 0.64694-0.42587
  -1  13   3 5971.34 1041.08   1 0.85542-0.92925 0.45379 0.36835 0.24963-0.02835
   1  13  -3 2114.04  677.64   1 0.78734-0.71370 0.47800 0.34320 0.38934-0.61060
  -1  13   3 5947.98  899.91   1 0.80926-0.88291 0.40049 0.42071 0.42974-0.20849
  -1  13   2 7293.77 1102.67   1 0.84773-0.92733 0.46419 0.35796 0.25665-0.10913
   1  13  -2 5079.84  867.09   1 0.90537-0.82577 0.37592 0.44622 0.19741-0.34493
  -1  13   2 5120.55  879.14   1 0.80157-0.88108 0.43085 0.39035 0.41453-0.26703
   1  13  -2 5981.84 1055.08   1 0.80316-0.72364 0.42493 0.39627 0.41756-0.56506
  -1  13   1 1872.47  617.57   1 0.83442-0.91980 0.48139 0.34075 0.26830-0.19454
  -1  13   1 1591.07  456.25   1 0.79154-0.87693 0.46505 0.35615 0.39646-0.32271
   1  13  -1 1637.83  485.84   1 0.81523-0.72984 0.37334 0.44786 0.44271-0.51646
  -1  13   023192.74 1831.26   1 0.81377-0.90492 0.50634 0.31580 0.28526-0.28526
  -1  13   023789.27 1918.17   1 0.77889-0.87015 0.50223 0.31897 0.37560-0.37560
   1  13   023535.24 1912.63   1 0.82382-0.73251 0.32415 0.49716 0.46501-0.46501
  -1  13  -116143.14 1370.62   1 0.78288-0.87987 0.54017 0.28202 0.30871-0.38246
  -1  13  -115091.40 1300.51   1 0.76338-0.86051 0.54157 0.27963 0.35206-0.42581
   1  13   116589.29 1478.60   1 0.82967-0.73247 0.27806 0.54326 0.48406-0.41030
   1 -13   2 1145.31  370.79   1-0.50861 0.61150-0.35332-0.46843 0.78516-0.63767
  -1  13  -2 1888.24  475.76   1 0.73783-0.84062 0.58378 0.23840 0.33881-0.48632
  -1  13  -2 2456.29  674.05   1 0.74478-0.84779 0.58227 0.23893 0.32594-0.47344
   1  13   2 2959.07  631.19   1 0.83315-0.73004 0.23595 0.58537 0.50017-0.35265
   1 -13   3 5104.52  938.62   1-0.56932 0.67806-0.31923-0.50252 0.75760-0.53637
  -1  13  -3 9839.75 1379.74   1 0.72328-0.83196 0.62339 0.19805 0.29704-0.51827
   1  13   3 5777.61  918.90   1 0.83480-0.72579 0.19856 0.62275 0.51348-0.29220
   1 -13   434241.59 8386.78   1-0.61143 0.72614-0.29328-0.52816 0.73493-0.44017
  -1  13  -430313.19 2625.35   1 0.69815-0.81265 0.66459 0.15686 0.26626-0.56123
   1  13   432035.25 2743.03   1 0.83517-0.72026 0.16655 0.65476 0.52415-0.22911
   1 -13   515076.35 1844.45   1-0.64024 0.76083-0.27437-0.54707 0.71750-0.34906
  -1  13  -514126.64 1810.22   1 0.66961-0.78993 0.70510 0.11634 0.23333-0.60205
   1  13   513292.51 1695.95   1 0.83477-0.71396 0.14051 0.68080 0.53235-0.16355
  -1  14   3 3194.48  764.69   1 0.83790-0.91173 0.47698 0.40840 0.26531-0.04403
   1  14  -3 1974.92  687.79   1 0.77895-0.70531 0.50206 0.38231 0.37570-0.59696
  -1  14   3 1106.46  511.62   1 0.79999-0.87363 0.43657 0.44780 0.41158-0.19033
  -1  14   2 9058.97 1310.93   1 0.82935-0.90895 0.48771 0.39768 0.27258-0.12506
   1  14  -2 9456.33 1250.68   1 0.79503-0.71551 0.45372 0.43065 0.40256-0.55006
  -1  14   2 9074.37 1215.66   1 0.79219-0.87170 0.46297 0.42140 0.39759-0.25008
  -1  14   116876.93 1618.83   1 0.81510-0.90047 0.50480 0.38058 0.28421-0.21044
   1  14  -117513.04 1590.00   1 0.90340-0.81803 0.37941 0.50598 0.19974-0.27350
  -1  14   119930.45 1836.55   1 0.78216-0.86754 0.49314 0.39123 0.38082-0.30707
   1  14  -117499.34 1627.47   1 0.80771-0.72233 0.40697 0.47740 0.42656-0.50032
  -1  14   0 6853.77  872.29   1 0.79347-0.88462 0.52907 0.35631 0.30078-0.30078
   1  14   0 6885.87  782.30   1 0.91776-0.82661 0.35290 0.53248 0.18209-0.18209
  -1  14   0 7743.80  891.84   1 0.76966-0.86092 0.52632 0.35805 0.36137-0.36137
   1  14   0 6786.19  808.29   1 0.81722-0.72592 0.36260 0.52189 0.44794-0.44794
  -1  14  -1 2196.21  576.62   1 0.76169-0.85868 0.56147 0.32396 0.32337-0.39713
  -1  14  -1 3678.49  818.73   1 0.75449-0.85163 0.56176 0.32261 0.33933-0.41309
   1  14   1 2418.89  700.60   1 0.82426-0.72705 0.32120 0.56330 0.46628-0.39252
  -1  14  -2 3817.07 1093.94   1 0.73672-0.83957 0.59866 0.28597 0.31438-0.46187
   1  14   2 4907.66  799.25   1 0.82909-0.72598 0.28354 0.60095 0.48187-0.33435
  -1  14  -3 4285.46  817.13   1 0.71568-0.82436 0.63648 0.24815 0.28753-0.50876
   1  14   3 3197.52  602.17   1 0.83216-0.72315 0.25029 0.63420 0.49482-0.27354
   2   0 -1229197.99 2738.47   1 0.94211-0.83057-0.05347 0.05347-0.33099-0.55433
   2   0 -1117467.74 2623.66   1 0.95678-0.83933-0.09216 0.09216-0.27580-0.53574
   2   0 -10 3724.95 1285.95   1 0.96727-0.84396-0.13103 0.13103-0.21726-0.52014
   2   0  -917164.62 2626.98   1 0.97288-0.84364-0.17172 0.17172-0.15496-0.50870
  -2   0   915939.20 1051.56   1 0.51438-0.64426 0.73288-0.73288 0.44529 0.21862
   2   0  -914110.55 1263.92   1-0.08352 0.21335 0.92883-0.92883-0.36094-0.30288
   2   0  -8 1242.78  437.28   1 0.97288-0.83771-0.21409 0.21409-0.08753-0.50239
  -2   0   8 1401.25  430.41   1 0.54155-0.67728 0.71922-0.71922 0.43522 0.15492
   2   0  -8  563.08  150.75   1-0.00096 0.13664 0.95045-0.95045-0.31085-0.27921
   2   0  -713175.54 1525.64   1 0.96575-0.82467-0.25908 0.25908-0.01345-0.50276
  -2   0   712249.08  651.58   1 0.55539-0.69695 0.71187-0.71187 0.42984 0.08653
   2   0  -711972.75  565.59   1 0.09144 0.05001 0.96327-0.96327-0.25247-0.26382
  -2   0   710676.58  432.28   1 0.83399-0.97528 0.22070-0.22070 0.50571 0.01060
   2   0  -6133785.3 4096.31   1 0.94916-0.80218-0.30698 0.30698 0.06963-0.51211
  -2   0   6130434.4 3934.05   1 0.55407-0.70147 0.71258-0.71258 0.43036 0.01224
   2   0  -6132092.4 3900.52   1 0.19577-0.04847 0.96387-0.96387-0.18062-0.26192
  -2   0   6122689.1 3621.95   1 0.83518-0.98237 0.16846-0.16846 0.52353-0.08097
   2   0  -5245603.6 5832.52   1 0.91876-0.76588-0.35872 0.35872 0.16487-0.53360
  -2   0   5239208.2 5640.15   1 0.53398-0.68722 0.72313-0.72313 0.43809-0.06925
   2   0  -5235137.0 5459.54   1 0.33136-0.17814 0.94023-0.94023-0.07849-0.29022
   2   0  -371208.53 1182.52   1 0.78021-0.61547-0.47342 0.47342 0.40880-0.63012
  -2   0   369436.24 1161.39   1 0.58195-0.74696-0.54212 0.54212 0.60616-0.38489
  -2   0   369982.38 1160.59   1 0.41070-0.57562 0.77633-0.77633 0.47814-0.25684
   2   0  -365351.77 1057.33   1 0.70877-0.54380 0.60886-0.60886 0.35627-0.57754
  -2   0   368499.41  986.35   1 0.54289-0.70777-0.61052 0.61052 0.57664-0.35540
   2   0  -2596808.8 8301.78   1 0.63513-0.46451-0.52981 0.52981 0.56204-0.70959
  -2   0   2592567.8 8238.43   1 0.45050-0.62130-0.56127 0.56127 0.69427-0.54676
  -2   0   2587681.1 8182.71   1 0.28911-0.45985 0.81187-0.81187 0.50721-0.35970
   2   0  -2572191.4 7948.34   1 0.52920-0.35845 0.72556-0.72556 0.43988-0.58742
   2   0  -2613971.9 8436.48   1 0.67238-0.50163-0.42508 0.42508 0.60596-0.75343
  -2   0   1316985.0 4458.58   1 0.22811-0.40471-0.56265 0.56265 0.79459-0.72085
   2   0   038123.42  686.69   1 0.09117 0.09117-0.54799 0.54799 0.83149-0.83149
  -2   0   034676.64  636.84   1-0.09117-0.09117-0.51191 0.51191 0.85418-0.85418
  -2   0   038049.49  708.32   1-0.09122-0.09122 0.83580-0.83580 0.54139-0.54139
   2   0   038145.08  696.02   1 0.09122 0.09122 0.83983-0.83983 0.53512-0.53512
  -2   0   039309.48  682.73   1-0.09123-0.09123 0.92634-0.92634-0.36547 0.36547
   2   0   1 3150.93  292.54   1-0.22506 0.41329-0.47342 0.47342 0.85159-0.77785
  -2   0  -1 2862.62  192.07   1-0.42738 0.23914-0.39376 0.39376 0.81381-0.88755
  -2   0  -1 3502.89  218.54   1-0.31400 0.12573 0.79152-0.79152 0.52430-0.59806
   2   0   1 3409.65  263.11   1-0.10337 0.29169 0.83453-0.83453 0.54117-0.46740
  -2   0  -1 3634.64  605.66   1 0.01036-0.19868 0.95269-0.95269-0.30374 0.22998
   2   0   1 4011.01  553.19   1 0.18292 0.00534 0.96464-0.96464-0.18975 0.26350
   2   0   221198.74  522.08   1-0.45793 0.65201-0.37919 0.37919 0.80405-0.65657
  -2   0  -219294.50  453.26   1-0.67826 0.48416-0.24771 0.24771 0.69180-0.83918
  -2   0  -221488.30  510.06   1-0.51836 0.32426 0.70709-0.70709 0.48094-0.62838
   2   0   219009.76  456.61   1-0.25127 0.44540 0.80849-0.80849 0.53215-0.38463
   2   0   220128.71  515.81   1 0.25627-0.06220 0.95701-0.95701-0.13579 0.28328
   2   0   330030.20  642.51   1-0.59837 0.79835-0.30153 0.30153 0.74231-0.52124
  -2   0  -329638.61  581.24   1-0.82828 0.62833-0.11620 0.11620 0.54813-0.76921
  -2   0  -331801.90  645.72   1-0.68483 0.48488 0.59673-0.59673 0.41821-0.63936
   2   0   330321.10  597.71   1-0.35124 0.55124 0.77961-0.77961 0.51847-0.29719
   2   0   328950.46  854.92   1 0.31949-0.11958 0.94351-0.94351-0.08776 0.30899
   2   0   4523995.715345.38   1-0.67741 0.88328-0.24833 0.24833 0.69241-0.39766
  -2   0  -4523522.412222.91   1-0.80895 0.60332 0.47591-0.47591 0.34511-0.63993
   2   0   4502548.311666.11   1-0.41268 0.61859 0.75638-0.75638 0.50750-0.21264
  -2   0  -4545395.616009.97   1 0.06888-0.27469 0.96113-0.96113-0.26735-0.02767
   2   0   5238688.4 5664.94   1-0.72046 0.93222-0.21552 0.21552 0.65915-0.29070
  -2   0  -5263803.0 6203.57   1-0.89667 0.68517 0.35107-0.35107 0.26966-0.63818
   2   0   5242648.2 5708.73   1-0.44429 0.65610 0.74305-0.74305 0.50047-0.13188
  -2   0  -5268468.6 6381.72   1 0.05475-0.26642 0.95943-0.95943-0.27656-0.09222
   2   0   636251.11 1405.06   1-0.74246 0.96010-0.19748 0.19748 0.64011-0.19798
  -2   0  -635168.81 1347.53   1 0.03158-0.24914 0.95642-0.95642-0.29027-0.15227
   2   0   7 6361.07  504.33   1-0.75138 0.97491-0.18988 0.18988 0.63195-0.11613
  -2   0  -7 6574.76  784.20   1-0.98639 0.76302 0.11139-0.11139 0.12087-0.63669
  -2   0  -7 6811.64 1019.25   1 0.00355-0.22696 0.95137-0.95137-0.30802-0.20828
   2   0   826096.98 1501.13   1-0.75149 0.98091-0.18979 0.18979 0.63184-0.04233
  -2   0  -827312.83 1969.63   1-0.99874 0.76905-0.00929 0.00929 0.04920-0.63911
  -2   0  -827819.50 1549.70   1-0.02910-0.20015 0.94413-0.94413-0.32826-0.26180
   2   0   9 8107.62 1094.48   1-0.74512 0.98042-0.19523 0.19523 0.63770 0.02549
  -2   0  -9 7201.85 1256.23   1-0.06558-0.16952 0.93433-0.93433-0.35032-0.31351
   2   0  10 8505.63 1621.85   1-0.73355 0.97473-0.20490 0.20490 0.64800 0.08887
  -2   0 -10 7778.30 1491.05   1-0.10541-0.13554 0.92153-0.92153-0.37371-0.36387
   2   0  11 2585.90  606.40   1-0.71746 0.96453-0.21791 0.21791 0.66162 0.14894
  -2   0 -11 2592.35  525.67   1-0.14829-0.09850 0.90527-0.90527-0.39810-0.41324
   2   0  12 1027.84  445.62   1-0.69718 0.95013-0.23365 0.23365 0.67774 0.20651
   2  -1 -12 1096.07  455.08   1 0.94264-0.83110-0.05469-0.00850-0.32928-0.55605
   2   1 -12 1199.75  489.53   1 0.94021-0.82867-0.04917 0.11238-0.33700-0.54833
   2  -1 -11 5792.22 1813.76   1 0.95790-0.84045-0.09571 0.03250-0.27065-0.54090
   2   1 -11 6894.04 1786.35   1 0.95461-0.83716-0.08563 0.14884-0.28525-0.52630
   2   1 -1017360.89 2773.02   1 0.96533-0.84201-0.12201 0.18522-0.23075-0.50665
   2  -1 -1016033.54 2190.28   1 0.96846-0.84514-0.13716 0.07395-0.20801-0.52939
  -2   1  1019285.08 1624.94   1 0.58028-0.70432 0.69793-0.63467 0.41971 0.31797
   2   1  -9 1066.92  368.80   1 0.97179-0.84255-0.15983 0.22303-0.17340-0.49026
   2  -1  -9 1145.01  287.48   1 0.97340-0.84415-0.18086 0.11765-0.14064-0.52302
  -2  -1   9  378.13  227.13   1 0.35538-0.48511 0.79430-0.85755 0.49273 0.17106
  -2   1   9  444.64  270.45   1 0.61589-0.74603 0.67636-0.61311 0.40398 0.25982
   2   1  -9  719.71  167.19   1 0.12211 0.00763 0.96505-0.90186-0.23187-0.43194
   2   1  -866772.03 3422.59   1 0.97359-0.83842-0.19887 0.26208-0.11206-0.47786
   2  -1  -867587.42 3438.74   1 0.97165-0.83649-0.22671 0.16351-0.06691-0.52301
  -2  -1   865863.93 3306.77   1 0.38121-0.51693 0.78641-0.84966 0.48603 0.10411
  -2   1   869024.67 3492.78   1 0.64241-0.77836 0.65882-0.59558 0.39147 0.19858
   2   1  -869346.98 3467.20   1 0.22541-0.08981 0.96115-0.89797-0.15927-0.43078
   2   1  -783448.32 2861.24   1 0.96979-0.82869-0.23965 0.30285-0.04550-0.47067
   2  -1  -790232.75 3053.42   1 0.96107-0.81999-0.27587 0.21267 0.01516-0.53139
  -2  -1   790029.60 2966.96   1 0.38876-0.53032 0.78392-0.84717 0.48407 0.03231
  -2   1   785061.25 2910.37   1 0.65910-0.80085 0.64711-0.58387 0.38317 0.13313
   2   1  -780680.25 2640.36   1 0.33690-0.19535 0.93861-0.87545-0.07414-0.44206
  -2   1   781590.56 2633.45   1 0.82499-0.96628 0.31614-0.25296 0.46843 0.04788
  -2  -1   785242.37 2789.05   1 0.83504-0.97633 0.15273-0.21591 0.52856-0.01223
   2   1  -666544.42 2215.33   1 0.95865-0.81167-0.28320 0.34640 0.02782-0.47030
   2  -1  -673714.03 2419.67   1 0.93826-0.79128-0.32847 0.26527 0.10842-0.55090
  -2  -1   674302.21 2294.61   1 0.37443-0.52182 0.78859-0.85185 0.48776-0.04514
  -2   1   668537.08 2216.37   1 0.66490-0.81245 0.64292-0.57967 0.38020 0.06234
   2   1  -666134.53 2045.12   1 0.46198-0.31452 0.88637-0.82320 0.03020-0.47266
  -2   1   665396.03 1940.85   1 0.83077-0.97797 0.26679-0.20361 0.48849-0.04593
  -2  -1   668694.01 2076.80   1 0.83327-0.98034 0.10704-0.17023 0.54239-0.09974
   2   1  -543385.95 1205.30   1 0.93755-0.78467-0.32973 0.39293 0.11072-0.47946
   2  -1  -536242.56 1059.24   1 0.89726-0.74433-0.38472 0.32153 0.21657-0.58530
  -2  -1   535038.89  968.24   1 0.33412-0.48729 0.80041-0.86367 0.49768-0.12890
  -2   1   544250.00 1232.57   1 0.65753-0.81089 0.64823-0.58499 0.38396-0.01517
   2   1  -539804.23 1027.80   1 0.88790-0.73447 0.40552-0.34228 0.21718-0.58599
   2   1  -543536.13 1095.23   1 0.60422-0.45093 0.77992-0.71675 0.16318-0.53189
  -2  -1   534457.62  889.26   1 0.82425-0.97724 0.01516-0.07834 0.56601-0.19713
  -2   1   540935.93  965.67   1 0.82941-0.98240 0.05825 0.00492 0.55558-0.18670
   2  -1  -435449.66  990.89   1 0.82690-0.66809-0.44521 0.38202 0.34352-0.63851
  -2  -1   433790.05  906.89   1 0.25996-0.41898 0.81825-0.88151 0.51271-0.21769
  -2   1   443248.52 1198.53   1 0.63291-0.79207 0.66525-0.60200 0.39605-0.10102
   2   1  -440969.10 1050.65   1 0.75095-0.59179 0.57172-0.50847 0.33045-0.62548
   2  -1  -430645.68  836.80   1 0.89899-0.73978 0.38709-0.45033 0.20486-0.49990
   2   1  -443051.75 1062.24   1 0.74725-0.58822 0.57721-0.51404 0.32929-0.62430
  -2  -1   431460.35  797.94   1 0.79209-0.95117-0.13829 0.07508 0.59451-0.29937
   2  -1  -366518.88 1119.35   1 0.70913-0.54438-0.50572 0.44251 0.49129-0.71261
  -2  -1   367620.21 1095.30   1 0.14674-0.31162 0.83561-0.89887 0.52934-0.30807
  -2  -1   367944.11 1037.87   1 0.70940-0.87435-0.35647 0.29326 0.60800-0.38664
   2   1  -218391.08  503.14   1 0.73958-0.56896-0.49318 0.55639 0.45801-0.60556
   2  -1  -217347.44  443.27   1 0.51879-0.34799-0.55332 0.49009 0.65167-0.79918
  -2   1   217764.83  404.50   1 0.29490-0.46567-0.56567 0.62890 0.77008-0.62259
  -2  -1   216136.32  424.03   1-0.00510-0.16561 0.84121-0.90443 0.54068-0.39314
   2   1  -217329.12  447.29   1 0.29751-0.12677 0.80989-0.74663 0.50553-0.65304
  -2   1   218752.20  546.61   1 0.50158-0.67233 0.73897-0.67571 0.44981-0.30227
   2  -1  -216407.76  431.45   1 0.70058-0.52982 0.61554-0.67878 0.36094-0.50846
   2  -1  -217474.20  289.08   1 0.57532-0.40455 0.80679-0.86996 0.13446-0.28194
   2   1  -219042.72  394.80   1 0.76516-0.59433-0.22391 0.28712 0.60364-0.75121
  -2  -1   216574.91  351.15   1 0.56012-0.73084-0.58970 0.52652 0.58181-0.43432
   2   1  -1780302.510784.60   1 0.56780-0.39121-0.54498 0.60821 0.61691-0.69067
  -2   1   1768989.910622.53   1 0.04253-0.21908-0.54020 0.60341 0.84045-0.76674
  -2  -1   1866846.820002.09   1-0.18475 0.00822 0.82250-0.88571 0.53791-0.46415
  -2   1   1790215.318249.06   1 0.37177-0.54837 0.78926-0.72601 0.48871-0.41495
   2   1  -1788180.510860.25   1 0.56679-0.39022-0.58145 0.64464 0.58365-0.65738
   2   1   0991206.322844.04   1 0.29824-0.11581-0.56575 0.62898 0.76874-0.76874
  -2   1   0931984.521482.29   1-0.26189 0.07951-0.46093 0.52414 0.84790-0.84790
  -2  -1   0900694.320786.66   1-0.37006 0.18766 0.77306-0.83627 0.51518-0.51518
  -2   1   0999998.323062.87   1 0.18586-0.36832 0.83091-0.76766 0.52443-0.52443
   2  -1   0870053.120072.17   1 0.37541-0.19295 0.78811-0.85136 0.48779-0.48779
   2  -1   0845509.319501.57   1 0.41687-0.23447 0.90891-0.97207-0.00925 0.00925
  -2  -1  -137778.51  636.56   1-0.29909 0.11085-0.44746 0.38424 0.84280-0.91655
   2  -1   141658.09  797.67   1-0.35076 0.53899-0.42723 0.36402 0.83332-0.75958
  -2  -1  -141239.20  760.97   1-0.53882 0.35063 0.69590-0.75910 0.47474-0.54846
   2   1   136441.05  672.39   1-0.34654 0.53481 0.78119-0.71798 0.51926-0.44550
   2  -1   139673.11  712.41   1 0.19298-0.00466 0.82991-0.89317 0.52344-0.44968
  -2   1  -136384.12  721.08   1 0.25544-0.44368 0.95715-0.89399-0.13641 0.06267
   2  -1   218839.16  494.61   1-0.53506 0.72914-0.33890 0.27569 0.77385-0.62636
  -2   1  -223135.77  490.28   1-0.72754 0.53343-0.20982 0.27301 0.65319-0.80056
   2   1   223725.39  540.66   1-0.45521 0.64930 0.73818-0.67497 0.49786-0.35043
  -2   1  -224197.08  518.75   1-0.30420 0.11007 0.79442-0.73120 0.52569-0.67321
   2  -1   219050.34  438.54   1 0.02768 0.16650 0.84162-0.90485 0.53935-0.39181
  -2   1  -224292.47  581.32   1 0.25354-0.44766 0.95734-0.89415-0.13860-0.00890
   2  -1   399681.91 1623.48   1-0.64410 0.84409-0.27175 0.20856 0.71503-0.49397
  -2  -1  -396152.82 1467.20   1-0.81517 0.61522-0.13006 0.06687 0.56442-0.78550
  -2  -1  -3103606.1 1650.69   1-0.78832 0.58836 0.49877-0.56196 0.36023-0.58139
   2  -1   394211.75 1440.98   1-0.10246 0.30252 0.83463-0.89785 0.54119-0.31989
  -2  -1  -3107248.9 1736.76   1-0.10806-0.09194 0.92060-0.98378-0.37525 0.15397
   2   1   441302.21 1065.17   1 0.91144-0.70536 0.00545 0.05775-0.41138 0.70649
  -2  -1  -451112.05 1360.81   1-0.86975 0.66412 0.39469-0.45784 0.29620-0.59102
  -2   1  -446053.71 1183.16   1-0.72249 0.51664 0.56443-0.50124 0.39926-0.69414
   2   1   440748.60 1092.25   1-0.55768 0.76359 0.68506-0.62185 0.46869-0.17382
   2  -1   447917.56 1226.14   1-0.19392 0.39978 0.82080-0.88402 0.53727-0.24223
  -2  -1  -452939.40 1568.82   1-0.08780-0.11805 0.92746-0.99064-0.36346 0.06842
   2   1   5 2841.71  313.06   1-0.68591 0.89766-0.24209 0.30528 0.68623-0.31778
   2  -1   5 1160.65  350.17   1-0.74046 0.95222-0.19916 0.13597 0.64190-0.27346
  -2  -1  -5 1983.57  219.57   1-0.92800 0.71642 0.29101-0.35415 0.23263-0.60108
  -2   1  -5 3146.93  464.21   1-0.85298 0.64148 0.41915-0.35600 0.31101-0.67953
   2  -1   5 1395.87  148.41   1-0.24928 0.46101 0.80897-0.87218 0.53236-0.16356
  -2  -1  -5  639.85  170.24   1-0.08419-0.12751 0.92862-0.99180-0.36134-0.00745
  -2   1  -5 3706.21  488.40   1 0.18251-0.39418 0.96466-0.90147-0.19003-0.17875
   2   1   667134.17 2330.06   1-0.71593 0.93357-0.21913 0.28232 0.66289-0.22075
   2  -1   666960.57 2388.53   1-0.75784 0.97548-0.18427 0.12109 0.62586-0.18373
  -2  -1  -662763.94 2170.17   1-0.96716 0.74968 0.18927-0.25241 0.16962-0.61176
  -2   1  -664380.01 2188.39   1-0.93688 0.71941 0.27133-0.20819 0.22051-0.66264
   2  -1   658999.89 2007.40   1-0.27561 0.49320 0.80235-0.86556 0.52939-0.08683
  -2  -1  -666872.42 2358.49   1-0.09230-0.12525 0.92598-0.98917-0.36609-0.07645
  -2   1  -669088.85 2430.87   1 0.14801-0.36553 0.96552-0.90234-0.21414-0.22840
   2   1   7 7185.42  566.93   1-0.72921 0.95274-0.20845 0.27164 0.65175-0.13593
   2  -1   711812.66  692.21   1-0.76440 0.98788-0.17870 0.11551 0.61948-0.10361
  -2  -1  -712640.09 1672.43   1-0.99009 0.76672 0.09025-0.15339 0.10756-0.62338
  -2   1  -7 6898.52  386.92   1-0.98307 0.75969 0.12786-0.06472 0.13122-0.64704
   2  -1   710498.19  449.41   1-0.27848 0.50194 0.80159-0.86480 0.52904-0.01272
  -2  -1  -712073.12  671.29   1-0.10902-0.11438 0.92026-0.98344-0.37580-0.14051
  -2   1  -7 6791.39  858.19   1 0.11015-0.33352 0.96451-0.90133-0.23995-0.27634
   2   1   8 1488.23  441.66   1-0.73166 0.96107-0.20645 0.26964 0.64964-0.06013
   2  -1   8 1660.18  491.86   1-0.76334 0.99271-0.17964 0.11645 0.62051-0.03095
  -2   1  -8 1464.46  293.08   1-0.99887 0.76918-0.01753 0.08073 0.04398-0.63390
  -2  -1  -8 1172.41  252.82   1-0.99880 0.76911-0.01249-0.05071 0.04717-0.63709
  -2  -1  -8 2047.76  338.94   1-0.13236-0.09689 0.91161-0.97480-0.38914-0.20092
  -2   1  -8 2568.80  525.48   1 0.06944-0.29866 0.96119-0.89801-0.26699-0.32306
   2   1   926345.90 1537.95   1-0.72640 0.96170-0.21074 0.27393 0.65415 0.00904
   2  -1   923475.24 1470.55   1-0.75654 0.99184-0.18541 0.12222 0.62710 0.03609
  -2  -1  -926451.46 1480.77   1-0.99409 0.75847-0.10769 0.04448-0.01347-0.65017
  -2   1  -929015.90 1674.06   1 0.02499-0.26010 0.95533-0.89214-0.29447-0.36935
   2  -1  1043559.32 3119.87   1-0.74508 0.98626-0.19526 0.13208 0.63774 0.09914
   2   1  1041809.69 2985.19   1-0.71514 0.95632-0.21975 0.28294 0.66353 0.07335
  -2   1 -1047495.93 9956.57   1-0.02063-0.22032 0.94615-0.88296-0.32306-0.41452
   2  -1  1116779.13 1815.38   1-0.72948 0.97655-0.20824 0.14505 0.65152 0.15904
   2   1  1118213.79 1850.75   1-0.69878 0.94585-0.23243 0.29562 0.67651 0.13405
  -2   1 -1115286.86 2009.13   1-0.06859-0.17821 0.93344-0.87025-0.35211-0.45923
   2   1  12  502.76  279.51   1-0.67775 0.93070-0.24808 0.31127 0.69217 0.19208
   2  -1  12  537.44  329.79   1-0.71001 0.96296-0.22378 0.16059 0.66768 0.21657
  -2   1 -12  246.20  258.17   1-0.11891-0.13374 0.91669-0.85350-0.38148-0.50362
   2  -2 -12 2774.88 1190.15   1 0.94160-0.83006-0.05231-0.07408-0.33261-0.55271
   2   2 -12 4579.43  847.96   1 0.93702-0.82548-0.04221 0.16862-0.34669-0.53864
   2   2 -11 6473.06 1580.60   1 0.95138-0.83393-0.07652 0.20293-0.29835-0.51320
   2  -2 -11 6624.51 1536.05   1 0.95792-0.84047-0.09576-0.03064-0.27057-0.54098
   2   2 -1011268.08 2444.67   1 0.96247-0.83916-0.11049 0.23690-0.24784-0.48956
   2  -2 -10 9164.61 1719.02   1 0.96895-0.84564-0.13993 0.01352-0.20382-0.53358
  -2   2  1013058.81 1181.80   1 0.65017-0.77451 0.65345-0.52696 0.38765 0.34991
   2   2  -937523.63 2751.41   1 0.96988-0.84064-0.14554 0.27195-0.19530-0.46835
   2  -2  -933915.26 2885.97   1 0.97358-0.84434-0.18679 0.06038-0.13128-0.53238
  -2   2   938653.42 2425.94   1 0.68295-0.81310 0.62941-0.50292 0.37068 0.29313
   2   2  -936540.81 2328.06   1 0.27592-0.14604 0.95351-0.82719-0.12109-0.54259
   2   2  -8173436.313981.47   1 0.97342-0.83825-0.18138 0.30779-0.13982-0.45010
   2  -2  -8153909.3 7651.92   1 0.97033-0.83516-0.23633 0.10992-0.05102-0.53890
  -2   2   8174580.614043.41   1 0.70800-0.84395 0.60949-0.48300 0.35671 0.23334
   2   2  -8157381.0 7787.79   1 0.38129-0.24558 0.92364-0.79732-0.03861-0.55133
  -2   2   8159732.6 7821.35   1 0.55212-0.68777-0.59949 0.72584 0.57945 0.01051
   2   2  -7 9253.60 1102.94   1 0.97253-0.83143-0.21841 0.34482-0.08051-0.43567
   2  -2  -710540.62 1404.01   1 0.95624-0.81516-0.28987 0.16347 0.03944-0.55567
  -2  -2   710700.39  478.41   1 0.12270-0.26414 0.83784-0.96435 0.53193-0.01565
  -2   2   7 9093.70  599.79   1 0.72531-0.86706 0.59485-0.46836 0.34650 0.16979
   2   2  -7 7892.12  429.73   1 0.48932-0.34769 0.87041-0.74407 0.05430-0.57049
  -2   2   7 8356.20  321.13   1 0.79079-0.93220 0.46740-0.34106 0.39518 0.12107
  -2   2   7 8026.36  324.90   1 0.58987-0.73151-0.55144 0.67782 0.58988-0.07375
   2   2  -610500.37 1363.31   1 0.96616-0.81918-0.25740 0.38380-0.01630-0.42617
  -2   2   6 9175.82  618.77   1 0.73429-0.88185 0.58695-0.46046 0.34101 0.10153
   2   2  -6 7882.63  394.31   1 0.60113-0.45367 0.78294-0.65661 0.16007-0.60252
  -2   2   6 9110.40  328.90   1 0.78743-0.93471 0.47775-0.35141 0.38948 0.05301
  -2   2   6 9117.40  331.91   1 0.68429-0.83175-0.40371 0.53009 0.60725-0.16485
   2   2  -558707.48 1901.64   1 0.95277-0.79988-0.29868 0.42508 0.05491-0.42364
   2  -2  -578207.85 1973.45   1 0.87361-0.72068-0.40840 0.28203 0.26456-0.63329
  -2   2   558588.68 1612.33   1 0.73355-0.88691 0.58761-0.46112 0.34146 0.02731
   2   2  -557903.18 1420.65   1 0.82730-0.67387 0.49023-0.36374 0.27429-0.64310
   2   2  -560775.28 1527.80   1 0.70863-0.55535 0.64812-0.52174 0.27887-0.64758
  -2  -2   572771.14 1784.04   1 0.81967-0.97266-0.01495-0.11142 0.57263-0.20375
   2  -2  -4 2417.52  194.16   1 0.78229-0.62343-0.47230 0.34589 0.40611-0.70120
  -2  -2   4 2468.99  182.16   1-0.06500-0.09396 0.83811-0.96456 0.54160-0.24653
   2   2  -4 1533.29  210.84   1 0.61493-0.45577 0.67697-0.55048 0.40442-0.69945
  -2   2   4 1129.82  289.79   1 0.72047-0.87963 0.59902-0.47253 0.34940-0.05437
   2   2  -4 1164.80  175.08   1 0.79611-0.63708 0.45008-0.32374 0.40450-0.69950
  -2  -2   4 2665.06  215.48   1 0.79562-0.95470-0.12520-0.00121 0.59271-0.29756
   2   2  -394869.89 1551.70   1 0.89051-0.72583-0.39194 0.51831 0.23099-0.45223
   2  -2  -399197.14 1539.36   1 0.63151-0.46676-0.53079 0.40438 0.56519-0.78651
  -2   2   388765.06 1388.76   1 0.31093-0.47586-0.56598 0.69243 0.76353-0.54229
  -2  -2   394719.18 1447.96   1-0.18799 0.02319 0.82191-0.94833 0.53769-0.31641
   2   2  -387939.62 1335.93   1 0.33325-0.16837 0.80065-0.67415 0.49788-0.71914
  -2   2   389494.19 1540.63   1 0.69048-0.85544 0.62357-0.49708 0.36657-0.14530
   2  -2  -390407.38 1441.42   1 0.88618-0.72121 0.40828-0.53476 0.21903-0.44031
  -2   2   389678.02 1248.83   1 0.35627-0.52116 0.93253-0.80620-0.05878 0.28001
   2   2  -390254.14 1387.66   1 0.83510-0.67020 0.18310-0.05674 0.51872-0.74000
  -2  -2   398288.93 1497.43   1 0.74571-0.91066-0.27516 0.14874 0.60679-0.38542
   2   2  -2180096.0 2655.22   1 0.82544-0.65488-0.44620 0.57257 0.34574-0.49323
   2  -2  -2201231.7 2903.56   1 0.40092-0.23012-0.56465 0.43820 0.72140-0.86892
  -2   2   2174735.0 2533.83   1 0.11071-0.28147-0.55075 0.67717 0.82729-0.67986
  -2  -2   2205733.4 2959.07   1-0.32769 0.15702 0.78730-0.91373 0.52226-0.37474
   2   2  -2181269.1 2615.93   1 0.03821 0.13249 0.84156-0.71511 0.53880-0.68633
  -2   2   2175003.1 2632.33   1 0.63607-0.80684 0.66313-0.53664 0.39453-0.24702
  -2   2   2174821.8 2458.57   1 0.49758-0.66835 0.86521-0.73887 0.06170 0.08577
   2  -2  -2202257.7 2817.50   1 0.82741-0.65661 0.29795-0.42431 0.47603-0.62355
   2   2  -2174695.7 2523.74   1 0.79703-0.62629-0.12148 0.24785 0.59158-0.73913
  -2  -2   2203748.3 2919.35   1 0.65830-0.82905-0.44917 0.32279 0.60404-0.45657
   2   2  -133998.80  637.60   1 0.71342-0.53693-0.50405 0.63047 0.48676-0.56054
  -2   2   132167.36  585.53   1-0.14765-0.02887-0.49699 0.62341 0.85510-0.78135
  -2  -2   141049.53  749.01   1-0.46714 0.29075 0.73269-0.85909 0.49491-0.42119
   2   2  -133765.14  617.18   1-0.21238 0.38891 0.81717-0.69074 0.53583-0.60959
   2  -2  -139074.94  727.19   1 0.72241-0.54584 0.59736-0.72385 0.34824-0.42200
  -2   2   135534.60  614.13   1 0.49599-0.67258 0.86623-0.73989 0.06026 0.01347
   2  -2  -140571.63  661.99   1 0.72086-0.54428 0.62762-0.75400 0.29399-0.36774
   2   2  -136016.57  670.97   1 0.68742-0.51084-0.39792 0.52430 0.60754-0.68127
  -2  -2   0164797.9 2368.63   1 0.25607-0.43850-0.56425 0.43780 0.78488-0.78488
  -2   2   0166956.1 2424.09   1-0.41264 0.23026-0.40052 0.52695 0.81810-0.81810
  -2  -2   0172361.5 2546.80   1-0.59435 0.41206 0.66246-0.78886 0.45594-0.45594
  -2   2   0174311.1 2571.26   1 0.40476-0.58719 0.77844-0.65192 0.47978-0.47978
   2  -2   0155464.2 2292.60   1 0.60774-0.42537 0.68150-0.80799 0.40767-0.40767
   2  -2   0159053.8 2311.19   1 0.64487-0.46246 0.73595-0.86232 0.20619-0.20619
  -2  -2   0163941.4 2394.54   1 0.39112-0.57353-0.75947 0.63311 0.51982-0.51982
   2   2   1317749.4 4443.15   1 0.21549-0.02722-0.56176 0.68822 0.79873-0.72498
  -2  -2  -1301665.0 4209.34   1-0.15325-0.03497-0.49540 0.36898 0.85503-0.92877
  -2   2  -1308110.1 4363.45   1-0.62594 0.43772-0.28388 0.41026 0.72636-0.80004
  -2  -2  -1318193.1 4543.27   1-0.70241 0.51425 0.58207-0.70845 0.40963-0.48335
  -2   2  -1315533.4 4460.55   1 0.20107-0.38939 0.82872-0.70221 0.52228-0.59604
   2  -2   1319249.0 4510.19   1 0.47582-0.28755 0.75058-0.87709 0.45849-0.38472
  -2   2  -1319195.1 4570.86   1 0.44454-0.63278 0.89564-0.76932 0.01417-0.08791
   2  -2   1320057.8 4550.26   1 0.60724-0.41899 0.77692-0.90326 0.16625-0.09251
   2   2   2177640.1 2543.47   1-0.12833 0.32241-0.50232 0.62874 0.85510-0.70761
  -2  -2  -2169550.3 2421.58   1-0.56196 0.36788-0.32355 0.19713 0.76124-0.90873
   2  -2   2171933.3 2567.35   1-0.58034 0.77444-0.31259 0.18621 0.75198-0.60461
   2   2   2168774.7 2516.93   1-0.58797 0.78207 0.66654-0.54013 0.45826-0.31082
  -2   2  -2169645.4 2461.38   1-0.05977-0.13441 0.83850-0.71205 0.54160-0.68913
   2  -2   2168590.8 2456.02   1 0.33770-0.14352 0.79942-0.92593 0.49687-0.34935
  -2   2  -2165697.9 2497.71   1 0.41042-0.60449 0.91177-0.78545-0.01464-0.13284
   2   2   329601.93  596.68   1-0.39001 0.58994-0.41060 0.53702 0.82419-0.60296
   2  -2   327477.62  730.23   1-0.66973 0.86971-0.25387 0.12750 0.69785-0.47679
  -2  -2  -326398.27  506.95   1-0.80848 0.60854-0.13691 0.01051 0.57236-0.79345
  -2  -2  -328625.41  698.31   1-0.85946 0.65970 0.40991-0.53622 0.30542-0.52653
  -2   2  -329357.78  577.22   1-0.34297 0.14297 0.78238-0.65595 0.51985-0.74113
   2  -2   326747.19  521.41   1 0.20933-0.00929 0.82744-0.95395 0.52106-0.29979
  -2   2  -329752.33  740.31   1 0.37323-0.57314 0.92663-0.80031-0.04515-0.17607
   2   2   445524.92 1148.09   1 0.91994-0.71385-0.00909 0.13550-0.39194 0.68705
   2   2   447249.05 1215.44   1-0.54489 0.75067-0.33338 0.45980 0.76937-0.47441
  -2  -2  -453762.81 1731.36   1-0.91242 0.70679 0.32237-0.44868 0.25210-0.54691
  -2   2  -449755.98 1252.70   1-0.59858 0.39267 0.65971-0.53331 0.45438-0.74925
   2  -2   452790.17 1323.31   1 0.10318 0.10274 0.83911-0.96556 0.53407-0.23901
  -2   2  -447302.18 1341.96   1 0.33369-0.53943 0.93955-0.81323-0.07666-0.21830
   2   2   596312.79 2899.27   1 0.96223-0.75001-0.10958 0.23599-0.24917 0.61788
   2   2   5103525.7 3136.05   1-0.62854 0.84030-0.28217 0.40855 0.72478-0.35634
   2  -2   5104457.5 3244.32   1-0.75054 0.96230-0.19061 0.06423 0.63273-0.26429
  -2  -2  -5108005.7 3298.26   1-0.95120 0.73963 0.23605-0.36233 0.19869-0.56714
  -2   2  -5103804.5 3101.45   1-0.79197 0.58022 0.49472-0.36834 0.35780-0.72640
   2  -2   5103242.2 3085.89   1 0.02805 0.18373 0.84162-0.96807 0.53933-0.17050
  -2   2  -5103842.4 3608.98   1 0.29213-0.50371 0.95016-0.82384-0.10881-0.25990
   2   2   611114.55  625.86   1-0.67267 0.89032-0.25176 0.37813 0.69578-0.25365
   2  -2   614740.40  825.35   1-0.76538 0.98298-0.17783 0.05144 0.61852-0.17635
  -2  -2  -615452.23  743.90   1-0.97785 0.76038 0.15050-0.27678 0.14540-0.58754
  -2   2  -611854.53  698.18   1-0.91606 0.69869 0.31531-0.18900 0.24777-0.68999
   2  -2   611802.16  498.05   1-0.01600 0.23366 0.84087-0.96732 0.54099-0.09839
  -2   2  -611068.94 1680.19   1 0.24929-0.46681 0.95799-0.83163-0.14175-0.30078
   2   2   7  557.11  232.80   1-0.69377 0.91730-0.23622 0.36259 0.68034-0.16452
   2  -2   7 4718.62  731.90   1-0.77066 0.99414-0.17308 0.04669 0.61328-0.09742
  -2  -2  -7 4733.62  604.38   1-0.99370 0.76994 0.06134-0.18775 0.09369-0.60986
  -2   2  -7 1170.60  238.36   1-0.98120 0.75782 0.13636-0.01008 0.13654-0.65237
   2  -2   7 2826.05  210.09   1-0.03120 0.25474 0.84023-0.96668 0.54132-0.02495
  -2   2  -7 2504.76  384.54   1 0.20426-0.42763 0.96322-0.83686-0.17455-0.34174
   2   2   839097.60 2194.80   1-0.70059 0.93000-0.23105 0.35742 0.67511-0.08560
   2  -2   835867.54 2118.01   1-0.76915 0.99852-0.17444 0.04805 0.61479-0.02523
  -2   2  -836317.16 1968.59   1-0.99859 0.76890-0.04642 0.17284 0.02564-0.61556
  -2  -2  -834539.96 1938.50   1-0.99891 0.76922-0.02284-0.10356 0.04061-0.63053
  -2   2  -840917.35 2383.80   1 0.15755-0.38677 0.96545-0.83909-0.20753-0.38252
   2   2   9 9983.21 1269.25   1-0.69768 0.93298-0.23327 0.35964 0.67736-0.01416
   2  -2   9 6334.64  932.24   1-0.76240 0.99765-0.18048 0.05408 0.62142 0.04182
  -2  -2  -9 5377.24  705.19   1-0.99427 0.75865-0.10614-0.02027-0.01247-0.65117
  -2   2  -9 9644.93 1502.61   1 0.10916-0.34424 0.96446-0.83809-0.24062-0.42319
   2   2  10 1936.96  489.25   1-0.68746 0.92865-0.24094 0.36731 0.68508 0.05180
   2  -2  10 3687.96  817.10   1-0.75127 0.99245-0.18998 0.06361 0.63205 0.10482
  -2   2 -10 2369.99  649.20   1 0.05904-0.29996 0.95997-0.83361-0.27377-0.46379
   2   2  1128475.81 3325.46   1-0.67123 0.91830-0.25279 0.37917 0.69680 0.11376
   2  -2  1134582.51 5752.99   1-0.73627 0.98334-0.20265 0.07627 0.64561 0.16495
  -2   2 -1134298.34 5678.41   1 0.00585-0.25265 0.95182-0.82545-0.30658-0.50476
   2   3 -12  415.21  399.86   1 0.93254-0.82100-0.03290 0.22251-0.35955-0.52577
   2   3 -11 9635.68 1773.44   1 0.94699-0.82954-0.06511 0.25473-0.31459-0.49696
   2  -3 -11 6153.27 1743.98   1 0.95661-0.83916-0.09163-0.09797-0.27657-0.53498
  -2   3  11 8629.17  953.50   1 0.66116-0.77970 0.64563-0.45590 0.38212 0.42920
   2   3 -1027973.89 3563.67   1 0.95840-0.83504-0.09730 0.28691-0.26832-0.46945
   2  -3 -1026212.64 1938.16   1 0.96873-0.84541-0.13867-0.05094-0.20573-0.53166
  -2   3  1030120.23 2244.75   1 0.69793-0.82227 0.61767-0.42793 0.36243 0.37513
   2   3 -1027148.16 1981.53   1 0.28998-0.16593 0.95063-0.76115-0.11045-0.62698
   2   3  -9 2867.45  919.16   1 0.96688-0.83764-0.12913 0.31875-0.22011-0.44355
   2  -3  -9 2653.32  442.82   1 0.97362-0.84438-0.18891-0.00070-0.12792-0.53573
  -2   3   9 1518.84  365.95   1 0.72773-0.85788 0.59274-0.40300 0.34503 0.31877
   2   3  -9 2095.14  481.57   1 0.38859-0.25871 0.92082-0.73134-0.03266-0.63103
   2   3  -8 4382.57  905.45   1 0.97201-0.83684-0.16188 0.35150-0.17024-0.41968
   2  -3  -8 7688.61 1199.52   1 0.96931-0.83414-0.24240 0.05278-0.04091-0.54901
  -2  -3   8 6641.52  678.53   1-0.30875 0.17327 0.79308-0.98272 0.52505 0.06502
  -2   3   8 4185.60  634.15   1 0.75102-0.88697 0.57165-0.38192 0.33041 0.25964
   2   3  -8 5977.44  664.35   1 0.48571-0.34991 0.87262-0.68311 0.05108-0.64102
  -2   3   8 3657.59  399.85   1 0.73265-0.86822-0.30623 0.49586 0.60781-0.01752
   2  -3  -751268.28 1787.78   1 0.95194-0.81086-0.30064 0.11104 0.05837-0.57459
  -2  -3   749814.07 1636.40   1-0.28437 0.14303 0.80000-0.98964 0.52831-0.01199
  -2   3   753787.84 1990.52   1 0.76788-0.90963 0.55540-0.36566 0.31918 0.19711
   2   3  -748506.05 1677.18   1 0.58236-0.44073 0.80053-0.61103 0.14136-0.65756
  -2   3   748249.26 1717.40   1 0.68013-0.82177 0.69084-0.50127 0.24525 0.27093
  -2   3   751880.64 1846.06   1 0.76617-0.90762-0.22105 0.41068 0.60341-0.08690
   2   3  -635316.46 1915.89   1 0.97128-0.82426-0.22971 0.41933-0.06197-0.38046
   2  -3  -627983.07 1174.31   1 0.91541-0.76843-0.36321 0.17361 0.17344-0.61592
  -2  -3   627937.28  973.73   1-0.30396 0.15675 0.79449-0.98412 0.52572-0.08316
  -2   3   635607.42 1398.67   1 0.77799-0.92554 0.54522-0.35548 0.31218 0.13036
  -2   3   633850.21 1128.66   1 0.56829-0.71575 0.81286-0.62335 0.12762 0.31482
  -2   3   633258.42 1109.94   1 0.81144-0.95850-0.05946 0.24902 0.58140-0.13875
   2   3  -527651.80 1098.15   1 0.96399-0.81111-0.26592 0.45552-0.00186-0.36686
   2  -3  -535980.12 1186.27   1 0.84921-0.69628-0.42896 0.23941 0.30793-0.67666
  -2  -3   533441.69 1051.42   1-0.35490 0.20183 0.77837-0.96801 0.51785-0.14905
   2   3  -529990.84  941.97   1 0.73215-0.57880 0.58885-0.39911 0.34233-0.71112
  -2   3   534492.67 1324.28   1 0.78046-0.93382 0.54268-0.35294 0.31043 0.05835
  -2   3   531089.95  957.96   1 0.32191-0.47513 0.94286-0.75338-0.08587 0.45459
   2   3  -531597.94 1047.28   1 0.75347-0.60032 0.56399-0.37448 0.33791-0.70666
  -2   3   531450.68  947.89   1 0.83516-0.98826 0.17625 0.01328 0.52099-0.15219
  -2  -3   529403.29  970.86   1 0.81411-0.96710-0.04599-0.14356 0.57887-0.20999
   2   3  -4260354.5 6354.38   1 0.95037-0.79159-0.30427 0.49388 0.06481-0.35980
   2  -3  -4242552.9 5693.73   1 0.73538-0.57651-0.49502 0.30539 0.46277-0.75786
  -2   3   4246989.3 5788.03   1 0.29062-0.44971-0.56556 0.75525 0.77179-0.47681
  -2  -3   4237145.6 5536.79   1-0.42614 0.26748 0.75085-0.94046 0.50459-0.20973
   2   3  -4254178.3 5911.87   1 0.42587-0.26680 0.77077-0.58100 0.47385-0.76892
  -2   3   4245794.0 5682.65   1 0.80887-0.96790 0.40216-0.21265 0.42893-0.13392
   2   3  -4264495.9 6201.92   1 0.81212-0.65309 0.38798-0.19847 0.43580-0.73080
  -2  -3   4219074.0 5148.05   1 0.79359-0.95267-0.13279-0.05683 0.59377-0.29862
   2   3  -3163596.7 2496.17   1 0.92761-0.76293-0.34598 0.53558 0.14081-0.36205
   2  -3  -3158343.8 2334.13   1 0.55248-0.38747-0.54784 0.35817 0.62818-0.84945
  -2   3   3163794.7 2403.37   1 0.12819-0.29316-0.55303 0.74265 0.82323-0.60209
  -2  -3   3166020.0 2427.22   1-0.51024 0.34567 0.71137-0.90098 0.48330-0.26215
   2   3  -3167499.6 2423.06   1 0.09209 0.07275 0.83978-0.65011 0.53504-0.75634
  -2   3   3168518.7 2610.90   1 0.75429-0.91925 0.56857-0.37883 0.32827-0.10700
  -2   3   3164906.2 2335.32   1 0.75848-0.92339 0.55287-0.36336 0.34499-0.12374
   2   3  -3163190.3 2429.43   1 0.83516-0.67026 0.17702 0.01251 0.52074-0.74202
  -2  -3   3153829.6 2282.91   1 0.75660-0.92155-0.24732 0.05769 0.60529-0.38393
   2  -3  -3163674.7 2306.60   1 0.67951-0.51458-0.41241 0.22284 0.60677-0.82797
   2   3  -2 2103.46  173.02   1 0.89031-0.71975-0.39214 0.58170 0.23141-0.37890
  -2  -3   2 1586.78  166.52   1 0.71902-0.88964-0.50184 0.31221 0.48079-0.33324
   2  -3  -2 1611.42  166.55   1 0.29221-0.12145-0.56561 0.37593 0.77116-0.91865
  -2   3   2 1710.05  167.80   1-0.08670-0.08405-0.51302 0.70265 0.85398-0.70655
  -2  -3   2 1757.44  210.21   1-0.59619 0.42571 0.66127-0.85088 0.45527-0.30783
   2   3  -2 2044.95  180.81   1-0.19327 0.36394 0.82093-0.63129 0.53732-0.68484
  -2   3   2 2070.13  286.93   1 0.71739-0.88816 0.60164-0.41190 0.35123-0.20372
  -2   3   2 1916.20  170.00   1 0.70716-0.87792 0.65049-0.46093 0.27707-0.12959
   2  -3  -2 1302.96  119.56   1 0.83261-0.66186 0.09631-0.28587 0.54541-0.69297
   2   3  -2 2203.70  246.37   1 0.81299-0.64225-0.05175 0.24131 0.57996-0.72751
  -2  -3   2 1678.02  222.88   1 0.69558-0.86633-0.38247 0.19290 0.60817-0.46070
   2   3  -1166609.0 2442.75   1 0.82709-0.65066-0.44508 0.63463 0.34323-0.41698
  -2  -3   1158748.1 2320.53   1 0.61278-0.78927-0.53560 0.34598 0.58105-0.50728
   2  -3  -1160523.1 2356.38   1-0.01007 0.18662-0.53027 0.34064 0.84776-0.92148
  -2   3   1156762.5 2287.52   1-0.32523 0.14869-0.43745 0.62708 0.83836-0.76462
  -2  -3   1167301.0 2485.95   1-0.67719 0.50083 0.60290-0.79246 0.42180-0.34808
   2   3  -1163617.0 2399.59   1-0.39986 0.57624 0.76147-0.57186 0.51015-0.58387
   2  -3  -1154214.0 2304.58   1 0.83469-0.65816 0.48106-0.67079 0.26807-0.34183
  -2   3   1165953.7 2408.67   1 0.65884-0.83542 0.71897-0.52940 0.22137-0.14763
   2  -3  -1158801.8 2292.44   1 0.81036-0.63371 0.39580-0.58531 0.43203-0.50578
   2   3   0165348.2 2389.25   1 0.71373-0.53136-0.50393 0.69356 0.48644-0.48644
  -2  -3   0168957.9 2428.56   1 0.39758-0.57996-0.56481 0.37513 0.72312-0.72312
  -2  -3   0172694.0 2583.04   1-0.74994 0.56768 0.53863-0.72820 0.38400-0.38400
   2  -3   0157787.6 2313.38   1 0.76003-0.57750 0.54935-0.73886 0.34721-0.34721
  -2  -3   0162850.5 2413.09   1 0.49738-0.67980-0.66123 0.47169 0.56158-0.56158
   2   3   140886.93  678.87   1 0.50480-0.31663-0.55528 0.74495 0.66093-0.58717
  -2  -3  -141168.31  673.17   1 0.00097-0.18911-0.53248 0.34286 0.84643-0.92015
   2  -3   144507.39  857.32   1-0.47927 0.66750-0.36856 0.17892 0.79652-0.72278
  -2   3  -140887.47  754.77   1-0.70079 0.51257-0.23089 0.42046 0.67495-0.74864
  -2  -3  -145309.80 1155.42   1-0.81291 0.62489 0.47117-0.66064 0.34228-0.41598
   2   3   142588.48  806.48   1-0.62053 0.80868 0.64494-0.45537 0.44608-0.37236
  -2   3  -141523.33  787.86   1 0.39484-0.58310 0.78187-0.59210 0.48246-0.55623
   2  -3   144054.55  811.28   1 0.68971-0.50153 0.62418-0.81391 0.36700-0.29324
  -2   3  -142255.73  825.16   1 0.56652-0.75477 0.81436-0.62486 0.12591-0.19965
   2   3   2100779.2 1483.80   1 0.17514 0.01895-0.55830 0.74798 0.81093-0.66344
  -2  -3  -284519.26 1248.54   1-0.49406 0.29998-0.36097 0.17134 0.79094-0.93843
   2  -3   285950.53 1434.36   1-0.60532 0.79942-0.29717 0.10760 0.73842-0.59105
  -2   3  -295666.39 1476.26   1 0.16826-0.36244 0.83320-0.64343 0.52674-0.67425
  -2   3  -2101044.5 1650.84   1 0.52092-0.71500 0.84956-0.66005 0.08293-0.23042
   2   3   2103715.2 1680.91   1 0.48300-0.28889-0.67608 0.86562 0.55643-0.40894
   2   3   3132250.8 3109.55   1-0.16750 0.36743-0.49128 0.68092 0.85473-0.63351
   2  -3   3109623.4 2704.28   1-0.68196 0.88195-0.24500 0.05544 0.68912-0.46805
  -2  -3  -3130126.0 3055.55   1-0.81345 0.61350-0.13184-0.05774 0.56649-0.78757
  -2  -3  -3135316.9 3297.15   1-0.90862 0.70886 0.32955-0.51903 0.25650-0.47761
  -2   3  -3129998.5 3082.73   1-0.12121-0.07884 0.83243-0.64276 0.54069-0.76199
   2  -3   3130272.6 3091.09   1 0.51518-0.31523 0.73250-0.92227 0.44500-0.22369
   2   3   3140361.2 3436.30   1 0.42024-0.22029-0.73503 0.92457 0.53208-0.31084
   2   3   438393.27  966.57   1 0.93697-0.73089-0.04211 0.23172-0.34683 0.64195
   2   3   437229.32  961.78   1-0.40170 0.60747-0.40544 0.59508 0.82112-0.52615
   2  -3   435320.04 1123.06   1-0.72741 0.93329-0.20992 0.02036 0.65329-0.35854
  -2  -3  -438225.09 1098.37   1-0.94264 0.73696 0.25773-0.44716 0.21212-0.50687
  -2   3  -439341.49  999.10   1-0.43305 0.22714 0.74793-0.55832 0.50305-0.79792
   2  -3   435581.58  924.14   1 0.43382-0.22804 0.76775-0.95752 0.47153-0.17645
   2   3   518915.58  722.98   1 0.97070-0.75848-0.15110 0.34071-0.18682 0.55552
   2   3   519636.34  715.44   1-0.53312 0.74475-0.33998 0.52962 0.77471-0.40600
   2  -3   519626.65  847.56   1-0.75341 0.96517-0.18813-0.00142 0.63005-0.26161
  -2  -3  -518101.69  785.46   1-0.96836 0.75679 0.18529-0.37471 0.16714-0.53559
  -2   3  -520261.44  687.63   1-0.70339 0.49164 0.58123-0.39167 0.40914-0.77773
   2  -3   517704.14  609.24   1 0.36758-0.15582 0.79058-0.98034 0.48975-0.12097
  -2   3  -521664.36 1834.68   1 0.38175-0.59333 0.92347-0.73398-0.03824-0.33047
   2   3   648099.16 1623.14   1 0.97159-0.75344-0.22726 0.41688-0.06600 0.50845
   2   3   656128.87 1908.60   1-0.60247 0.82012-0.29896 0.48852 0.74002-0.29789
   2  -3   653810.05 1958.37   1-0.76690 0.98450-0.17646-0.01312 0.61702-0.17485
  -2  -3  -655014.33 2005.48   1-0.98615 0.76868 0.11266-0.30208 0.12166-0.56380
  -2   3  -654862.14 1838.08   1-0.88869 0.67132 0.36464-0.17516 0.27794-0.72016
   2  -3   652239.47 1729.23   1 0.32556-0.10794 0.80275-0.99251 0.49959-0.05706
  -2   3  -657055.00 2070.02   1 0.33358-0.55099 0.93959-0.75010-0.07675-0.36570
   2   3   7169568.4 6025.61   1-0.63785 0.86138-0.27597 0.46554 0.71900-0.20319
   2  -3   7191283.5 6914.18   1-0.77170 0.99519-0.17213-0.01745 0.61224-0.09638
  -2  -3  -7177861.2 6355.77   1-0.99636 0.77259 0.03550-0.22512 0.07746-0.59364
   2  -3   7165626.2 5820.59   1 0.31253-0.08905 0.80616-0.99593 0.50241 0.01387
  -2   3  -7164497.6 6116.45   1 0.28434-0.50758 0.95183-0.76235-0.11473-0.40146
   2   3   8 2616.99  420.86   1-0.65278 0.88219-0.26580 0.45536 0.70938-0.11987
   2  -3   8 3473.85  551.69   1-0.77020 0.99957-0.17349-0.01609 0.61374-0.02418
  -2  -3  -8 2636.48  403.64   1-0.99879 0.76910-0.03804-0.15157 0.03097-0.62088
  -2   3  -8 2122.77  438.33   1 0.23445-0.46368 0.96006-0.77051-0.15267-0.43738
   2   3   9 4987.14  513.32   1-0.65445 0.88975-0.26464 0.45420 0.70827-0.04507
   2  -3   9 4005.08  595.87   1-0.76375 0.99901-0.17927-0.01031 0.62010 0.04314
  -2  -3  -9 3710.93  390.71   1-0.99360 0.75799-0.11172-0.07789-0.01606-0.64759
  -2   3  -9 4026.61  581.20   1 0.18276-0.41783 0.96465-0.77510-0.18986-0.47395
   2   3  10 2932.09  722.58   1-0.64663 0.88781-0.27002 0.45959 0.71340 0.02348
   2  -3  10  410.43  430.34   1-0.75312 0.99430-0.18838-0.00117 0.63033 0.10655
  -2   3 -10 2160.80  602.47   1 0.12962-0.37054 0.96528-0.77573-0.22676-0.51080
   2  -3  11 4018.21  820.59   1-0.73879 0.98586-0.20055 0.01099 0.64339 0.16717
  -2   3 -11 3627.33 1017.62   1 0.07488-0.32166 0.96177-0.77222-0.26342-0.54791
   2   3  11 4946.04  987.61   1 0.39538-0.14866-0.75600 0.94554 0.52165 0.28955
   2   4 -11 8056.09 2064.02   1 0.94132-0.82387-0.05167 0.30448-0.33352-0.47803
  -2   4  11 9620.65 1356.49   1 0.69720-0.81574 0.61826-0.36527 0.36285 0.44848
   2   4 -10 6946.70 1857.00   1 0.95320-0.82984-0.08158 0.33439-0.29109-0.44668
   2  -4 -10 9663.52 1256.17   1 0.96755-0.84424-0.13243-0.12039-0.21514-0.52225
  -2   4  10 8664.46  877.49   1 0.73052-0.85486 0.59030-0.33731 0.34333 0.39423
   2   4 -10 5959.87 1561.96   1 0.37711-0.25306 0.92521-0.67257-0.04201-0.69541
   2   4  -927878.04 3331.10   1 0.96256-0.83332-0.11082 0.36365-0.24734-0.41632
   2  -4  -934763.03 2916.30   1 0.97357-0.84433-0.18634-0.06647-0.13199-0.53167
  -2   4   928362.83 1581.87   1 0.75774-0.88789 0.56528-0.31229 0.32600 0.33781
   2   4  -927014.47 1403.39   1 0.46767-0.33769 0.88319-0.63052 0.03517-0.69885
   2  -4  -811186.72 1267.93   1 0.96898-0.83382-0.24417-0.00865-0.03795-0.55196
  -2   4   8 4834.96  660.47   1 0.77928-0.91522 0.54390-0.29091 0.31127 0.27878
   2   4  -8 4191.16  496.59   1 0.55600-0.42020 0.82306-0.57039 0.11580-0.70574
   2   4  -741618.90 1713.26   1 0.97278-0.83169-0.17048 0.42331-0.15689-0.35929
   2  -4  -739573.12 1522.03   1 0.94890-0.80782-0.30755 0.05475 0.07065-0.58687
  -2   4   741287.10 1807.22   1 0.79498-0.93686 0.52744-0.27447 0.29966 0.21665
  -2   4   735054.71 1267.29   1 0.46827-0.60991 0.88285-0.63018 0.03570 0.48049
   2   4  -738659.46 1505.22   1 0.63878-0.49714 0.74302-0.49026 0.19968-0.71587
  -2   4   738792.38 1405.81   1 0.81828-0.95942-0.02318 0.27593 0.57434-0.05791
   2   4  -6139397.8 4626.75   1 0.97355-0.82653-0.20073 0.45356-0.10908-0.33335
   2  -4  -6152586.8 4943.33   1 0.90577-0.75872-0.37498 0.12224 0.19736-0.63984
  -2  -4   6140802.6 4492.90   1-0.72607 0.57920 0.56118-0.81393 0.39735 0.04496
  -2   4   6161494.2 5351.20   1 0.80527-0.95292 0.51607-0.26310 0.29189 0.15067
   2   4  -6141665.4 4515.72   1 0.90274-0.75509 0.38057-0.12760 0.20051-0.64308
  -2   4   6138400.7 4428.72   1 0.23564-0.38295 0.95990-0.70717-0.15180 0.59434
   2   4  -6154950.4 5046.43   1 0.71385-0.56639 0.63955-0.38679 0.28526-0.72772
  -2   4   6143918.3 4597.35   1 0.83096-0.97803 0.07482 0.17792 0.55126-0.10861
   2   4  -599154.80 3089.81   1 0.97102-0.81807-0.23164 0.48446-0.05879-0.30991
   2  -4  -590402.78 2745.07   1 0.82561-0.67268-0.44609 0.19335 0.34549-0.71422
  -2  -4   587160.68 2598.46   1-0.70441 0.55165 0.58035-0.83311 0.40862-0.04003
   2   4  -588493.12 2628.03   1 0.58690-0.43367 0.69406-0.44103 0.41691-0.78575
  -2   4   592519.80 2939.31   1 0.80923-0.96266 0.51158-0.25861 0.28882 0.07997
  -2   4   579516.46 2354.36   1-0.10239-0.05082 0.92257-0.66983-0.37197 0.74076
   2   4  -588780.32 2747.43   1 0.77531-0.62215 0.51185-0.25917 0.36999-0.73875
  -2   4   589117.35 2645.60   1 0.83482-0.98792 0.19787 0.05484 0.51372-0.14492
   2   4  -463556.50 1717.81   1 0.96455-0.80577-0.26381 0.51661-0.00545-0.28953
   2  -4  -462905.14 1571.04   1 0.68893-0.53006-0.51312 0.26030 0.51192-0.80701
  -2   4   463294.86 1581.48   1 0.10671-0.26588-0.55020 0.80304 0.82818-0.53331
  -2  -4   463003.67 1552.50   1-0.71508 0.55642 0.57106-0.82381 0.40316-0.10829
   2   4  -465250.36 1587.72   1 0.20473-0.04571 0.82816-0.57514 0.52174-0.81677
  -2   4   465172.63 1780.41   1 0.80568-0.96488 0.51561-0.26264 0.29157 0.00346
   2   4  -463577.26 1631.71   1 0.81793-0.65893 0.35892-0.10620 0.44962-0.74466
  -2   4   464472.48 1559.78   1 0.82385-0.98285 0.32392-0.07120 0.46511-0.17007
   2  -4  -461212.20 1469.91   1 0.46024-0.30121-0.69851 0.44579 0.54794-0.84293
   2   4  -3 8302.19 1064.84   1 0.95320-0.78852-0.29764 0.55044 0.05306-0.27430
   2  -4  -3 9502.45  380.59   1 0.47776-0.31274-0.55857 0.30568 0.67803-0.89930
  -2   4   3 6351.73  313.37   1-0.07231-0.09265-0.51651 0.76935 0.85321-0.63207
  -2  -4   310275.87  390.86   1-0.74193 0.57737 0.54637-0.79912 0.38859-0.16743
   2   4  -3 6383.13  285.89   1-0.12560 0.29045 0.83188-0.57897 0.54055-0.76185
  -2   4   3 6865.15  542.37   1 0.79248-0.95746 0.53014-0.27717 0.30151-0.08023
  -2   4   3 6733.69  263.69   1 0.79917-0.96407 0.43951-0.18683 0.41006-0.18880
   2   4  -3 6399.51  381.47   1 0.83507-0.67017 0.18560 0.06710 0.51788-0.73916
   2  -4  -3 9954.24  351.81   1 0.71624-0.55129-0.34227 0.08943 0.60814-0.82950
   2   4  -2123560.5 3022.66   1 0.93489-0.76431-0.33432 0.58712 0.11916-0.26665
   2  -4  -2105051.0 2516.40   1 0.20017-0.02941-0.56056 0.30765 0.80355-0.95104
  -2   4   2118391.6 2819.79   1-0.27925 0.10856-0.45475 0.70760 0.84570-0.69821
  -2  -4   2110318.3 2661.11   1-0.77660 0.60614 0.51145-0.76421 0.36782-0.22038
   2   4  -2118949.6 2834.61   1-0.36536 0.53603 0.77473-0.52188 0.51603-0.66355
  -2   4   2126083.8 2998.47   1 0.76522-0.93599 0.53719-0.28451 0.35476-0.20726
   2   4  -2125616.8 3041.69   1 0.82256-0.65182 0.00341 0.24933 0.56866-0.71621
   2  -4  -2102875.7 2448.00   1 0.82120-0.65046-0.00546-0.24728 0.57060-0.71815
   2   4  -156563.83 1052.78   1 0.90537-0.72893-0.37546 0.62820 0.19830-0.27204
  -2  -4   153631.12  901.42   1 0.67592-0.85242-0.51754 0.26471 0.52465-0.45088
   2  -4  -154549.04  938.28   1-0.09158 0.26814-0.51181 0.25897 0.85420-0.92791
  -2   4   155276.98  928.06   1-0.47968 0.30314-0.36835 0.62120 0.79637-0.72263
  -2  -4   153997.86 1003.88   1-0.81448 0.63820 0.46928-0.72191 0.34115-0.26745
   2   4  -156433.67  976.40   1-0.52404 0.70042 0.70404-0.45123 0.47926-0.55298
  -2   4   156563.51 1081.20   1 0.72000-0.89656 0.59942-0.34644 0.34969-0.27593
  -2   4   156446.17  973.93   1 0.72610-0.90268 0.61838-0.36563 0.30062-0.22688
   2  -4  -152661.73  883.85   1 0.83303-0.65633 0.23778-0.49050 0.49950-0.57326
   2   4  -158674.93 1072.12   1 0.78203-0.60533-0.17288 0.42572 0.59877-0.67255
   2   4   016733.58  400.68   1 0.85484-0.67253-0.42451 0.67725 0.29838-0.29838
  -2   4   016655.32  414.00   1-0.64356 0.46123-0.27211 0.52487 0.71538-0.71538
  -2  -4   022687.68  604.15   1-0.85115 0.66900 0.42171-0.67434 0.31255-0.31255
   2   4   016655.55  435.30   1-0.62434 0.80660 0.64229-0.38954 0.44457-0.44457
  -2   4   016905.58  531.83   1 0.64489-0.82726 0.65711-0.40413 0.39026-0.39026
   2  -4   022043.42  553.91   1 0.86922-0.68692 0.43421-0.68718 0.23644-0.23644
  -2   4   017133.15  487.89   1 0.68380-0.86621 0.68568-0.43293 0.24947-0.24947
   2  -4   021989.62  485.89   1 0.81089-0.62836 0.39348-0.64616 0.43315-0.43315
   2   4   017219.61  508.27   1 0.72232-0.53974-0.32927 0.58210 0.60813-0.60813
   2   4   127151.88  707.88   1 0.65421-0.46599-0.45596 0.70872 0.60341-0.52968
   2   4   248953.94 1180.93   1 0.55547-0.36151-0.54730 0.80020 0.62602-0.47851
  -2  -4  -247290.32 1138.55   1-0.42069 0.22661-0.39685 0.14400 0.81579-0.96328
   2  -4   247710.13 1294.22   1-0.61623 0.81033-0.29020 0.03745 0.73214-0.58476
  -2  -4  -244568.45 1514.88   1-0.91622 0.72234 0.31500-0.56763 0.24758-0.39499
  -2   4  -248219.69 1248.43   1 0.34485-0.53902 0.79739-0.54437 0.49522-0.64273
   2  -4   245999.32 1180.67   1 0.78557-0.59159 0.53736-0.79034 0.30678-0.15926
  -2   4  -248108.87 1316.99   1 0.59417-0.78824 0.78963-0.53696 0.15307-0.30056
   2   4   250801.67 1378.31   1 0.58913-0.39510-0.55242 0.80518 0.58969-0.44222
   2   4   320373.38  542.90   1 0.20392-0.00398-0.56087 0.81377 0.80239-0.58116
   2  -4   317327.36  638.02   1-0.68471 0.88470-0.24297-0.00977 0.68711-0.46604
  -2  -4  -318219.03  484.27   1-0.84042 0.64047-0.10276-0.15001 0.53209-0.75318
  -2  -4  -318421.16  672.65   1-0.94260 0.74283 0.25783-0.51039 0.21217-0.43324
  -2   4  -320332.00  616.32   1 0.08735-0.28741 0.84004-0.58714 0.53544-0.75674
   2  -4   316862.11  527.93   1 0.74386-0.54408 0.57830-0.83128 0.33501-0.11373
  -2   4  -315721.49  685.42   1 0.54754-0.74745 0.82980-0.57713 0.10776-0.32899
   2   4   322593.14  824.09   1 0.53325-0.33330-0.62177 0.87449 0.57361-0.35237
   2   4   430840.71  964.20   1 0.96160-0.75530-0.10723 0.36006-0.25263 0.54760
   2   4   430733.21  961.41   1-0.14429 0.35007-0.49793 0.75078 0.85512-0.56015
   2  -4   427843.92 1057.90   1-0.72634 0.93221-0.21079-0.04195 0.65420-0.35945
  -2  -4  -426887.87 1074.44   1-0.96427 0.75859 0.19853-0.45109 0.17539-0.47015
  -2   4  -432224.77 1023.05   1-0.23731 0.03144 0.81177-0.55892 0.53358-0.82862
   2  -4   426938.28  879.83   1 0.70820-0.50262 0.60932-0.86230 0.35659-0.06156
  -2   4  -433362.26 1215.25   1 0.49989-0.70562 0.86373-0.61106 0.06377-0.35874
   2   4   433361.18 1230.44   1 0.48990-0.28410-0.66902 0.92174 0.55892-0.26394
   2   4   551380.00 1725.16   1 0.97225-0.76003-0.22134 0.47416-0.07572 0.44442
   2   4   555310.23 1861.53   1-0.36505 0.57668-0.42127 0.67412 0.83021-0.46150
   2  -4   539414.92 1514.66   1-0.75071 0.96247-0.19046-0.06228 0.63257-0.26413
  -2  -4  -540093.52 1504.90   1-0.98090 0.76933 0.13766-0.39022 0.13736-0.50581
  -2   4  -557752.33 1926.73   1-0.57804 0.36622 0.67277-0.41996 0.46178-0.83036
   2  -4   537992.07 1299.89   1 0.68540-0.47401 0.62753-0.88051 0.36935-0.00056
  -2   4  -552337.76 1901.67   1 0.45171-0.66328 0.89193-0.63928 0.02033-0.38904
   2   4   557050.40 2101.35   1 0.45921-0.24757-0.69950 0.95222 0.54755-0.17882
   2   4   6 1417.76  253.58   1 0.95526-0.73747-0.29247 0.54527 0.04398 0.39849
   2   4   6 2913.37  262.46   1-0.48522 0.70270-0.36553 0.61838 0.79431-0.35186
   2  -4   6 2348.72  438.52   1-0.76368 0.98128-0.17934-0.07343 0.62018-0.17801
  -2  -4  -6 2891.44  533.47   1-0.99234 0.77449 0.07200-0.32483 0.10036-0.54280
  -2   4  -6 2198.73  168.98   1-0.85108 0.63371 0.42181-0.16918 0.31262-0.75484
   2  -4   6 2969.57  205.19   1 0.68508-0.46789 0.62778-0.88076 0.36953 0.07301
  -2   4  -6 2153.59  408.46   1 0.40200-0.61941 0.91538-0.66273-0.02162-0.42083
   2   4   6 1963.26  354.43   1 0.44020-0.22272-0.71725 0.96997 0.54014-0.09766
   2   4   762641.75 3134.20   1-0.54812 0.77145-0.33154 0.58439 0.76787-0.25168
   2  -4   772175.01 3729.09   1-0.76850 0.99198-0.17503-0.07774 0.61544-0.09958
  -2  -4  -775700.86 3861.97   1-0.99815 0.77438 0.00812-0.26096 0.06021-0.57639
  -2   4  -768436.19 3526.68   1 0.35117-0.57441 0.93419-0.68155-0.06285-0.45334
   2   4   768122.33 3482.70   1 0.43144-0.20810-0.72517 0.97789 0.53663-0.02041
   2   4   829926.18 1880.59   1-0.57809 0.80750-0.31394 0.56669 0.75315-0.16364
   2  -4   834576.59 2298.50   1-0.76731 0.99668-0.17609-0.07668 0.61661-0.02705
  -2  -4  -835183.00 2218.07   1-0.99820 0.76851-0.05669-0.19613 0.01911-0.60902
  -2   4  -828941.23 3119.54   1 0.29912-0.52820 0.94858-0.69594-0.10347-0.48647
   2   4   830987.56 2001.91   1 0.43146-0.20228-0.72515 0.97787 0.53664 0.05332
   2   4   927944.14 2237.55   1-0.58871 0.82401-0.30750 0.56025 0.74756-0.08437
   2  -4   929745.98 2473.59   1-0.76135 0.99661-0.18140-0.07137 0.62243 0.04081
  -2   4  -927471.38 2292.64   1 0.24630-0.48138 0.95844-0.70570-0.14396-0.51985
   2   4   930388.56 2501.15   1 0.43899-0.20396-0.71836 0.97108 0.53966 0.12405
   2  -4  10 1082.65  601.09   1-0.75131 0.99250-0.18994-0.06280 0.63201 0.10487
  -2   4 -10  812.62  360.70   1 0.19154-0.43247 0.96415-0.71141-0.18363-0.55393
   2   4  10  582.04  499.13   1 0.45298-0.21210-0.70541 0.95813 0.54515 0.19230
   2  -4  11 3990.82  856.72   1-0.73768 0.98475-0.20148-0.05127 0.64437 0.16619
  -2   4 -11 3814.75  984.44   1 0.13519-0.38197 0.96540-0.71267-0.22295-0.58837
   2   4  11 5008.49  967.39   1 0.47261-0.22589-0.68648 0.93920 0.55261 0.25859
   2   5 -1117212.59 1600.47   1 0.93424-0.81679-0.03638 0.35240-0.35476-0.45679
  -2   5  1115402.86 1468.72   1 0.72202-0.84056 0.59769-0.28146 0.34848 0.46284
   2   5 -1017236.28 2447.53   1 0.94657-0.82321-0.06407 0.38010-0.31606-0.42171
  -2   5  1021115.97 1743.20   1 0.75252-0.87686 0.57024-0.25401 0.32943 0.40814
   2   5 -1019213.65 1490.90   1 0.44165-0.31761 0.89710-0.58130 0.01170-0.74913
   2   5  -9 9711.64 1361.58   1 0.95651-0.82724-0.09132 0.40734-0.27703-0.38696
  -2   5   9 8852.27 1195.05   1 0.77755-0.90770 0.54566-0.22944 0.31248 0.35132
   2   5  -9 8888.61 1093.25   1 0.52437-0.39440 0.84711-0.53127 0.08611-0.74979
   2   5  -835822.29 3429.74   1 0.96430-0.82913-0.11768 0.43371-0.23719-0.35272
   2  -5  -828856.97 1894.23   1 0.96964-0.83447-0.24050-0.07552-0.04408-0.54583
  -2   5   834482.80 2298.36   1 0.79720-0.93332 0.52502-0.20880 0.29800 0.29208
   2   5  -834469.33 2182.37   1 0.60293-0.46713 0.78119-0.46534 0.16188-0.75182
   2   5  -770660.70 4339.25   1 0.96966-0.82857-0.14419 0.46022-0.19735-0.31883
   2  -5  -765096.06 3363.27   1 0.94789-0.80681-0.30973-0.00626 0.07454-0.59077
  -2   5   771194.66 3716.97   1 0.81223-0.95411 0.50814-0.19193 0.28648 0.22984
   2   5  -771952.75 3638.33   1 0.67424-0.53261 0.69891-0.38296 0.23856-0.75475
  -2   5   767734.61 3350.52   1 0.83202-0.97316 0.08797 0.22796 0.54772-0.03129
   2   5  -677746.50 2724.83   1 0.97278-0.82576-0.17041 0.48645-0.15699-0.28544
   2  -5  -666124.67 2215.15   1 0.89849-0.75143-0.38336 0.06743 0.21387-0.65634
  -2  -5   662753.78 2011.82   1-0.97150 0.82483 0.17447-0.49017 0.16039 0.28173
  -2   5   678952.31 2881.87   1 0.82219-0.96984 0.49642-0.18020 0.27850 0.16406
   2   5  -667324.03 2155.24   1 0.85140-0.70374 0.45927-0.14306 0.25333-0.69589
  -2   5   660912.82 1994.09   1-0.02209-0.12528 0.94581-0.62988-0.32396 0.76651
   2   5  -672448.47 2470.98   1 0.73673-0.58927 0.59863-0.28269 0.31440-0.75686
  -2   5   670102.59 2294.47   1 0.83498-0.98217 0.14932 0.16657 0.52963-0.08706
   2   5  -5 6054.16  684.52   1 0.97363-0.82068-0.19642 0.51245-0.11598-0.25271
   2  -5  -5 6189.26  367.08   1 0.80464-0.65171-0.45951 0.14358 0.37601-0.74474
  -2   5   5 3074.26  257.31   1 0.05328-0.20666-0.54204 0.85808 0.83866-0.47008
  -2  -5   5 6443.04  548.38   1-0.90907 0.75627 0.32871-0.64450 0.25599 0.11252
   2   5  -5 4126.30  227.02   1 0.39442-0.24119 0.78201-0.46572 0.48257-0.85142
  -2   5   5 3608.39  470.72   1 0.82667-0.98011 0.49099-0.17478 0.27481 0.09398
   2   5  -5 4486.38  392.83   1 0.78620-0.63304 0.48142-0.16557 0.38744-0.75619
  -2   5   5 4749.01  281.43   1 0.83370-0.98680 0.22633 0.08956 0.50369-0.13489
   2   5  -443646.59 1496.99   1 0.97215-0.81327-0.22231 0.53834-0.07413-0.22082
   2  -5  -457339.79 1762.55   1 0.64602-0.48716-0.52676 0.21072 0.55241-0.84750
  -2   5   441828.87 1315.17   1-0.09712-0.06204-0.51042 0.82646 0.85442-0.55955
  -2  -5   455957.08 1804.87   1-0.88374 0.72508 0.37277-0.68855 0.28289 0.01192
   2   5  -442389.22 1311.92   1-0.00195 0.16093 0.84129-0.52516 0.54057-0.83564
  -2   5   444887.08 1649.73   1 0.82482-0.98402 0.49325-0.17704 0.27635 0.01869
   2   5  -442054.10 1421.07   1 0.81997-0.66097 0.34770-0.03180 0.45469-0.74973
  -2   5   440833.39 1286.80   1 0.82555-0.98454 0.31219 0.00370 0.47010-0.17506
   2  -5  -456982.20 1735.89   1 0.55278-0.39375-0.59869 0.28279 0.57965-0.87463
   2   5  -365766.35 1776.09   1 0.96819-0.80339-0.24825 0.56428-0.03111-0.19010
   2  -5  -383318.78 2029.06   1 0.41239-0.24738-0.56403 0.24791 0.71539-0.93666
  -2   5   365438.28 1615.56   1-0.27366 0.10882-0.45676 0.77282 0.84644-0.62521
  -2  -5   378053.72 1919.24   1-0.87846 0.71393 0.38122-0.69701 0.28803-0.06692
   2   5  -363639.81 1562.56   1-0.28916 0.45396 0.79869-0.48262 0.52770-0.74898
  -2   5   372055.10 1970.59   1 0.81504-0.98001 0.50487-0.18866 0.28425-0.06297
  -2   5   370274.58 1743.96   1 0.80943-0.97434 0.39978-0.08393 0.43009-0.20884
   2   5  -372046.10 1869.14   1 0.83472-0.66982 0.20169 0.11420 0.51240-0.73368
   2  -5  -378205.82 1901.39   1 0.72338-0.55842-0.32696 0.01092 0.60812-0.82948
   2   5  -213300.53  489.96   1 0.96148-0.79090-0.27454 0.59054 0.01287-0.16036
   2  -5  -215139.40  489.09   1 0.12855 0.04220-0.55307 0.23703 0.82315-0.97058
  -2   5   215175.80  493.60   1-0.45244 0.28176-0.38186 0.69792 0.80589-0.65841
  -2  -5   214775.33  546.04   1-0.88498 0.71457 0.37076-0.68655 0.28167-0.13426
   2   5  -213398.47  452.16   1-0.47989 0.65036 0.72663-0.41061 0.49163-0.63907
  -2   5   215751.12  664.72   1 0.79465-0.96540 0.52780-0.21159 0.29991-0.15238
  -2   5   214664.04  531.90   1 0.78574-0.95651 0.48280-0.16695 0.38667-0.23916
   2   5  -214674.46  557.93   1 0.82866-0.65792 0.05104 0.26489 0.55740-0.70495
   2  -5  -213706.24  473.16   1 0.80825-0.63751-0.07453-0.24139 0.58409-0.73164
   2   5  -1157560.6 3841.67   1 0.95156-0.77508-0.30154 0.61754 0.05996-0.13371
  -2  -5   1147573.0 3501.14   1 0.71621-0.89271-0.50296 0.18692 0.48380-0.41003
   2  -5  -1159694.4 3795.65   1-0.14654 0.32308-0.49730 0.18124 0.85510-0.92885
  -2   5   1157595.2 3734.99   1-0.60788 0.43143-0.29554 0.61148 0.73697-0.66328
  -2  -5   1155463.9 3749.45   1-0.89827 0.72199 0.34827-0.66406 0.26795-0.19425
  -2   5   1167378.6 3997.51   1 0.75576-0.93241 0.55896-0.24311 0.34113-0.26737
   2  -5  -1135760.4 3237.92   1 0.83416-0.65750 0.12503-0.44097 0.53715-0.61093
   2   5   0122296.9 2916.85   1 0.93724-0.75485-0.33029 0.64629 0.11175-0.11175
  -2  -5   0131942.1 3116.80   1 0.57648-0.75886-0.54325 0.22713 0.61035-0.61035
   2  -5   0134496.8 3227.92   1-0.36502 0.54740-0.42129 0.10522 0.83022-0.83022
  -2  -5   0134340.3 3296.30   1-0.91501 0.73287 0.31736-0.63315 0.24903-0.24903
  -2   5   0125463.8 3072.20   1 0.70117-0.88354 0.61507-0.29884 0.36061-0.36061
  -2   5   0125520.0 3049.52   1 0.72121-0.90362 0.62701-0.31107 0.29443-0.29443
   2   5   111115.90  370.11   1 0.91543-0.72715-0.36319 0.67920 0.17340-0.09966
  -2  -5  -113635.72  394.04   1 0.26884-0.45711-0.56483 0.24869 0.78018-0.85392
   2  -5   112209.21  519.71   1-0.51749 0.70573-0.34855 0.03249 0.78147-0.70773
  -2  -5  -113612.83  649.82   1-0.93291 0.74494 0.28030-0.59600 0.22604-0.29973
  -2   5  -114291.31  549.03   1 0.60960-0.79777 0.68034-0.36411 0.40684-0.48059
   2  -5   113225.42  496.57   1 0.91195-0.72388 0.36394-0.68015 0.18943-0.11567
  -2   5  -111907.42  524.17   1 0.68267-0.87090 0.68729-0.37134 0.24816-0.32190
   2   5   112482.61  543.08   1 0.71477-0.52631-0.34537 0.66141 0.60812-0.53434
   2   5   262582.90 1486.55   1 0.87400-0.67993-0.40805 0.72398 0.26383-0.11634
  -2  -5  -272267.20 1701.55   1-0.34521 0.15113-0.42945 0.11338 0.83450-0.98198
   2  -5   275416.55 1958.26   1-0.61699 0.81109-0.28971-0.02622 0.73169-0.58432
  -2  -5  -272099.71 1913.16   1-0.95032 0.75644 0.23838-0.55408 0.20014-0.34752
  -2   5  -265003.21 1636.54   1 0.46749-0.66160 0.75415-0.43787 0.46118-0.60872
   2  -5   266477.85 1664.08   1 0.89469-0.70085 0.39437-0.71059 0.20973-0.06221
  -2   5  -264098.49 1697.22   1 0.64120-0.83525 0.74023-0.42429 0.20225-0.34974
   2   5   266108.60 1753.41   1 0.66461-0.47057-0.43854 0.75449 0.60495-0.45748
   2   5   3166393.4 4856.96   1 0.91956-0.71939-0.00842 0.32445-0.39284 0.61417
   2   5   3168603.1 4922.59   1 0.75122-0.55122-0.48790 0.80394 0.44452-0.22320
   2  -5   3177742.2 5358.26   1-0.68031 0.88030-0.24621-0.06972 0.69032-0.46925
  -2  -5  -3184805.0 5574.31   1-0.96612 0.76635 0.19264-0.50834 0.17172-0.39279
  -2   5  -3179280.7 5299.92   1 0.25480-0.45484 0.81929-0.50302 0.51363-0.73490
   2  -5   3165216.0 4890.70   1 0.88218-0.68256 0.41460-0.73082 0.22327-0.00199
  -2   5  -3178879.1 5390.56   1 0.59753-0.79743 0.78643-0.47058 0.15644-0.37767
   2   5   3183561.0 5523.39   1 0.61892-0.41907-0.51068 0.82663 0.59676-0.37556
   2   5   414874.23  493.74   1 0.96252-0.75653-0.27111 0.58712 0.00700 0.28798
   2   5   416047.00  503.93   1 0.36884-0.16306-0.56564 0.88177 0.73756-0.44258
   2  -5   417566.96  785.27   1-0.71977 0.92564-0.21607-0.09986 0.65972-0.36496
  -2  -5  -418272.34 1527.40   1-0.97947 0.77380 0.14381-0.45951 0.14121-0.43597
  -2   5  -415416.40  546.20   1-0.04410-0.16182 0.83954-0.52341 0.54150-0.83657
   2  -5   415837.06  576.80   1 0.87870-0.67331 0.41999-0.73620 0.22688 0.06815
  -2   5  -415920.43  788.69   1 0.55177-0.75750 0.82646-0.51062 0.11178-0.40674
   2   5   416333.20  815.00   1 0.58058-0.37491-0.56375 0.87969 0.58745-0.29252
   2   5   516906.04  688.14   1 0.92409-0.71221-0.35121 0.66722 0.15064 0.21809
   2   5   518125.17  632.66   1-0.03413 0.24544-0.52521 0.84125 0.85028-0.48170
   2  -5   519933.46  888.34   1-0.74346 0.95522-0.19664-0.11929 0.63921-0.27077
  -2  -5  -525275.67 2178.11   1-0.98974 0.77817 0.09242-0.40812 0.10892-0.47737
  -2   5  -518661.12  668.61   1-0.41829 0.20648 0.75410-0.43808 0.50631-0.87489
   2  -5   519156.77  689.76   1 0.89079-0.67963 0.40082-0.71704 0.21404 0.15475
  -2   5  -519291.79  863.43   1 0.50429-0.71585 0.86086-0.54502 0.06775-0.43646
   2   5   518014.50  846.67   1 0.55090-0.33925-0.60097 0.91687 0.57908-0.21035
  -2   5  -6  -58.71   37.73   1-0.79822 0.58057 0.48766-0.17172 0.35357-0.79589
   2   5   7 1026.28  182.95   1-0.39210 0.61543-0.40968 0.72574 0.82365-0.30746
   2  -5   7 4788.96  911.11   1-0.76166 0.98515-0.18113-0.13484 0.62214-0.10627
  -2  -5  -7 3223.17  633.35   1-0.99890 0.77513-0.02038-0.29564 0.04217-0.55835
  -2   5  -7 1708.99  329.71   1 0.40516-0.62841 0.91404-0.59824-0.01900-0.49719
   2   5   7  987.19  397.53   1 0.51894-0.29561-0.63795 0.95385 0.56895-0.05273
   2  -5   8 2294.13  504.81   1-0.76101 0.99038-0.18170-0.13427 0.62276-0.03321
  -2  -5  -8 2819.02  514.63   1-0.99694 0.76725-0.07791-0.23812 0.00558-0.59549
  -2   5  -8 2922.52  558.61   1 0.35308-0.58216 0.93357-0.61777-0.06133-0.52861
   2   5   8 2643.70  514.23   1 0.51522-0.28604-0.64205 0.95795 0.56771 0.02225
   2  -5   932682.47 2486.41   1-0.75562 0.99092-0.18621-0.12972 0.62797 0.03522
  -2   5  -930156.59 3352.59   1 0.29945-0.53437 0.94851-0.63270-0.10322-0.56047
   2   5   934441.17 2524.11   1 0.51858-0.28356-0.63835 0.95424 0.56883 0.09487
   2  -5  1024291.17 2475.45   1-0.74630 0.98748-0.19423-0.12170 0.63663 0.10025
  -2   5 -1018489.05 3690.47   1 0.24473-0.48566 0.95866-0.64275-0.14512-0.59245
   2   5  1026048.51 2611.13   1 0.52822-0.28735-0.62752 0.94342 0.57200 0.16545
   2  -5  1110152.32 1454.91   1-0.73339 0.98046-0.20503-0.11090 0.64814 0.16243
  -2   5 -11 7434.47 1341.86   1 0.18778-0.43455 0.96437-0.64846-0.18630-0.62502
   2   6 -11 9124.90 1289.05   1 0.92560-0.80815-0.01941 0.39863-0.37799-0.43356
  -2   6  11 5500.28  865.19   1 0.73866-0.85720 0.58303-0.20356 0.33829 0.47303
   2   6 -10 -179.25  399.75   1 0.93830-0.81494-0.04495 0.42418-0.34288-0.39489
  -2   6  10 1272.13  598.23   1 0.76685-0.89119 0.55642-0.17694 0.31989 0.41768
   2   6 -10  821.06  350.88   1 0.48824-0.36409 0.87107-0.49205 0.05334-0.79076
   2   6  -925889.13 1954.43   1 0.94882-0.81955-0.06976 0.44898-0.30799-0.35600
  -2   6   930796.53 2344.74   1 0.79004-0.92018 0.53263-0.15316 0.30354 0.36027
   2   6  -930817.88 2227.43   1 0.56437-0.43439 0.81617-0.43716 0.12383-0.78751
   2   6  -824736.87 1955.03   1 0.95730-0.82212-0.09379 0.47302-0.27343-0.31678
   2  -6  -818970.24 1088.05   1 0.97130-0.83613-0.22956-0.14966-0.06221-0.52771
  -2   6   820994.89 1465.92   1 0.80831-0.94442 0.51263-0.13317 0.28954 0.30054
   2   6  -821291.18 1242.85   1 0.63394-0.49813 0.74850-0.36937 0.19454-0.78449
   2   6  -742470.24 4045.81   1 0.96403-0.82294-0.11658 0.49582-0.23883-0.27735
   2  -6  -740494.25 2357.51   1 0.94970-0.80862-0.30578-0.07341 0.06750-0.58372
  -2   6   743810.05 2624.08   1 0.82234-0.96423 0.49623-0.11678 0.27837 0.23794
   2   6  -741350.23 2320.57   1 0.69651-0.55487 0.66709-0.28796 0.26431-0.78050
  -2   6   739867.35 2163.65   1 0.83516-0.97645 0.16353 0.21554 0.52513-0.00881
   2   6  -620276.75 2478.69   1 0.96877-0.82175-0.13893 0.51816-0.20534-0.23709
   2  -6  -6 9661.76 1003.29   1 0.89524-0.74818-0.38693 0.00781 0.22096-0.66344
   2   6  -614896.03 1472.37   1 0.74207-0.59452 0.57993-0.20046 0.33614-0.77868
  -2   6   616244.36 1753.41   1 0.83179-0.97945 0.48468-0.10523 0.27053 0.17202
   2   6  -618013.22 1866.37   1 0.74927-0.60199 0.57298-0.19395 0.33207-0.77458
  -2   6   617060.58 1725.59   1 0.83468-0.98188 0.20277 0.17629 0.51203-0.06947
   2   6  -534666.53 1347.76   1 0.97183-0.81888-0.16023 0.53947-0.17278-0.19592
   2  -6  -529491.41 1040.73   1 0.78846-0.63547-0.46892 0.08967 0.39803-0.76689
  -2   6   530998.22 1081.72   1-0.15632 0.00318-0.49452 0.87380 0.85498-0.48627
   2   6  -534286.53 1156.01   1 0.19462-0.04146 0.82968-0.45015 0.52321-0.89198
  -2   6   538943.93 1575.17   1 0.83634-0.98977 0.47897-0.09951 0.26665 0.10214
   2   6  -534793.53 1342.96   1 0.79139-0.63823 0.46552-0.08650 0.39620-0.76496
  -2   6   532679.00 1152.57   1 0.83165-0.98475 0.25668 0.12238 0.49239-0.12359
   2  -6  -527324.23  975.82   1 0.40559-0.25241-0.74754 0.36846 0.52598-0.89471
   2   6  -421132.13 1882.82   1 0.97337-0.81449-0.18027 0.55951-0.14156-0.15339
   2  -6  -413720.88  560.55   1 0.61000-0.45078-0.53579 0.15644 0.58379-0.87881
  -2   6   417773.70  677.55   1-0.30544 0.14645-0.44506 0.82434 0.84179-0.54682
  -2  -6   412577.79  682.08   1-0.96224 0.80377 0.20478-0.58362 0.17928 0.11547
   2   6  -416899.36  639.12   1-0.16435 0.32329 0.82600-0.44672 0.53917-0.83421
  -2   6   417513.97  878.42   1 0.83532-0.99452 0.48027-0.10081 0.26754 0.02750
  -2   6   418444.02  731.49   1 0.82440-0.98340 0.32025 0.05882 0.46668-0.17164
   2   6  -418166.87  839.11   1 0.81997-0.66098 0.34767 0.03139 0.45470-0.74974
   2  -6  -412410.83  524.41   1 0.59203-0.43293-0.54851 0.16937 0.59043-0.88537
   2   6  -375241.73 2462.53   1 0.97359-0.80879-0.19868 0.57792-0.11236-0.10885
   2  -6  -369402.08 2117.57   1 0.36039-0.19547-0.56583 0.18647 0.74158-0.96281
  -2   6   368798.64 2094.77   1-0.45951 0.29468-0.37841 0.75769 0.80351-0.58229
  -2  -6   365486.90 2024.16   1-0.94977 0.78539 0.23982-0.61867 0.20103 0.02002
   2   6  -362432.16 1908.56   1-0.40076 0.56533 0.76112-0.38190 0.50997-0.73112
  -2   6   373009.59 2394.05   1 0.82748-0.99246 0.49001-0.11055 0.27414-0.05286
  -2   6   369761.00 2156.20   1 0.81187-0.97677 0.38910-0.01008 0.43526-0.21400
   2   6  -373918.93 2338.95   1 0.83392-0.66902 0.22213 0.15693 0.50520-0.72648
   2  -6  -363437.12 1956.35   1 0.72138-0.55643-0.33129-0.04796 0.60814-0.82950
   2   6  -2106299.9 3248.37   1 0.97282-0.80209-0.21481 0.59405-0.08636-0.06112
   2  -6  -2113676.7 3407.70   1 0.07777 0.09298-0.54598 0.16673 0.83417-0.98160
  -2   6   298538.82 2955.16   1-0.59878 0.42822-0.30127 0.68040 0.74208-0.59470
  -2  -6   2102231.9 3232.13   1-0.94604 0.77576 0.24936-0.62820 0.20693-0.05956
  -2   6   2105356.9 3280.27   1 0.81076-0.98151 0.50983-0.13037 0.28763-0.14011
  -2   6   2107955.6 3277.05   1 0.79355-0.96433 0.45858-0.07956 0.39996-0.25245
   2   6  -2110740.1 3413.21   1 0.83247-0.66173 0.09429 0.28482 0.54598-0.69353
   2   6  -133195.73  959.46   1 0.97157-0.79491-0.22742 0.60666-0.06574-0.00799
  -2  -6   133592.75  897.94   1 0.73977-0.91627-0.49310 0.11385 0.45779-0.38402
   2  -6  -138808.10 1071.50   1-0.17972 0.35626-0.48765 0.10838 0.85433-0.92807
  -2   6   129608.20  813.97   1-0.71124 0.53480-0.22281 0.60194 0.66669-0.59300
  -2  -6   138561.99 1111.65   1-0.94853 0.77235 0.24304-0.62188 0.20302-0.12933
  -2   6   135771.85 1135.77   1 0.78161-0.95818 0.54148-0.16201 0.30961-0.23585
  -2   6   135521.88 1055.73   1 0.76969-0.94634 0.52625-0.14723 0.36141-0.28766
   2   6  -134925.45 1103.56   1 0.81695-0.64029-0.03072 0.40984 0.57587-0.64965
   2   6   015151.33  491.54   1 0.97071-0.78813-0.23378 0.61301-0.05525 0.05525
  -2  -6   012712.27  419.96   1 0.62296-0.80533-0.53304 0.15380 0.57252-0.57252
   2  -6   012569.07  513.16   1-0.37859 0.56097-0.41554 0.03626 0.82703-0.82703
  -2  -6   015352.50 1654.39   1-0.95499 0.77291 0.22580-0.60464 0.19234-0.19234
  -2   6   014971.28  600.85   1 0.73466-0.91703 0.58663-0.20715 0.34078-0.34078
  -2   6   016285.04  655.97   1 0.74114-0.92355 0.59002-0.21089 0.32026-0.32026
   2   6   014325.69  682.69   1 0.78977-0.60719-0.14663 0.52589 0.59561-0.59561
   2   6   1155947.5 3672.91   1 0.97172-0.78320-0.22620 0.60544-0.06774 0.14149
  -2  -6  -1148084.4 3468.61   1 0.35863-0.54690-0.56586 0.18650 0.74241-0.81615
   2  -6   1144863.4 3514.77   1-0.51763 0.70586-0.34848-0.03079 0.78142-0.70767
  -2  -6  -1146121.7 3639.30   1-0.96362 0.77565 0.20055-0.57939 0.17665-0.25033
  -2   6  -1160612.9 3868.87   1 0.66111-0.84928 0.64567-0.26619 0.38214-0.45590
  -2   6  -1163430.5 3988.65   1 0.70803-0.89627 0.64909-0.26995 0.27814-0.35188
   2   6   1162125.7 3944.95   1 0.75570-0.56724-0.24968 0.62894 0.60544-0.53165
   2   6   249046.73 1475.18   1 0.97258-0.77815-0.16798 0.54722-0.16077 0.30825
  -2  -6  -243545.31 1294.98   1-0.27521 0.08113-0.45621 0.07693 0.84624-0.99372
   2  -6   244970.36 1538.66   1-0.61000 0.80411-0.29419-0.08493 0.73575-0.58837
  -2  -6  -242691.97 1493.03   1-0.97299 0.77912 0.16913-0.54798 0.15706-0.30444
  -2   6  -251812.14 1659.89   1 0.54719-0.74129 0.71626-0.33672 0.43306-0.58059
  -2   6  -249895.65 1669.33   1 0.67123-0.86528 0.70295-0.32382 0.23515-0.38264
   2   6   248569.51 1626.75   1 0.71880-0.52447-0.33683 0.71609 0.60815-0.46058
   2  -6   3   53.68  351.06   1-0.67018 0.87017-0.25355-0.12557 0.69754-0.47647
  -2  -6  -3 2069.55  321.38   1-0.98199 0.78221 0.13284-0.51168 0.13434-0.35540
  -2   6  -3 1493.21  206.14   1 0.37380-0.57384 0.78862-0.40909 0.48819-0.70946
  -2   6  -3  767.30  302.05   1 0.63127-0.83115 0.75148-0.37235 0.19173-0.41295
   2   6   3 1041.05  524.03   1 0.68242-0.48256-0.40713 0.78627 0.60707-0.38587
   2  -6   455391.51 2024.66   1-0.70861 0.91448-0.22486-0.15425 0.66880-0.37404
  -2  -6  -455635.92 2053.35   1-0.98971 0.78404 0.09257-0.47141 0.10902-0.40378
  -2   6  -456293.51 1905.82   1 0.11679-0.32272 0.83814-0.45879 0.53279-0.82786
  -2   6  -457354.39 2088.88   1 0.58878-0.79451 0.79467-0.41566 0.14771-0.44268
   2   6   454113.71 2016.65   1 0.65062-0.44494-0.46182 0.84096 0.60283-0.30790
  -2  -6  -5120463.3 4423.61   1-0.99537 0.78345 0.04626-0.42551 0.08423-0.45292
  -2   6  -599742.48 3529.17   1-0.24354 0.03181 0.81033-0.43105 0.53296-0.90176
   2   6   5103454.0 3841.37   1 0.62470-0.41320-0.50215 0.88129 0.59799-0.22932
   2  -6   634405.29 1944.23   1-0.74566 0.96330-0.19478-0.18434 0.63722-0.19508
  -2  -6  -637194.59 2019.32   1-0.99850 0.78065-0.00056-0.37868 0.05472-0.49716
  -2   6  -622498.69 1118.16   1-0.71117 0.49352 0.57450-0.19537 0.40518-0.84750
  -2   6  -638954.94 2104.28   1 0.49656-0.71394 0.86586-0.48685 0.06078-0.50323
   2   6   637276.53 2050.56   1 0.60552-0.38820-0.52992 0.90906 0.59373-0.15133
   2  -6   710236.25 1041.74   1-0.75150 0.97503-0.18978-0.18934 0.63184-0.11602
  -2  -6  -712222.28  953.27   1-0.99848 0.77471-0.04977-0.32946 0.02351-0.53969
  -2   6  -714084.15 1911.03   1 0.44791-0.67115 0.89391-0.51495 0.01706-0.53326
   2   6   714121.27 1088.55   1 0.59328-0.37014-0.54683 0.92597 0.59075-0.07461
   2  -6   813746.43 1077.71   1-0.75157 0.98098-0.18972-0.18940 0.63177-0.04226
  -2  -6  -814527.51  948.25   1-0.99483 0.76514-0.10108-0.27816-0.00924-0.58067
  -2   6  -819463.96 2231.40   1 0.39685-0.62593 0.91751-0.53855-0.02588-0.56406
   2   6   820413.61 1221.38   1 0.58775-0.35879-0.55427 0.93341 0.58934 0.00052
   2  -6   9 1602.16  697.83   1-0.74697 0.98227-0.19366-0.18546 0.63601 0.02717
  -2   6  -9 2806.58  828.91   1 0.34391-0.57883 0.93649-0.55752-0.06861-0.59507
   2   6   9 3364.25  817.00   1 0.58850-0.35372-0.55327 0.93241 0.58953 0.07406
   2  -6  10 1009.11  502.38   1-0.73838 0.97957-0.20089-0.17822 0.64375 0.09312
  -2   6 -10 1305.32  455.39   1 0.28907-0.52983 0.95083-0.57186-0.11113-0.62629
   2   6  10 2959.57  724.87   1 0.59503-0.35443-0.54444 0.92358 0.59119 0.14614
   2   7 -1012033.17 1687.75   1 0.92820-0.80484-0.02435 0.46678-0.37126-0.36651
  -2   7  1012205.53 1570.14   1 0.77539-0.89973 0.54787-0.10515 0.31400 0.42357
   2   7 -1011353.44 1445.86   1 0.52301-0.39886 0.84808-0.40590 0.08485-0.82228
   2   7  -9 5924.48 1371.49   1 0.93914-0.80987-0.04679 0.48922-0.34032-0.32367
  -2   7   9 7378.90 1656.32   1 0.79677-0.92711 0.52549-0.08279 0.29833 0.36551
   2   7  -9 6710.70 1479.52   1 0.59243-0.46245 0.79127-0.34909 0.15134-0.81502
   2   7  -810256.30 1723.79   1 0.94818-0.81300-0.06812 0.51055-0.31032-0.27990
  -2   7   810265.93 1341.87   1 0.81410-0.95022 0.50596-0.06326 0.28500 0.30508
   2   7  -724792.84 2687.58   1 0.95548-0.81439-0.08820 0.53063-0.28154-0.23490
   2  -7  -728683.12 1523.05   1 0.95496-0.81388-0.29323-0.14917 0.04532-0.56155
  -2   7   723031.55 1491.21   1 0.82723-0.96911 0.49032-0.04762 0.27435 0.24196
   2   7  -726315.16 1570.05   1 0.71030-0.56866 0.64541-0.20309 0.28090-0.79710
  -2   7   723539.84 1285.73   1 0.83395-0.97524 0.22141 0.22084 0.50546 0.01085
   2   7  -637402.39 2401.54   1 0.96118-0.81418-0.10681 0.54923-0.25440-0.18825
   2  -7  -651923.23 2798.84   1 0.89764-0.75058-0.38430-0.05798 0.21574-0.65822
  -2   7   639815.22 2369.06   1 0.83610-0.98376 0.47927-0.03658 0.26686 0.17569
   2   7  -635235.57 2013.68   1 0.75645-0.60917 0.55743-0.11524 0.34211-0.78461
  -2   7   639695.93 2171.94   1 0.83233-0.97952 0.24806 0.19418 0.49566-0.05310
   2   7  -553989.48 2160.70   1 0.96561-0.81266-0.12326 0.56570-0.22889-0.13981
   2  -7  -545027.03 1652.01   1 0.77912-0.62613-0.47401 0.03156 0.41021-0.77907
  -2   7   544541.36 1632.68   1-0.37289 0.21975-0.41797 0.86046 0.82840-0.45969
  -2  -7   545240.83 1658.79   1-0.99891 0.84623-0.02241-0.42003 0.04089 0.32780
   2   7  -546322.49 1677.28   1 0.02701 0.12608 0.84162-0.39904 0.53938-0.90821
  -2   7   549102.65 2041.76   1 0.84048-0.99391 0.47368-0.03099 0.26307 0.10572
   2   7  -553232.45 2080.91   1 0.79321-0.64005 0.45968-0.01749 0.39937-0.76812
  -2   7   547147.91 1771.87   1 0.82861-0.98171 0.28783 0.15441 0.48015-0.11135
   2   7  -4124358.2 4155.34   1 0.96857-0.80969-0.13778 0.58023-0.20707-0.08788
   2  -7  -4116001.9 3754.16   1 0.58322-0.42399-0.54185 0.09928 0.60518-0.90020
  -2   7   4118699.5 3841.40   1-0.50102 0.34203-0.35733 0.79982 0.78821-0.49324
  -2  -7   4110396.5 3724.88   1-0.99175 0.83315 0.07619-0.51864 0.10299 0.19196
   2   7  -4101524.8 3295.05   1-0.27968 0.43862 0.80127-0.35878 0.52890-0.82394
  -2   7   4102864.2 3540.59   1 0.83979-0.99899 0.47457-0.03187 0.26367 0.03136
   2   7  -4121795.5 4073.86   1 0.81866-0.65967 0.35495 0.08729 0.45142-0.74646
  -2   7   4118158.4 3874.57   1 0.82178-0.98077 0.33709 0.10516 0.45939-0.16435
   2   7  -371321.89 2630.01   1 0.97042-0.80562-0.14914 0.59159-0.18980-0.03141
   2  -7  -369661.73 2352.20   1 0.32294-0.15801-0.56609 0.12351 0.75844-0.97968
  -2   7   368315.00 2306.37   1-0.61887 0.45419-0.28849 0.73081 0.73058-0.50952
  -2  -7   366366.00 2276.02   1-0.98402 0.81965 0.12332-0.56531 0.12837 0.09269
  -2   7   371853.89 2465.85   1 0.81105-0.97596 0.39275 0.04944 0.43351-0.21225
   2   7  -376867.21 2714.86   1 0.83253-0.66763 0.24532 0.19692 0.49669-0.71797
   2   7  -276896.93 2820.01   1 0.97133-0.80060-0.15589 0.59834-0.17946 0.03198
   2  -7  -280844.85 2711.32   1 0.04607 0.12468-0.54081 0.09835 0.83987-0.98730
  -2   7   271027.72 2400.71   1-0.71679 0.54623-0.21844 0.66076 0.66217-0.51480
  -2  -7   277249.85 2652.68   1-0.97886 0.80858 0.14637-0.58835 0.14282 0.00455
  -2   7   280489.25 2846.66   1 0.81853-0.98928 0.50077-0.05807 0.28146-0.13394
  -2   7   280231.10 2747.49   1 0.79576-0.96653 0.45128-0.00909 0.40386-0.25636
   2   7  -279327.47 2770.53   1 0.83460-0.66379 0.13456 0.30768 0.53416-0.68168
   2   7  -144181.64 1439.59   1 0.97125-0.79459-0.15524 0.59768-0.18047 0.10673
  -2  -7   156246.86 1852.53   1-0.97754 0.80136 0.15178-0.59376 0.14620-0.07251
  -2   7   144413.13 1545.68   1 0.79354-0.97006 0.52900-0.08630 0.30073-0.22697
  -2   7   143392.35 1465.17   1 0.77578-0.95243 0.51061-0.06842 0.37072-0.29697
   2   7  -139115.03 1381.12   1 0.82580-0.64913 0.02671 0.41559 0.56332-0.63710
   2   7   030576.74 1031.56   1 0.96914-0.78656-0.14104 0.58348-0.20214 0.20214
  -2  -7   035243.89 1118.15   1 0.64840-0.83078-0.52607 0.08362 0.55028-0.55028
   2  -7   035248.83 1185.61   1-0.37938 0.56176-0.41520-0.02728 0.82684-0.82684
  -2  -7   036567.60 1832.67   1-0.97921 0.79714 0.14489-0.58687 0.14189-0.14189
  -2   7   030593.53 1189.96   1 0.75350-0.93587 0.56931-0.12659 0.32879-0.32879
  -2   7   029950.46 1124.72   1 0.75122-0.93374 0.56884-0.12665 0.33477-0.33477
   2   7   028923.48 1074.55   1 0.80820-0.62562-0.07478 0.51709 0.58413-0.58413
   2   7   112964.23  516.47   1 0.95766-0.76930-0.09493 0.53735-0.27178 0.34556
  -2  -7  -115608.17  577.59   1 0.41756-0.60572-0.56372 0.12115 0.71263-0.78639
   2  -7   115511.27  748.05   1-0.50898 0.69721-0.35312-0.08936 0.78500-0.71126
  -2  -7  -116211.62 1359.44   1-0.98284 0.79487 0.12891-0.57089 0.13187-0.20556
  -2   7  -113677.46  675.98   1 0.69185-0.88002 0.62250-0.17978 0.36582-0.43958
  -2   7  -113159.34  719.98   1 0.72274-0.91098 0.62433-0.18201 0.29636-0.37011
   2   7   112818.76  686.85   1 0.78407-0.59561-0.16616 0.60863 0.59800-0.52421
  -2  -7  -230432.33 1007.40   1-0.22575 0.03167-0.47319 0.03071 0.85153-0.99902
   2  -7   233676.91 1358.51   1-0.59674 0.79085-0.30254-0.13977 0.74320-0.59583
  -2  -7  -232244.98 1290.10   1-0.98742 0.79354 0.10589-0.54787 0.11741-0.26478
  -2   7  -236437.58 1369.67   1 0.59738-0.79148 0.68779-0.24500 0.41239-0.55993
  -2   7  -237642.39 1445.07   1 0.69007-0.88412 0.67667-0.23435 0.25673-0.40422
   2   7   237595.07 1469.70   1 0.75714-0.56280-0.24587 0.68834 0.60520-0.45763
   2  -7   362244.61 2204.02   1-0.65520 0.85519-0.26411-0.17819 0.70777-0.48670
  -2  -7  -363855.84 2284.86   1-0.99186 0.79179 0.07547-0.51792 0.10253-0.32375
  -2   7  -360619.87 2044.54   1 0.45442-0.65436 0.75959-0.31679 0.46530-0.68661
  -2   7  -360911.33 2176.81   1 0.65387-0.85375 0.72512-0.28280 0.21594-0.43716
   2   7   365226.77 2319.97   1 0.72989-0.52967-0.31251 0.75497 0.60794-0.38658
   2  -7   447808.25 2026.05   1-0.69343 0.89930-0.23648-0.20583 0.68060-0.38585
  -2  -7  -446487.66 2107.65   1-0.99579 0.78980 0.04182-0.48428 0.08144-0.37640
  -2   7  -449807.25 1830.00   1 0.23829-0.44419 0.82247-0.37969 0.51647-0.81149
  -2   7  -450721.23 2049.32   1 0.61471-0.82045 0.76933-0.32715 0.17389-0.46885
   2   7   448125.60 1990.65   1 0.70468-0.49859-0.36600 0.80847 0.60783-0.31268
   2  -7   514978.04 1698.01   1-0.71759 0.92935-0.21781-0.22450 0.66152-0.29308
  -2   7  -515359.59 1543.62   1-0.08456-0.12723 0.83644-0.39386 0.54148-0.91031
   2   7   517001.80 1853.33   1 0.68251-0.47102-0.40696 0.84929 0.60708-0.23841
   2  -7   612872.11 1198.06   1-0.73172 0.94937-0.20640-0.23590 0.64959-0.20746
  -2  -7  -615173.13 1397.31   1-0.99882 0.78098-0.03634-0.40610 0.03205-0.47449
  -2   7  -612410.25 1161.50   1 0.52778-0.74516 0.84467-0.40249 0.08926-0.53171
   2   7   613200.24 1262.72   1 0.66578-0.44847-0.43653 0.87886 0.60511-0.16271
   2  -7   715976.65 1134.06   1-0.73841 0.96194-0.20087-0.24144 0.64372-0.12790
  -2  -7  -715275.15 1008.79   1-0.99679 0.77302-0.07984-0.36260 0.00434-0.52052
  -2   7  -723201.26 1444.00   1 0.48061-0.70382 0.87569-0.43351 0.04655-0.56275
   2   7   720030.04 1245.53   1 0.65438-0.43125-0.45566 0.89799 0.60344-0.08730
   2  -7   8 4013.19  826.98   1-0.73933 0.96875-0.20010-0.24221 0.64291-0.05340
  -2   7  -8 5738.08 1209.22   1 0.43170-0.66078 0.90200-0.45988 0.00323-0.59318
   2   7   8 5709.57 1165.73   1 0.64844-0.41948-0.46534 0.90767 0.60247-0.01260
   2  -7   925302.63 2552.52   1-0.73555 0.97085-0.20325-0.23906 0.64625 0.01694
  -2   7  -914636.55 2373.03   1 0.38007-0.61499 0.92410-0.48198-0.03961-0.62408
   2  -7  1014385.73 1479.00   1-0.72775 0.96893-0.20965-0.23266 0.65301 0.08387
  -2   7 -10 6596.73 1611.21   1 0.32625-0.56700 0.94167-0.49955-0.08249-0.65494
   2   7  1012154.96 1213.38   1 0.65233-0.41173-0.45903 0.90136 0.60311 0.13422
   2   8 -1010335.89 1347.91   1 0.91610-0.79274-0.00239 0.50802-0.40093-0.33684
  -2   8  10 7687.34 1081.10   1 0.77940-0.90374 0.54377-0.03780 0.31118 0.42638
   2   8 -10 7903.45 1038.05   1 0.54812-0.42397 0.82935-0.32400 0.10831-0.84573
   2   8  -929746.44 4776.04   1 0.92725-0.79798-0.02253 0.52817-0.37374-0.29025
  -2   8   931230.82 5001.99   1 0.79951-0.92984 0.52249-0.01655 0.29627 0.36756
   2   8  -927643.51 2716.02   1 0.61182-0.48184 0.77230-0.26695 0.17092-0.83460
   2   8  -838188.66 2714.71   1 0.93657-0.80140-0.04126 0.54689-0.34801-0.24220
  -2   8   835827.67 2598.81   1 0.81578-0.95189 0.50401 0.00192 0.28366 0.30641
   2   8  -836824.01 2614.33   1 0.66853-0.53272 0.70652-0.20101 0.23213-0.82207
   2   8  -7 1050.27  324.39   1 0.94419-0.80310-0.05832 0.56396-0.32418-0.19226
  -2   8   7 1566.18  520.81   1 0.82808-0.96996 0.48928 0.01665 0.27365 0.24267
   2   8  -7   43.41  294.46   1 0.71838-0.57674 0.63190-0.12640 0.29088-0.80708
   2   8  -625062.50 2308.71   1 0.95021-0.80322-0.07339 0.57903-0.30281-0.13984
  -2   8   622426.05 1608.83   1 0.83637-0.98403 0.47893 0.02700 0.26663 0.17592
   2   8  -624755.80 1659.71   1 0.75971-0.61242 0.55009-0.04472 0.34675-0.78925
  -2   8   622378.08 1441.35   1 0.82845-0.97564 0.28924 0.21618 0.47958-0.03702
   2   8  -580707.14 4456.51   1 0.95473-0.80182-0.08597 0.59160-0.28477-0.08411
   2  -8  -578818.14 4205.49   1 0.77913-0.62613-0.47400-0.03165 0.41020-0.77906
  -2   8   577806.28 4330.57   1 0.84044-0.99387 0.47373 0.03220 0.26311 0.10569
   2   8  -579348.12 4335.61   1 0.79279-0.63963 0.46104 0.04431 0.39863-0.76739
  -2   8   573028.35 3950.79   1 0.82452-0.97762 0.31941 0.18601 0.46704-0.09824
   2   8  -423558.78 1395.87   1 0.95777-0.79895-0.09528 0.60091-0.27127-0.02383
   2  -8  -428002.62 1431.11   1 0.56800-0.40877-0.54494 0.03914 0.61676-0.91179
  -2  -8   426615.63 1509.95   1-0.99890 0.84030-0.02900-0.47665 0.03671 0.25824
  -2   8   424581.11 1489.05   1 0.83981-0.99901 0.47455 0.03138 0.26366 0.03137
  -2   8   424063.17 1296.84   1 0.81798-0.97698 0.35861 0.14681 0.44976-0.15472
   2   8  -423512.58 1400.92   1 0.81632-0.65732 0.36726 0.13816 0.44579-0.74083
   2   8  -3 6347.45 1042.58   1 0.95924-0.79451-0.10008 0.60572-0.26426 0.04293
   2  -8  -3 7434.56  418.16   1 0.30093-0.13601-0.56581 0.05999 0.76765-0.98888
  -2   8   3 4580.52  265.16   1-0.74709 0.58241-0.19356 0.69906 0.63591-0.41484
  -2  -8   3 7180.42  590.81   1-0.99693 0.83241 0.02828-0.53395 0.07292 0.14829
  -2   8   3 5759.35  670.04   1 0.83360-0.99858 0.48242 0.02351 0.26900-0.04771
  -2   8   3 5845.40  419.65   1 0.80832-0.97322 0.40448 0.10087 0.42779-0.20654
   2   8  -3 7376.84  655.17   1 0.83044-0.66554 0.27037 0.23505 0.48710-0.70838
   2   8  -2 8665.82  720.11   1 0.95869-0.78806-0.09827 0.60391-0.26691 0.11935
   2  -8  -2 8601.10  477.56   1 0.03117 0.13958-0.53819 0.03252 0.84224-0.98967
  -2  -8   2 9316.92 1262.03   1-0.99400 0.82355 0.05887-0.56453 0.09214 0.05533
  -2   8   2 8000.02  744.84   1 0.82041-0.99116 0.49854 0.00739 0.27994-0.13242
  -2   8   2 8101.30  483.19   1 0.79487-0.96564 0.45425 0.05110 0.40228-0.25478
   2   8  -2 8929.61  699.03   1 0.83517-0.66437 0.17322 0.33220 0.52198-0.66950
   2   8  -111683.95  733.60   1 0.95470-0.77816-0.08588 0.59151-0.28489 0.21111
   2  -8  -112231.15  596.36   1-0.19715 0.37369-0.48233-0.02336 0.85351-0.92725
  -2  -8   112427.79 1618.30   1-0.99237 0.81599 0.07178-0.57744 0.10023-0.02649
  -2   8   110591.22  768.15   1 0.79796-0.97449 0.52419-0.01825 0.29743-0.22367
  -2   8   112403.12  651.03   1 0.77743-0.95408 0.50621-0.00085 0.37329-0.29954
   2   8  -113871.53  782.80   1 0.83130-0.65463 0.07877 0.42671 0.55021-0.62398
   2   8   017757.31 1194.60   1 0.94249-0.76004-0.05435 0.55998-0.32976 0.32976
  -2  -8   014633.66  579.62   1 0.65829-0.84066-0.52313 0.01747 0.54127-0.54127
   2  -8   015597.29  692.45   1-0.37002 0.55240-0.41918-0.08651 0.82907-0.82907
  -2  -8   014401.38  905.24   1-0.99233 0.81003 0.07205-0.57772 0.10040-0.10040
  -2   8   017271.21  838.26   1 0.76250-0.94487 0.56068-0.05472 0.32283-0.32283
  -2   8   017277.81  832.15   1 0.75590-0.93843 0.55865-0.05329 0.34132-0.34132
   2   8   015852.15  873.77   1 0.82038-0.63780-0.01059 0.51609 0.57170-0.57171
  -2  -8  -1183434.3 5858.08   1 0.44825-0.63642-0.56146 0.05566 0.69557-0.76932
   2  -8   1189061.1 6154.23   1-0.49317 0.68140-0.36143-0.14425 0.79129-0.71755
  -2  -8  -1192386.8 6331.36   1-0.99353 0.80531 0.06278-0.56845 0.09459-0.16833
  -2   8  -1198034.1 6441.88   1 0.70874-0.89692 0.60887-0.10291 0.35628-0.43004
  -2   8  -1198485.8 6501.18   1 0.73071-0.91894 0.60998-0.10447 0.30654-0.38029
   2   8   1198124.4 6503.54   1 0.80424-0.61573-0.09231 0.59780 0.58709-0.51331
  -2  -8  -287817.14 2790.99   1-0.22716 0.03307-0.47273-0.03296 0.85142-0.99890
   2  -8   291858.13 3126.71   1-0.57813 0.77224-0.31392-0.19158 0.75313-0.60575
  -2  -8  -288777.42 2822.00   1-0.63569 0.44158-0.27742-0.22807 0.72036-0.86774
  -2  -8  -287947.05 3066.64   1-0.99539 0.80124 0.04604-0.55170 0.08409-0.23157
  -2   8  -295187.98 3190.69   1 0.62792-0.82190 0.66856-0.16259 0.39840-0.54592
  -2   8  -299955.42 3416.78   1 0.70140-0.89546 0.65958-0.15407 0.27013-0.41762
   2   8   297420.70 3369.76   1 0.78464-0.59030-0.16428 0.66996 0.59778-0.45021
   2  -8   3 7764.84  628.49   1-0.63592 0.83591-0.27727-0.22823 0.72022-0.49915
  -2  -8  -3 8678.29 1005.34   1-0.99729 0.79722 0.02326-0.52893 0.06976-0.29098
  -2   8  -3 8029.12  453.54   1 0.50602-0.70597 0.73688-0.23082 0.44825-0.66956
  -2   8  -310201.63  668.69   1 0.66849-0.86837 0.70657-0.20106 0.23208-0.45331
   2   8   3 9268.00  686.67   1 0.76440-0.56419-0.22604 0.73172 0.60380-0.38244
   2  -8   4 5537.48  743.25   1-0.67455 0.88043-0.25040-0.25510 0.69445-0.39970
  -2  -8  -4 4647.05  929.91   1-0.99862 0.79262-0.00447-0.50118 0.05225-0.34720
  -2   8  -4 3030.76  404.40   1 0.32210-0.52800 0.80367-0.29763 0.50035-0.79537
  -2   8  -4 2701.77  501.44   1 0.63224-0.83794 0.75041-0.24490 0.19274-0.48771
   2   8   4 2463.81  590.84   1 0.74502-0.53893-0.27687 0.78254 0.60686-0.31171
   2  -8   5 6603.81  800.61   1-0.69959 0.91135-0.23181-0.27369 0.67588-0.30744
  -2  -8  -5 5173.90  666.54   1-0.99882 0.78690-0.03639-0.46926 0.03201-0.40071
  -2   8  -5 8343.84  728.10   1 0.04063-0.25243 0.84153-0.33573 0.53866-0.90750
  -2   8  -5 8551.52  879.65   1 0.59309-0.80465 0.79065-0.28530 0.15199-0.52070
   2   8   5 8606.37  924.64   1 0.72794-0.51598-0.31688 0.82255 0.60801-0.23907
   2  -8   613138.89 1647.98   1-0.71475 0.93239-0.22006-0.28544 0.66385-0.22172
  -2  -8  -614924.81  936.31   1-0.99736 0.77952-0.07188-0.43377 0.00942-0.45186
  -2   8  -611173.95 1412.55   1 0.55086-0.76824 0.82719-0.32184 0.11091-0.55336
   2   8   613819.52 1722.80   1 0.71421-0.49637-0.34652 0.85220 0.60811-0.16539
   2  -8   741946.34 3451.07   1-0.72246 0.94599-0.21392-0.29158 0.65747-0.14165
  -2  -8  -740600.11 3342.13   1-0.99376 0.76999-0.11046-0.39519-0.01525-0.50092
  -2   8  -740378.78 3295.46   1 0.50592-0.72913 0.85979-0.35444 0.06923-0.58542
   2   8   740543.87 3297.03   1 0.70448-0.48077-0.36640 0.87207 0.60782-0.09131
  -2   8  -863025.65 9834.44   1 0.45841-0.68745 0.88832-0.38297 0.02710-0.61704
   2   8   859849.74 4107.01   1 0.69824-0.46928-0.37733 0.88285 0.60833-0.01847
   2  -8   917421.85 2225.14   1-0.72147 0.95677-0.21471-0.29078 0.65830 0.00489
  -2   8  -914470.52 2946.14   1 0.40895-0.64386 0.91241-0.40713-0.01586-0.64782
   2   8   916362.70 2022.51   1 0.69716-0.46238-0.37943 0.88495 0.60827 0.05532
   2   9  -9 3889.80  844.32   1 0.91297-0.78370 0.00291 0.56592-0.40800-0.25599
  -2   9   9 3699.14  925.33   1 0.79875-0.92909 0.52332 0.04585 0.29684 0.36699
   2   9  -9 4170.45  914.90   1 0.62434-0.49435 0.75905-0.19035 0.18447-0.84816
   2   9  -8 4050.90  875.70   1 0.92228-0.78710-0.01329 0.58213-0.38628-0.20393
  -2   9   8 3604.90  915.58   1 0.81411-0.95022 0.50596 0.06321 0.28499 0.30508
   2   9  -8 2222.44  558.60   1 0.67682-0.54100 0.69541-0.12671 0.24147-0.83141
   2   9  -713472.83 1238.43   1 0.92981-0.78872-0.02747 0.59630-0.36701-0.14943
  -2   9   711114.75 1063.34   1 0.82566-0.96755 0.49222 0.07695 0.27565 0.24067
   2   9  -710935.89 1019.59   1 0.72240-0.58076 0.62495-0.05625 0.29592-0.81212
   2   9  -629554.93 1661.74   1 0.93559-0.78859-0.03918 0.60802-0.35089-0.09177
  -2   9   625399.71 1684.56   1 0.83339-0.98105 0.48269 0.08648 0.26918 0.17338
   2   9  -627553.83 1542.97   1 0.76017-0.61289 0.54902 0.01950 0.34741-0.78992
  -2   9   627591.00 1427.77   1 0.82322-0.97041 0.32807 0.24053 0.46332-0.02076
   2   9  -526155.72 2777.16   1 0.93959-0.78668-0.04778 0.61662-0.33894-0.02994
  -2   9   523875.65 1496.27   1 0.83708-0.99051 0.47803 0.09114 0.26602 0.10278
   2   9  -527971.17 1620.52   1 0.79070-0.63754 0.46769 0.10083 0.39502-0.76378
  -2   9   525967.07 1444.01   1 0.81934-0.97244 0.35123 0.21737 0.45310-0.08430
   2   9  -450167.39 3394.16   1 0.94160-0.78279-0.05231 0.62115-0.33262 0.03751
   2  -9  -451998.86 2796.18   1 0.56623-0.40700-0.54529-0.02373 0.61809-0.91311
  -2   9   449803.88 2745.36   1 0.81317-0.97220 0.38318 0.18534 0.43808-0.14307
   2   9  -453231.88 3048.76   1 0.81322-0.65419 0.38294 0.18558 0.43820-0.73320
   2   9  -382370.67 4238.05   1 0.94112-0.77640-0.05122 0.62005-0.33415 0.11281
   2  -9  -386013.54 4260.03   1 0.29421-0.12928-0.56566-0.00337 0.77036-0.99160
  -2  -9   390997.26 4552.39   1-0.99830 0.83377-0.05455-0.51431 0.02047 0.20074
  -2   9   379936.60 4106.34   1 0.83032-0.99529 0.48652 0.08265 0.27177-0.05049
  -2   9   379989.86 4034.21   1 0.80413-0.96903 0.42124 0.14728 0.41944-0.19818
   2   9  -389703.00 4578.41   1 0.82756-0.66266 0.29672 0.27188 0.47653-0.69781
   2   9  -2 1381.48  307.17   1 0.93689-0.76625-0.04192 0.61076-0.34709 0.19954
   2  -9  -2 1615.11  294.33   1 0.03098 0.13977-0.53815-0.03072 0.84227-0.98970
  -2  -9   2 1756.39  305.61   1-0.99888 0.82843-0.01855-0.55031 0.04333 0.10413
  -2   9   2 1797.13  670.51   1 0.81785-0.98860 0.50157 0.06760 0.28201-0.13449
  -2   9   2 2428.06  468.85   1 0.79190-0.96268 0.46390 0.10462 0.39709-0.24958
   2   9  -2 2200.32  412.49   1 0.83442-0.66361 0.21058 0.35802 0.50930-0.65682
   2   9  -113426.39 1394.78   1 0.92575-0.74920-0.01969 0.58852-0.37761 0.30384
   2  -9  -1 8538.99  940.13   1-0.18717 0.36370-0.48540-0.08350 0.85401-0.92776
  -2  -9   1 8551.59 1421.64   1-0.99847 0.82210 0.00016-0.56903 0.05518 0.01855
  -2   9   113612.09 1506.70   1 0.79697-0.97350 0.52527 0.04390 0.29817-0.22441
  -2   9   113295.62 1450.34   1 0.77620-0.95285 0.50949 0.05903 0.37138-0.29763
   2   9  -113759.24 1495.48   1 0.83432-0.65761 0.12686 0.44174 0.53648-0.61024
   2  -9   019327.63 2001.92   1-0.35220 0.53459-0.42660-0.14230 0.83304-0.83304
  -2  -9   019743.83 3003.77   1-0.99823 0.81593 0.00624-0.57511 0.05902-0.05902
  -2   9   019972.06 1785.59   1 0.76448-0.94685 0.55875 0.01045 0.32149-0.32149
  -2   9   019163.61 2021.15   1 0.75685-0.93937 0.55654 0.01198 0.34267-0.34267
   2   9   017794.61 1926.04   1 0.82830-0.64572 0.04771 0.52096 0.55823-0.55823
  -2  -9  -1 8317.39  851.71   1 0.45601-0.64418-0.56077-0.00824 0.69107-0.76482
   2  -9   1 9589.71 1058.33   1-0.47117 0.65940-0.37264-0.19626 0.79945-0.72571
  -2  -9  -1 9132.31  938.38   1-0.82644 0.63826-0.11818-0.45058 0.55047-0.62417
  -2  -9  -111039.64 1916.65   1-0.99838 0.81016 0.00262-0.57149 0.05674-0.13048
  -2   9  -111990.07 1336.27   1 0.71601-0.90419 0.60281-0.03360 0.35204-0.42580
  -2   9  -112070.91 1321.61   1 0.73413-0.92236 0.60359-0.03489 0.31099-0.38473
   2   9   111221.18 1276.59   1 0.81791-0.62941-0.02531 0.59399 0.57478-0.50100
   2  -9   2 4361.40  580.78   1-0.55481 0.74890-0.32770-0.24120 0.76471-0.61722
  -2  -9  -2 5963.90 1234.42   1-0.99873 0.80458-0.00868-0.56018 0.04958-0.19706
  -2   9  -2 4445.26  595.92   1 0.64427-0.83825 0.65754-0.08833 0.39056-0.53808
  -2   9  -2 5335.77  823.67   1 0.70749-0.90155 0.64996-0.08126 0.27748-0.42496
   2   9   2 2879.56  563.57   1 0.80463-0.61021-0.09062 0.65930 0.58681-0.43926
   2  -9   331252.11 1870.58   1-0.61265 0.81263-0.29250-0.27618 0.73423-0.51316
  -2  -9  -331691.39 1934.24   1-0.99891 0.79884-0.02626-0.54260 0.03845-0.25967
  -2   9  -330325.72 1703.94   1 0.53749-0.73743 0.72133-0.15202 0.43677-0.65808
  -2   9  -332592.04 1935.94   1 0.67732-0.87720 0.69472-0.12602 0.24205-0.46327
   2   9   329936.68 1823.88   1 0.78968-0.58947-0.14695 0.71583 0.59565-0.37429
   2  -9   413140.18 1049.84   1-0.65218 0.85805-0.26621-0.30247 0.70977-0.41502
  -2  -9  -412487.74 1001.84   1-0.99850 0.79251-0.04905-0.51981 0.02397-0.31893
  -2   9  -412439.46  830.66   1 0.37829-0.58408 0.78735-0.21804 0.48678-0.78186
  -2   9  -412131.05 1035.42   1 0.64377-0.84947 0.73724-0.16854 0.20501-0.49998
   2   9   412039.20  937.18   1 0.77524-0.56915-0.19433 0.76321 0.60102-0.30587
   2  -9   5  832.36  447.67   1-0.67841 0.89017-0.24760-0.32108 0.69169-0.32325
  -2  -9  -5  916.35  393.26   1-0.99706 0.78514-0.07625-0.49261 0.00663-0.37533
  -2   9  -5  414.26  390.55   1 0.60721-0.81877 0.77695-0.20843 0.16622-0.53493
   2   9   5 1252.02  563.53   1 0.76215-0.55019-0.23230 0.80118 0.60427-0.23534
   2  -9   630199.05 2575.06   1-0.69481 0.91245-0.23544-0.33324 0.67956-0.23742
  -2   9  -626910.12 2265.47   1 0.56741-0.78479 0.81361-0.24509 0.12677-0.56922
   2   9   624077.18 2044.98   1 0.75135-0.53351-0.26097 0.82985 0.60609-0.16337
   2  -9   732071.67 2327.36   1-0.70371 0.92723-0.22866-0.34002 0.67268-0.15686
  -2   9  -731471.48 2296.41   1 0.52470-0.74791 0.84689-0.27837 0.08641-0.60260
   2   9   730582.23 2248.30   1 0.74349-0.51978-0.28060 0.84949 0.60701-0.09051
   2  -9   8 8990.27 1129.69   1-0.70668 0.93609-0.22636-0.34232 0.67033-0.08083
  -2   9  -810323.42 1249.94   1 0.47919-0.70823 0.87653-0.30802 0.04530-0.63524
   2   9   811832.04 1330.65   1 0.73897-0.50938-0.29148 0.86036 0.60741-0.01712
   2  -9   913831.45 1855.85   1-0.70477 0.94007-0.22784-0.34085 0.67184-0.00864
  -2   9  -911496.99 2401.38   1 0.43150-0.66641 0.90210-0.33366 0.00306-0.66675
   2   9   917317.29 2056.06   1 0.73798-0.50251-0.29382 0.86271 0.60748 0.05659
   2  10  -8 5294.68 1408.92   1 0.90510-0.76992 0.01569 0.61634-0.42490-0.16531
  -2  10   8 5643.85  830.99   1 0.80959-0.94571 0.51116 0.12125 0.28854 0.30154
   2  10  -8 6313.09  772.48   1 0.68108-0.54526 0.68952-0.05764 0.24633-0.83627
   2  10  -7 1932.04  613.67   1 0.91215-0.77106 0.00427 0.62776-0.40982-0.10662
  -2  10   7 1746.73  740.39   1 0.82048-0.96236 0.49846 0.13396 0.27989 0.23643
   2  10  -7 1183.20  545.71   1 0.72336-0.58172 0.62326 0.00862 0.29714-0.81334
   2  10  -611993.98 1135.79   1 0.91717-0.77018-0.00424 0.63628-0.39845-0.04421
  -2  10   610468.58 1171.70   1 0.82765-0.97531 0.48979 0.14262 0.27400 0.16856
   2  10  -611166.17 1009.32   1 0.75850-0.61121 0.55284 0.07885 0.34501-0.78752
  -2  10   6 8911.20  748.45   1 0.81667-0.96387 0.36545 0.26633 0.44663-0.00407
   2  10  -516088.25 1454.47   1 0.91996-0.76705-0.00912 0.64116-0.39190 0.02301
   2  10  -516390.08 1486.84   1 0.78723-0.63407 0.47835 0.15334 0.38915-0.75791
  -2  10   515444.52 1370.71   1 0.81309-0.96625 0.38355 0.24814 0.43791-0.06915
   2  10  -4  354.15  350.67   1 0.92001-0.76120-0.00922 0.64126-0.39176 0.09665
  -2  10   4  832.38  676.27   1 0.82990-0.98910 0.48703 0.14538 0.27212 0.02291
   2  10  -4 -232.41  387.93   1 0.80902-0.64999 0.40153 0.23016 0.42924-0.72424
  -2  10   4  177.45  251.83   1 0.80715-0.96618 0.40927 0.22242 0.42542-0.13042
   2  10  -315093.83 1044.63   1 0.91633-0.75161-0.00279 0.63483-0.40039 0.17906
   2 -10  -317149.52 1095.31   1 0.30246-0.13753-0.56584-0.06642 0.76703-0.98826
  -2  10   316614.55 1356.60   1 0.82387-0.98885 0.49439 0.13802 0.27712-0.05584
  -2  10   316590.59 1185.00   1 0.79866-0.96356 0.44131 0.19038 0.40912-0.18786
   2  10  -317436.89 1226.47   1 0.82384-0.65894 0.32402 0.30776 0.46507-0.68635
   2  10  -289866.42 5414.04   1 0.90674-0.73611 0.01308 0.61895-0.42147 0.27391
   2 -10  -288644.56 5303.79   1 0.04386 0.12689-0.54043-0.09165 0.84024-0.98767
  -2 -10   291395.57 5512.81   1-0.99614 0.82569-0.08776-0.54430-0.00071 0.14819
  -2  10   286769.61 5296.71   1 0.81173-0.98248 0.50871 0.12370 0.28687-0.13935
  -2  10   284722.89 5142.45   1 0.78731-0.95809 0.47810 0.15359 0.38929-0.24179
   2  10  -279533.48 4844.16   1 0.83241-0.66160 0.24699 0.38479 0.49606-0.64359
   2 -10  -119717.17 1666.04   1-0.16711 0.34365-0.49140-0.14072 0.85475-0.92849
  -2 -10   118580.85 1582.28   1-0.88747 0.71106-0.04367-0.58828 0.45878-0.38509
  -2 -10   120888.28 1856.38   1-0.99779 0.82142-0.06490-0.56717 0.01388 0.05985
  -2  10   119526.27 1744.33   1 0.79176-0.96828 0.53092 0.10150 0.30204-0.22828
  -2  10   120787.78 1835.72   1 0.77286-0.94951 0.51822 0.11347 0.36622-0.29247
   2  10  -121325.61 1919.33   1 0.83517-0.65847 0.17229 0.45949 0.52229-0.59605
   2 -10   0 9782.84  915.26   1-0.32705 0.50944-0.43673-0.19538 0.83803-0.83803
  -2 -10   0 9999.04  879.67   1-0.84384 0.66155-0.09886-0.53309 0.52739-0.52739
  -2 -10   0 9680.17 1024.70   1-0.99830 0.81600-0.05440-0.57767 0.02057-0.02057
  -2  10   0 8250.02  812.45   1 0.76114-0.94351 0.56200 0.07045 0.32373-0.32373
  -2  10   0 8795.20  880.10   1 0.75511-0.93764 0.56040 0.07129 0.34021-0.34021
   2  10   010555.52 1053.35   1 0.83295-0.65037 0.10162 0.53024 0.54392-0.54392
   2 -10   113970.63 1253.37   1-0.44358 0.63181-0.38612-0.24599 0.80878-0.73504
  -2 -10  -112396.88 1039.27   1-0.73254 0.54432-0.20573-0.42614 0.64888-0.72257
  -2 -10  -113354.43 1292.89   1-0.99834 0.81011-0.05353-0.57853 0.02112-0.09486
  -2  10  -1 9246.82 1004.78   1 0.71620-0.90437 0.60265 0.02980 0.35194-0.42569
  -2  10  -1 9391.66 1007.82   1 0.73427-0.92250 0.60332 0.02855 0.31117-0.38492
   2  10   1 9299.16  969.27   1 0.82697-0.63847 0.03614 0.59572 0.56107-0.48730
   2 -10   252175.24 3223.65   1-0.52688 0.72096-0.34343-0.28868 0.77746-0.62997
  -2 -10  -253309.68 3366.11   1-0.99803 0.80388-0.06041-0.57166 0.01674-0.16422
  -2  10  -240297.49 2504.06   1 0.65067-0.84464 0.65310-0.02064 0.38740-0.53492
  -2  10  -244148.60 2789.68   1 0.70974-0.90380 0.64632-0.01443 0.28022-0.42770
   2  10   243873.80 2800.89   1 0.81834-0.62392-0.02282 0.65469 0.57427-0.42672
   2 -10   3 3853.01  680.08   1-0.58553 0.78552-0.30944-0.32243 0.74926-0.52819
  -2 -10  -3 5332.60  903.32   1-0.99724 0.79717-0.07365-0.55841 0.00829-0.22951
  -2  10  -3 4292.44  614.07   1 0.55448-0.75442 0.71236-0.07980 0.43020-0.65151
  -2  10  -3 4024.87  725.61   1 0.68181-0.88169 0.68849-0.05661 0.24718-0.46840
   2  10   3 4621.36  794.89   1 0.80828-0.60794-0.07440 0.70627 0.58407-0.36274
   2 -10   413491.15  938.89   1-0.62637 0.83225-0.28360-0.34827 0.72609-0.43134
  -2 -10  -415447.50 1093.27   1-0.99572 0.78973-0.09224-0.53983-0.00358-0.29137
  -2  10  -416686.79  894.90   1 0.41269-0.61847 0.77561-0.14305 0.47759-0.77267
  -2  10  -416601.97 1025.06   1 0.65055-0.85626 0.72917-0.09728 0.21232-0.50729
   2  10   418918.35 1136.45   1 0.79793-0.59167-0.11801 0.74987 0.59107-0.29597
   2 -10   535018.71 2892.57   1-0.65407 0.86583-0.26490-0.36697 0.70852-0.34008
  -2 -10  -537648.48 3098.55   1-0.99315 0.78123-0.11538-0.51669-0.01840-0.35028
  -2  10  -543148.03 3526.37   1 0.61628-0.82784 0.76771-0.13602 0.17550-0.54421
   2  10   535456.16 2918.98   1 0.78793-0.57596-0.15308 0.78517 0.59642-0.22749
   2 -10   6 6008.69 1397.03   1-0.67191 0.88955-0.25231-0.37956 0.69632-0.25419
   2  10   6 8155.83  873.06   1 0.77981-0.56197-0.18005 0.81214 0.59955-0.15683
   2 -10   7 3111.82  803.81   1-0.68214 0.90566-0.24487-0.38700 0.68899-0.17317
  -2  10  -7  686.39  411.32   1 0.53806-0.76127 0.83708-0.20540 0.09884-0.61503
   2  10   7 1483.26  580.88   1 0.77381-0.55010-0.19867 0.83076 0.60144-0.08493
   2 -10   8 7109.38 1115.46   1-0.68630 0.91571-0.24180-0.39007 0.68594-0.09643
  -2  10  -8 4980.06  733.93   1 0.49450-0.72354 0.86717-0.23548 0.05893-0.64887
   2  10   8 4122.19 1153.98   1 0.77035-0.54076-0.20899 0.84108 0.60239-0.01209
  -2 -11   812070.75 1612.31   1-0.88550 0.75030-0.04642-0.64873 0.46230 0.12725
  -2  11   812830.77 1800.01   1 0.80257-0.93868 0.51909 0.17656 0.29395 0.29612
   2  11  -811159.04 1423.54   1 0.68216-0.54635 0.68800 0.00706 0.24758-0.83752
  -2 -11   719446.86 1785.62   1-0.89171 0.75062-0.03761-0.65753 0.45102 0.06483
  -2  11   716728.43 1767.63   1 0.81284-0.95473 0.50742 0.18823 0.28599 0.23032
   2  11  -719482.37 1780.10   1 0.72189-0.58025 0.62583 0.06923 0.29528-0.81148
  -2  11   615861.44 1785.07   1 0.81948-0.96714 0.49964 0.19602 0.28069 0.16186
   2  11  -616385.24 1710.49   1 0.75506-0.60778 0.56051 0.13435 0.34014-0.78265
   2  11  -5 1658.33  654.75   1 0.78253-0.62937 0.49209 0.20277 0.38142-0.75018
  -2  11   5 1582.77  529.72   1 0.80557-0.95872 0.41562 0.27924 0.42226-0.05350
  -2 -11   4 3544.79  763.50   1-0.89384 0.73510-0.03452-0.66063 0.44703-0.15225
  -2  11   4 7226.91 1472.78   1 0.82092-0.98013 0.49793 0.19773 0.27953 0.01551
   2  11  -4 7676.84 1525.16   1 0.80389-0.64486 0.42214 0.27272 0.41898-0.71398
  -2  11   4 4240.10  848.69   1 0.79998-0.95901 0.43661 0.25825 0.41156-0.11656
  -2 -11   3  289.49  316.13   1-0.88604 0.72141-0.04566-0.64948 0.46133-0.24025
  -2  11   3 2085.63  437.44   1 0.81469-0.97967 0.50528 0.19038 0.28453-0.06325
  -2  11   3 4129.84  633.65   1 0.79196-0.95687 0.46370 0.23116 0.39719-0.17594
   2  11  -3 4192.97  733.23   1 0.81919-0.65429 0.35205 0.34291 0.45273-0.67402
   2 -11  -2  598.05  237.54   1 0.06882 0.10193-0.54458-0.15071 0.83587-0.98330
  -2 -11   2  671.66  376.82   1-0.87000 0.69948-0.06714-0.62800 0.48844-0.34105
  -2  11   2  621.20  410.56   1 0.80258-0.97333 0.51908 0.17657 0.29395-0.14643
  -2  11   2   40.02  300.94   1 0.78130-0.95208 0.49554 0.19932 0.37945-0.23195
   2  11  -2 1437.58  592.19   1 0.82918-0.65838 0.28270 0.41226 0.48221-0.62973
   2 -11  -123642.62 1230.28   1-0.13794 0.31447-0.49970-0.19563 0.85514-0.92888
  -2 -11   121869.20 1121.67   1-0.83902 0.66262-0.10434-0.59081 0.53399-0.46030
  -2  11   123869.59 1379.36   1 0.78291-0.95948 0.54014 0.15555 0.30869-0.23493
  -2  11   125069.30 1412.62   1 0.76780-0.94445 0.53093 0.16393 0.35858-0.28483
   2  11  -126269.92 1529.56   1 0.83421-0.65751 0.21561 0.47934 0.50753-0.58129
   2 -11   039500.26 1961.68   1-0.29503 0.47741-0.44897-0.24635 0.84343-0.84343
  -2 -11   038814.97 2055.85   1-0.99369 0.81139-0.11100-0.58428-0.01559 0.01559
  -2  11   043599.03 2263.38   1 0.75354-0.93591 0.56928 0.12641 0.32877-0.32877
  -2  11   041441.64 2131.89   1 0.75127-0.93379 0.56874 0.12612 0.33483-0.33483
   2  11   041310.41 2166.93   1 0.83503-0.65242 0.15206 0.54290 0.52877-0.52877
   2 -11   123543.37 1254.17   1-0.41069 0.59892-0.40141-0.29392 0.81865-0.74491
  -2 -11  -121188.19 1269.14   1-0.99422 0.80600-0.10652-0.58875-0.01272-0.06101
  -2  11  -122395.13 1271.54   1 0.71086-0.89903 0.60712 0.08857 0.35506-0.42881
  -2  11  -123317.15 1352.53   1 0.73188-0.92011 0.60781 0.08725 0.30806-0.38180
   2  11   119624.32 1192.68   1 0.83240-0.64390 0.09327 0.60178 0.54626-0.47248
   2 -11   219312.60 1095.67   1-0.49456 0.68864-0.36071-0.33462 0.79075-0.64326
  -2 -11  -222385.74 1380.02   1-0.99385 0.79970-0.10973-0.58554-0.01478-0.13269
  -2  11  -218820.91 1054.70   1 0.64952-0.84350 0.65390 0.04180 0.38797-0.53549
  -2  11  -221467.75 1373.11   1 0.70902-0.90308 0.64749 0.04757 0.27934-0.42682
   2  11   219683.94 1219.30   1 0.82743-0.63301 0.04002 0.65503 0.56013-0.41258
   2 -11   332939.35 2698.81   1-0.55469 0.75462-0.32777-0.36755 0.76476-0.54354
  -2  11  -332860.76 2633.23   1 0.56068-0.76063 0.70898-0.01316 0.42774-0.64905
  -2  11  -334586.24 2858.69   1 0.68292-0.88279 0.68694 0.00813 0.24845-0.46967
   2  11   330720.90 2591.51   1 0.82099-0.62065-0.00679 0.70184 0.57089-0.34956
   2 -11   4 8328.42 1625.69   1-0.59712 0.80300-0.30230-0.39276 0.74299-0.44824
  -2  11  -4 7218.24 1424.68   1 0.65358-0.85928 0.72549-0.03041 0.21561-0.51058
   2  11   4 7630.64 1526.81   1 0.81400-0.60774-0.04660 0.74165 0.57899-0.28389
   2 -11   5  157.41  389.72   1-0.62654 0.83830-0.28349-0.41157 0.72599-0.35755
  -2  11  -5 1228.28  619.54   1 0.62105-0.83258 0.76256-0.06749 0.18105-0.54977
   2  11   5 1222.05  599.29   1 0.80726-0.59508-0.07903 0.77409 0.58487-0.21599
   2 -11   610303.42 1476.60   1-0.64600 0.86365-0.27045-0.42461 0.71381-0.27167
  -2  11  -612817.68 1684.04   1 0.58562-0.80301 0.79757-0.10272 0.14458-0.58703
   2  11   612635.78 1654.03   1 0.80147-0.58337-0.10386 0.79891 0.58893-0.14628
   2 -11   7 2870.26  847.99   1-0.65770 0.88123-0.26237-0.43268 0.70610-0.19028
  -2  11  -7 5199.76  870.88   1 0.54690-0.77011 0.83030-0.13545 0.10715-0.62335
   2  11   7 6051.67 1011.53   1 0.79717-0.57315-0.12094 0.81599 0.59150-0.07508
  -2 -12   618694.46 1687.07   1-0.86913 0.72215-0.06826-0.69008 0.48984-0.04767
  -2  12   619834.25 1890.98   1 0.80906-0.95672 0.51177 0.24713 0.28895 0.15360
   2  12  -619344.37 1828.38   1 0.75009-0.60281 0.57125 0.18678 0.33320-0.77571
  -2 -12   511439.67 1445.14   1-0.86770 0.71484-0.07008-0.68826 0.49211-0.12363
  -2  12   513760.13 1790.26   1 0.81141-0.96484 0.50908 0.24982 0.28712 0.08167
  -2  12   513159.08 1621.06   1 0.79678-0.94994 0.44781 0.31022 0.40570-0.03695
   2  12  -513424.47 1782.03   1 0.77666-0.62350 0.50827 0.24976 0.37209-0.74085
  -2 -12   4 5103.26  943.80   1-0.86159 0.70284-0.07774-0.68060 0.50160-0.20682
  -2  12   4 6032.61 1195.28   1 0.80959-0.96880 0.51116 0.24774 0.28854 0.00649
   2  12  -4 4699.85  939.86   1 0.79779-0.63876 0.44433 0.31370 0.40753-0.70254
  -2  12   4 3025.22  626.61   1 0.79160-0.95064 0.46484 0.29319 0.39658-0.10157
  -2 -12   3 1955.35  559.38   1-0.84868 0.68405-0.09325-0.66509 0.52060-0.29952
  -2  12   3 1762.75  780.59   1 0.80302-0.96799 0.51860 0.24030 0.29361-0.07233
  -2  12   3 1304.60  566.50   1 0.78404-0.94894 0.48776 0.27028 0.38388-0.16262
  -2 -12   216609.74 1213.01   1-0.82491 0.65439-0.11982-0.63853 0.55241-0.40502
  -2  12   214479.53 1192.57   1 0.79063-0.96139 0.53200 0.22694 0.30310-0.15559
  -2  12   218453.68 1498.85   1 0.77396-0.94474 0.51538 0.24265 0.36791-0.22041
   2  12  -215292.66 1308.12   1 0.82474-0.65394 0.31786 0.44028 0.46770-0.61522
  -2  12   1 3423.33  839.13   1 0.77111-0.94767 0.55219 0.20675 0.31697-0.24321
  -2  12   1 5171.09 1035.13   1 0.76121-0.93786 0.54663 0.21140 0.34891-0.27516
   2  12  -1 3640.57  850.13   1 0.83160-0.65490 0.25731 0.50083 0.49215-0.56591
   2 -12   0 1448.46  414.43   1-0.25640 0.43879-0.46285-0.29569 0.84854-0.84854
  -2  12   0 1127.63  597.67   1 0.74228-0.92465 0.57975 0.17919 0.33601-0.33601
  -2  12   0 2090.86  642.29   1 0.74564-0.92816 0.58053 0.17750 0.32710-0.32710
   2  12   0 1077.91  446.33   1 0.83476-0.65216 0.20000 0.55814 0.51299-0.51299
   2 -12   1 7535.61 1410.06   1-0.37254 0.56078-0.41811-0.34042 0.82848-0.75474
  -2  12  -110253.35  930.05   1 0.70096-0.88913 0.61524 0.14370 0.36073-0.43449
  -2  12  -1 7333.01 1476.84   1 0.72739-0.91563 0.61604 0.14221 0.30228-0.37602
   2  12   1 9875.15 1050.47   1 0.83493-0.64642 0.14689 0.61124 0.53038-0.45662
   2 -12   2 5487.75 1244.00   1-0.45783 0.65191-0.37924-0.37930 0.80409-0.65660
  -2  12  -211061.72  909.75   1 0.64234-0.83632 0.65887 0.10007 0.39150-0.53902
  -2  12  -210917.87  977.12   1 0.70588-0.89993 0.65254 0.10571 0.27552-0.42300
   2 -12   3 2163.05  494.84   1-0.51985 0.71978-0.34727-0.41127 0.78048-0.55925
  -2  12  -3 3113.28  597.33   1 0.55847-0.75841 0.71020 0.04888 0.42862-0.64993
  -2  12  -3 3193.05  715.91   1 0.68126-0.88114 0.68926 0.06899 0.24655-0.46778
   2  12   3 2846.90  755.26   1 0.82923-0.62889 0.05648 0.70175 0.55603-0.33470
   2 -12   416940.45 1784.54   1-0.56443 0.77021-0.32211-0.43643 0.76003-0.46506
  -2  12  -414089.31 1570.50   1 0.65353-0.85923 0.72555 0.03270 0.21556-0.51053
   2  12   411870.28 1357.56   1 0.82496-0.61870 0.02036 0.73787 0.56481-0.26971
   2 -12   510897.64 1409.09   1-0.59572 0.80748-0.30317-0.45507 0.74376-0.37532
  -2  12  -5 7620.24 1079.70   1 0.62267-0.83420 0.76084-0.00258 0.18273-0.55145
   2  12   5 7689.68 1064.16   1 0.82063-0.60845-0.00907 0.76731 0.57138-0.20250
   2 -12   6 5987.86  962.55   1-0.61699 0.83463-0.28971-0.46854 0.73169-0.28956
  -2  12  -6 2951.60 1036.71   1 0.58895-0.80633 0.79452-0.03649 0.14787-0.59033
   2  12   6 1628.66  529.86   1 0.81681-0.59871-0.03153 0.78977 0.57604-0.13338
  -2 -13   5 8590.47 1178.02   1-0.83400 0.68114-0.10994-0.71160 0.54069-0.17221
  -2  13   5 7658.30 1293.05   1 0.79833-0.95176 0.52379 0.29835 0.29716 0.07163
   2  13  -5 7346.19 1028.58   1 0.76963-0.61648 0.52639 0.29481 0.36133-0.73009
  -2 -13   429188.50 2478.90   1-0.82373 0.66498-0.12108-0.70046 0.55389-0.25912
  -2  13   428381.33 2524.86   1 0.79602-0.95523 0.52631 0.29583 0.29889-0.00384
   2  13  -427003.15 2346.41   1 0.79068-0.63165 0.46776 0.35344 0.39498-0.68999
  -2  13   425010.82 2143.33   1 0.78195-0.94098 0.49373 0.32747 0.38049-0.08548
  -2  13   316082.45 2061.38   1 0.78894-0.95390 0.53380 0.28838 0.30434-0.08307
  -2  13   320622.25 2506.12   1 0.77484-0.93975 0.51306 0.30814 0.36928-0.14802
   2  13  -321143.01 2565.12   1 0.80710-0.64220 0.40948 0.41172 0.42532-0.64657
  -2  13   2 2312.90  712.50   1 0.77621-0.94697 0.54704 0.27515 0.31343-0.16591
  -2  13   2 2302.30  625.83   1 0.76529-0.93607 0.53701 0.28419 0.35487-0.20736
   2  13  -2 1746.46  661.27   1 0.81909-0.64829 0.35260 0.46871 0.45249-0.60001
  -2  13   1 3346.57  679.82   1 0.75647-0.93304 0.56649 0.25569 0.32684-0.25308
  -2  13   1 4144.54  727.80   1 0.75318-0.92983 0.56462 0.25658 0.33750-0.26375
   2  13  -1 3185.62  712.12   1 0.82744-0.65074 0.29772 0.52360 0.47612-0.54988
  -2  13   015211.70 1618.04   1 0.72774-0.91011 0.59274 0.22945 0.34503-0.34503
  -2  13   016131.90 1686.96   1 0.73862-0.92102 0.59499 0.22645 0.31689-0.31689
   2  13   017891.67 1933.92   1 0.83249-0.64988 0.24587 0.57545 0.49649-0.49649
   2 -13   1 1271.36  355.57   1-0.32905 0.51728-0.43595-0.38580 0.83765-0.76391
  -2  13  -1 1641.04  452.79   1 0.68707-0.87524 0.62624 0.19595 0.36844-0.44220
  -2  13  -1  355.91  351.58   1 0.72108-0.90931 0.62725 0.19420 0.29426-0.36801
   2  13   1 1186.91  542.94   1 0.83482-0.64631 0.19786 0.62345 0.51372-0.43996
   2 -13   2 5025.10  902.47   1-0.41650 0.61058-0.39877-0.42298 0.81700-0.66952
  -2  13  -2 4904.08  893.82   1 0.63005-0.82402 0.66715 0.15503 0.39740-0.54492
  -2  13  -2 5251.94 1069.51   1 0.70065-0.89471 0.66074 0.16070 0.26924-0.41672
   2  13   2 3541.22  770.04   1 0.83506-0.64065 0.15441 0.66690 0.52803-0.38051
   2 -13   3 8407.58  890.83   1-0.48093 0.68086-0.36772-0.45403 0.79591-0.57468
  -2  13  -3 7767.86  911.05   1 0.67727-0.87714 0.69480 0.12665 0.24198-0.46321
   2  13   310244.76 1141.90   1 0.83376-0.63342 0.11618 0.70524 0.53975-0.31843
   2 -13   4 1255.56  558.18   1-0.52790 0.73368-0.34287-0.47888 0.77701-0.48204
  -2  13  -4  494.73  418.35   1 0.65086-0.85657 0.72879 0.09265 0.21266-0.50763
   2  13   4 1944.32  723.95   1 0.83168-0.62542 0.08358 0.73784 0.54891-0.25381
  -2  14   210022.38 1395.45   1 0.75931-0.93007 0.56377 0.32166 0.32496-0.17744
  -2  14   2 7192.31 1058.16   1 0.75527-0.92605 0.56004 0.32433 0.34044-0.19293
   2  14  -210768.38 1416.60   1 0.81236-0.64159 0.38688 0.49749 0.43632-0.58382
  -2  14   1 3983.87 1161.84   1 0.73911-0.91568 0.58262 0.30280 0.33801-0.26425
  -2  14   1 6061.29  978.59   1 0.74374-0.92039 0.58440 0.29997 0.32452-0.25077
   2  14  -1 3661.19 1093.05   1 0.82177-0.64507 0.33711 0.54738 0.45938-0.53314
  -2  14   0 2232.43  745.92   1 0.71010-0.89247 0.60775 0.27768 0.35550-0.35550
  -2  14   0 2102.05  719.35   1 0.72983-0.91223 0.61161 0.27302 0.30540-0.30540
   2  14   0  984.28  494.95   1 0.82835-0.64575 0.29008 0.59441 0.47924-0.47924
  -2  14  -112884.55 1598.24   1 0.66950-0.85768 0.63954 0.24589 0.37781-0.45157
  -2  14  -113556.25 1664.20   1 0.71308-0.90131 0.64084 0.24379 0.28431-0.35805
   2  14   117158.56 2122.32   1 0.83243-0.64393 0.24662 0.63787 0.49620-0.42244
  -2  14  -211654.44 1481.96   1 0.69356-0.88761 0.67152 0.21311 0.26082-0.40831
   2  14   211973.62 1531.20   1 0.83453-0.64012 0.20735 0.67714 0.51043-0.36291
   3   0 -12 2708.64  908.17   1 0.96297-0.76022-0.11239 0.11239-0.24502-0.63986
   3   0 -11 7933.74 1419.25   1 0.97107-0.76239-0.15386 0.15386-0.18259-0.62855
   3   0 -1032171.25 3451.61   1 0.97363-0.75903-0.19605 0.19605-0.11657-0.62083
   3   0  -924734.45 2432.45   1 0.96986-0.74932-0.23923 0.23923-0.04619-0.61747
  -3   0   922148.97 1296.83   1 0.36539-0.58634 0.79126-0.79126 0.49029 0.17350
   3   0  -841168.35 2175.69   1 0.95835-0.73198-0.28405 0.28405 0.02930-0.61927
  -3   0   838619.76 2016.17   1 0.38236-0.60929 0.78603-0.78603 0.48574 0.10441
   3   0  -719993.93 1915.36   1 0.93735-0.70508-0.33009 0.33009 0.11138-0.62761
  -3   0   719043.41  879.02   1 0.38619-0.61897 0.78477-0.78477 0.48474 0.03163
  -3   0   716417.06  563.53   1 0.64613-0.87897-0.46905 0.46905 0.60207-0.08594
   3   0  -640035.38 1515.60   1 0.90405-0.66584-0.37701 0.37701 0.20134-0.64382
  -3   0   635278.59 1322.65   1 0.37527-0.61380 0.78815-0.78815 0.48782-0.04529
  -3   0   637494.63 1241.10   1 0.53593-0.77447-0.61867 0.61867 0.57446-0.13199
   3   0  -5  946.28  296.88   1 0.85385-0.60977-0.42530 0.42530 0.30007-0.66880
  -3   0   5 1011.60  381.77   1 0.34632-0.59071 0.79696-0.79696 0.49487-0.12610
   3   0  -5   -0.30   25.35   1 0.50932-0.26482 0.85753-0.85753 0.07231-0.44103
   3   0  -443169.36 1177.91   1 0.78075-0.53070-0.47314 0.47313 0.40811-0.70320
  -3   0   444159.82 1256.45   1 0.29705-0.54730 0.81000-0.81000 0.50562-0.21060
  -3   0   3218059.6 5165.11   1 0.22451-0.48062 0.82493-0.82493 0.51872-0.29745
   3   0  -3200401.7 4732.33   1 0.58471-0.32858 0.69535-0.69535 0.41784-0.63915
   3   0  -3214174.0 4980.94   1-0.09288 0.34904 0.92579-0.92579-0.36643 0.14516
   3   0  -3218111.3 5058.85   1 0.74772-0.49147-0.27017 0.27017 0.60656-0.82792
  -3   0   2327562.2 4715.45   1 0.12699-0.38893 0.83731-0.83731 0.53176-0.38423
   3   0  -2294910.3 4221.59   1 0.43748-0.17552 0.76634-0.76634 0.47045-0.61798
   3   0  -2296267.0 4168.76   1-0.00331 0.26532 0.94996-0.94996-0.31232 0.16480
   3   0  -2319900.1 4467.62   1 0.48654-0.22461-0.67248 0.67248 0.55771-0.70520
   3   0  -153326.41  962.08   1 0.34963-0.08182-0.56600 0.56600 0.74658-0.82032
  -3   0   156395.75 1030.65   1 0.00476-0.27257 0.84143-0.84143 0.54034-0.46657
   3   0  -156064.44  930.27   1 0.07073 0.19703 0.96133-0.96133-0.26614 0.19238
   3   0   0943110.721775.99   1 0.13675 0.13675-0.55408 0.55408 0.82115-0.82115
   3   0   0895565.420694.99   1 0.13684 0.13684 0.83659-0.83659 0.53045-0.53045
   3   0   0916772.921173.12   1 0.13680 0.13680 0.96543-0.96543-0.22185 0.22185
   3   0   1184850.0 2738.19   1-0.07585 0.35516-0.51566 0.51566 0.85342-0.77970
  -3   0  -1181181.6 2694.63   1-0.28876 0.00929 0.79880-0.79880 0.52775-0.60151
   3   0   1180429.1 2680.32   1 0.00694 0.27260 0.84146-0.84146 0.54026-0.46649
  -3   0  -1189381.2 2831.82   1-0.05823-0.22131 0.93645-0.93645-0.34592 0.27216
  -3   0  -234288.63  670.53   1-0.57179 0.28651-0.31777 0.31777 0.75635-0.90384
  -3   0  -237832.34  800.07   1-0.43992 0.15468 0.74496-0.74496 0.50148-0.64891
   3   0   232430.37  662.20   1-0.09894 0.38436 0.83501-0.83501 0.54126-0.39372
  -3   0  -234905.64  890.63   1-0.01548-0.26991 0.94733-0.94733-0.31988 0.17236
   3   0   337566.44 1056.84   1-0.39559 0.68671-0.40815 0.40815 0.82274-0.60152
  -3   0  -338581.94 1076.02   1-0.57984 0.28870 0.67165-0.67165 0.46115-0.68230
   3   0   413045.98  591.33   1-0.49158 0.78855-0.36225 0.36225 0.79190-0.49693
  -3   0  -413902.39  548.64   1-0.70188 0.40489 0.58253-0.58253 0.40990-0.70477
   3   0   5 1121.88  336.28   1-0.55507 0.85789-0.32755 0.32755 0.76458-0.39587
  -3   0  -5  596.70  247.69   1-0.80197 0.49940 0.48408-0.48408 0.34999-0.71851
  -3   0  -5  611.65  253.52   1 0.00098-0.30393 0.95085-0.95085-0.30963-0.05915
   3   0   668753.70 2416.58   1-0.59473 0.90354-0.30379 0.30379 0.74431-0.30217
  -3   0  -670468.71 2384.55   1-0.88086 0.57242 0.37741-0.37741 0.28571-0.72793
  -3   0  -671368.10 2496.73   1-0.01420-0.29458 0.94761-0.94761-0.31909-0.12345
   3   0   7101029.1 5080.80   1-0.61813 0.93283-0.28897 0.28897 0.73102-0.21520
  -3   0  -799876.86 4974.59   1-0.93844 0.62403 0.26771-0.26771 0.21827-0.73410
  -3   0  -7102681.4 5160.93   1-0.03567-0.27896 0.94250-0.94250-0.33228-0.18402
   3   0   8 9798.49  851.92   1-0.62945 0.95003-0.28157 0.28157 0.72422-0.13471
  -3   0  -8 7355.62 1252.51   1-0.97649 0.65618 0.15592-0.15592 0.14880-0.73831
  -3   0  -8 9694.44 1849.71   1-0.06219-0.25830 0.93531-0.93531-0.34829-0.24177
   3   0   9  587.94  359.44   1-0.63164 0.95810-0.28012 0.28012 0.72288-0.05968
  -3   0  -9  759.78  270.08   1-0.99625 0.66949 0.03675-0.03675 0.07825-0.74191
  -3   0  -9  579.60  298.98   1-0.09291-0.23342 0.92578-0.92578-0.36645-0.29737
   3   0  1010386.81 1013.10   1-0.62656 0.95891-0.28347 0.28347 0.72598 0.01090
  -3   0 -1010178.02  883.22   1-0.12729-0.20489 0.91355-0.91355-0.38626-0.35132
   3   0  1113302.54 1347.30   1-0.61538 0.95361-0.29075 0.29075 0.73264 0.07793
   3   1 -12 5216.50 1116.15   1 0.96094-0.75818-0.10598 0.16918-0.25562-0.62971
   3  -1 -12 3968.15 1410.02   1 0.96405-0.76130-0.11666 0.05346-0.23870-0.64618
   3  -1 -1113590.78 2446.71   1 0.97186-0.76319-0.16052 0.09731-0.17234-0.63880
   3   1 -1111878.53 2236.42   1 0.96974-0.76106-0.14464 0.20785-0.19667-0.61447
   3   1 -10 3587.31  869.13   1 0.97352-0.75891-0.18436 0.24757-0.13512-0.60228
   3  -1 -10 3512.84  911.40   1 0.97339-0.75878-0.20529 0.14209-0.10175-0.63564
  -3   1  10 2608.11  604.76   1 0.44633-0.66159 0.76285-0.69960 0.46779 0.26990
   3   1  -910216.86 1604.60   1 0.97187-0.75134-0.22486 0.28807-0.06995-0.59371
   3  -1  -9 9756.86 1536.76   1 0.96749-0.74702-0.25154 0.18834-0.02615-0.63756
  -3  -1   9 8637.00 1067.43   1 0.21114-0.43210 0.82715-0.89041 0.52079 0.14300
  -3   1   910425.45 1329.61   1 0.47548-0.69658 0.75072-0.68747 0.45860 0.20531
   3   1  -843765.11 2326.95   1 0.96378-0.73741-0.26668 0.32988-0.00056-0.58940
   3  -1  -843006.42 3682.60   1 0.95257-0.72620-0.29915 0.23595 0.05574-0.64571
  -3  -1   836512.30 1902.95   1 0.22826-0.45508 0.82428-0.88754 0.51811 0.07192
  -3   1   843748.91 2292.15   1 0.49393-0.72087 0.74250-0.67925 0.45244 0.13770
   3   1  -841855.18 2104.42   1 0.24236-0.01544 0.95912-0.89596-0.14608-0.44386
   3   1  -721738.43 1027.32   1 0.94794-0.71567-0.30964 0.37284 0.07437-0.59059
   3  -1  -713768.34 1616.30   1 0.92609-0.69382-0.34826 0.28506 0.14509-0.66131
  -3  -1   713645.74  699.85   1 0.22794-0.46061 0.82434-0.88759 0.51817-0.00188
  -3   1   719483.59  895.72   1 0.50123-0.73401 0.73913-0.67587 0.44993 0.06645
   3   1  -719642.11  852.45   1 0.40306-0.17031 0.91493-0.85177-0.02075-0.49545
  -3  -1   712810.35  537.52   1 0.73341-0.96615-0.30447 0.24126 0.60777-0.09127
   3   1  -632316.10 1283.09   1 0.92214-0.68397-0.35402 0.41722 0.15593-0.59841
   3  -1  -636389.77 1362.13   1 0.88457-0.64636-0.39797 0.33478 0.24318-0.68565
  -3  -1   632731.02 1216.54   1 0.20915-0.44769 0.82747-0.89073 0.52109-0.07855
  -3   1   632263.39 1343.31   1 0.49619-0.73480 0.74147-0.67821 0.45167-0.00905
   3   1  -629372.84 1019.59   1 0.57703-0.33835 0.80529-0.74212 0.13612-0.57858
  -3  -1   634846.94 1202.60   1 0.69216-0.93082-0.38902 0.32583 0.60792-0.16552
   3  -1  -5109000.8 3332.93   1 0.82224-0.57815-0.44835 0.38516 0.35056-0.71929
  -3  -1   5108514.9 3290.95   1 0.17025-0.41464 0.83295-0.89621 0.52649-0.15771
  -3   1   5116795.9 3575.96   1 0.47678-0.72123 0.75016-0.68690 0.45818-0.08933
   3   1  -5114025.8 3372.62   1 0.74156-0.49714 0.58878-0.52561 0.32159-0.69034
  -3  -1   5106456.0 3154.15   1 0.62324-0.86773-0.50431 0.44112 0.59768-0.22902
   3   1  -4143214.9 3481.72   1 0.82625-0.57628-0.44565 0.50884 0.34452-0.63950
   3  -1  -4126673.5 3078.85   1 0.73210-0.48205-0.49642 0.43322 0.46645-0.76154
  -3  -1   4132173.5 3218.80   1 0.11009-0.36029 0.83864-0.90186 0.53344-0.23837
  -3   1   4139606.6 3405.91   1 0.44007-0.69036 0.76533-0.70207 0.46967-0.17460
   3   1  -4124915.5 2997.18   1 0.61323-0.36288 0.67805-0.61480 0.40519-0.70022
   3   1  -4138342.1 3249.80   1 0.83275-0.58244 0.24217-0.17899 0.49787-0.79291
  -3  -1   4122106.9 2878.44   1 0.52550-0.77573-0.63061 0.56743 0.57111-0.27613
   3   1  -280054.57 1356.02   1 0.62846-0.36665-0.53161 0.59481 0.56782-0.71537
   3  -1  -268432.78 1088.33   1 0.38095-0.11902 0.92377-0.98693-0.03889-0.10859
   3   1  -1  883.08  159.47   1 0.47138-0.20360-0.55926 0.62248 0.68192-0.75567
  -3   1   1 1082.00  156.73   1-0.04084-0.22688-0.52374 0.58695 0.85089-0.77717
  -3   1   1  830.62  205.78   1 0.18890-0.45673 0.83049-0.76724 0.52401-0.45025
  -3   1   1 1446.84  229.50   1-0.01634-0.25151 0.94713-0.88395-0.32041 0.39417
   3   1  -1  684.11  149.98   1 0.46644-0.19867-0.69252 0.75570 0.55030-0.62404
   3   1   026285.64  568.09   1 0.27468-0.00103-0.56505 0.62828 0.77798-0.77798
  -3  -1   033116.68  668.46   1-0.02209-0.25142-0.52778 0.46457 0.84908-0.84908
  -3   1   026360.25  626.74   1 0.05023-0.32391 0.84138-0.77815 0.53810-0.53810
   3  -1   033765.67  690.36   1 0.32944-0.05575 0.80170-0.86495 0.49873-0.49873
   3   1   026048.04 1412.23   1-0.07116 0.34486 0.93266-0.86948-0.35364 0.35364
  -3   1   027116.83  579.52   1 0.07805-0.35167 0.96208-0.89890-0.26133 0.26133
   3  -1   032341.59  687.20   1 0.35914-0.08554 0.93157-0.99473-0.05649 0.05649
   3  -1   152101.55  998.44   1-0.17922 0.45865-0.48780 0.42459 0.85435-0.78061
  -3  -1  -151866.51  994.77   1-0.45499 0.17565 0.73828-0.80148 0.49791-0.57163
   3   1   151136.13  906.32   1 0.01954 0.26000 0.95438-0.89119-0.29794 0.37170
  -3   1  -155367.62 1404.82   1 0.12266-0.40214 0.96507-0.90188-0.23149 0.15773
   3  -1   149039.32  906.45   1 0.37687-0.09743 0.92530-0.98846-0.04221 0.11595
   3   1   2158910.9 2380.33   1-0.14397 0.42925-0.49802 0.56123 0.85512-0.70764
   3  -1   2157550.8 2413.15   1-0.33986 0.62513-0.43165 0.36844 0.83556-0.68807
  -3  -1  -2145122.0 2155.48   1-0.51480 0.22953-0.35000 0.28679 0.78260-0.93008
  -3   1  -2154791.7 2340.69   1-0.28371-0.00161 0.80018-0.73697 0.52839-0.67592
  -3   1  -2159374.6 2483.99   1 0.13968-0.42500 0.96547-0.90229-0.21987 0.07236
   3   1   393151.80 2293.36   1-0.30652 0.59764-0.44466 0.50787 0.84161-0.62038
   3  -1   398452.78 2450.13   1-0.45715 0.74827-0.37957 0.31636 0.80432-0.58309
  -3  -1  -384225.84 2052.90   1-0.69933 0.40818-0.23201 0.16882 0.67608-0.89715
  -3  -1  -399665.99 2474.07   1-0.68409 0.39301 0.59734-0.66052 0.41856-0.63971
  -3   1  -396019.94 2352.10   1-0.45441 0.16327 0.73854-0.67533 0.49805-0.71920
  -3  -1  -3102212.9 2565.90   1-0.13652-0.15472 0.90999-0.97318-0.39149 0.17021
   3   1   4 4804.78  359.51   1-0.42356 0.72053-0.39553 0.45874 0.81495-0.51998
   3  -1   4 4131.45  501.23   1-0.53762 0.83459-0.33747 0.27426 0.77270-0.47773
  -3  -1  -4 3876.51  388.54   1-0.77608 0.47910 0.51200-0.57519 0.36815-0.66302
  -3   1  -4 3796.70  245.93   1-0.60969 0.31264 0.65237-0.58917 0.45020-0.74507
  -3  -1  -4 5429.79  447.36   1-0.11828-0.17881 0.91692-0.98010-0.38112 0.08609
  -3   1  -4 3799.32  566.00   1 0.12914-0.42616 0.96527-0.90208-0.22709-0.06793
   3   1   549138.26 1620.58   1-0.50221 0.80503-0.35671 0.41992 0.78774-0.41903
   3  -1   537589.26 1346.76   1-0.59015 0.89307-0.30661 0.24343 0.74679-0.37835
  -3  -1  -535054.85 1579.23   1-0.85108 0.54851 0.42180-0.48496 0.31261-0.68113
  -3   1  -550294.51 1613.12   1-0.74146 0.43858 0.54682-0.48363 0.38886-0.75745
  -3  -1  -536852.68 1322.35   1-0.11351-0.18943 0.91866-0.98184-0.37838 0.00959
  -3   1  -547692.44 1680.47   1 0.11053-0.41340 0.96453-0.90135-0.23970-0.12908
   3  -1   646142.96 1755.11   1-0.62329 0.93210-0.28562 0.22243 0.72795-0.28582
   3   1   642442.30 1538.47   1-0.55246 0.86112-0.32906 0.39227 0.76583-0.32338
  -3  -1  -645231.29 1609.46   1-0.91004 0.60160 0.32688-0.39004 0.25487-0.69709
  -3   1  -641476.03 1529.99   1-0.84503 0.53658 0.43014-0.36698 0.31764-0.75986
  -3  -1  -646601.64 1741.89   1-0.11887-0.18992 0.91671-0.97989-0.38146-0.06109
  -3   1  -645767.88 1758.45   1 0.08606-0.39479 0.96282-0.89964-0.25604-0.18650
   3   1   711792.06 1318.55   1-0.58210 0.89679-0.31153 0.37471 0.75107-0.23525
   3  -1   710476.78 1242.70   1-0.64229 0.95699-0.27297 0.20979 0.71619-0.20037
  -3  -1  -711035.83 1867.49   1-0.95328 0.63887 0.23048-0.29362 0.19524-0.71107
  -3   1  -710557.01 1441.90   1-0.92150 0.60719 0.30445-0.24129 0.24110-0.75702
  -3  -1  -711495.08 1283.24   1-0.13208-0.18256 0.91172-0.97491-0.38898-0.12733
  -3   1  -711458.78 1679.39   1 0.05697-0.37155 0.95972-0.89653-0.27512-0.24118
   3   1   829608.33 1899.56   1-0.59767 0.91825-0.30196 0.36515 0.74269-0.15318
   3  -1   826842.23 1786.40   1-0.65088 0.97146-0.26711 0.20392 0.71063-0.12112
  -3   1  -828995.08 2404.14   1-0.97108 0.65077 0.17596-0.11282 0.16132-0.75083
  -3  -1  -825002.28 1988.76   1-0.98203 0.66172 0.13264-0.19578 0.13421-0.72373
  -3  -1  -828430.65 1926.37   1-0.15156-0.16892 0.90392-0.96711-0.39992-0.19014
  -3   1  -833371.84 3145.68   1 0.02305-0.34354 0.95499-0.89181-0.29571-0.29435
   3   1   927759.79 2330.15   1-0.60248 0.92895-0.29895 0.36214 0.74002-0.07682
   3  -1   923637.10 1991.47   1-0.65147 0.97794-0.26670 0.20351 0.71024-0.04704
  -3  -1  -919701.41 1633.88   1-0.99693 0.67017 0.02823-0.09144 0.07289-0.73654
  -3   1  -926024.23 2084.60   1-0.99618 0.66941 0.03761 0.02559 0.07879-0.74244
  -3   1  -926618.99 3080.76   1-0.01316-0.31317 0.94784-0.88466-0.31844-0.34538
   3   1  10 5895.45 1348.97   1-0.59887 0.93122-0.30121 0.36440 0.74203-0.00514
   3  -1  10 3027.63  782.44   1-0.64561 0.97796-0.27072 0.20754 0.71406 0.02281
  -3  -1 -10 3328.90  755.70   1-0.99739 0.66470-0.07151 0.00830 0.00966-0.74706
  -3   1 -10 3721.54 1030.47   1-0.05232-0.27986 0.93810-0.87491-0.34237-0.39521
   3   1  11 9473.54  936.49   1-0.58829 0.92652-0.30775 0.37094 0.74779 0.06278
   3  -1  1112375.93 1225.26   1-0.63424 0.97247-0.27839 0.21520 0.72127 0.08930
  -3   1 -11 7160.57 1761.62   1-0.09424-0.24379 0.92534-0.86215-0.36722-0.44412
   3  -2 -12 6539.89 1798.60   1 0.96435-0.76160-0.11788-0.00853-0.23690-0.64798
   3   2 -12 8068.72 1921.63   1 0.95820-0.75543-0.09666 0.22307-0.26925-0.61607
   3  -2 -11 1476.46  312.93   1 0.97225-0.76357-0.16427 0.03786-0.16654-0.64460
   3   2 -11 2869.82  783.60   1 0.96770-0.75902-0.13315 0.25956-0.21406-0.59708
   3   2 -1016623.00 2482.93   1 0.97279-0.75818-0.17048 0.29690-0.15688-0.58052
   3  -2 -1013148.58 2356.79   1 0.97304-0.75843-0.21178 0.08537-0.09127-0.64612
  -3   2  1013628.27 1163.16   1 0.52759-0.74285 0.72637-0.59985 0.44048 0.29721
   3   2  -928081.73 2809.53   1 0.97324-0.75271-0.20837 0.33478-0.09679-0.56686
   3  -2  -935111.77 3338.45   1 0.96527-0.74480-0.26103 0.13463-0.01015-0.65355
  -3   2   923166.20 1413.54   1 0.55505-0.77614 0.71206-0.58554 0.42998 0.23393
   3   2  -812256.69 1639.16   1 0.96843-0.74197-0.24704 0.37345-0.03315-0.55677
   3  -2  -811213.91 1403.63   1 0.94693-0.72056-0.31176 0.18536 0.07817-0.66814
  -3  -2   813598.28 1169.81   1 0.01890-0.24563 0.84160-0.96805 0.53976 0.05036
  -3   2   812889.39 1222.93   1 0.57370-0.80063 0.70171-0.57519 0.42245 0.16770
   3   2  -811692.04 1192.39   1 0.43840-0.21148 0.89873-0.77241 0.00892-0.59887
   3   2  -753065.09 2109.39   1 0.95727-0.72500-0.28708 0.41349 0.03458-0.55080
   3  -2  -749644.15 2125.49   1 0.91483-0.68256-0.36397 0.23757 0.17490-0.69112
  -3  -2   754749.93 2045.07   1 0.01709-0.24968 0.84159-0.96804 0.53984-0.02347
  -3   2   752305.63 2095.46   1 0.58321-0.81599 0.69622-0.56971 0.41847 0.09790
   3   2  -750119.48 1835.85   1 0.57048-0.33763 0.81099-0.68465 0.12974-0.64594
  -3  -2   742782.20 1575.36   1 0.75560-0.98834-0.24995 0.12353 0.60546-0.08895
   3  -2  -6144075.1 4817.00   1 0.86471-0.62649-0.41630 0.28993 0.28101-0.72349
  -3  -2   6134660.2 4460.71   1-0.00598-0.23248 0.84118-0.96763 0.54070-0.09810
  -3   2   6154451.8 5199.63   1 0.58265-0.82126 0.69655-0.57004 0.41871 0.02390
   3   2  -6128393.7 4237.50   1 0.81898-0.58017 0.50024-0.37375 0.28110-0.72366
   3   2  -6147224.6 4839.14   1 0.69491-0.45625 0.66949-0.54311 0.26242-0.70488
  -3  -2   6131113.0 4315.78   1 0.72994-0.96856-0.31238 0.18596 0.60794-0.16521
   3   2  -517225.62 1882.48   1 0.90946-0.66539-0.37080 0.49721 0.18806-0.55680
   3  -2  -518116.40  760.75   1 0.78969-0.54560-0.46822 0.34185 0.39641-0.76514
  -3  -2   515029.76  601.50   1-0.05006-0.19426 0.83917-0.96562 0.54155-0.17272
  -3   2   514852.08  757.59   1 0.57038-0.81483 0.70358-0.57707 0.42381-0.05496
   3   2  -512254.13  516.55   1 0.67130-0.42676 0.63821-0.51172 0.37687-0.74566
   3   2  -512814.67  480.33   1 0.79177-0.54735 0.46432-0.33798 0.39686-0.76561
  -3  -2   514763.10  561.98   1 0.68826-0.93274-0.39636 0.26998 0.60761-0.23894
   3   2  -433159.96 1043.55   1 0.86704-0.61708-0.41427 0.54064 0.27677-0.57176
   3  -2  -439181.66 1097.28   1 0.68233-0.43228-0.51540 0.38898 0.51843-0.81352
  -3  -2   439723.05 1070.79   1-0.11428-0.13591 0.83328-0.95973 0.54090-0.24583
   3   2  -430144.13  856.74   1 0.48985-0.23956 0.74436-0.61785 0.45383-0.74891
  -3   2   433411.53 1021.44   1 0.54391-0.79420 0.71799-0.59148 0.43432-0.13924
   3   2  -433928.33  907.41   1 0.83477-0.58447 0.19987-0.07351 0.51303-0.80807
  -3  -2   440551.97 1057.99   1 0.62644-0.87674-0.49954 0.37316 0.59835-0.30341
   3   2  -371801.72 1826.08   1 0.80555-0.54971-0.45896 0.58533 0.37474-0.59598
   3  -2  -372794.22 1841.66   1 0.53581-0.27961-0.55069 0.42424 0.64002-0.86129
   3   2  -374394.77 1834.74   1 0.29189-0.03578 0.81122-0.68471 0.50666-0.72792
  -3   2   379341.54 2040.47   1 0.49973-0.75586 0.73983-0.61332 0.45045-0.22914
   3  -2  -372802.10 1703.14   1 0.81937-0.56317 0.35106-0.47742 0.45318-0.67446
   3   2  -382440.56 2002.71   1 0.80518-0.54906-0.08825 0.21462 0.58642-0.80775
  -3  -2   374619.84 1829.41   1 0.54423-0.80031-0.60894 0.48258 0.57705-0.35581
   3   2  -2 8704.55  347.59   1 0.71749-0.45568-0.50245 0.62886 0.48243-0.62997
   3  -2  -212728.65  504.44   1 0.35003-0.08805-0.56600 0.43955 0.74640-0.89389
  -3  -2   212441.83  433.81   1-0.29119 0.02932 0.79812-0.92455 0.52744-0.37992
   3   2  -2 8625.22  342.99   1 0.09885 0.16308 0.83938-0.71293 0.53446-0.68199
  -3   2   2 9143.56  403.24   1 0.43341-0.69537 0.76791-0.64140 0.47165-0.32411
  -3   2   211341.52  316.48   1 0.13853-0.40045 0.96546-0.83909-0.22066 0.36818
   3  -2  -211962.62  285.92   1 0.67446-0.41249 0.69862-0.82500 0.23879-0.38628
   3   2  -2 9263.02  351.06   1 0.71340-0.45127-0.34823 0.47465 0.60810-0.75567
  -3  -2   212454.05  383.76   1 0.44594-0.70786-0.71199 0.58563 0.54240-0.39491
  -3  -2   1  332.93  180.31   1 0.30427-0.57209-0.56587 0.43942 0.76628-0.69254
  -3   2   1  175.88  186.87   1-0.17009-0.09763-0.49052 0.61694 0.85466-0.78092
  -3  -2   1  196.88  197.21   1-0.39378 0.12625 0.76382-0.89023 0.51137-0.43765
   3   2  -1  421.39  168.96   1-0.07235 0.34016 0.83752-0.71107 0.54158-0.61535
  -3   2   1  446.35  100.98   1 0.23760-0.50537 0.95965-0.83328-0.15036 0.22412
   3  -2  -1   85.23  116.12   1 0.58932-0.32152 0.79417-0.92051 0.14825-0.22199
   3   2  -1  314.25  250.21   1 0.59413-0.32636-0.54567 0.67205 0.59096-0.66469
   3  -2   0104277.1 1637.59   1 0.50662-0.23297 0.73660-0.86311 0.44805-0.44805
   3   2   154104.94  944.81   1 0.22230 0.05718-0.56225 0.68870 0.79652-0.72277
  -3  -2  -161710.42 1003.27   1-0.18332-0.09610-0.48657 0.36014 0.85418-0.92793
   3  -2   165312.42 1140.92   1-0.25547 0.53490-0.46317 0.33674 0.84864-0.77490
  -3   2  -155384.38 1012.71   1 0.06055-0.34009 0.84112-0.71467 0.53743-0.61120
   3  -2   162882.67 1082.21   1 0.40392-0.12444 0.77873-0.90524 0.48001-0.40624
  -3   2  -154270.00 1029.24   1 0.28296-0.56240 0.95211-0.82579-0.11577 0.04203
   3  -2   161037.99 1060.82   1 0.53320-0.25374 0.84071-0.96705 0.09429-0.02055
   3   2   2 9332.46  391.04   1 0.00821 0.27689-0.53390 0.66031 0.84550-0.69807
  -3  -2  -2 8680.10  314.36   1-0.45635 0.17108-0.37996 0.25354 0.80459-0.95207
   3  -2   2 9303.27  443.11   1-0.39699 0.68227-0.40753 0.28110 0.82237-0.67489
  -3   2  -2 9770.34  430.56   1-0.11946-0.16594 0.83265-0.70620 0.54075-0.68828
   3  -2   2 8384.90  342.24   1 0.30655-0.02114 0.80767-0.93418 0.50367-0.35616
  -3   2  -2 9945.20 1244.42   1 0.27604-0.56132 0.95349-0.82717-0.12100-0.02648
   3   2   3115583.2 2802.15   1-0.18045 0.47157-0.48744 0.61386 0.85430-0.63307
   3  -2   3104683.5 2624.05   1-0.49844 0.78956-0.35868 0.23226 0.78923-0.56800
  -3  -2  -399522.07 2399.36   1-0.67534 0.38418-0.24983 0.12345 0.69389-0.91496
  -3  -2  -3107673.3 2668.45   1-0.76722 0.47614 0.52127-0.64765 0.37368-0.59484
  -3   2  -3114542.7 2780.19   1-0.31185 0.02065 0.79216-0.66573 0.52461-0.74589
   3  -2   395055.88 2319.83   1 0.22125 0.07001 0.82549-0.95200 0.51923-0.29796
  -3   2  -3113122.7 2881.51   1 0.25944-0.55055 0.95649-0.83017-0.13344-0.08778
   3   2   4251571.6 7426.27   1-0.32461 0.62158-0.43769 0.56412 0.83848-0.54350
   3  -2   4245731.5 7313.98   1-0.56771 0.86468-0.32018 0.19375 0.75840-0.46343
  -3  -2  -4250416.3 7446.66   1-0.83463 0.53792 0.44398-0.57030 0.32598-0.62079
  -3   2  -4261304.8 7711.11   1-0.49946 0.20241 0.71693-0.59052 0.48635-0.78122
   3  -2   4225033.2 6653.06   1 0.15256 0.14456 0.83500-0.96151 0.52866-0.23364
  -3   2  -4237579.5 7101.29   1 0.23654-0.53356 0.95979-0.83342-0.15114-0.14388
   3   2   556705.43 1976.18   1-0.42469 0.72750-0.39500 0.52143 0.81461-0.44590
   3  -2   550282.20 1883.47   1-0.61291 0.91584-0.29233 0.16596 0.73407-0.36563
  -3  -2  -551871.98 1898.67   1-0.89009 0.58752 0.36230-0.48861 0.27651-0.64503
  -3   2  -557497.58 1977.74   1-0.66633 0.36345 0.61144-0.48507 0.42677-0.79536
  -3   2  -553679.02 2511.71   1 0.20836-0.51124 0.96287-0.83651-0.17160-0.19718
   3   2   630550.30 1216.00   1-0.48996 0.79863-0.36309 0.48952 0.79252-0.35007
   3  -2   635651.55 1388.23   1-0.64140 0.95021-0.27358 0.14720 0.71676-0.27463
  -3  -2  -641229.00 1518.35   1-0.93360 0.62509 0.27875-0.40504 0.22509-0.66722
  -3   2  -633941.32 1220.46   1-0.80109 0.49265 0.48509-0.35878 0.35060-0.79282
  -3   2  -633286.83 1328.56   1 0.17627-0.48500 0.96494-0.83858-0.19443-0.24810
   3   2   726725.12 1453.34   1-0.53008 0.84460-0.34166 0.46809 0.77605-0.25986
   3  -2   735896.92 2021.18   1-0.65752 0.97222-0.26250 0.13612 0.70622-0.19040
  -3  -2  -734152.62 1839.24   1-0.96588 0.65147 0.19340-0.31968 0.17219-0.68802
  -3   2  -725638.49 1346.52   1-0.90193 0.58762 0.34178-0.21547 0.26399-0.77991
  -3   2  -726089.99 1486.31   1 0.14093-0.45551 0.96548-0.83912-0.21901-0.29728
   3   2   8 8692.71  704.85   1-0.55223 0.87260-0.32919 0.45561 0.76594-0.17600
   3  -2   811561.47 1056.87   1-0.66441 0.98499-0.25766 0.13128 0.70154-0.11203
  -3  -2  -811069.56 1610.33   1-0.98720 0.66689 0.10707-0.23335 0.11815-0.70766
  -3   2  -8 7339.55  786.59   1-0.96656 0.64625 0.19122-0.06493 0.17083-0.76035
  -3   2  -8 7946.47 1098.78   1 0.10277-0.42320 0.96408-0.83771-0.24491-0.34514
   3   2   9 6619.40  916.39   1-0.56121 0.88742-0.32399 0.45042 0.76161-0.09794
   3  -2   9 5908.19  950.77   1-0.66409 0.99056-0.25788 0.13150 0.70176-0.03856
  -3  -2  -9 4005.61  767.24   1-0.99782 0.67106 0.01449-0.14090 0.06423-0.72788
  -3   2  -9 5166.48  942.72   1 0.06205-0.38834 0.96034-0.83398-0.27181-0.39200
   3   2  1016351.21 1330.43   1-0.56007 0.89213-0.32466 0.45108 0.76217-0.02475
   3  -2  1013504.10 1249.79   1-0.65789 0.99024-0.26224 0.13587 0.70597 0.03090
  -3  -2 -1014213.38 1170.54   1-0.99722 0.66453-0.07407-0.05233 0.00803-0.74542
  -3   2 -1015176.33 1893.39   1 0.01786-0.35005 0.95408-0.82771-0.29900-0.43858
   3  -2  11 6694.58  773.58   1-0.64661 0.98484-0.27004 0.14366 0.71342 0.09715
  -3   2 -11 7181.79 1814.27   1-0.02758-0.31046 0.94450-0.81813-0.32733-0.48401
   3   3 -1113881.93 3237.20   1 0.96476-0.75609-0.11960 0.30922-0.23434-0.57680
  -3   3  1119688.24 2364.48   1 0.55289-0.76231 0.71322-0.52345 0.43083 0.38062
   3   3 -10 3485.43  977.60   1 0.97117-0.75656-0.15461 0.34423-0.18143-0.55597
   3  -3 -10 3524.41  886.51   1 0.97280-0.75820-0.21511 0.02549-0.08588-0.65152
  -3   3  10 6140.44 1393.75   1 0.58637-0.80163 0.69437-0.50460 0.41713 0.32055
   3   3  -910656.80 1741.63   1 0.97363-0.75310-0.18994 0.37956-0.12629-0.53736
   3  -3  -911400.07 1670.28   1 0.96353-0.74306-0.26757 0.07796 0.00094-0.66465
  -3   3   9 9954.80  818.90   1 0.61180-0.83313 0.67895-0.48922 0.40584 0.25797
   3   3  -9 8178.41  834.41   1 0.43533-0.21425 0.90024-0.71076 0.00631-0.67000
   3   3  -841450.06 2376.51   1 0.97176-0.74531-0.22578 0.41540-0.06843-0.52148
   3  -3  -835605.01 2032.02   1 0.94200-0.71563-0.32160 0.13200 0.09591-0.68589
  -3  -3   832037.84 1758.48   1-0.25183 0.02515 0.80836-0.99800 0.53209 0.05798
  -3   3   840321.54 2318.98   1 0.63019-0.85733 0.66706-0.47732 0.39733 0.19272
   3   3  -838882.00 2151.11   1 0.54804-0.32103 0.82941-0.63990 0.10824-0.69818
   3   3  -725147.16 1414.10   1 0.96487-0.73260-0.26260 0.45220-0.00750-0.50872
   3  -3  -726615.97 1471.61   1 0.90458-0.67224-0.37639 0.18684 0.20013-0.71636
  -3  -3   724197.23 1265.19   1-0.24429 0.01175 0.81015-0.99979 0.53288-0.01656
  -3   3   728574.53 1683.85   1 0.64089-0.87383 0.65986-0.47012 0.39221 0.12408
   3   3  -722185.32 1146.11   1 0.90156-0.66852 0.38265-0.19292 0.20189-0.71822
   3   3  -726443.01 1393.96   1 0.65376-0.42092 0.72526-0.53570 0.21581-0.73201
   3   3  -6 2574.09  353.68   1 0.95208-0.71391-0.30033 0.48993 0.05781-0.50029
   3  -3  -6 2904.32  342.58   1 0.84543-0.60722-0.43186 0.24231 0.31419-0.75667
  -3  -3   6 2971.47  256.76   1-0.26071 0.02230 0.80618-0.99582 0.53113-0.08856
  -3   3   6 2068.84  458.41   1 0.64319-0.88193 0.65828-0.46855 0.39109 0.05145
   3   3  -6 2325.39  192.37   1 0.75926-0.52053 0.56381-0.37408 0.32499-0.76753
   3   3  -6 2723.76  259.68   1 0.74407-0.50552 0.58373-0.39422 0.32497-0.76748
   3   3  -536999.07 1615.50   1 0.93185-0.68778-0.33933 0.52894 0.12843-0.49716
   3  -3  -549837.42 1609.02   1 0.75769-0.51351-0.48485 0.29522 0.43683-0.80569
  -3  -3   549136.74 1565.30   1-0.29732 0.05305 0.79640-0.98604 0.52663-0.15782
   3   3  -535335.06 1143.75   1 0.56788-0.32343 0.70499-0.51522 0.42483-0.79368
  -3   3   541066.38 1471.52   1 0.63584-0.88038 0.66329-0.47355 0.39465-0.02586
   3   3  -539033.79 1255.66   1 0.80882-0.56440 0.40239-0.21288 0.42882-0.79757
   3   3  -452895.58 1461.96   1 0.90194-0.65198-0.37945 0.56901 0.20615-0.50113
  -3  -3   466269.10 1671.46   1-0.35050 0.10036 0.77987-0.96950 0.51860-0.22356
   3   3  -449004.76 1255.91   1 0.34985-0.09960 0.79593-0.60617 0.49404-0.78907
  -3   3   451575.44 1487.06   1 0.61683-0.86717 0.67576-0.48602 0.40355-0.10852
   3   3  -448855.75 1280.69   1 0.83498-0.58468 0.19056-0.00102 0.51621-0.81125
  -3  -3   464177.64 1617.91   1 0.66910-0.91941-0.43081 0.24124 0.60555-0.31061
   3  -3  -318211.06  618.69   1 0.46956-0.21336-0.55945 0.36977 0.68302-0.90428
  -3  -3   319491.56  645.33   1-0.41541 0.15969 0.75528-0.94489 0.50692-0.28577
   3   3  -318106.52  566.52   1 0.13245 0.12365 0.83700-0.64723 0.53092-0.75219
  -3   3   320401.83  750.55   1 0.58335-0.83948 0.69614-0.50637 0.41842-0.19711
  -3   3   318181.85  571.13   1 0.33656-0.59266 0.93871-0.74923-0.07440 0.29564
   3  -3  -318594.81  490.08   1 0.83197-0.57586 0.08738-0.27694 0.54788-0.76920
   3   3  -319977.72  644.13   1 0.81650-0.56039-0.03321 0.22277 0.57637-0.79770
  -3  -3   318305.17  597.96   1 0.60863-0.86475-0.52553 0.33596 0.59446-0.37325
   3  -3  -2294911.9 6905.22   1 0.27094-0.00896-0.56491 0.37523 0.77939-0.92688
  -3  -3   2312352.7 7328.74   1-0.48880 0.22718 0.72227-0.91188 0.48927-0.34183
   3   3  -2297735.5 6957.24   1-0.06087 0.32282 0.83842-0.64875 0.54160-0.68913
  -3   3   2313042.7 7370.67   1 0.53103-0.79299 0.72464-0.53487 0.43920-0.29166
  -3   3   2330192.3 7697.41   1 0.41029-0.67222 0.91183-0.72234-0.01474 0.16223
   3  -3  -2296632.9 6884.65   1 0.79535-0.53331 0.45264-0.64215 0.40314-0.55064
   3   3  -2347402.2 8108.76   1 0.75802-0.49590-0.24353 0.43316 0.60505-0.75262
  -3  -3   2285765.4 6680.91   1 0.53241-0.79434-0.62273 0.43319 0.57335-0.42585
   3   3  -1594724.117387.78   1 0.70636-0.43867-0.50678 0.69640 0.49419-0.56796
  -3  -3   1511883.911874.29   1 0.38924-0.65705-0.56496 0.37528 0.72753-0.65379
   3  -3  -1566880.816590.04   1 0.05746 0.21025-0.54274 0.35311 0.83793-0.91164
  -3   3   1575549.016825.33   1 0.42845-0.69621 0.90356-0.71408 0.00048 0.07326
   3  -3  -1538011.515716.11   1 0.72899-0.46120 0.61314-0.80271 0.30433-0.37807
   3   3  -1607423.817765.27   1 0.67534-0.40757-0.41986 0.60943 0.60631-0.68004
   3   3   0196957.0 2879.61   1 0.57885-0.30529-0.54276 0.73244 0.60854-0.60854
  -3  -3   0187805.7 2736.66   1 0.18507-0.45872-0.55924 0.36956 0.80807-0.80807
   3  -3   0190986.1 2858.27   1-0.14290 0.41648-0.49832 0.30868 0.85513-0.85513
  -3  -3   0192630.1 2897.02   1-0.64004 0.36666 0.63114-0.82071 0.43816-0.43816
  -3   3   0196437.5 2927.30   1 0.42460-0.69820 0.90537-0.71589-0.00276 0.00276
   3  -3   0178414.2 2635.60   1 0.68063-0.40702 0.69015-0.87971 0.24582-0.24582
   3   3   121030.56  634.45   1 0.40738-0.12802-0.56431 0.75399 0.71804-0.64428
  -3  -3  -128710.48  766.64   1-0.09175-0.18756-0.51177 0.32214 0.85420-0.92792
  -3   3  -121935.91  747.84   1 0.21023-0.48978 0.82730-0.63753 0.52092-0.59468
   3   3   120258.99  688.97   1 0.50655-0.22709-0.65148 0.84102 0.56476-0.49102
   3   3   2159566.4 3779.06   1 0.20137 0.08395-0.56066 0.75034 0.80318-0.65569
   3  -3   2162275.9 3919.95   1-0.43508 0.72036-0.39015 0.20051 0.81146-0.66398
  -3  -3  -2149053.4 3515.11   1-0.39823 0.11296-0.40698 0.21734 0.82205-0.96953
  -3  -3  -2168272.1 4074.20   1-0.77524 0.49006 0.51290-0.70246 0.36868-0.51612
  -3   3  -2160583.3 3836.17   1 0.03686-0.32228 0.84157-0.65190 0.53887-0.68641
   3  -3   2153128.4 3661.19   1 0.50267-0.21735 0.73846-0.92823 0.44943-0.30189
   3   3   2169423.0 4107.44   1 0.44064-0.15533-0.71685 0.90639 0.54031-0.39282
   3   3   319545.44  600.23   1-0.00678 0.29767-0.53094 0.72056 0.84738-0.62623
   3  -3   322655.97  847.54   1-0.52466 0.81578-0.34465 0.15501 0.77842-0.55719
  -3  -3  -323464.21  673.43   1-0.65656 0.36541-0.26317 0.07360 0.70686-0.92793
  -3  -3  -323001.25  986.99   1-0.83202 0.54118 0.44737-0.63684 0.32801-0.54912
  -3   3  -318960.64  591.19   1-0.16314-0.12805 0.82619-0.63655 0.53924-0.76052
   3  -3   324079.00  726.15   1 0.43353-0.14237 0.76786-0.95763 0.47162-0.25031
  -3   3  -321100.91 2080.89   1 0.35852-0.64963 0.93177-0.74229-0.05698-0.16424
   3   3   322277.03  808.20   1 0.39091-0.09976-0.75964 0.94918 0.51973-0.29849
   3   3   415576.37  621.75   1-0.18199 0.47897-0.48697 0.67661 0.85424-0.55927
   3  -3   412925.41  722.71   1-0.58563 0.88267-0.30938 0.11982 0.74920-0.45445
  -3  -3  -411008.78  457.69   1-0.82632 0.52935-0.11831-0.07127 0.55062-0.84540
  -3  -3  -412349.39 1533.75   1-0.88065 0.58394 0.37775-0.56722 0.28592-0.58073
  -3   3  -415128.33  587.37   1-0.37394 0.07687 0.77167-0.58203 0.51448-0.80952
   3  -3   411291.27  467.12   1 0.37459-0.07746 0.78837-0.97814 0.48800-0.19297
  -3   3  -412159.20 1705.98   1 0.32684-0.62378 0.94151-0.75202-0.08203-0.21294
   3   3   559742.12 2062.11   1-0.31119 0.61401-0.44288 0.63251 0.84084-0.47212
   3  -3   561696.94 2271.70   1-0.62609 0.92902-0.28378 0.09422 0.72626-0.35782
  -3  -3  -562876.84 2226.25   1-0.92093 0.61835 0.30562-0.49509 0.24182-0.61034
  -3   3  -562138.18 2117.30   1-0.57585 0.27290 0.67412-0.48451 0.46254-0.83112
   3  -3   552580.70 1816.03   1 0.33054-0.02755 0.80140-0.99116 0.49848-0.12971
   3   3   615030.17  739.11   1-0.39857 0.70724-0.40683 0.59647 0.82196-0.37951
   3  -3   6 8802.49  723.46   1-0.65148 0.96029-0.26669 0.07713 0.71023-0.26810
  -3  -3  -6 9664.15 1194.38   1-0.95274 0.64423 0.23194-0.42136 0.19615-0.63828
   3  -3   6 7441.54  395.79   1 0.30395 0.00488 0.80831-0.99808 0.50421-0.06167
  -3   3  -614646.61 2152.53   1 0.25501-0.56374 0.95710-0.76755-0.13751-0.30503
   3   3   7 8606.02  975.06   1-0.45400 0.76851-0.38111 0.57074 0.80538-0.28918
   3  -3   7 7205.96  920.17   1-0.66579 0.98048-0.25668 0.06712 0.70059-0.18477
  -3  -3  -7 7900.05 1429.72   1-0.97635 0.66194 0.15647-0.34589 0.14914-0.66496
  -3   3  -7 6584.28  938.70   1-0.87982 0.56550 0.37907-0.18960 0.28672-0.80265
  -3   3  -7 9183.07 1427.95   1 0.21523-0.52981 0.96223-0.77268-0.16665-0.34964
   3   3   815058.36  922.24   1-0.48639 0.80675-0.36493 0.55457 0.79387-0.20394
   3  -3   813153.47 1734.95   1-0.67168 0.99226-0.25247 0.06290 0.69648-0.10697
  -3  -3  -8 9136.16 1530.42   1-0.99186 0.67102 0.07544-0.26506 0.10251-0.69243
  -3   3  -811414.84 1456.46   1-0.96418 0.64387 0.19879-0.00937 0.17555-0.76506
  -3   3  -814806.54 1674.65   1 0.17326-0.49369 0.96506-0.77551-0.19655-0.39350
   3   3   926266.81 2130.94   1-0.50203 0.82824-0.35680 0.54644 0.78781-0.12413
   3  -3   932696.92 2697.40   1-0.67094 0.99741-0.25300 0.06344 0.69700-0.03380
  -3  -3  -931215.46 2569.20   1-0.99858 0.67181-0.00301-0.18660 0.05317-0.71682
  -3   3  -929764.09 3842.37   1 0.12921-0.45549 0.96527-0.77572-0.22704-0.43677
   3  -3  10 6845.00  859.30   1-0.66470 0.99705-0.25745 0.06788 0.70134 0.03554
  -3  -3 -10 8615.03  800.62   1-0.99659 0.66390-0.08242-0.10719 0.00270-0.74009
  -3   3 -10 4816.89 1649.51   1 0.08312-0.41525 0.96256-0.77301-0.25798-0.47958
   3  -3  11 1669.34  604.32   1-0.65369 0.99192-0.26517 0.07560 0.70878 0.10179
  -3   3 -11 2700.68  902.67   1 0.03386-0.37190 0.95678-0.76722-0.28881-0.52253
   3   4 -11 1083.62  555.48   1 0.96057-0.75189-0.10464 0.35746-0.25759-0.55396
   3  -4 -11 1971.49  488.11   1 0.97192-0.76324-0.16100-0.09181-0.17159-0.63955
  -3   4  11  666.58  361.87   1 0.59793-0.80735 0.68746-0.43443 0.41215 0.39930
   3   4 -10 9545.12 1715.83   1 0.96841-0.75381-0.13692 0.38974-0.20838-0.52902
   3  -4 -1013822.90 1663.72   1 0.97283-0.75823-0.21470-0.03811-0.08653-0.65087
  -3   4  1015601.12 1319.86   1 0.62850-0.84403 0.66818-0.41519 0.39813 0.33943
   3   4  -928894.96 3664.50   1 0.97273-0.75219-0.16973 0.42256-0.15805-0.50560
   3  -4  -926496.03 2183.63   1 0.96265-0.74218-0.27067 0.01787 0.00624-0.66996
  -3   4   932102.41 2687.76   1 0.65280-0.87413 0.65160-0.39861 0.38634 0.27747
   3   4  -928766.02 2308.35   1 0.51778-0.29659 0.85175-0.59908 0.08004-0.74372
   3   4  -8 9549.56 1284.39   1 0.97349-0.74703-0.20277 0.45560-0.10580-0.48411
   3  -4  -8 8789.68 1067.99   1 0.93835-0.71198-0.32832 0.07552 0.10815-0.69812
  -3   4   810666.20  895.32   1 0.67058-0.89772 0.63874-0.38576 0.37725 0.21280
   3   4  -810681.77  786.63   1 0.61418-0.38716 0.76989-0.51721 0.17333-0.76327
   3   4  -731539.05 2708.93   1 0.97034-0.73795-0.23624 0.48906-0.05117-0.46500
   3  -4  -727789.50 1494.61   1 0.89566-0.66332-0.38647 0.13373 0.22006-0.73628
  -3  -4   727962.79 1425.63   1-0.52910 0.29700 0.70129-0.95410 0.47774 0.03827
  -3   4   734754.33 2048.05   1 0.68170-0.91463 0.63037-0.37739 0.37135 0.14494
   3   4  -730547.49 1616.74   1 0.69921-0.46637 0.66296-0.41021 0.26752-0.78372
   3   4  -642993.08 1614.76   1 0.96268-0.72451-0.27055 0.52336 0.00604-0.44852
   3  -4  -647034.08 1656.43   1 0.82785-0.58964-0.44456 0.19181 0.34207-0.78455
  -3  -4   645785.17 1561.84   1-0.52150 0.28350 0.70541-0.95822 0.48002-0.03772
   3   4  -637706.93 1285.09   1 0.68360-0.44486 0.62891-0.37593 0.37033-0.81287
  -3   4   643782.39 1716.95   1 0.68563-0.92437 0.62735-0.37436 0.36923 0.07331
   3   4  -642631.28 1504.55   1 0.76814-0.52959 0.53010-0.27742 0.35909-0.80160
   3   4  -518508.09 1456.97   1 0.94975-0.70568-0.30566 0.55847 0.06728-0.43602
   3  -4  -517562.78  746.55   1 0.72768-0.48350-0.49829 0.24546 0.47135-0.84021
  -3  -4   517886.24  734.04   1-0.53570 0.29180 0.69764-0.95046 0.47571-0.10713
   3   4  -515491.37  619.64   1 0.44760-0.20315 0.76235-0.50932 0.46740-0.83625
  -3   4   516975.95  943.88   1 0.68141-0.92596 0.63059-0.37761 0.37151-0.00272
   3   4  -518552.05  783.85   1 0.81553-0.57112 0.37186-0.11918 0.44341-0.81216
   3   4  -421621.60  857.20   1 0.93017-0.68020-0.34200 0.59481 0.13339-0.42838
   3  -4  -415212.66  625.80   1 0.58865-0.33823-0.54069 0.28779 0.60094-0.89597
  -3  -4   415196.42  582.74   1-0.56533 0.31552 0.68051-0.93333 0.46614-0.17127
   3   4  -420844.50  742.88   1 0.20470 0.04555 0.82817-0.57515 0.52175-0.81677
  -3   4   422731.26 1040.56   1 0.66746-0.91781 0.64104-0.38806 0.37887-0.08384
  -3   4   420014.08  642.23   1 0.53327-0.78360 0.84065-0.58798 0.09437 0.20059
   3   4  -420050.85  743.05   1 0.83486-0.58456 0.19611 0.05660 0.51432-0.80936
   3  -4  -415588.24  505.69   1 0.62554-0.37523-0.50089 0.24813 0.59816-0.89309
   3   4  -361105.81 1636.77   1 0.90185-0.64601-0.37956 0.63231 0.20637-0.42761
   3  -4  -373632.14 1853.84   1 0.41036-0.15416-0.56415 0.31125 0.71647-0.93773
   3   4  -354140.33 1374.49   1-0.01447 0.27054 0.84092-0.58802 0.54095-0.76225
  -3   4   362226.34 1756.36   1 0.64139-0.89754 0.65952-0.40653 0.39196-0.17069
  -3   4   360249.51 1485.39   1 0.56381-0.81996 0.81664-0.56396 0.12329 0.09792
   3   4  -359571.23 1568.47   1 0.82407-0.56796 0.01388 0.23886 0.56630-0.78763
   3  -4  -371139.51 1706.77   1 0.81730-0.56118-0.02879-0.22395 0.57548-0.79681
   3   4  -2 7304.24  360.49   1 0.86122-0.59950-0.41926 0.67200 0.28725-0.43474
   3  -4  -2 9753.88  408.59   1 0.20467 0.05730-0.56093 0.30802 0.80216-0.94965
  -3  -4   210419.57  462.85   1-0.65178 0.39019 0.62251-0.87526 0.43318-0.28574
  -3   4   2 7972.70  497.12   1 0.59982-0.86179 0.68631-0.43328 0.41132-0.26378
  -3   4   2 7601.08  361.22   1 0.56293-0.82491 0.81738-0.56470 0.12244 0.02503
   3  -4  -2 8344.61  325.84   1 0.83030-0.56819 0.27180-0.52451 0.48653-0.63405
   3   4  -2 7850.26  435.31   1 0.78574-0.52362-0.16058 0.41342 0.59734-0.74491
   3   4  -1 7676.87  414.15   1 0.80275-0.53516-0.46065 0.71339 0.37865-0.45240
  -3  -4   1 9924.55  383.83   1 0.45639-0.72417-0.56074 0.30784 0.69084-0.61709
   3  -4  -110261.68  462.19   1-0.00507 0.27280-0.53128 0.27844 0.84717-0.92089
  -3  -4   110402.84  490.74   1-0.70122 0.43373 0.58308-0.83584 0.41022-0.33651
  -3   4   1 9117.83  576.65   1 0.53797-0.80577 0.72109-0.46806 0.43659-0.36282
  -3   4   1 8041.85  389.41   1 0.54875-0.81656 0.82885-0.57617 0.10891-0.03517
   3  -4  -1 8841.02  345.34   1 0.79692-0.52901 0.44733-0.70001 0.40595-0.47970
   3   4  -1 8765.15  484.08   1 0.72853-0.46053-0.31556 0.56840 0.60799-0.68178
   3   4   0101284.0 2450.83   1 0.71785-0.44430-0.50230 0.75513 0.48204-0.48204
  -3  -4   079519.12 1941.47   1 0.26830-0.54195-0.56480 0.31190 0.78038-0.78038
   3  -4   080079.67 2016.14   1-0.19326 0.46684-0.48353 0.23068 0.85372-0.85372
  -3  -4   079031.32 2035.44   1-0.75076 0.47737 0.53782-0.79057 0.38352-0.38352
  -3   4   0102329.4 2534.13   1 0.45016-0.72380 0.76132-0.50829 0.46662-0.46662
  -3   4   0106476.0 2623.87   1 0.52701-0.80064 0.84523-0.59255 0.08855-0.08855
   3   4   0102931.2 2562.59   1 0.66231-0.38872-0.44244 0.69520 0.60463-0.60463
   3   4   191752.68 2218.26   1 0.59476-0.31541-0.53934 0.79224 0.59612-0.52236
  -3  -4  -190160.32 2170.46   1-0.00686-0.27244-0.53092 0.27808 0.84739-0.92110
  -3  -4  -198951.98 2496.23   1-0.79848 0.51939 0.48809-0.74072 0.35238-0.42609
  -3   4  -186748.61 2180.34   1 0.32993-0.60948 0.80157-0.54855 0.49862-0.57238
  -3   4  -187364.35 2222.55   1 0.50018-0.77964 0.86354-0.61086 0.06404-0.13778
   3   4   194228.83 2400.15   1 0.59730-0.31789-0.54134 0.79409 0.59175-0.51802
   3   4   213294.90  438.44   1 0.42609-0.14095-0.56317 0.81607 0.70801-0.56050
  -3  -4  -211200.14  369.15   1-0.34300 0.05773-0.43038 0.17753 0.83493-0.98241
  -3  -4  -2 9623.20 1145.34   1-0.84243 0.55747 0.43364-0.68627 0.31975-0.46716
  -3   4  -213083.10  524.28   1 0.17320-0.45861 0.83258-0.57956 0.52611-0.67362
  -3   4  -213322.66  574.90   1 0.46957-0.75486 0.88212-0.62944 0.03683-0.18432
   3   4   213042.29  604.42   1 0.53948-0.25417-0.61453 0.86725 0.57558-0.42809
   3   4   329201.81  946.14   1 0.22277 0.06838-0.56228 0.81519 0.79636-0.57513
   3  -4   334614.41 1259.79   1-0.53940 0.83052-0.33648 0.08363 0.77189-0.55067
  -3  -4  -332279.79 1022.61   1-0.64644 0.35529-0.27015 0.01740 0.71352-0.93459
  -3   4  -327024.14  938.76   1-0.02067-0.27060 0.84069-0.58779 0.54110-0.76240
   3  -4   329753.94 1008.71   1 0.61966-0.32869 0.67394-0.92693 0.40225-0.18098
  -3   4  -328020.52 1256.49   1 0.43626-0.72736 0.89979-0.64714 0.00710-0.22833
   3   4   329575.72 1169.32   1 0.49239-0.20123-0.66644 0.91916 0.55981-0.33857
   3   4   469550.14 2329.99   1 0.02114 0.27554-0.53635 0.78918 0.84372-0.54886
   3  -4   473385.67 2580.81   1-0.59475 0.89179-0.30377 0.05102 0.74429-0.44954
  -3  -4  -471235.87 2375.52   1-0.84231 0.54534-0.10061-0.15217 0.52950-0.82428
  -3  -4  -472623.78 2581.61   1-0.91632 0.61961 0.31482-0.56744 0.24747-0.54228
  -3   4  -468542.72 2318.09   1-0.24212-0.05493 0.81066-0.55781 0.53310-0.82814
   3  -4   467190.83 2285.96   1 0.58046-0.28346 0.69783-0.95085 0.41963-0.12456
  -3   4  -465308.85 2347.26   1 0.40009-0.69703 0.91617-0.66353-0.02320-0.27176
   3   4   471495.86 2598.96   1 0.45678-0.15978-0.70182 0.95454 0.54662-0.25163
   3   4   5 1396.67  157.38   1 0.93750-0.63428-0.04323 0.29605-0.34528 0.71417
   3   4   5 1033.41  207.60   1-0.14390 0.44672-0.49804 0.75089 0.85512-0.48641
   3  -4   5 2658.47  518.58   1-0.63179 0.93471-0.28002 0.02727 0.72278-0.35434
  -3  -4  -5 1517.61  274.43   1-0.94504 0.64243 0.25185-0.50441 0.20848-0.57692
  -3   4  -5 1263.51  205.85   1-0.47231 0.16935 0.73025-0.47744 0.49360-0.86218
   3  -4   5 1351.21  230.90   1 0.55292-0.25008 0.71321-0.96623 0.43082-0.06197
  -3   4  -5  947.39  205.40   1 0.36165-0.66443 0.93071-0.67807-0.05448-0.31423
   3   4   5  942.62  451.17   1 0.43218-0.12933-0.72451 0.97723 0.53693-0.16820
   3   4   6 9183.12  870.44   1 0.97014-0.66070-0.14726 0.40008-0.19268 0.63513
   3   4   612828.70  616.97   1-0.26295 0.57162-0.46056 0.71341 0.84778-0.40532
   3  -4   6 8900.42  680.33   1-0.65519 0.96400-0.26413 0.01137 0.70778-0.26565
  -3  -4  -610430.87 1832.51   1-0.96796 0.65945 0.18662-0.43918 0.16797-0.61011
  -3   4  -613694.66  593.25   1-0.68523 0.37646 0.59641-0.34365 0.41802-0.86033
   3  -4   6 8527.78  423.51   1 0.54077-0.23209 0.71963-0.97266 0.43552 0.00708
  -3   4  -613971.92 1688.35   1 0.32113-0.62974 0.94307-0.69043-0.08648-0.35597
   3   4   613879.23  904.87   1 0.41752-0.10883-0.73739 0.99011 0.53096-0.08848
   3   4   727601.91 1560.40   1-0.34183 0.65635-0.43085 0.68370 0.83517-0.31896
   3  -4   727970.69 1771.23   1-0.66842 0.98311-0.25480 0.00205 0.69877-0.18295
  -3  -4  -730936.17 3144.50   1-0.98477 0.67036 0.11968-0.37224 0.12608-0.64190
  -3   4  -725203.72 1645.32   1-0.85514 0.54083 0.41609-0.16346 0.30916-0.82509
  -3   4  -726476.67 1873.65   1 0.27866-0.59310 0.95298-0.70034-0.11903-0.39717
   3   4   727236.11 1647.74   1 0.41159-0.09705-0.74248 0.99520 0.52849-0.01227
   3   4   818407.59 1080.26   1-0.39045 0.71081-0.41040 0.66325 0.82408-0.23414
   3  -4   822461.67 1511.63   1-0.67384 0.99442-0.25092-0.00183 0.69496-0.10545
  -3  -4  -816633.59 2019.05   1-0.99528 0.67444 0.04708-0.29991 0.08474-0.67466
  -3   4  -817434.74 2670.17   1 0.23476-0.55519 0.96002-0.70729-0.15245-0.43760
   3   4   819991.47 1292.74   1 0.41320-0.09282-0.74110 0.99382 0.52917 0.06079
   3  -4   9  630.75  590.59   1-0.67301 0.99947-0.25152-0.00123 0.69555-0.03235
  -3  -4  -9  863.36  274.75   1-0.99891 0.67214-0.02334-0.22948 0.04030-0.70395
  -3   4  -9  674.59  237.06   1 0.18857-0.51485 0.96433-0.71160-0.18574-0.47806
   3   4   9 1620.22  517.06   1 0.42136-0.09513-0.73406 0.98678 0.53254 0.13117
   3  -4  1012856.66 1425.80   1-0.66695 0.99930-0.25585 0.00310 0.69979 0.03709
  -3  -4 -10 8764.75 1003.34   1-0.99545 0.66276-0.09505-0.15777-0.00537-0.73201
  -3   4 -10 8949.73 1855.91   1 0.14050-0.47264 0.96548-0.71275-0.21931-0.51826
   3   4  1011656.07 1316.11   1 0.43522-0.10315-0.72177 0.97449 0.53815 0.19929
   3  -4  11 9389.88 1345.92   1-0.65633 0.99456-0.26333 0.01058 0.70702 0.10355
  -3   4 -11 5122.99 1554.24   1 0.09051-0.42849 0.96319-0.71046-0.25309-0.55823
   3   4  11 9088.27 1222.94   1 0.45413-0.11620-0.70433 0.95705 0.54559 0.26560
  -3   5  11 6116.20  990.59   1 0.63023-0.83995 0.66703-0.35081 0.39732 0.41400
   3   5 -10 4762.72 1307.00   1 0.96427-0.74966-0.11754 0.43357-0.23740-0.50000
   3  -5 -10 3635.63  940.38   1 0.97316-0.75856-0.20977-0.10625-0.09453-0.64287
  -3   5  10 4575.54  885.11   1 0.65906-0.87458 0.64714-0.33092 0.38319 0.35438
   3   5  -9 6126.24 1675.35   1 0.97024-0.74970-0.14788 0.46391-0.19173-0.47193
   3  -5  -9 3061.17  742.77   1 0.96293-0.74246-0.26969-0.04631 0.00456-0.66828
  -3   5   9 9516.68 1001.40   1 0.68189-0.90322 0.63023-0.31400 0.37125 0.29256
   3   5  -9 6315.82 1210.48   1 0.57284-0.35165 0.80895-0.49311 0.13204-0.79572
   3   5  -834364.38 2202.39   1 0.97327-0.74681-0.17815 0.49418-0.14490-0.44502
   3  -5  -834053.75 2796.06   1 0.93658-0.71021-0.33143 0.01542 0.11384-0.70381
  -3   5   834657.40 2090.40   1 0.69889-0.92603 0.61690-0.30067 0.36189 0.22816
   3   5  -833257.04 1825.18   1 0.65444-0.42742 0.72443-0.40849 0.21655-0.80649
   3   5  -720235.22 3226.63   1 0.97324-0.74085-0.20847 0.52450-0.09663-0.41955
   3  -5  -724087.50 1409.61   1 0.88915-0.65681-0.39335 0.07742 0.23384-0.75006
  -3  -5   721645.11 1764.98   1-0.78294 0.55084 0.50465-0.82059 0.36375 0.15227
  -3   5   720663.19 1835.04   1 0.70999-0.94293 0.60784-0.29162 0.35556 0.16073
   3   5  -719232.42 1650.32   1 0.72510-0.49226 0.62017-0.30422 0.29935-0.81555
   3   5  -618123.50 1818.16   1 0.96989-0.73158-0.23900 0.55504-0.04657-0.39586
   3  -5  -615314.66  699.74   1 0.81313-0.57491-0.45426 0.13833 0.36395-0.80643
  -3  -5   615326.47  640.83   1-0.74267 0.50468 0.54566-0.86160 0.38817 0.05413
   3   5  -615271.78  634.07   1 0.59275-0.35414 0.69058-0.37430 0.41440-0.85701
  -3   5   619185.63 1217.60   1 0.71478-0.95352 0.60384-0.28761 0.35277 0.08977
  -3   5   613732.02  517.64   1 0.16838-0.40690 0.96522-0.64930-0.19997 0.64251
  -3   5   616350.77  596.67   1 0.58735-0.82602 0.79588-0.47993 0.14691 0.29554
   3   5  -616774.44  821.79   1 0.78038-0.54183 0.49813-0.18228 0.37797-0.82047
   3   5  -5104897.0 3542.84   1 0.96281-0.71874-0.27010 0.58611 0.00527-0.37400
   3  -5  -5112774.7 3703.55   1 0.70129-0.45711-0.50867 0.19264 0.49943-0.86829
  -3  -5   5105662.5 3447.13   1-0.73007 0.48618 0.55751-0.87345 0.39518-0.02658
   3   5  -5101110.5 3287.29   1 0.32000-0.07561 0.80422-0.48795 0.50081-0.86958
  -3   5   5113312.5 3883.27   1 0.71251-0.95705 0.60575-0.28952 0.35409 0.01468
  -3   5   5105778.5 3400.52   1 0.65852-0.90301 0.71936-0.40342 0.22103 0.14768
   3   5  -5109449.1 3630.97   1 0.81779-0.57339 0.35962-0.04372 0.44930-0.81810
   3   5  -4127674.8 4308.44   1 0.95147-0.70150-0.30175 0.61776 0.06034-0.35533
   3  -5  -4122045.1 4059.88   1 0.54912-0.29871-0.54844 0.23231 0.63060-0.92563
  -3  -5   4121531.3 4037.61   1-0.73486 0.48507 0.55306-0.86900 0.39255-0.09767
   3   5  -4125198.3 4135.78   1 0.06949 0.18070 0.84083-0.52470 0.53681-0.83188
  -3   5   4134375.5 4587.24   1 0.70191-0.95226 0.61446-0.29823 0.36019-0.06516
  -3   5   4133837.9 4395.05   1 0.66736-0.91767 0.70806-0.39211 0.23081 0.06415
   3   5  -4126881.4 4242.67   1 0.83445-0.58415 0.20968 0.10620 0.50962-0.80466
   3  -5  -4124718.7 4085.87   1 0.66990-0.41959-0.42943 0.11348 0.60565-0.90058
   3   5  -313745.06 1136.54   1 0.93485-0.67898-0.33439 0.65040 0.11929-0.34053
   3  -5  -313841.88  582.03   1 0.36073-0.10459-0.56582 0.24969 0.74142-0.96265
  -3  -5   313299.17  570.61   1-0.75120 0.49551 0.53739-0.85333 0.38327-0.16211
  -3   5   310805.03  706.89   1 0.68107-0.93721 0.63085-0.31463 0.37169-0.15042
  -3   5   314154.93  556.29   1 0.65930-0.91544 0.71838-0.40244 0.22188-0.00065
   3   5  -314239.87  628.93   1 0.82924-0.57313 0.05657 0.25936 0.55600-0.77733
   3  -5  -312230.41  457.74   1 0.80207-0.54596-0.10139-0.21454 0.58854-0.80987
   3   5  -2 6110.78  730.52   1 0.91135-0.64958-0.36844 0.68445 0.18350-0.33099
  -3   5   2 5598.04  472.30   1 0.64715-0.90910 0.65555-0.33932 0.38915-0.24163
   3   5  -162999.56 1610.78   1 0.87815-0.61056-0.40418 0.72011 0.25586-0.32961
   3  -5  -180682.73 2032.55   1-0.05062 0.31834-0.52155 0.20551 0.85171-0.92542
  -3  -5   175849.35 1971.57   1-0.80365 0.53630 0.48213-0.79792 0.34883-0.27513
  -3   5   163622.12 1748.60   1 0.59612-0.86392 0.68855-0.37227 0.41294-0.33917
  -3   5   163971.80 1652.38   1 0.62007-0.88786 0.76360-0.44765 0.18004-0.10630
   3   5  -167647.55 1785.84   1 0.76416-0.49616-0.22673 0.54278 0.60385-0.67764
   3   5   0 5560.00  288.55   1 0.83060-0.55713-0.44266 0.75858 0.33785-0.33785
  -3  -5   0 2773.42  241.49   1 0.33457-0.60822-0.56611 0.24998 0.75337-0.75337
   3  -5   0 3637.20  417.36   1-0.22688 0.50046-0.47282 0.15676 0.85144-0.85144
  -3  -5   0 3741.94  729.48   1-0.83368 0.56046 0.44522-0.76100 0.32672-0.32672
  -3   5   0 5520.05  470.00   1 0.52275-0.79639 0.72879-0.41250 0.44226-0.44226
  -3   5   0 5990.15  372.13   1 0.59329-0.86693 0.79046-0.47461 0.15220-0.15220
   3   5   1117522.8 2804.94   1 0.76055-0.48111-0.48346 0.79950 0.43338-0.35960
  -3  -5  -1116505.8 2772.14   1 0.06699-0.34630-0.54429 0.22824 0.83621-0.90993
   3  -5   1122792.3 3036.57   1-0.36659 0.64602-0.42063 0.10456 0.82986-0.75612
  -3  -5  -1118839.0 2961.70   1-0.86394 0.58485 0.40337-0.71915 0.30146-0.37517
  -3   5  -1116103.2 2875.28   1 0.42058-0.70006 0.77274-0.45645 0.47537-0.54914
  -3   5  -1122675.5 3047.28   1 0.56321-0.84267 0.81714-0.50130 0.12271-0.19645
   3   5   1126689.6 3162.08   1 0.66451-0.38510-0.43871 0.75466 0.60494-0.53120
   3   5   259895.07 1826.21   1 0.65493-0.36962-0.52415 0.84018 0.54435-0.39681
  -3  -5  -257104.85 1725.75   1-0.29419 0.00891-0.44928 0.13322 0.84355-0.99104
   3  -5   257144.71 1876.65   1-0.47068 0.75596-0.37288 0.05682 0.79962-0.65214
  -3  -5  -260831.09 2005.40   1-0.89303 0.60807 0.35733-0.67312 0.27348-0.42089
  -3   5  -257281.11 1814.29   1 0.28248-0.56789 0.81340-0.49712 0.50851-0.65602
  -3   5  -261022.83 1989.77   1 0.53024-0.81552 0.84289-0.52704 0.09154-0.23902
   3   5   261776.01 2081.30   1 0.61671-0.33148-0.51392 0.82987 0.59628-0.44881
   3   5   350836.45 1711.73   1 0.50057-0.20963-0.55584 0.87196 0.66367-0.44240
  -3  -5  -353775.17 1793.75   1-0.65054 0.35939-0.26734-0.04859 0.71085-0.93192
  -3  -5  -352747.76 1924.34   1-0.91988 0.62905 0.30773-0.62352 0.24312-0.46423
  -3   5  -349200.46 1711.48   1 0.10366-0.39495 0.83908-0.52295 0.53403-0.75533
  -3   5  -349710.37 1852.61   1 0.49475-0.78587 0.86701-0.55117 0.05916-0.28038
   3   5   352522.05 1930.54   1 0.57523-0.28418-0.57070 0.88665 0.58600-0.36480
   3   5   416464.77  627.19   1 0.30465-0.00765-0.56588 0.88201 0.76613-0.47115
   3  -5   412623.44  721.65   1-0.59663 0.89367-0.30261-0.01332 0.74327-0.44851
  -3  -5  -411362.06  457.91   1-0.87508 0.57811-0.06053-0.25544 0.48016-0.77493
  -3  -5  -413342.01 1693.84   1-0.94363 0.64692 0.25532-0.57103 0.21063-0.50538
  -3   5  -415593.59  646.93   1-0.11379-0.18335 0.83334-0.51721 0.54091-0.83598
   3  -5   410663.09  504.12   1 0.74596-0.44919 0.57636-0.89259 0.33367-0.03864
  -3   5  -415160.34  738.50   1 0.45701-0.75395 0.88908-0.57323 0.02588-0.32085
   3   5   415309.98  789.57   1 0.54162-0.24462-0.61202 0.92792 0.57625-0.28126
   3   5   570862.13 2523.13   1 0.96083-0.65732-0.10449 0.42052-0.25665 0.62536
   3   5   581774.58 2920.76   1 0.10657 0.19590-0.55018 0.86623 0.82821-0.45963
   3  -5   565202.19 2528.24   1-0.63142 0.93434-0.28027-0.03566 0.72301-0.35457
  -3  -5  -574588.77 2838.25   1-0.96377 0.66116 0.20009-0.51579 0.17636-0.54481
  -3   5  -581387.69 2920.30   1-0.35994 0.05701 0.77663-0.46057 0.51698-0.88578
   3  -5   563606.27 2309.95   1 0.73836-0.43579 0.58330-0.89953 0.33848 0.03030
  -3   5  -576002.84 2863.08   1 0.41760-0.72038 0.90858-0.59278-0.00864-0.36007
   3   5   580612.05 3060.44   1 0.51676-0.21391-0.64036 0.95626 0.56823-0.19950
   3  -5   673507.38 3808.35   1-0.65363 0.96244-0.26521-0.05073 0.70881-0.26668
  -3  -5  -676536.21 3911.30   1-0.97977 0.67125 0.14257-0.45827 0.14044-0.58257
  -3   5  -674266.63 3678.22   1-0.61007 0.30121 0.65211-0.33610 0.45006-0.89236
  -3   5  -671696.66 3693.65   1 0.37586-0.68447 0.92567-0.60987-0.04302-0.39943
   3   5   672182.93 3738.63   1 0.50026-0.19156-0.65820 0.97410 0.56258-0.12011
   3   5   7 4409.58  378.01   1-0.17011 0.48463-0.49051 0.80657 0.85466-0.33846
   3  -5   7 6487.96  806.67   1-0.66634 0.98104-0.25629-0.05964 0.70021-0.18439
  -3  -5  -7 4072.98  881.87   1-0.99126 0.67635 0.07960-0.39564 0.10512-0.62130
  -3   5  -7 4906.38  625.39   1 0.33224-0.64669 0.93997-0.62417-0.07780-0.43840
   3   5   7 5964.72  774.26   1 0.49151-0.17697-0.66736 0.98326 0.55949-0.04327
   3  -5   816099.61 1074.43   1-0.67165 0.99223-0.25249-0.06344 0.69651-0.10700
  -3  -5  -813643.53 1664.28   1-0.99764 0.67680 0.01769-0.33373 0.06625-0.65616
  -3   5  -810624.92 1475.45   1 0.28678-0.60706 0.95132-0.63551-0.11288-0.47706
   3   5   811772.59  816.37   1 0.48977-0.16938-0.66915 0.98505 0.55887 0.03108
   3  -5   9 9656.65 1072.06   1-0.67097 0.99744-0.25298-0.06295 0.69698-0.03378
  -3  -5  -9 9759.77  906.32   1-0.99860 0.67184-0.04586-0.27017 0.02600-0.68966
  -3   5  -9 7230.21 1923.26   1 0.23994-0.56622 0.95933-0.64342-0.14865-0.51516
   3   5   9 7757.96  770.26   1 0.49431-0.16807-0.66445 0.98035 0.56049 0.10321
   3  -5  10  934.10  449.52   1-0.66526 0.99761-0.25705-0.05888 0.70095 0.03592
  -3  -5 -10 1102.97  333.55   1-0.99370 0.66101-0.11097-0.20506-0.01558-0.72181
  -3   5 -10 1007.46  385.18   1 0.19080-0.52293 0.96419-0.64828-0.18416-0.55341
   3   5  10 1278.94  436.48   1 0.50445-0.17237-0.65374 0.96964 0.56404 0.17341
  -3   6  1110602.59 1428.64   1 0.65358-0.86330 0.65105-0.27157 0.38595 0.42537
   3   6 -1020200.23 3417.23   1 0.95831-0.74373-0.09704 0.47626-0.26871-0.46906
  -3   6  1019541.25 2414.19   1 0.68054-0.89607 0.63126-0.25178 0.37198 0.36559
   3   6  -920812.47 3065.42   1 0.96589-0.74536-0.12451 0.50375-0.22701-0.43664
   3  -6  -918372.94 2029.10   1 0.96460-0.74413-0.26362-0.11557-0.00576-0.65795
  -3   6   924393.22 1919.93   1 0.70202-0.92336 0.61437-0.23490 0.36013 0.30368
   3   6  -923254.65 1662.30   1 0.60954-0.38835 0.77461-0.39560 0.16859-0.83227
   3   6  -8 3863.73  719.11   1 0.97083-0.74437-0.15203 0.53127-0.18538-0.40453
   3  -6  -8 2981.85  538.21   1 0.93729-0.71091-0.33020-0.04900 0.11159-0.70156
  -3   6   8 4158.77  705.47   1 0.71821-0.94534 0.60095-0.22147 0.35075 0.23930
   3   6  -8 3332.44  387.25   1 0.68011-0.45310 0.69086-0.31173 0.24523-0.83517
   3   6  -7 7301.01 1120.12   1 0.97332-0.74094-0.17923 0.55847-0.14320-0.37298
   3  -6  -7 6242.36  510.09   1 0.88595-0.65361-0.39659 0.01748 0.24039-0.75662
  -3   6   7 8077.15  774.43   1 0.72903-0.96197 0.59160-0.21213 0.34424 0.17205
   3   6  -7 7512.95  654.66   1 0.74010-0.50726 0.59208-0.21295 0.31886-0.83506
   3   6  -620829.97 2323.58   1 0.97335-0.73504-0.20616 0.58540-0.10036-0.34207
   3  -6  -6 8029.35  866.69   1 0.80245-0.56424-0.46083 0.08172 0.37907-0.82155
  -3  -6   6 7969.91  957.41   1-0.89262 0.65462 0.35803-0.73697 0.27391 0.16830
  -3   6   618780.07 2005.45   1 0.73420-0.97294 0.58703-0.20756 0.34107 0.10147
  -3   6   619438.15 1936.26   1 0.71412-0.95278 0.63911-0.25998 0.28559 0.15686
   3   6  -619273.86 2002.57   1 0.78644-0.54789 0.48072-0.10170 0.38783-0.83034
   3   6  -518597.94 2228.89   1 0.97084-0.72660-0.23289 0.61213-0.05671-0.31198
   3  -6  -510118.98  552.00   1 0.68004-0.43586-0.51617 0.13693 0.52067-0.88953
  -3  -6   511080.93  872.63   1-0.86501 0.62114 0.40179-0.78073 0.30051 0.06800
   3   6  -513415.72  572.22   1 0.19619 0.04819 0.82945-0.44992 0.52298-0.89176
  -3   6   517827.01 1140.81   1 0.73309-0.97763 0.58802-0.20855 0.34175 0.02703
  -3   6   515659.94  657.59   1 0.72172-0.96621 0.62613-0.24700 0.29507 0.07364
   3   6  -515237.38  814.20   1 0.81808-0.57368 0.35809 0.02098 0.45000-0.81880
   3   6  -445749.85 2169.38   1 0.96563-0.71566-0.25960 0.63881-0.01258-0.28239
   3  -6  -448895.72 1673.20   1 0.51693-0.26652-0.55359 0.17424 0.65292-0.94794
  -3  -6   452945.01 1988.58   1-0.85403 0.60429 0.41766-0.79661 0.31011-0.01530
  -3   6   453921.89 2073.77   1 0.72468-0.97503 0.59539-0.21592 0.34688-0.05185
  -3   6   450312.41 1716.69   1 0.71621-0.96652 0.63559-0.25646 0.28818 0.00678
   3   6  -451075.93 1818.22   1 0.83361-0.58331 0.22809 0.15097 0.50305-0.79809
   3  -6  -450735.94 1695.75   1 0.68122-0.43091-0.40932 0.03018 0.60695-0.90188
   3   6  -3108723.4 3687.61   1 0.95756-0.70169-0.28629 0.66549 0.03319-0.25443
   3  -6  -3112735.1 3761.16   1 0.32168-0.06553-0.56609 0.18673 0.75898-0.98022
  -3  -6   3114825.8 4029.35   1-0.85455 0.59894 0.41693-0.79587 0.30967-0.08856
  -3   6   3112285.8 3869.44   1 0.70739-0.96354 0.60999-0.23052 0.35706-0.13579
  -3   6   3112905.9 3759.61   1 0.70317-0.95931 0.65682-0.27769 0.27226-0.05103
   3   6  -3113160.3 3838.87   1 0.83262-0.57651 0.09656 0.28256 0.54535-0.76667
   3  -6  -395915.12 3180.60   1 0.78655-0.53031-0.15781-0.22144 0.59701-0.81837
   3   6  -267507.65 2385.86   1 0.94625-0.68448-0.31318 0.69238 0.08071-0.22820
   3  -6  -265141.65 2247.75   1 0.11413 0.14779-0.55121 0.17195 0.82652-0.97395
  -3  -6   264624.53 2261.99   1-0.86301 0.60153 0.40474-0.78368 0.30229-0.15489
  -3   6   270076.99 2500.01   1 0.67889-0.94084 0.63251-0.25304 0.37286-0.22534
  -3   6   269693.03 2390.13   1 0.68471-0.94667 0.68440-0.30527 0.25051-0.10303
   3   6  -270250.77 2456.70   1 0.81681-0.55477-0.03153 0.41065 0.57604-0.72359
   3   6  -117859.58  712.47   1 0.93109-0.66341-0.34056 0.71977 0.13071-0.20445
   3  -6  -119200.23  769.22   1-0.08101 0.34874-0.51441 0.13516 0.85370-0.92742
  -3  -6   118129.72 1404.94   1-0.87673 0.60938 0.38394-0.76288 0.28968-0.21598
  -3   6   117842.59  880.87   1 0.63583-0.90358 0.66329-0.28382 0.39465-0.32089
  -3   6   119759.51  780.45   1 0.66190-0.92968 0.71510-0.33597 0.22475-0.15100
   3   6  -117295.00  773.75   1 0.78882-0.52083-0.14995 0.52921 0.59603-0.66982
   3   6   093682.78 2988.38   1 0.91097-0.63740-0.36892 0.74813 0.18442-0.18442
  -3  -6   095995.75 2882.30   1 0.38372-0.65737-0.56517 0.18581 0.73029-0.73029
   3  -6   0112762.5 3456.84   1-0.24663 0.52021-0.46621 0.08693 0.84959-0.84959
  -3  -6   0106272.0 3279.75   1-0.89362 0.62039 0.35633-0.73528 0.27288-0.27288
  -3   6   096325.68 3013.99   1 0.57344-0.84708 0.70185-0.32231 0.42255-0.42255
  -3   6   098510.75 3051.33   1 0.63541-0.90902 0.74685-0.36772 0.19609-0.19609
   3   6   0100257.6 3150.83   1 0.75345-0.47957-0.25557 0.63483 0.60579-0.60579
   3   6   186785.82 2618.66   1 0.88346-0.60412-0.39907 0.77818 0.24541-0.17166
  -3  -6  -192787.21 2777.13   1 0.12635-0.40566-0.55279 0.17354 0.82367-0.89739
   3  -6   192086.43 2857.39   1-0.37668 0.65610-0.41636 0.03708 0.82749-0.75375
  -3  -6  -187575.53 2752.69   1-0.91201 0.63292 0.32315-0.70209 0.25258-0.32628
  -3   6  -191228.08 2837.25   1 0.48592-0.76541 0.74612-0.36658 0.45515-0.52892
  -3   6  -190455.07 2848.85   1 0.60575-0.88521 0.77840-0.39939 0.16474-0.23848
   3   6   241335.99 1406.54   1 0.84441-0.55919-0.43264 0.81175 0.31587-0.16838
  -3  -6  -240645.24 1372.34   1-0.25609-0.02918-0.46295 0.08368 0.84857-0.99606
   3  -6   245853.51 1729.79   1-0.47370 0.75898-0.37137-0.00789 0.79854-0.65106
  -3  -6  -247641.40 1771.51   1-0.93057 0.64566 0.28545-0.66429 0.22921-0.37659
  -3   6  -242304.48 1538.24   1 0.36557-0.65098 0.79120-0.41167 0.49025-0.63776
  -3   6  -243184.48 1638.36   1 0.57325-0.85854 0.80860-0.42959 0.13244-0.27992
   3   6   244822.76 1741.15   1 0.67593-0.39070-0.41882 0.79796 0.60638-0.45891
   3   6   334869.54 1178.93   1 0.78346-0.49227-0.47167 0.85092 0.40460-0.18328
   3  -6   328047.32 1253.26   1-0.54366 0.83478-0.33408-0.04519 0.76994-0.54872
  -3  -6  -326058.93  896.85   1-0.67957 0.38842-0.24675-0.13237 0.69085-0.91192
  -3  -6  -326428.39 1098.28   1-0.94828 0.65746 0.24368-0.62252 0.20342-0.42449
  -3   6  -335870.44 1303.34   1 0.20572-0.49699 0.82801-0.44848 0.52160-0.74286
  -3   6  -338309.14 1489.90   1 0.53818-0.82929 0.83699-0.45798 0.09895-0.32017
   3   6   336999.97 1521.40   1 0.64108-0.35003-0.47706 0.85620 0.60118-0.37998
   3   6   440782.73 1345.60   1 0.93530-0.63799-0.03858 0.41780-0.35172 0.64683
   3   6   443439.60 1419.06   1 0.67766-0.38059-0.51697 0.89621 0.52298-0.22789
  -3  -6  -429230.31 2481.79   1-0.96428 0.66757 0.19850-0.57734 0.17537-0.47013
  -3   6  -447466.07 1647.14   1 0.00013-0.29729 0.84133-0.46198 0.54050-0.83557
  -3   6  -448588.76 1838.29   1 0.50075-0.79769 0.86317-0.48416 0.06455-0.35952
   3   6   448386.71 1883.72   1 0.61158-0.31471-0.52132 0.90046 0.59513-0.30020
   3   6   5 4733.18  494.55   1 0.50398-0.20148-0.55539 0.93474 0.66146-0.29268
   3  -6   5 3026.04  599.71   1-0.62596 0.92888-0.28387-0.09525 0.72635-0.35790
  -3  -6  -5 4295.10  783.56   1-0.97789 0.67528 0.15034-0.52919 0.14531-0.51375
  -3   6  -5 4936.96  560.11   1-0.24854-0.05438 0.80915-0.42987 0.53244-0.90124
  -3   6  -5 5748.42  778.70   1 0.46114-0.76391 0.88683-0.50782 0.02947-0.39818
   3   6   5 5355.59  727.74   1 0.58843-0.28573-0.55337 0.93251 0.58951-0.22084
   3  -6   6 8912.96  948.12   1-0.64758 0.95639-0.26937-0.10975 0.71278-0.27065
  -3  -6  -6 9641.42 1898.68   1-0.98854 0.68003 0.09958-0.47842 0.11344-0.55557
  -3   6  -610918.09  924.84   1-0.52637 0.21751 0.70278-0.32356 0.47856-0.92086
  -3   6  -610971.04 1483.40   1 0.41990-0.72851 0.90754-0.52858-0.00671-0.43574
   3   6   610508.46 1054.11   1 0.57194-0.26343-0.57492 0.95406 0.58509-0.14269
   3  -6   752160.89 2864.68   1-0.66018 0.97487-0.26064-0.11848 0.70443-0.18861
  -3  -6  -754450.35 2971.71   1-0.99567 0.68075 0.04315-0.42240 0.08227-0.59845
  -3   6  -750521.73 2777.13   1 0.37625-0.69070 0.92553-0.54656-0.04271-0.47349
   3   6   751625.45 2814.37   1 0.56201-0.24767-0.58744 0.96658 0.58228-0.06614
   3  -6   820596.94 1641.15   1-0.66566 0.98624-0.25677-0.12235 0.70068-0.11117
  -3  -6  -818839.40 2381.02   1-0.99880 0.67796-0.01251-0.36672 0.04716-0.63707
  -3   6  -819487.05 2956.65   1 0.33066-0.65094 0.94043-0.56146-0.07904-0.51090
   3   6   818179.58 1426.86   1 0.55808-0.23769-0.59222 0.97129 0.58122 0.00874
   3  -6   9 2019.01  744.19   1-0.66533 0.99179-0.25700-0.12211 0.70091-0.03771
  -3  -6  -9 1786.69  537.41   1-0.99748 0.67071-0.07010-0.30913 0.01056-0.67421
  -3   6  -9 1778.94  559.84   1 0.28313-0.60925 0.95208-0.57311-0.11565-0.54804
   3   6   9 3222.69  719.21   1 0.56010-0.23386-0.58973 0.96881 0.58180 0.08190
   3  -6  10 4211.69  923.40   1-0.66008 0.99243-0.26071-0.11841 0.70449 0.03238
  -3   6 -10 5108.32 1559.13   1 0.23410-0.56623 0.96010-0.58101-0.15293-0.58464
   3   6  10 7313.31  874.40   1 0.56757-0.23577-0.58047 0.95961 0.58387 0.15346
   3   7 -10 1688.67  848.68   1 0.95069-0.73610-0.07466 0.51709-0.30101-0.43676
  -3   7  10  795.00  467.78   1 0.69500-0.91053 0.62001-0.17729 0.36407 0.37349
   3   7  -9 8562.34 2099.03   1 0.95925-0.73876-0.10014 0.54256-0.26419-0.39981
  -3   7   910064.56  989.13   1 0.71528-0.93661 0.60343-0.16071 0.35248 0.31133
   3   7  -9 9671.22  875.82   1 0.63359-0.41240 0.74889-0.30657 0.19418-0.85786
   3   7  -8 8518.63 2194.92   1 0.96590-0.73944-0.12455 0.56699-0.22697-0.36295
  -3   7   810654.18 1050.55   1 0.73064-0.95778 0.59019-0.14747 0.34326 0.24679
   3   7  -811310.31  979.25   1 0.69620-0.46919 0.66755-0.22523 0.26395-0.85389
   3   7  -724373.41 3537.48   1 0.97035-0.73796-0.14864 0.59108-0.19057-0.32560
   3  -7  -723565.08 1299.19   1 0.88701-0.65468-0.39553-0.04676 0.23823-0.75445
  -3   7   726759.59 1686.81   1 0.74107-0.97400 0.58085-0.13813 0.33678 0.17952
   3   7  -726954.33 1557.79   1 0.74797-0.51530 0.57571-0.13352 0.33028-0.84654
   3   7  -6 8910.70 1956.14   1 0.97289-0.73458-0.17197 0.61441-0.15456-0.28787
   3  -7  -610328.29  718.11   1 0.79705-0.55883-0.46402 0.02172 0.38651-0.82899
  -3  -7   6 7866.33  801.23   1-0.97019 0.73248 0.17906-0.62104 0.16325 0.27887
  -3   7   6 8297.37  804.28   1 0.74630-0.98504 0.57604-0.13333 0.33344 0.10909
  -3   7   6 7750.04  539.20   1 0.74464-0.98318 0.58258-0.14039 0.32574 0.11676
   3   7  -6 7964.80  689.09   1 0.78885-0.55030 0.47344-0.03125 0.39187-0.83437
   3   7  -543780.48 3306.57   1 0.97365-0.72941-0.19446 0.63691-0.11910-0.24960
   3  -7  -552048.65 2627.20   1 0.66533-0.42116-0.52095 0.07850 0.53472-0.90358
  -3  -7   544895.20 2265.33   1-0.94439 0.70078 0.25345-0.69543 0.20947 0.15897
  -3   7   539594.16 2231.26   1 0.74585-0.99039 0.57647-0.13375 0.33374 0.03504
  -3   7   543564.35 2211.76   1 0.74479-0.98921 0.58226-0.14007 0.32595 0.04280
   3   7  -537460.67 2025.09   1 0.81696-0.57256 0.36397 0.07827 0.44731-0.81611
   3   7  -444166.03 1796.68   1 0.97273-0.72256-0.21601 0.65845-0.08441-0.21054
   3  -7  -453891.12 2003.60   1 0.49341-0.24300-0.55674 0.11417 0.66825-0.96328
  -3  -7   450411.25 1891.63   1-0.92892 0.67940 0.28903-0.73102 0.23142 0.06333
  -3   7   436510.38 1654.39   1 0.73884-0.98918 0.58287-0.14015 0.33818-0.04315
  -3   7   440611.60 1554.43   1 0.73737-0.98769 0.59739-0.15507 0.31525-0.02028
   3   7  -442711.61 1707.72   1 0.83221-0.58191 0.24964 0.19260 0.49507-0.79011
   3   7  -356180.98 2024.33   1 0.97031-0.71422-0.23642 0.67887-0.05086-0.17035
   3  -7  -358080.15 1984.98   1 0.29403-0.03788-0.56565 0.12307 0.77043-0.99167
  -3  -7   352853.28 2095.04   1-0.92216 0.66655 0.30310-0.74520 0.24027-0.01916
  -3   7   354105.18 1871.08   1 0.72473-0.98086 0.62083-0.17851 0.29887-0.07765
   3   7  -357842.86 2054.06   1 0.83459-0.57839 0.13448 0.30776 0.53419-0.75547
   3   7  -2110465.1 3661.96   1 0.96665-0.70488-0.25533 0.69773-0.01979-0.12769
   3  -7  -2105389.9 3484.29   1 0.08920 0.17272-0.54771 0.10524 0.83189-0.97933
  -3  -7   292437.98 3327.72   1-0.92240 0.66092 0.30262-0.74472 0.23997-0.09257
  -3   7   2120524.6 4111.69   1 0.69923-0.96118 0.61663-0.17391 0.36171-0.21419
  -3   7   2118359.8 3902.21   1 0.70758-0.96954 0.64982-0.20750 0.27758-0.13009
   3   7  -2116865.2 3943.46   1 0.82527-0.56324 0.02270 0.41960 0.56427-0.71182
   3   7  -173499.64 2581.37   1 0.96216-0.69449-0.27231 0.71471 0.00904-0.08279
   3  -7  -166911.28 2316.21   1-0.09820 0.36592-0.51014 0.06768 0.85446-0.92817
  -3  -7   163909.68 2271.72   1-0.92764 0.66042 0.29178-0.73377 0.23311-0.15942
  -3   7   183914.52 2950.92   1 0.66184-0.92959 0.64514-0.20242 0.38177-0.30801
  -3   7   181696.03 2820.74   1 0.68648-0.95427 0.68186-0.23954 0.25256-0.17882
   3   7  -183272.39 2911.91   1 0.80650-0.53854-0.08246 0.52476 0.58545-0.65922
   3   7   030595.09 1132.66   1 0.95755-0.68398-0.28633 0.72874 0.03326-0.03326
  -3  -7   021615.22  805.02   1 0.41724-0.69081-0.56374 0.12117 0.71280-0.71280
   3  -7   025358.26 1061.14   1-0.25485 0.52843-0.46338 0.02090 0.84871-0.84871
  -3  -7   025063.88 1181.21   1-0.93612 0.66300 0.27308-0.71506 0.22159-0.22159
  -3   7   032204.58 1287.86   1 0.60782-0.88138 0.68145-0.23873 0.40763-0.40763
  -3   7   030021.91 1199.30   1 0.66183-0.93544 0.71518-0.27286 0.22468-0.22468
   3   7   028600.28 1203.64   1 0.78069-0.50682-0.17723 0.61970 0.59925-0.59925
   3   7   137773.91 1364.16   1 0.95415-0.67468-0.29527 0.73768 0.04891 0.02483
  -3  -7  -149495.59 1645.50   1 0.16874-0.44823-0.55766 0.11507 0.81273-0.88648
   3  -7   149337.53 1796.89   1-0.37739 0.65681-0.41605-0.02643 0.82732-0.75358
  -3  -7  -151680.90 1883.63   1-0.94658 0.66757 0.24799-0.68997 0.20609-0.27978
  -3   7  -138371.43 1424.81   1 0.53154-0.81102 0.72437-0.28158 0.43901-0.51278
  -3   7  -141650.01 1578.66   1 0.63394-0.91338 0.74850-0.30618 0.19455-0.26829
   3   7   142618.94 1675.51   1 0.75157-0.47182-0.26042 0.70289 0.60606-0.53228
   3   7   264872.89 2160.83   1 0.95494-0.66957-0.29329 0.73570 0.04542 0.10206
  -3  -7  -277600.17 2504.65   1-0.23412-0.05115-0.47042 0.02794 0.85081-0.99829
   3  -7   283766.11 2874.70   1-0.46924 0.75451-0.37360-0.06887 0.80014-0.65265
  -3  -7  -285322.05 3494.94   1-0.95789 0.67298 0.21763-0.65962 0.18727-0.33465
  -3   7  -270176.93 2424.71   1 0.42649-0.71181 0.77054-0.32774 0.47367-0.62121
  -3   7  -270699.77 2493.05   1 0.60317-0.88846 0.78095-0.33877 0.16212-0.30961
   3   7   272080.41 2553.19   1 0.72168-0.43605-0.33066 0.77313 0.60814-0.46056
   3   7   318679.89  685.56   1 0.96753-0.67626-0.25136 0.69376-0.02646 0.24770
   3  -7   321051.77 1082.35   1-0.53607 0.82720-0.33834-0.10414 0.77339-0.55217
  -3  -7  -319820.66  719.86   1-0.76480 0.47371-0.17834-0.26402 0.61908-0.84017
  -3  -7  -321373.38 2624.41   1-0.96909 0.67827 0.18284-0.62482 0.16561-0.38668
  -3   7  -319230.97  837.82   1 0.28374-0.57501 0.81311-0.37033 0.50826-0.72953
  -3   7  -321779.60 1096.94   1 0.56960-0.86071 0.81175-0.36956 0.12889-0.35011
   3   7   324037.00 1316.37   1 0.69285-0.40180-0.38770 0.83003 0.60797-0.38677
   3  -7   4 8460.64  998.98   1-0.58333 0.88037-0.31078-0.13153 0.75042-0.45566
  -3  -7  -4 9651.36 1652.96   1-0.97937 0.68266 0.14424-0.58622 0.14148-0.43624
  -3   7  -4 6635.72  738.54   1 0.09481-0.39197 0.83963-0.39705 0.53481-0.82988
  -3   7  -4 5857.51  754.76   1 0.53348-0.83042 0.84050-0.39832 0.09455-0.38952
   3   7   4 6090.26  864.18   1 0.66793-0.37106-0.43283 0.87516 0.60540-0.31046
   3  -7   514773.58 1364.83   1-0.61606 0.91899-0.29031-0.15200 0.73224-0.36380
  -3  -7  -515010.49 2118.96   1-0.98806 0.68544 0.10232-0.54431 0.11516-0.48361
  -3   7  -512296.41 1049.37   1-0.14600-0.15692 0.82883-0.38634 0.54010-0.90890
  -3   7  -513207.08 1340.86   1 0.49497-0.79774 0.86687-0.42469 0.05935-0.42806
   3   7   515114.62 1445.26   1 0.64755-0.34486-0.46677 0.90910 0.60232-0.23365
  -3  -7  -610656.45 1952.58   1-0.99448 0.68549 0.05467-0.49712 0.08950-0.53194
   3   7   611406.14 1519.36   1 0.63231-0.32380-0.49065 0.93298 0.59952-0.15712
   3  -7   7 3253.28  625.36   1-0.65036 0.96506-0.26746-0.17484 0.71097-0.19515
  -3  -7  -7 2866.33  752.05   1-0.99821 0.68329 0.00681-0.44926 0.05938-0.57555
  -3   7  -7 3539.00  561.40   1 0.41171-0.72616 0.91121-0.46908-0.01356-0.50263
   3   7   7 2532.53  589.33   1 0.62241-0.30808-0.50554 0.94787 0.59751-0.08137
   3  -7   8 7543.59 1360.36   1-0.65623 0.97681-0.26340-0.17891 0.70708-0.11758
  -3  -7  -8 8166.37  795.58   1-0.99867 0.67783-0.04339-0.39905 0.02757-0.61748
  -3   7  -8 6525.66 1698.92   1 0.36667-0.68695 0.92897-0.48685-0.05044-0.53949
   3   7   8 8294.25  830.15   1 0.61780-0.29765-0.51232 0.95465 0.59652-0.00665
   3  -7   915323.58 2064.69   1-0.65640 0.98286-0.26328-0.17902 0.70697-0.04377
  -3  -7  -915160.39 1866.58   1-0.99538 0.66862-0.09575-0.34670-0.00582-0.65783
  -3   7  -914517.22 2804.37   1 0.31954-0.64566 0.94350-0.50137-0.08772-0.57597
   3   7   917420.71 2155.15   1 0.61826-0.29229-0.51165 0.95398 0.59662 0.06697
   3  -7  10 9018.35 1252.91   1-0.65171 0.98406-0.26653-0.17577 0.71008 0.02679
  -3   7 -10 6322.52 1148.92   1 0.27029-0.60225 0.95458-0.51245-0.12532-0.61210
   3   7  10 5900.32  816.03   1 0.62350-0.29170-0.50393 0.94626 0.59774 0.13959
   3   8 -10 1392.48  468.66   1 0.94099-0.72640-0.05092 0.55655-0.33457-0.40320
  -3   8  10 1300.86  472.99   1 0.70388-0.91940 0.61287-0.10690 0.35907 0.37849
   3   8 -10 1438.97  431.83   1 0.58540-0.37004 0.79778-0.29243 0.14436-0.88178
   3   8  -9 4794.12 1321.08   1 0.95046-0.72996-0.07404 0.57967-0.30189-0.36210
  -3   8   9 5051.17 1025.33   1 0.72308-0.94441 0.59678-0.09082 0.34784 0.31596
   3   8  -8 1458.90  501.95   1 0.95804-0.73164-0.09616 0.60179-0.26999-0.32022
  -3   8   8 1217.51  740.27   1 0.73767-0.96480 0.58393-0.07796 0.33891 0.25114
   3   8  -8 1262.99  507.34   1 0.70589-0.47887 0.65252-0.14701 0.27554-0.86548
   3   8  -723733.60 2832.65   1 0.96409-0.73171-0.11682 0.62247-0.23847-0.27771
  -3   8   726338.61 2355.90   1 0.74763-0.98056 0.57482-0.06885 0.33260 0.18370
   3   8  -725468.96 2123.00   1 0.75212-0.51945 0.56692-0.06156 0.33602-0.85227
   3   8  -673158.66 5259.93   1 0.96835-0.73004-0.13659 0.64224-0.20887-0.23357
   3  -8  -665316.22 3371.79   1 0.79818-0.55997-0.46335-0.04212 0.38496-0.82743
  -3   8   668798.83 3757.49   1 0.75275-0.99149 0.57002-0.06406 0.32928 0.11326
   3   8  -668277.39 3609.91   1 0.78884-0.55029 0.47347 0.03188 0.39185-0.83436
   3   8  -510839.78 1267.76   1 0.97120-0.72696-0.15487 0.66053-0.18103-0.18767
   3  -8  -511576.04  798.81   1 0.65845-0.41428-0.52308 0.01742 0.54112-0.90998
  -3  -8   5 9664.55  713.65   1-0.98428 0.74066 0.12209-0.62721 0.12759 0.24085
  -3   8   510254.34  954.51   1 0.75261-0.99715 0.57015-0.06419 0.32937 0.03941
  -3   8   511211.19  803.80   1 0.75336-0.99778 0.56423-0.05887 0.33775 0.03100
   3   8  -511018.32  836.59   1 0.81495-0.57053 0.37474 0.13061 0.44206-0.81082
   3   8  -4 5047.50 1095.54   1 0.97285-0.72268-0.17132 0.67697-0.15557-0.13938
   3  -8  -4 6131.26  590.53   1 0.47951-0.22910-0.55838 0.05258 0.67695-0.97198
  -3  -8   4 6196.11 1084.21   1-0.97193 0.72242 0.17296-0.67808 0.15945 0.13530
  -3   8   4 4371.88  636.21   1 0.74647-0.99681 0.57590-0.06993 0.33334-0.03831
  -3   8   4 4759.67  507.60   1 0.74644-0.99674 0.57887-0.07351 0.32819-0.03319
   3   8  -4 5094.78  599.97   1 0.83015-0.57985 0.27335 0.23207 0.48592-0.78096
   3   8  -366346.84 3399.51   1 0.97355-0.71745-0.18540 0.69105-0.13348-0.08773
   3  -8  -354180.17 2739.44   1 0.27787-0.02173-0.56517 0.05936 0.77676-0.99800
  -3  -8   350097.39 2657.56   1-0.96416 0.70875 0.19886-0.70399 0.17560 0.04546
  -3   8   364086.31 3359.68   1 0.73318-0.98933 0.58794-0.08198 0.34170-0.12042
  -3   8   363778.29 3241.40   1 0.73504-0.99118 0.60187-0.09636 0.31218-0.09095
   3   8  -368490.25 3538.47   1 0.83518-0.57897 0.17151 0.33392 0.52254-0.74382
   3   8  -230536.90 1340.45   1 0.97363-0.71161-0.19622 0.70187-0.11630-0.03118
   3  -8  -230618.50 1224.81   1 0.07654 0.18538-0.54579 0.04012 0.83441-0.98184
  -3  -8   224539.34 1083.13   1-0.96101 0.69970 0.20848-0.71361 0.18158-0.03420
  -3   8   231562.99 1432.79   1 0.71107-0.97302 0.60695-0.10098 0.35493-0.20742
  -3   8   229801.07 1246.48   1 0.71964-0.98160 0.62974-0.12423 0.29245-0.14497
   3   8  -232181.03 1414.58   1 0.83077-0.56874 0.07262 0.43286 0.55184-0.69939
   3   8  -1 4292.20  529.07   1 0.97350-0.70556-0.20223 0.70788-0.10668 0.03294
   3  -8  -1 2072.71  332.39   1-0.10391 0.37164-0.50869 0.00302 0.85465-0.92837
  -3  -8   1 3195.15  515.12   1-0.96170 0.69448 0.20643-0.71155 0.18031-0.10662
  -3   8   1 3801.29  447.65   1 0.67772-0.94547 0.63340-0.12743 0.37348-0.29973
  -3   8   1 3703.23  434.21   1 0.70055-0.96833 0.66091-0.15540 0.26911-0.19537
   3   8   018360.62  922.04   1 0.97356-0.69968-0.20031 0.70596-0.10975 0.10975
   3  -8   016431.82  834.02   1-0.25334 0.52692-0.46390-0.04178 0.84888-0.84888
  -3  -8   015184.42 1212.47   1-0.96523 0.69212 0.19549-0.70061 0.17350-0.17350
  -3   8   019527.16 1016.59   1 0.62970-0.90325 0.66739-0.16142 0.39757-0.39757
  -3   8   020438.85 1035.94   1 0.67801-0.95162 0.69378-0.18827 0.24283-0.24283
   3   8   019773.35 1046.43   1 0.80073-0.52686-0.10689 0.61238 0.58940-0.58940
   3   8   116893.02  750.52   1 0.97348-0.69367-0.18305 0.68870-0.13719 0.21093
  -3  -8  -110546.59  463.19   1 0.19381-0.47330-0.56002 0.05421 0.80548-0.87923
   3  -8   1 9863.07  661.18   1-0.37022 0.64965-0.41910-0.08659 0.82902-0.75528
  -3  -8  -112438.83 1662.77   1-0.97065 0.69163 0.17748-0.68260 0.16227-0.23596
  -3   8  -116330.09  874.55   1 0.56203-0.84151 0.70824-0.20219 0.42720-0.50097
  -3   8  -116408.05  893.67   1 0.65222-0.93166 0.72714-0.22163 0.21414-0.28788
   3   8   115040.09  836.10   1 0.77893-0.49918-0.18284 0.68852 0.59985-0.52606
   3   8   2 6261.34  777.84   1 0.96590-0.68017-0.12453 0.63018-0.22698 0.37446
   3  -8   2 7648.19  958.63   1-0.45840 0.74367-0.37896-0.12673 0.80389-0.65641
  -3  -8  -2 7468.11 1041.87   1-0.97706 0.69215 0.15368-0.65881 0.14740-0.29478
  -3   8  -2 6669.07  794.81   1 0.46878-0.75410 0.75361-0.24755 0.46077-0.60831
  -3   8  -2 8368.51 1012.18   1 0.62339-0.90865 0.76007-0.25456 0.18348-0.33097
   3   8   2 5905.23  788.39   1 0.75608-0.47045-0.24869 0.75437 0.60538-0.45781
   3  -8   362685.14 3220.24   1-0.52322 0.81434-0.34544-0.16025 0.77904-0.55781
  -3  -8  -362734.27 3652.37   1-0.98367 0.69286 0.12502-0.63015 0.12943-0.35050
  -3   8  -360731.85 3085.70   1 0.34109-0.63236 0.79846-0.29242 0.49609-0.71735
  -3   8  -365811.32 3416.34   1 0.59181-0.88293 0.79185-0.28650 0.15072-0.37195
   3   8   362581.85 3295.09   1 0.73374-0.44224-0.30371 0.80939 0.60776-0.38640
   3  -8   487454.11 5343.67   1-0.56981 0.86678-0.31894-0.18675 0.75735-0.46238
  -3  -8  -488145.89 5380.96   1-0.98977 0.69306 0.09220-0.59733 0.10879-0.40355
  -3   8  -482107.53 4411.50   1 0.16992-0.46705 0.83299-0.32695 0.52653-0.82155
  -3   8  -482801.68 4562.32   1 0.55741-0.85436 0.82192-0.31657 0.11715-0.41212
   3   8   484483.93 4681.13   1 0.71346-0.41608-0.34809 0.85377 0.60810-0.31295
   3  -8   515172.28 1080.46   1-0.60218 0.90510-0.29914-0.20635 0.74019-0.37175
  -3  -8  -515471.38 2730.96   1-0.99462 0.69155 0.05338-0.55904 0.08870-0.45739
  -3   8  -513076.85 1527.83   1-0.05743-0.24559 0.83867-0.33287 0.54159-0.91042
  -3   8  -515221.29 1096.82   1 0.52045-0.82322 0.84989-0.34454 0.08249-0.45121
   3   8   511490.84 1448.36   1 0.69568-0.39299-0.38228 0.88780 0.60817-0.23951
   3  -8   6 8779.29  834.22   1-0.62392 0.93273-0.28521-0.22029 0.72758-0.28544
  -3  -8  -6 6723.32 1045.23   1-0.99788 0.68889 0.01338-0.51905 0.06353-0.50597
   3   8   6 5847.62  620.48   1 0.68236-0.37385-0.40723 0.91275 0.60706-0.16466
   3  -8   7 8703.13  997.89   1-0.63717 0.95187-0.27643-0.22907 0.71943-0.20361
  -3  -8  -7 6661.92 1853.24   1-0.99890 0.68398-0.02944-0.47621 0.03643-0.55261
  -3   8  -7 6450.26 1727.36   1 0.43972-0.75416 0.89807-0.39279 0.01005-0.52625
   3   8   7 6998.47 1577.58   1 0.67329-0.35896-0.42348 0.92900 0.60607-0.08994
   3  -8   8 1435.75  644.25   1-0.64361 0.96419-0.27208-0.23342 0.71534-0.12584
  -3  -8  -8 1079.83  515.93   1-0.99716 0.67632-0.07482-0.43083 0.00755-0.59746
  -3   8  -8 1030.36  390.45   1 0.39567-0.71595 0.91799-0.41271-0.02685-0.56309
   3   8   8  753.47  393.99   1 0.66860-0.34845-0.43167 0.93719 0.60548-0.01562
   3  -8   9 9241.99 1321.70   1-0.64440 0.97087-0.27154-0.23395 0.71484-0.05164
  -3   8  -9 8241.18 1891.34   1 0.34935-0.67547 0.93478-0.42949-0.06429-0.59939
   3   8   9 9624.16 1300.79   1 0.66826-0.34228-0.43227 0.93779 0.60544 0.05815
   3   9  -910220.18 1373.52   1 0.93910-0.71861-0.04671 0.61555-0.34043-0.32356
  -3   9   9 9537.97 1305.22   1 0.72644-0.94777 0.59387-0.02466 0.34582 0.31799
   3   9  -9 9992.24 1267.40   1 0.65988-0.43868 0.71766-0.14896 0.22252-0.88620
  -3   9   829847.21 4786.56   1 0.74030-0.96744 0.58155-0.01233 0.33726 0.25279
   3   9  -826252.85 2620.23   1 0.71106-0.48405 0.64416-0.07546 0.28183-0.87177
   3   9  -7 7476.99 1823.51   1 0.95412-0.72181-0.08421 0.65305-0.28730-0.22913
  -3   9   7 7762.67  919.07   1 0.74977-0.98271 0.57282-0.00361 0.33121 0.18508
   3   9  -7 7853.61  855.29   1 0.75322-0.52055 0.56453 0.00399 0.33756-0.85381
   3   9  -6 4296.48  795.61   1 0.95935-0.72112-0.10045 0.66929-0.26372-0.17893
  -3   9   6 3272.81  611.53   1 0.75468-0.99342 0.56820 0.00100 0.32802 0.11452
   3   9  -6 3752.30  631.29   1 0.78704-0.54849 0.47893 0.08959 0.38883-0.83133
   3   9  -514702.20 2324.78   1 0.96346-0.71922-0.11430 0.68316-0.24220-0.12649
   3  -9  -5 9105.61  548.78   1 0.66063-0.41645-0.52242-0.04644 0.53910-0.90796
  -3  -9   5 4892.06  931.62   1-0.99794 0.75412 0.01230-0.58117 0.06284 0.30584
  -3   9   515084.02 1253.69   1 0.75462-0.99916 0.56825 0.00095 0.32805 0.04072
  -3   9   513185.35  821.64   1 0.75514-0.99956 0.56035 0.00817 0.34024 0.02850
   3   9  -514930.11 1023.11   1 0.81177-0.56735 0.38957 0.17895 0.43503-0.80379
   3   9  -423696.74 2419.95   1 0.96616-0.71600-0.12574 0.69460-0.22518-0.06978
   3  -9  -412695.75  854.50   1 0.47592-0.22550-0.55878-0.01024 0.67916-0.97418
  -3  -9   412029.20 1187.49   1-0.99234 0.74259 0.07197-0.64084 0.10035 0.19460
  -3   9   422544.99 1479.14   1 0.74902-0.99931 0.57352-0.00499 0.33172-0.03671
   3   9  -422692.90 1550.58   1 0.82733-0.57703 0.29861 0.26999 0.47576-0.77080
   3   9  -363435.64 3515.09   1 0.96778-0.71169-0.13359 0.70244-0.21340-0.00781
   3  -9  -363747.22 3448.20   1 0.27301-0.01687-0.56499-0.00404 0.77861-0.99984
  -3  -9   357515.42 3260.46   1-0.98762 0.73221 0.10476-0.67303 0.11670 0.10436
  -3   9   362941.17 3577.74   1 0.73671-0.99286 0.58479-0.01558 0.33951-0.11823
  -3   9   364448.86 3532.01   1 0.73890-0.99504 0.59443-0.02573 0.31727-0.09604
   3   9  -368023.64 3811.59   1 0.83452-0.57832 0.20766 0.36094 0.51033-0.73161
   3   9  -278254.73 4386.17   1 0.96831-0.70629-0.13636 0.70522-0.20922 0.06174
   3  -9  -2102011.6 6108.34   1 0.07512 0.18681-0.54557-0.02330 0.83468-0.98211
  -3  -9   293278.30 5698.90   1-0.98421 0.72290 0.12240-0.69066 0.12779 0.01958
  -3   9   282973.88 4595.74   1 0.71638-0.97833 0.60249-0.03328 0.35182-0.20431
  -3   9   282732.14 4507.77   1 0.72509-0.98706 0.62018-0.05148 0.29934-0.15186
   3   9  -278167.54 4324.39   1 0.83391-0.57188 0.11940 0.44927 0.53881-0.68636
   3   9  -171328.72 3600.47   1 0.96735-0.69940-0.13142 0.70028-0.21666 0.14292
   3  -9  -189050.19 4466.96   1-0.09956 0.36729-0.50980-0.05907 0.85451-0.92822
  -3  -9   180835.60 4143.04   1-0.98313 0.71592 0.12755-0.69581 0.13102-0.05733
  -3   9   169847.42 3602.09   1 0.68587-0.95363 0.62716-0.05795 0.36909-0.29534
  -3   9   172411.48 3695.59   1 0.70782-0.97560 0.64944-0.08074 0.27787-0.20413
   3   9  -166656.97 3428.23   1 0.82689-0.55893 0.03544 0.53323 0.56124-0.63501
   3   9   057273.38 2878.86   1 0.96323-0.68935-0.11339 0.68224-0.24355 0.24355
   3  -9   068413.90 3482.59   1-0.24343 0.51701-0.46729-0.10161 0.84992-0.84992
  -3  -9   064102.82 3374.99   1-0.98405 0.71094 0.12318-0.69144 0.12828-0.12828
  -3   9   058135.42 3027.87   1 0.64219-0.91575 0.65897-0.08976 0.39157-0.39157
  -3   9   059738.94 3107.05   1 0.68722-0.96083 0.68080-0.11210 0.25342-0.25342
   3   9   052951.87 2794.09   1 0.81485-0.54098-0.04213 0.61082 0.57813-0.57813
   3   9   130117.59 1667.00   1 0.94802-0.66844-0.06772 0.63656-0.31089 0.38467
   3  -9   123764.27 1415.17   1-0.35622 0.63564-0.42494-0.14396 0.83217-0.75843
  -3  -9  -123195.63 2245.34   1-0.98642 0.70741 0.11125-0.67952 0.12078-0.19447
  -3   9  -131933.11 1858.54   1 0.58091-0.86040 0.69756-0.12825 0.41944-0.49321
  -3   9  -131978.23 1914.18   1 0.66344-0.94287 0.71313-0.14443 0.22645-0.30020
   3   9   130586.95 1861.31   1 0.79947-0.51968-0.11195 0.68063 0.59017-0.51640
   3  -9   221661.11 1883.60   1-0.44195 0.72722-0.38690-0.18200 0.80930-0.66182
  -3  -9  -222202.56 2050.45   1-0.98962 0.70471 0.09313-0.66140 0.10937-0.25675
  -3   9  -230319.49 1758.99   1 0.49673-0.78205 0.74122-0.17190 0.45148-0.59902
  -3   9  -230624.07 1839.41   1 0.63659-0.92185 0.74551-0.17681 0.19735-0.34484
   3   9   229388.50 1830.20   1 0.78209-0.49646-0.17270 0.74159 0.59875-0.45117
   3  -9   3 2739.75  467.79   1-0.50563 0.79675-0.35490-0.21400 0.78637-0.56514
  -3  -9  -3 3706.83  669.22   1-0.99285 0.70163 0.06817-0.63704 0.09797-0.31919
  -3   9  -3 4736.05  469.86   1 0.38174-0.67290 0.78623-0.21692 0.48589-0.70720
  -3   9  -3 3493.69  585.08   1 0.60695-0.89807 0.77721-0.20869 0.16595-0.38718
   3   9   3 4033.48  574.52   1 0.76490-0.47340-0.22465 0.79354 0.60369-0.38233
   3  -9   4 4704.53  895.18   1-0.55195 0.84892-0.32935-0.23955 0.76607-0.47110
  -3  -9  -4 4566.71 1033.07   1-0.99596 0.69881 0.04007-0.60893 0.08033-0.37529
  -3   9  -4 4110.73  562.48   1 0.22503-0.52215 0.82484-0.25555 0.51863-0.81365
  -3   9  -4 5351.87  898.10   1 0.57438-0.87132 0.80761-0.23910 0.13354-0.42851
   3   9   4 3803.80  681.37   1 0.74884-0.45147-0.26734 0.83622 0.60642-0.31127
   3  -9   523833.94 2061.51   1-0.58459 0.88751-0.31001-0.25867 0.74976-0.38131
  -3  -9  -518781.38 3073.65   1-0.99815 0.69508 0.00810-0.57697 0.06020-0.42889
  -3   9  -523855.50 2017.91   1 0.53911-0.84188 0.83629-0.26777 0.09982-0.46853
   3   9   520025.65 1783.51   1 0.73493-0.43167-0.30097 0.86985 0.60769-0.23875
   3  -9   618124.34 1546.00   1-0.60687 0.91568-0.29619-0.27250 0.73755-0.29541
  -3  -9  -616743.64 3105.19   1-0.99891 0.68992-0.02724-0.54162 0.03782-0.48026
  -3   9  -625423.65 2001.99   1 0.50125-0.80984 0.86285-0.29433 0.06500-0.50745
   3   9   621027.03 1701.87   1 0.72387-0.41473-0.32589 0.89478 0.60811-0.16539
   3  -9   7 1113.92  669.28   1-0.62080 0.93549-0.28724-0.28144 0.72944-0.21362
  -3  -9  -7 1053.45  446.85   1-0.99775 0.68283-0.06562-0.50324 0.01342-0.52959
  -3   9  -7 1673.08  466.77   1 0.46087-0.77529 0.88698-0.31846 0.02923-0.54543
   3   9   7  274.95  367.27   1 0.71611-0.40110-0.34255 0.91143 0.60814-0.09163
   3  -9   8 3965.83  872.99   1-0.62796 0.94854-0.28256-0.28613 0.72513-0.13562
  -3  -9  -8 4587.90  998.28   1-0.99420 0.67336-0.10672-0.46214-0.01285-0.57706
  -3   9  -8 4911.29 1145.10   1 0.41849-0.73877 0.90818-0.33973-0.00789-0.58205
   3   9   8 5591.89  809.23   1 0.71191-0.39102-0.35132 0.92020 0.60807-0.01778
   3  10  -8 3701.88 1092.63   1 0.93365-0.70724-0.03515 0.66719-0.35645-0.23376
  -3  10   8 4290.68  891.72   1 0.73926-0.96639 0.58249 0.04996 0.33791 0.25214
   3  10  -8 4802.25  769.36   1 0.71286-0.48585 0.64119-0.00931 0.28405-0.87399
   3  10  -7 9441.38 2322.90   1 0.94068-0.70837-0.05022 0.68226-0.33554-0.18089
  -3  10   712245.60 1496.50   1 0.74824-0.98118 0.57425 0.05820 0.33220 0.18409
   3  10  -712885.81 1425.53   1 0.75201-0.51934 0.56715 0.06454 0.33586-0.85212
   3  10  -612742.36 1711.33   1 0.94615-0.70793-0.06305 0.69509-0.31750-0.12516
  -3  10   614009.65 1217.36   1 0.75285-0.99158 0.56993 0.06251 0.32922 0.11332
   3  10  -614783.54 1163.05   1 0.78378-0.54523 0.48851 0.14318 0.38345-0.82596
   3  10  -5  774.97  295.39   1 0.95011-0.70598-0.07313 0.70517-0.30319-0.06569
  -3  10   5  853.06  513.60   1 0.75272-0.99726 0.57005 0.06240 0.32930 0.03948
  -3  10   5  587.53  280.10   1 0.75287-0.99729 0.56530 0.06639 0.33706 0.03169
   3  10  -5 1461.06  576.38   1 0.80766-0.56324 0.40720 0.22449 0.42645-0.79521
   3  10  -410371.18  966.53   1 0.95252-0.70248-0.07965 0.71169-0.29386-0.00125
  -3 -10   4 4471.77  942.50   1-0.99889 0.74914-0.01959-0.61248 0.04268 0.25227
  -3  10   4 9605.48  891.52   1 0.74729-0.99764 0.57513 0.05731 0.33281-0.03778
  -3  10   4 9569.95  744.79   1 0.74758-0.99787 0.57653 0.05516 0.32974-0.03474
   3  10  -411557.43  922.36   1 0.82369-0.57338 0.32502 0.30676 0.46464-0.75968
   3  10  -321447.43 1385.68   1 0.95314-0.69719-0.08140 0.71345-0.29134 0.07001
   3 -10  -325771.77 1405.84   1 0.27922-0.02307-0.56522-0.06704 0.77624-0.99748
  -3 -10   323657.34 1360.03   1-0.99744 0.74177 0.02090-0.65297 0.06827 0.15294
  -3  10   326445.97 1759.98   1 0.73565-0.99180 0.58573 0.04671 0.34016-0.11889
  -3  10   322233.20 1348.88   1 0.73859-0.99473 0.59504 0.03684 0.31686-0.09563
   3  10  -324688.39 1500.55   1 0.83268-0.57647 0.24317 0.38861 0.49750-0.71878
   3  10  -2 6717.73 1235.79   1 0.95132-0.68946-0.07635 0.70839-0.29859 0.15103
   3 -10  -210735.50 1308.17   1 0.08407 0.17785-0.54694-0.08514 0.83293-0.98036
  -3 -10   2 9147.56 1493.53   1-0.99559 0.73399 0.04399-0.67606 0.08280 0.06467
  -3  10   2 7716.16 1078.26   1 0.71650-0.97845 0.60239 0.03005 0.35175-0.20424
  -3  10   2 6453.50  907.15   1 0.72614-0.98810 0.61831 0.01357 0.30067-0.15318
   3  10  -2 8181.56 1162.15   1 0.83516-0.57305 0.16361 0.46816 0.52510-0.67262
   3  10  -1 1550.16  320.18   1 0.94524-0.67747-0.06083 0.69287-0.32064 0.24686
   3 -10  -1 1403.44  332.44   1-0.08620 0.35393-0.51314-0.11894 0.85396-0.92767
  -3 -10   1  570.34  315.01   1-0.99451 0.72699 0.05439-0.68646 0.08933-0.01559
  -3  10   1 1794.54  536.69   1 0.68796-0.95571 0.62554 0.00690 0.36796-0.29420
  -3  10   1 1937.56  479.21   1 0.71040-0.97818 0.64525-0.01336 0.28102-0.20728
   3  10  -1 2083.95  528.00   1 0.83203-0.56408 0.08816 0.54370 0.54767-0.62144
   3  10   048989.93 2972.47   1 0.92972-0.65604-0.02730 0.65934-0.36724 0.36724
   3 -10   056684.98 3469.49   1-0.22605 0.49963-0.47309-0.15902 0.85151-0.85151
  -3 -10   055655.23 3473.44   1-0.99444 0.72099 0.05502-0.68710 0.08973-0.08973
  -3  10   053489.93 3340.56   1 0.64737-0.92093 0.65539-0.02294 0.38904-0.38904
  -3  10   052502.17 3284.32   1 0.69148-0.96509 0.67459-0.04271 0.25839-0.25839
   3  10   050201.35 3157.24   1 0.82462-0.55075 0.01786 0.61400 0.56539-0.56539
   3 -10   130840.95 1758.73   1-0.33613 0.61555-0.43314-0.19897 0.83630-0.76255
  -3 -10  -127496.50 1660.31   1-0.99521 0.71584 0.04785-0.67992 0.08522-0.15896
  -3  10  -130147.30 1741.38   1 0.59077-0.87025 0.69176-0.05919 0.41525-0.48902
  -3  10  -130006.41 1772.00   1 0.66946-0.94890 0.70529-0.07341 0.23317-0.30691
   3  10   134262.24 2055.51   1 0.81413-0.53434-0.04589 0.67776 0.57885-0.50508
   3 -10   220212.27 1254.84   1-0.42038 0.70565-0.39699-0.23512 0.81588-0.66840
  -3 -10  -221015.95 1740.56   1-0.99646 0.71117 0.03424-0.66632 0.07667-0.22415
  -3  10  -222627.62 1337.23   1 0.51341-0.79873 0.73335-0.10078 0.44563-0.59317
  -3  10  -221568.05 1415.72   1 0.64442-0.92968 0.73647-0.10459 0.20571-0.35319
   3  10   223063.04 1428.99   1 0.80186-0.51615-0.10228 0.73415 0.58868-0.44113
   3 -10   319643.63 1139.84   1-0.48363 0.77475-0.36634-0.26577 0.79491-0.57368
  -3 -10  -316569.44 1920.36   1-0.99778 0.70656 0.01523-0.64731 0.06469-0.28591
  -3  10  -314366.31  830.36   1 0.40793-0.69909 0.77732-0.14475 0.47891-0.70022
  -3  10  -315599.88 1091.17   1 0.61659-0.90771 0.76739-0.13570 0.17581-0.39704
   3  10   315454.38 1031.06   1 0.78868-0.49718-0.15045 0.78254 0.59609-0.37473
   3 -10   418443.53 1721.25   1-0.53019 0.82716-0.34161-0.29051 0.77601-0.48104
  -3 -10  -417307.79 2188.42   1-0.99872 0.70158-0.00841-0.62366 0.04975-0.34471
  -3  10  -413517.57 1157.36   1 0.26359-0.56072 0.81750-0.18495 0.51205-0.80707
  -3  10  -414881.28 1417.42   1 0.58577-0.88271 0.79744-0.16575 0.14472-0.43969
   3  10   414707.69 1407.01   1 0.77638-0.47900-0.19083 0.82292 0.60067-0.30552
   3 -10   5 7678.56 1396.35   1-0.56363 0.86645-0.32258-0.30954 0.76043-0.39172
  -3 -10  -5 8169.96  873.46   1-0.99882 0.69576-0.03609-0.59597 0.03221-0.40090
  -3  10  -5 8557.66  878.36   1 0.55218-0.85495 0.82614-0.19445 0.11216-0.48087
   3  10   5 5736.26 1373.42   1 0.76546-0.46221-0.22306 0.85516 0.60357-0.23463
   3 -10   6 7762.48  890.50   1-0.58653 0.89534-0.30883-0.32304 0.74873-0.30660
  -3 -10  -6 6719.21  885.83   1-0.99765 0.68866-0.06733-0.56474 0.01233-0.45476
  -3  10  -6 6098.03 1120.75   1 0.51589-0.82449 0.85306-0.22137 0.07831-0.52077
   3  10   6 9694.01 1036.05   1 0.75660-0.44747-0.24729 0.87939 0.60529-0.16257
   3 -10   714243.41 1396.53   1-0.60132 0.91601-0.29968-0.33219 0.74067-0.22485
  -3 -10  -711707.96 1185.97   1-0.99476 0.67984-0.10174-0.53033-0.00966-0.50651
   3  10   716231.02 1579.04   1 0.75028-0.43527-0.26372 0.89581 0.60624-0.08973
   3 -10   8 4221.34  754.90   1-0.60934 0.92992-0.29462-0.33726 0.73613-0.14663
  -3  10  -8 6512.02 1193.29   1 0.43593-0.75621 0.89995-0.26834 0.00682-0.59676
   3  10   8 8588.49 1147.50   1 0.74677-0.42589-0.27253 0.90462 0.60667-0.01637
   3  11  -7 2518.39  820.55   1 0.92336-0.69104-0.01525 0.71050-0.38363-0.13281
  -3  11   7 1893.62  855.38   1 0.74353-0.97647 0.57860 0.11709 0.33521 0.18108
   3  11  -7 1184.01  484.97   1 0.74891-0.51624 0.57374 0.12112 0.33157-0.84783
   3  11  -6 2965.87  699.13   1 0.92842-0.69020-0.02478 0.72002-0.37068-0.07197
  -3  11   6 4212.64 1061.58   1 0.74779-0.98653 0.57467 0.12102 0.33249 0.11004
   3  11  -6 2945.17  708.47   1 0.77923-0.54068 0.50130 0.19356 0.37614-0.81865
   3  11  -531066.00 2381.46   1 0.93157-0.68744-0.03096 0.72620-0.36222-0.00666
  -3  11   535262.25 2799.71   1 0.74748-0.99202 0.57496 0.12074 0.33269 0.03609
   3  11  -531568.89 2443.85   1 0.80261-0.55819 0.42699 0.26787 0.41651-0.78527
   3  11  -430873.95 2194.49   1 0.93250-0.68246-0.03282 0.72806-0.35967 0.06456
  -3  11   432675.89 2422.47   1 0.74208-0.99242 0.57993 0.11576 0.33614-0.04111
  -3  11   432076.37 2238.46   1 0.74327-0.99356 0.58535 0.10951 0.32389-0.02888
   3  11  -434939.34 2513.30   1 0.81915-0.56885 0.35231 0.34265 0.45262-0.74766
   3  11  -3 1086.40  316.28   1 0.93050-0.67455-0.02883 0.72408-0.36514 0.14380
  -3 -11   3 1937.19  560.00   1-0.99820 0.74253-0.05669-0.63859 0.01911 0.20210
  -3  11   3 2581.76  765.24   1 0.73075-0.98690 0.59009 0.10560 0.34319-0.12192
  -3  11   3 1205.52  394.70   1 0.73527-0.99141 0.60143 0.09364 0.31248-0.09125
   3  11  -3 2667.07  731.53   1 0.82966-0.57345 0.27819 0.41677 0.48401-0.70529
   3  11  -216481.78 1418.39   1 0.92403-0.66217-0.01649 0.71174-0.38194 0.23439
   3 -11  -211335.38 2068.57   1 0.10282 0.15910-0.54966-0.14562 0.82903-0.97646
  -3 -11   211055.85 1373.62   1-0.99890 0.73730-0.02885-0.66643 0.03681 0.11066
  -3  11   214684.77 1392.86   1 0.71232-0.97427 0.60590 0.08979 0.35421-0.20669
  -3  11   214413.77 1299.68   1 0.72396-0.98593 0.62218 0.07288 0.29791-0.15042
   3  11  -216671.86 1495.64   1 0.83457-0.57247 0.20624 0.48872 0.51082-0.65834
   3  11  -121432.13 1741.93   1 0.90945-0.64168 0.00871 0.68652-0.41571 0.34193
   3 -11  -119310.55 1622.90   1-0.06453 0.33225-0.51835-0.17694 0.85272-0.92644
  -3 -11   114940.42 2705.95   1-0.99882 0.73130-0.01378-0.68149 0.04636 0.02737
  -3  11   124498.12 2076.27   1 0.68508-0.95284 0.62777 0.06792 0.36952-0.29577
  -3  11   124147.85 2048.64   1 0.70952-0.97731 0.64668 0.04838 0.27995-0.20620
   3  11  -121068.59 1861.60   1 0.83470-0.56669 0.13777 0.55719 0.53319-0.60695
   3 -11   0 8526.81 1058.25   1-0.20179 0.47537-0.48088-0.21445 0.85324-0.85324
  -3 -11   0 7517.53 1267.18   1-0.99873 0.72528-0.00862-0.68665 0.04962-0.04962
  -3  11   010253.88 1312.18   1 0.64665-0.92020 0.65590 0.03979 0.38939-0.38939
  -3  11   010321.61 1288.47   1 0.69202-0.96563 0.67380 0.02127 0.25902-0.25902
   3  11   0 8878.89 1200.73   1 0.83090-0.55703 0.07408 0.62097 0.55146-0.55146
   3 -11   117021.44 1487.84   1-0.31029 0.58972-0.44322-0.25210 0.84099-0.76724
  -3 -11  -114260.66 2359.10   1-0.99878 0.71941-0.01143-0.68385 0.04785-0.12159
  -3  11  -121505.76 1809.35   1 0.59340-0.87288 0.69019 0.00562 0.41412-0.48789
  -3  11  -119494.45 1740.35   1 0.67152-0.95095 0.70256-0.00749 0.23548-0.30922
   3  11   116023.25 1417.91   1 0.82435-0.54455 0.01585 0.67919 0.56585-0.49208
   3 -11   216171.59 1394.07   1-0.39397 0.67924-0.40886-0.28647 0.82317-0.67568
  -3 -11  -214374.81 2139.98   1-0.99890 0.71360-0.02082-0.67446 0.04190-0.18938
  -3  11  -216555.05 1427.35   1 0.52107-0.80639 0.72961-0.03379 0.44287-0.59041
  -3  11  -219388.93 1748.10   1 0.64806-0.93332 0.73216-0.03709 0.20962-0.35711
   3  11   217256.73 1589.81   1 0.81600-0.53028-0.03599 0.73104 0.57692-0.42937
   3 -11   311428.12 1065.15   1-0.45742 0.74854-0.37944-0.31589 0.80423-0.58300
  -3 -11  -310083.82  965.96   1-0.99883 0.70761-0.03577-0.65950 0.03241-0.25363
  -3  11  -312136.01  966.65   1 0.42279-0.71395 0.77192-0.07609 0.47473-0.69604
  -3  11  -313608.32 1143.54   1 0.62169-0.91277 0.76188-0.06681 0.18172-0.40295
   3 -11   4  385.60  388.39   1-0.50465 0.80161-0.35542-0.33991 0.78676-0.49179
  -3 -11  -4  936.66  635.78   1-0.99826 0.70111-0.05550-0.63978 0.01987-0.31482
  -3  11  -4 1117.10  487.97   1 0.59264-0.88958 0.79107-0.09622 0.15155-0.44651
   3  11   4  695.10  426.42   1 0.79776-0.50021-0.11865 0.81370 0.59117-0.29607
   3 -11   514546.89 1654.33   1-0.53901 0.84182-0.33670-0.35863 0.77207-0.40336
  -3 -11  -512755.00 1434.90   1-0.99683 0.69376-0.07939-0.61588 0.00463-0.37333
  -3  11  -514362.78 1566.40   1 0.56062-0.86339 0.81929-0.12443 0.12023-0.48894
   3  11   512747.70 1450.04   1 0.78918-0.48592-0.14871 0.84401 0.59587-0.22694
   3 -11   614372.69 1365.02   1-0.56311 0.87178-0.32288-0.37245 0.76068-0.31823
  -3 -11  -613989.15 1455.64   1-0.99417 0.68518-0.10696-0.58831-0.01301-0.42942
  -3  11  -6 8134.61 1095.74   1 0.52585-0.83445 0.84606-0.15120 0.08747-0.52993
   3  11   6 9205.15 1106.14   1 0.78239-0.47326-0.17170 0.86701 0.59863-0.15591
   3 -11   7 2436.89  683.39   1-0.57876 0.89346-0.31354-0.38152 0.75280-0.23698
   3  11   7 1215.10  427.67   1 0.77750-0.46249-0.18734 0.88265 0.60032-0.08381
   3  12  -611802.92 1517.04   1 0.90597-0.66774 0.01431 0.74412-0.42309-0.01956
  -3  12   611052.06 1498.16   1 0.73985-0.97859 0.58195 0.17698 0.33754 0.10499
   3  12  -6 9836.28 1364.89   1 0.77347-0.53493 0.51664 0.24139 0.36716-0.80967
   3  12  -5 8027.14  898.95   1 0.90749-0.66336 0.01189 0.74655-0.41990 0.05101
  -3  12   5 9782.78 1110.74   1 0.73927-0.98382 0.58248 0.17646 0.33790 0.03087
   3  12  -5 8637.24 1049.03   1 0.79659-0.55217 0.44846 0.30958 0.40536-0.77412
   3  12  -4 7641.59 1029.65   1 0.90585-0.65581 0.01449 0.74395-0.42333 0.12822
  -3  12   4 6971.68 1107.02   1 0.73374-0.98409 0.58744 0.17150 0.34135-0.04632
  -3  12   4 8789.69 1140.85   1 0.73668-0.98700 0.59873 0.15953 0.31434-0.01937
   3  12  -4 8809.13 1297.68   1 0.81383-0.56354 0.38009 0.37795 0.43955-0.73455
  -3  12   3 7706.81  927.17   1 0.72250-0.97864 0.59728 0.16166 0.34819-0.12692
   3  12  -3 7833.54  892.45   1 0.82546-0.56925 0.31283 0.44531 0.46983-0.69111
  -3 -12   2 1709.31  382.47   1-0.88776 0.62610-0.04326-0.71509 0.45826-0.31087
  -3 -12   2 1011.68  421.76   1-0.99529 0.73369-0.09667-0.66182-0.00641 0.15389
  -3  12   2 2941.43  661.84   1 0.70443-0.96638 0.61242 0.14652 0.35876-0.21124
  -3  12   2 2781.63  631.26   1 0.71925-0.98121 0.63042 0.12784 0.29197-0.14448
   3 -12  -1 2051.63  501.52   1-0.03490 0.30263-0.52504-0.23345 0.85035-0.92407
  -3 -12   1 2772.26  779.65   1-0.99695 0.72942-0.07783-0.68065 0.00563 0.06810
  -3  12   1 2480.65  748.96   1 0.67799-0.94574 0.63319 0.12574 0.37334-0.29958
  -3  12   1 1674.47  520.62   1 0.70591-0.97369 0.65250 0.10576 0.27555-0.20181
   3  12  -1 1972.33  748.02   1 0.83507-0.56707 0.18522 0.57291 0.51801-0.59177
   3 -12   0 9656.34  844.70   1-0.17096 0.44454-0.49026-0.26827 0.85463-0.85463
  -3 -12   0 9142.17  905.03   1-0.99755 0.72411-0.06890-0.68958 0.01133-0.01133
  -3  12   0 9922.38  965.64   1 0.64097-0.91453 0.65980 0.09913 0.39217-0.39217
  -3  12   0 7567.88 1310.97   1 0.68961-0.96322 0.67733 0.08092 0.25620-0.25620
   3  12   010138.24 1035.04   1 0.83433-0.56042 0.12711 0.63102 0.53640-0.53640
   3 -12   1 8466.90  792.02   1-0.27895 0.55838-0.45486-0.30368 0.84574-0.77199
  -3 -12  -111031.76 1070.68   1-0.99761 0.71824-0.06799-0.69050 0.01191-0.08565
  -3  12  -1 6540.97 1074.51   1 0.59004-0.86952 0.69220 0.06687 0.41557-0.48934
  -3  12  -1 5326.54 1057.32   1 0.67041-0.94984 0.70404 0.05421 0.23423-0.30797
   3  12   1 5950.94 1080.48   1 0.83090-0.55110 0.07407 0.68417 0.55146-0.47769
   3 -12   2 4410.23  800.61   1-0.36285 0.64812-0.42219-0.33634 0.83071-0.68323
  -3 -12  -2 7182.87  942.99   1-0.99724 0.71194-0.07374-0.68474 0.00824-0.15572
  -3  12  -2 5194.36  930.50   1 0.52129-0.80661 0.72950 0.02957 0.44279-0.59033
  -3  12  -2 6786.00  899.57   1 0.64832-0.93358 0.73185 0.02640 0.20990-0.35739
   3  12   2 5244.44  981.77   1 0.82577-0.54006 0.02651 0.73172 0.56337-0.41582
   3 -12   3 7054.62  898.13   1-0.42704 0.71816-0.39391-0.36463 0.81391-0.59269
  -3 -12  -3 7907.23 1006.30   1-0.99636 0.70514-0.08514-0.67335 0.00096-0.22218
  -3  12  -311646.81 1284.08   1 0.62336-0.91445 0.76010-0.00183 0.18346-0.40468
   3  12   311449.74 1347.61   1 0.81968-0.52805-0.01490 0.77314 0.57262-0.35129
   3 -12   4 6279.63  904.31   1-0.47533 0.77230-0.37055-0.38799 0.79796-0.50299
  -3 -12  -4 8926.75 1270.96   1-0.99480 0.69765-0.10140-0.65708-0.00944-0.28551
  -3  12  -4 9531.82 1418.74   1 0.59576-0.89270 0.78812-0.03010 0.15466-0.44963
   3  12   411384.20 1504.03   1 0.81337-0.51582-0.04983 0.80807 0.57960-0.28450
   3 -12   5 1318.76  511.65   1-0.51090 0.81372-0.35209-0.40645 0.78422-0.41551
  -3  12  -5 2383.51  786.29   1 0.56517-0.86794 0.81550-0.05747 0.12461-0.49332
   3  12   5 3101.91  962.57   1 0.80748-0.50401-0.07805 0.83629 0.58470-0.21582
  -3  13   4 5737.65  940.09   1 0.72257-0.97291 0.59722 0.22496 0.34815-0.05312
   3  13  -4 2346.17  788.63   1 0.80731-0.55702 0.40862 0.41258 0.42575-0.72075
  -3  13   3 1087.72  491.35   1 0.71120-0.96735 0.60684 0.21535 0.35486-0.13358
  -3  13   3 2230.97  560.85   1 0.72178-0.97792 0.62602 0.19543 0.29515-0.07392
   3  13  -3 1964.36  628.27   1 0.82006-0.56386 0.34718 0.47413 0.45492-0.67620
  -3  13   223976.23 2151.37   1 0.69322-0.95517 0.62142 0.20077 0.36506-0.21755
  -3  13   224414.46 2131.04   1 0.71236-0.97433 0.64202 0.17942 0.28343-0.13595
   3  13  -228283.36 2507.28   1 0.82864-0.56654 0.28755 0.53377 0.48026-0.62778
  -3  13   121806.04 2652.35   1 0.66716-0.93491 0.64126 0.18092 0.37903-0.30527
  -3  13   117498.93 2148.06   1 0.69999-0.96777 0.66177 0.15967 0.26844-0.19470
   3  13  -119100.88 2390.30   1 0.83346-0.56545 0.23082 0.59050 0.50205-0.57581
  -3  13   0 5422.73 1123.32   1 0.63098-0.90453 0.66654 0.15565 0.39696-0.39696
  -3  13   0 4379.10  937.94   1 0.68473-0.95834 0.68436 0.13708 0.25054-0.25054
   3  13   0 4842.09  959.44   1 0.83515-0.56124 0.17781 0.64350 0.52047-0.52047
   3 -13   1  301.94  262.21   1-0.24212 0.52155-0.46774-0.35401 0.85005-0.77631
  -3  13  -1  911.50  356.54   1 0.58152-0.86100 0.69721 0.12512 0.41919-0.49296
  -3  13  -1  260.75  382.23   1 0.66665-0.94608 0.70898 0.11246 0.23002-0.30376
   3  13   1 1928.65  654.67   1 0.83441-0.55460 0.12925 0.69207 0.53576-0.46200
   3 -13   2 8296.71  863.79   1-0.32702 0.61229-0.43675-0.38500 0.83803-0.69055
  -3  13  -2 8362.22  899.75   1 0.51519-0.80051 0.73249 0.08984 0.44500-0.59254
  -3  13  -2 6829.81  827.74   1 0.64574-0.93100 0.73492 0.08652 0.20712-0.35461
   3  13   2 8400.57  945.42   1 0.83186-0.54614 0.08582 0.73560 0.54830-0.40075
   3 -13   3 1082.71  504.18   1-0.39243 0.68356-0.40954-0.41222 0.82357-0.60234
  -3  13  -3  967.44  450.23   1 0.62202-0.91310 0.76153 0.05991 0.18206-0.40329
   3  13   3 1805.57  723.74   1 0.82831-0.53668 0.04781 0.77361 0.55821-0.33688
   3 -13   4 2321.08  560.73   1-0.44217 0.73914-0.38680-0.43496 0.80923-0.51427
  -3  13  -4 2950.69  699.93   1 0.59569-0.89263 0.78819 0.03300 0.15459-0.44956
   3  13   4  369.81  340.83   1 0.82433-0.52678 0.01571 0.80571 0.56588-0.27078
   4   0 -11 3081.58  675.65   1 0.97337-0.67340-0.20572 0.20572-0.10107-0.71007
   4   0 -10 9546.91 1838.28   1 0.96812-0.66222-0.24859 0.24859-0.03054-0.70686
   4   0  -9  398.42  309.41   1 0.95535-0.64369-0.29223 0.29223 0.04357-0.70728
  -4   0   9  999.78  430.87   1 0.23687-0.54905 0.82273-0.82273 0.51671 0.14708
   4   0  -8110665.512700.42   1 0.93390-0.61634-0.33598 0.33598 0.12223-0.71220
  -4   0   8103490.5 6228.15   1 0.24857-0.56662 0.82052-0.82052 0.51472 0.07531
   4   0  -7133938.6 6689.89   1 0.90209-0.57860-0.37929 0.37929 0.20582-0.72205
  -4   0   7126921.2 6317.98   1 0.24736-0.57126 0.82076-0.82076 0.51493 0.00135
   4   0  -690760.92 3118.32   1 0.85722-0.52785-0.42257 0.42257 0.29426-0.73674
  -4   0   687164.73 2956.78   1 0.23255-0.56231 0.82352-0.82352 0.51742-0.07489
   4   0  -5   15.85   35.01   1 0.77310-0.43742 0.51759-0.51759 0.36659-0.73535
  -4   0   414587.71  740.13   1 0.15799-0.49947 0.83440-0.83440 0.52801-0.23299
   4   0  -414041.08  569.68   1 0.06490 0.27651 0.96068-0.96068-0.26995-0.02507
   4   0  -414614.95  504.39   1 0.80508-0.46359-0.08868 0.08868 0.58649-0.88159
   4   0  -320856.43  754.85   1 0.61396-0.26684-0.53531 0.53531 0.58007-0.80139
  -4   0   321853.55  762.76   1 0.09653-0.44383 0.83953-0.83953 0.53466-0.31336
   4   0  -318385.10  532.79   1 0.07729 0.26997 0.96201-0.96201-0.26183 0.04056
   4   0  -320580.32  593.23   1 0.62498-0.27765-0.50173 0.50173 0.59804-0.81924
   4   0  -2137956.7 3351.52   1 0.48794-0.13476-0.55741 0.55741 0.67171-0.81922
  -4   0   2171794.9 4153.50   1 0.01809-0.37126 0.84159-0.84159 0.53980-0.39226
   4   0  -2159893.2 3796.60   1 0.10595 0.24717 0.96427-0.96427-0.24278 0.09526
   4   0  -2168148.8 3966.07   1 0.43151-0.07838-0.72510 0.72510 0.53666-0.68415
   4   0  -115275.32  634.70   1 0.34122 0.01780-0.56608 0.56608 0.75040-0.82415
  -4   0   116285.55  630.01   1-0.07582-0.28320 0.83723-0.83723 0.54156-0.46779
   4   0  -116170.08  538.30   1 0.14224 0.21672 0.96550-0.96550-0.21811 0.14435
   4   0   0135407.8 3296.55   1 0.18243 0.18243-0.55899 0.55899 0.80885-0.80885
   4   0   117263.33  664.57   1 0.02480 0.34568-0.53703 0.53703 0.84319-0.76948
   4   0   2194013.1 4654.84   1-0.11781 0.49428-0.50513 0.50513 0.85495-0.70747
  -4   0  -2190268.0 4564.90   1-0.41561 0.03923 0.75520-0.75520 0.50688-0.65431
  -4   0  -2188917.0 4581.52   1-0.07727-0.29935 0.93080-0.93080-0.35726 0.20974
   4   0   3441764.714403.93   1-0.23700 0.61932-0.46946 0.46946 0.85054-0.62931
  -4   0  -3451134.714714.78   1-0.53112 0.14883 0.70018-0.70018 0.47712-0.69827
  -4   0  -3428736.312675.57   1-0.05592-0.32655 0.93710-0.93710-0.34453 0.12326
   4   0   487859.10 3054.92   1-0.33021 0.71838-0.43549 0.43549 0.83743-0.54246
  -4   0  -493752.05 3201.23   1-0.63923 0.25112 0.63173-0.63173 0.43850-0.73337
  -4   0  -489138.48 3089.83   1-0.04807-0.34026 0.93926-0.93926-0.33980 0.04477
   4   0   5  344.59  490.28   1-0.39944 0.79345-0.40645 0.40645 0.82173-0.45302
  -4   0  -5  876.85  240.06   1-0.73603 0.34202 0.55196-0.55196 0.39190-0.76049
   4   0   6 8413.90  722.42   1-0.44847 0.84832-0.38378 0.38378 0.80720-0.36475
  -4   0  -6 6949.00 1150.54   1-0.81870 0.41919 0.46413-0.46413 0.33807-0.78029
  -4   0  -6 8406.22 1261.10   1-0.06056-0.33946 0.93578-0.93578-0.34732-0.09523
   4   0   7 1164.43  517.65   1-0.48127 0.88697-0.36755 0.36755 0.79579-0.27959
  -4   0  -7  530.43  150.50   1-0.88695 0.48156 0.36752-0.36752 0.27969-0.79562
  -4   0  -7  351.74  282.92   1-0.07704-0.32883 0.93087-0.93087-0.35712-0.15918
   4   0   816329.54 1058.08   1-0.50117 0.91272-0.35725 0.35725 0.78815-0.19822
  -4   0  -813041.98 1515.18   1-0.93925 0.52790 0.26582-0.26582 0.21711-0.80663
  -4   0  -814167.00 2505.01   1-0.09869-0.31303 0.92384-0.92384-0.36981-0.22025
   4   0   935641.09 2632.71   1-0.51071 0.92811-0.35219 0.35219 0.78429-0.12062
  -4   0  -930142.63 2225.82   1-0.97561 0.55836 0.15934-0.15934 0.15094-0.81414
  -4   0  -938882.96 2840.79   1-0.12471-0.29285 0.91453-0.91453-0.38479-0.27903
   4   0  1015767.18 1690.11   1-0.51172 0.93497-0.35166 0.35166 0.78388-0.04646
  -4   0 -1018200.45 1913.21   1-0.15457-0.26885 0.90267-0.90267-0.40159-0.33599
   4   0  11  603.91  327.67   1-0.50543 0.93453-0.35500 0.35500 0.78645 0.02471
   4   1 -11 3512.22  887.07   1 0.97364-0.67367-0.19477 0.25798-0.11861-0.69253
   4   1 -10 8691.31 1866.97   1 0.97046-0.66456-0.23546 0.29867-0.05246-0.68494
   4  -1 -1012192.36 1519.15   1 0.96557-0.65981-0.25982 0.19661-0.01222-0.72524
  -4   1  1011706.99  980.27   1 0.32271-0.62903 0.80351-0.74025 0.50022 0.23733
   4   1  -914367.18 1902.54   1 0.96078-0.64912-0.27679 0.33999 0.01675-0.68047
   4  -1  -9 9982.21 1416.53   1 0.94981-0.63815-0.30553 0.24233 0.06705-0.73077
  -4  -1   911757.45  754.70   1 0.09839-0.41047 0.83941-0.90264 0.53450 0.12939
  -4   1   912942.61  882.43   1 0.34581-0.65799 0.79711-0.73385 0.49499 0.16880
   4   1  -818140.24 2798.95   1 0.94369-0.62613-0.31834 0.38154 0.09001-0.67998
   4  -1  -824018.02 2442.73   1 0.92391-0.60635-0.35147 0.28827 0.15112-0.74109
  -4  -1   826270.61 1697.28   1 0.11035-0.42831 0.83862-0.90184 0.53341 0.05671
  -4   1   815011.63 1122.79   1 0.35809-0.67613 0.79349-0.73023 0.49207 0.09796
   4   1  -7 8340.74 1176.41   1 0.91770-0.59424-0.36016 0.42336 0.16760-0.68383
   4  -1  -7 4720.18  626.84   1 0.88595-0.56246-0.39659 0.33341 0.24039-0.75661
  -4  -1   7 3828.79  520.84   1 0.10745-0.43127 0.83882-0.90205 0.53368-0.01731
  -4   1   7 6305.85  845.34   1 0.35921-0.68312 0.79315-0.72989 0.49180 0.02448
   4   1  -7 6600.24  674.69   1 0.47646-0.15241 0.87814-0.81497 0.04289-0.55909
   4   1  -638472.63 1453.05   1 0.88106-0.55169-0.40141 0.46459 0.25018-0.69266
   4  -1  -635888.70 1364.34   1 0.83274-0.50337-0.44116 0.37797 0.33453-0.77701
  -4  -1   632880.78 1252.90   1 0.08950-0.41919 0.83992-0.90315 0.53526-0.09266
  -4   1   636731.56 1437.58   1 0.34835-0.67811 0.79637-0.73312 0.49440-0.05186
   4   1  -637513.96 1246.88   1 0.69883-0.36896 0.66355-0.60036 0.26706-0.70952
   4  -1  -521089.38  930.31   1 0.76121-0.42585-0.48314 0.41993 0.43257-0.80143
  -4  -1   520876.36  939.06   1 0.05610-0.39166 0.84124-0.90447 0.53773-0.16889
  -4   1   526864.70 1151.51   1 0.32425-0.65987 0.80310-0.73984 0.49988-0.13110
   4   1  -527336.66  960.76   1 0.82309-0.48739 0.32890-0.26572 0.46296-0.83176
   4   1  -384895.86 2180.12   1 0.67753-0.33041-0.51701 0.58022 0.52310-0.74442
   4  -1  -390148.16 2266.77   1 0.55097-0.20358-0.54811 0.48489 0.62927-0.85054
  -4  -1   393274.03 2354.95   1-0.05748-0.28981 0.83867-0.90189 0.54159-0.32029
  -4   1   388646.18 2284.11   1 0.23002-0.57736 0.82397-0.76072 0.51783-0.29656
   4  -1  -391044.99 2198.84   1 0.40300-0.05570 0.91496-0.97812-0.02080-0.20042
   4   1  -387787.12 2129.02   1 0.70404-0.35672-0.36590 0.42909 0.60863-0.82983
   4  -1  -392965.82 2204.47   1 0.48014-0.13286-0.67896 0.61578 0.55539-0.77663
   4   1  -2106531.0 2659.05   1 0.56816-0.21498-0.54491 0.60814 0.61665-0.76416
   4  -1  -2109945.5 2708.50   1 0.41114-0.05796-0.56410 0.50088 0.71605-0.86357
  -4   1   2105402.1 2655.39   1 0.15696-0.51016 0.83452-0.77126 0.52814-0.38063
   4   1  -2102105.5 2463.41   1-0.10836 0.46160 0.92049-0.85731-0.37542 0.22790
   4  -1  -2103084.8 2501.81   1 0.35486-0.00173 0.93299-0.99615-0.05991-0.08757
   4   1  -2103956.8 2509.69   1 0.56140-0.20826-0.58812 0.65130 0.58218-0.72967
   4  -1  -1150883.6 3659.32   1 0.25462 0.10440-0.56418 0.50096 0.78540-0.85914
  -4  -1   1142272.0 3471.94   1-0.22614-0.13278 0.81426-0.87747 0.53463-0.46087
  -4   1   1144123.0 3515.25   1 0.06577-0.42481 0.84096-0.77773 0.53707-0.46331
  -4   1   1151633.8 3619.29   1-0.10770-0.25138 0.92073-0.85754-0.37504 0.44879
   4   1  -1126324.4 3063.46   1-0.04191 0.40100 0.94089-0.87771-0.33608 0.26232
   4  -1  -1134334.9 3221.39   1 0.34322 0.01574 0.93670-0.99986-0.06916-0.00458
   4   1  -1147124.4 3520.88   1 0.43056-0.07158-0.72595 0.78913 0.53628-0.61002
   4  -1   066245.07 1717.64   1 0.09280 0.27188-0.54823 0.48502 0.83115-0.83115
  -4  -1   071297.03 1855.07   1-0.32447-0.04032 0.78831-0.85152 0.52275-0.52275
  -4   1   079868.98 2031.70   1-0.04244-0.32245 0.83963-0.77641 0.54148-0.54148
  -4   1   083259.47 2121.60   1-0.02426-0.34066 0.94529-0.88211-0.32530 0.32530
   4  -1   132677.91 1034.30   1-0.06024 0.43073-0.51935 0.45614 0.85243-0.77871
  -4  -1  -132532.02  974.58   1-0.42643 0.05595 0.75073-0.81393 0.50453-0.57825
   4   1   219610.88  706.34   1-0.02166 0.39794-0.52787 0.59108 0.84904-0.70161
  -4   1  -219139.07  678.80   1-0.29510-0.08142 0.79703-0.73381 0.52692-0.67444
  -4   1  -219406.27  731.93   1 0.04836-0.42488 0.95857-0.89539-0.28069 0.13318
   4   1   343997.38 1466.27   1-0.15243 0.53475-0.49563 0.55885 0.85504-0.63381
   4  -1   347780.34 1623.96   1-0.30099 0.68331-0.44674 0.38353 0.84250-0.62127
  -4  -1  -347205.06 1579.36   1-0.62389 0.24168 0.64261-0.70579 0.44475-0.66591
  -4   1  -342057.22 1421.54   1-0.42799 0.04570 0.75007-0.68687 0.50419-0.72534
  -4   1  -343371.87 1724.80   1 0.05725-0.43963 0.95975-0.89657-0.27493 0.05366
   4   1   481075.63 2792.03   1-0.25808 0.64625-0.46226 0.52547 0.84835-0.55337
   4  -1   479416.50 2749.33   1-0.38356 0.77172-0.41340 0.35018 0.82581-0.53084
  -4  -1  -480641.70 2781.29   1-0.71210 0.32399 0.57368-0.63687 0.40470-0.69958
  -4   1  -486175.52 2951.65   1-0.55597 0.16777 0.68607-0.62286 0.46925-0.76412
  -4  -1  -480630.37 2849.00   1-0.15361-0.23472 0.90307-0.96626-0.40106 0.10603
  -4   1  -479278.37 2776.44   1 0.05488-0.44312 0.95945-0.89626-0.27647-0.01855
   4   1   567555.56 2350.35   1-0.33825 0.73227-0.43229 0.49550 0.83588-0.46716
   4  -1   567161.24 2406.29   1-0.44403 0.83804-0.38591 0.32269 0.80864-0.43993
  -4  -1  -564654.37 2277.24   1-0.79007 0.39606 0.49683-0.56002 0.35907-0.72767
  -4   1  -571239.40 2427.32   1-0.67351 0.27950 0.60582-0.54263 0.42350-0.79210
  -4  -1  -570537.61 2520.57   1-0.14768-0.24649 0.90552-0.96871-0.39776 0.02896
  -4   1  -569970.98 2567.99   1 0.04414-0.43823 0.95798-0.89479-0.28341-0.08537
   4   1   6 1787.19  501.79   1-0.39604 0.79590-0.40795 0.47116 0.82262-0.38017
   4  -1   6 1836.76  664.25   1-0.48640 0.88626-0.36492 0.30171 0.79387-0.35142
  -4  -1  -6 2279.54  408.40   1-0.85622 0.45670 0.41456-0.47772 0.30824-0.75046
  -4   1  -6 1483.74  331.88   1-0.77593 0.37602 0.51217-0.44898 0.36825-0.81056
  -4  -1  -6 1731.78  468.57   1-0.15071-0.24931 0.90427-0.96746-0.39945-0.04309
  -4   1  -6 2365.24  460.74   1 0.02611-0.42614 0.95552-0.89233-0.29376-0.14878
   4   1   7 4408.83  585.96   1-0.43539 0.84110-0.39001 0.45322 0.81136-0.29517
   4  -1   7 5703.61  727.48   1-0.51437 0.92007-0.35023 0.28702 0.78278-0.26659
  -4  -1  -7 7234.03 1212.40   1-0.91046 0.50507 0.32609-0.38925 0.25438-0.77031
  -4   1  -7 4328.98  650.44   1-0.86015 0.45476 0.40892-0.34576 0.30482-0.82075
  -4   1  -7 6138.55 1188.53   1 0.00362-0.40950 0.95138-0.88820-0.30798-0.20833
   4   1   818542.32 1065.90   1-0.46001 0.87156-0.37817 0.44138 0.80335-0.21341
   4  -1   819451.54 1211.02   1-0.53088 0.94244-0.34122 0.27801 0.77570-0.18577
  -4  -1  -819359.94 1101.89   1-0.95193 0.54058 0.23412-0.29726 0.19750-0.78701
  -4   1  -814539.22 1691.98   1-0.92551 0.51416 0.29628-0.23314 0.23588-0.82539
  -4   1  -818672.14 2328.58   1-0.02318-0.38854 0.94555-0.88236-0.32463-0.26543
   4   1   9 5688.90 1159.81   1-0.47279 0.89020-0.37183 0.43504 0.79887-0.13519
   4  -1   9 4440.94 1007.40   1-0.53816 0.95556-0.33717 0.27396 0.77245-0.10878
  -4  -1  -9 3820.07 1037.78   1-0.98069 0.56344 0.13858-0.20172 0.13794-0.80114
  -4   1  -9 2841.98  791.81   1-0.97087 0.55363 0.17669-0.11355 0.16178-0.82498
  -4   1  -9 3881.83  958.47   1-0.05371-0.36385 0.93772-0.87453-0.34321-0.32061
   4  -1  1010775.17 1474.63   1-0.53778 0.96103-0.33739 0.27417 0.77263-0.03521
   4   1  10 9441.42 1267.58   1-0.47588 0.89913-0.37028 0.43349 0.79776-0.06034
  -4   1 -10 7042.88 1828.68   1-0.08755-0.33586 0.92754-0.86435-0.36331-0.37427
   4   1  11 5612.33  835.22   1-0.47073 0.89983-0.37286 0.43607 0.79961 0.01154
   4  -1  11 2840.25  506.58   1-0.53080 0.95991-0.34127 0.27805 0.77574 0.03541
   4   2 -11 9608.34 1786.52   1 0.97343-0.67346-0.18176 0.30817-0.13923-0.67191
   4  -2 -11 8289.63 1421.02   1 0.97232-0.67235-0.22060 0.09418-0.07693-0.73421
   4   2 -1017257.06 2158.84   1 0.97235-0.66645-0.22031 0.34673-0.07739-0.66001
   4  -2 -1012706.77 1861.40   1 0.96328-0.65752-0.26845 0.14205 0.00245-0.73991
  -4   2  1017038.74 1316.83   1 0.40712-0.71360 0.77760-0.65109 0.47913 0.25855
   4   2  -9 6979.88 1282.40   1 0.96569-0.65403-0.25935 0.38575-0.01300-0.65071
   4  -2  -9 4548.29  907.16   1 0.94459-0.63293-0.31654 0.19014 0.08676-0.75048
  -4   2   9 5029.52  776.17   1 0.42938-0.74169 0.76945-0.64293 0.47283 0.19108
   4   2  -8 9463.12 1362.21   1 0.95278-0.63522-0.29865 0.42506 0.05486-0.64483
   4  -2  -8 7518.52 1114.01   1 0.91429-0.59672-0.36469 0.23829 0.17627-0.76624
  -4  -2   8 5612.14  502.20   1-0.06001-0.25794 0.83849-0.96494 0.54160 0.04853
  -4   2   8 9424.48  839.06   1 0.44236-0.76051 0.76443-0.63792 0.46899 0.12116
   4   2  -8 7202.83  496.73   1 0.49286-0.17463 0.86820-0.74186 0.05746-0.64740
   4   2  -716840.23 2794.24   1 0.93249-0.60903-0.33830 0.46470 0.12652-0.64274
   4  -2  -722263.98 1271.54   1 0.87013-0.54664-0.41154 0.28517 0.27108-0.78730
  -4  -2   720032.87 1693.10   1-0.06202-0.26179 0.83834-0.96479 0.54160-0.02523
  -4   2   713979.45 1535.77   1 0.44568-0.76966 0.76312-0.63660 0.46799 0.04839
   4   2  -715510.16 1561.36   1 0.64962-0.32558 0.73029-0.60391 0.21131-0.72751
   4   2  -6 3401.84  402.58   1 0.90344-0.57407-0.37772 0.50409 0.20275-0.64522
   4  -2  -6 4434.20  413.24   1 0.80853-0.47916-0.45713 0.33076 0.37053-0.81301
  -4  -2   6 5166.41  426.35   1-0.08016-0.24952 0.83685-0.96330 0.54152-0.09892
  -4   2   6 2683.03  461.09   1 0.43853-0.76836 0.76593-0.63941 0.47013-0.02752
   4   2  -6 3171.54  232.59   1 0.76990-0.44009 0.52574-0.39940 0.36172-0.80423
  -4  -2   6 3997.76  255.23   1 0.52201-0.85176-0.63453 0.50817 0.56997-0.12749
   4   2  -512811.00  701.73   1 0.86335-0.52810-0.41746 0.54383 0.28345-0.65218
   4  -2  -5 8972.21  516.89   1 0.72636-0.39099-0.49884 0.37243 0.47281-0.84167
  -4  -2   5 8234.64  476.52   1-0.11379-0.22176 0.83334-0.95979 0.54091-0.17208
  -4   2   513075.84  693.24   1 0.41968-0.75535 0.77307-0.64655 0.47562-0.10677
   4   2  -512280.50  518.15   1 0.83081-0.49511 0.26633-0.13998 0.48867-0.85747
  -4  -2   5 8021.39  367.17   1 0.47144-0.80704-0.68763 0.56127 0.55217-0.18344
   4   2  -4146282.0 4436.44   1 0.80965-0.46853-0.45644 0.58281 0.36894-0.66393
   4  -2  -4142122.4 4293.92   1 0.62069-0.27945-0.53362 0.40721 0.57444-0.86953
  -4  -2   4140212.1 4241.05   1-0.16151-0.17981 0.82645-0.95288 0.53933-0.24428
  -4   2   4142233.6 4346.69   1 0.38746-0.72896 0.78435-0.65784 0.48441-0.18933
   4  -2  -4154475.0 4500.88   1 0.83493-0.49345 0.15167-0.27804 0.52903-0.82413
   4   2  -4141340.6 4202.64   1 0.82021-0.47872-0.01168 0.13805 0.57194-0.86704
  -4  -2   4143284.9 4263.49   1 0.40975-0.75119-0.74404 0.61768 0.52772-0.23274
   4   2  -333184.75 1000.64   1 0.73915-0.39203-0.49337 0.61979 0.45851-0.67982
   4  -2  -338434.88 1087.15   1 0.49102-0.14363-0.55704 0.43059 0.66977-0.89104
  -4  -2   339568.41 1145.19   1-0.22295-0.12424 0.81495-0.94137 0.53492-0.31364
  -4   2   334596.42 1077.53   1 0.33994-0.68728 0.79879-0.67228 0.49635-0.27509
   4  -2  -339379.14  973.79   1 0.67308-0.32573 0.70048-0.82686 0.23723-0.45846
   4   2  -335622.75  990.31   1 0.74980-0.40226-0.26492 0.39134 0.60630-0.82766
   4   2  -2 4407.81  344.42   1 0.64838-0.29539-0.52608 0.65249 0.55030-0.69784
   4  -2  -2 6814.06  494.17   1 0.34079 0.01240-0.56609 0.43963 0.75059-0.89808
  -4  -2   2 6660.99  371.92   1-0.29521-0.05785 0.79699-0.92342 0.52691-0.37939
  -4   2   2 4994.32  560.54   1 0.27487-0.62807 0.81509-0.68858 0.50996-0.36245
  -4   2   2 4752.15  565.84   1-0.02948-0.32375 0.94404-0.81767-0.32850 0.47602
   4  -2  -2 6866.45  282.75   1 0.57466-0.22147 0.80737-0.93371 0.13381-0.28130
   4   2  -2 3905.39  272.61   1 0.64821-0.29506-0.46572 0.59210 0.60243-0.74989
  -4  -2   1412928.5 9679.41   1-0.37526 0.01633 0.77119-0.89761 0.51423-0.44047
  -4   2   1390162.1 9165.64   1 0.19071-0.54977 0.83024-0.70373 0.52376-0.45000
  -4   2   1398494.6 9307.91   1 0.07518-0.43415 0.96180-0.83543-0.26322 0.33698
   4  -2  -1378931.0 8827.67   1 0.52505-0.16603 0.84663-0.97297 0.08674-0.16048
   4   2  -1388424.8 9066.74   1 0.54272-0.18374-0.61072 0.73708 0.57659-0.65033
   4   2   0128678.4 3117.82   1 0.40005-0.03530-0.56469 0.69114 0.72185-0.72185
   4  -2   0128293.3 3157.10   1 0.01850 0.34618-0.53586 0.40944 0.84410-0.84410
  -4  -2   0122401.1 3016.16   1-0.45947 0.09489 0.73623-0.86264 0.49682-0.49682
  -4   2   0135261.3 3285.91   1 0.13005-0.49488 0.96529-0.83893-0.22646 0.22646
   4   2   0138747.0 3371.45   1 0.44969-0.08486-0.70850 0.83486 0.54387-0.54387
   4   2   138210.06 1087.31   1 0.25006 0.12064-0.56395 0.69040 0.78703-0.71329
   4  -2   139686.82 1184.77   1-0.12736 0.49799-0.50258 0.37616 0.85509-0.78134
  -4  -2  -141488.22 1237.16   1-0.54457 0.17409 0.69265-0.81906 0.47293-0.54665
  -4   2  -136133.47 1040.08   1-0.03551-0.33525 0.84001-0.71356 0.54139-0.61515
  -4   2  -135831.78 1083.89   1 0.15637-0.52705 0.96547-0.83910-0.20835 0.13459
   4   2   220557.75  705.63   1 0.09738 0.27889-0.54889 0.67531 0.83019-0.68276
  -4   2  -220524.18  709.82   1-0.17256-0.20397 0.82463-0.69821 0.53869-0.68621
  -4   2  -220746.89  907.81   1 0.16490-0.54143 0.96531-0.83895-0.20241 0.05489
   4   2   3 6953.90  438.22   1-0.04360 0.42567-0.52313 0.64954 0.85113-0.62998
  -4   2  -3 6661.89  449.30   1-0.31789-0.06449 0.79034-0.66391 0.52374-0.74502
  -4   2  -3 8879.19 1224.35   1 0.16146-0.54384 0.96539-0.83902-0.20481-0.01645
   4   2   420959.33  891.20   1-0.16237 0.55054-0.49278 0.61920 0.85486-0.55989
   4  -2   424748.06 1045.59   1-0.42196 0.81013-0.39626 0.26984 0.81542-0.52045
  -4  -2  -425215.44 1062.55   1-0.77444 0.38633 0.51374-0.64012 0.36919-0.66406
  -4   2  -421662.57  884.49   1-0.46413 0.07593 0.73409-0.60768 0.49567-0.79053
  -4   2  -421146.36 1635.89   1 0.14946-0.53769 0.96552-0.83915-0.21314-0.08188
   4   2   555637.57 1976.38   1-0.25573 0.64974-0.46308 0.58950 0.84861-0.47990
   4  -2   554502.82 1991.93   1-0.47565 0.86966-0.37039 0.24397 0.79784-0.42913
  -4  -2  -554834.80 2039.75   1-0.83583 0.44218 0.44241-0.56873 0.32503-0.69355
  -4   2  -557290.72 1978.76   1-0.60250 0.20840 0.65714-0.53074 0.45292-0.82151
  -4   2  -554476.85 2015.56   1 0.13100-0.52508 0.96531-0.83895-0.22582-0.14296
   4   2   6112980.0 5630.14   1-0.32469 0.72455-0.43766 0.56408 0.83846-0.39600
   4  -2   698762.64 5030.14   1-0.51303 0.91289-0.35095 0.22453 0.78334-0.34088
  -4  -2  -692242.89 4655.81   1-0.88821 0.48869 0.36545-0.49176 0.27843-0.72065
  -4   2  -6114222.1 5671.18   1-0.72653 0.32662 0.56076-0.43439 0.39710-0.83941
  -4   2  -699258.89 5049.07   1 0.10745-0.50739 0.96436-0.83799-0.24177-0.20077
   4   2   731073.49 1966.15   1-0.37282 0.77853-0.41800 0.54442 0.82841-0.31222
   4  -2   729547.14 1978.92   1-0.53747 0.94318-0.33756 0.21113 0.77276-0.25657
  -4  -2  -732694.42 2089.43   1-0.93071 0.52526 0.28515-0.41143 0.22903-0.74485
  -4   2  -730969.72 1944.42   1-0.82994 0.42455 0.45004-0.32373 0.32962-0.84554
  -4   2  -733619.41 3700.74   1 0.07973-0.48551 0.96224-0.83588-0.26022-0.25607
   4   2   8 4885.84  509.42   1-0.40391 0.81546-0.40446 0.53088 0.82052-0.23059
   4  -2   8 4414.47  664.76   1-0.55158 0.96314-0.32956 0.20314 0.76624-0.17631
  -4  -2  -8 3564.36  842.23   1-0.96332 0.55197 0.20148-0.32776 0.17722-0.76674
  -4   2  -8 3145.63  509.90   1-0.91133 0.50007 0.32445-0.19814 0.25338-0.84301
  -4   2  -8 4585.42  761.09   1 0.04843-0.46007 0.95858-0.83222-0.28064-0.30941
   4   2   911021.95  998.11   1-0.42126 0.83866-0.39659 0.52301 0.81562-0.15195
   4  -2   915531.47 1366.61   1-0.55732 0.97473-0.32625 0.19983 0.76350-0.09982
  -4  -2  -914357.96 1757.75   1-0.98565 0.56840 0.11524-0.24152 0.12329-0.78649
  -4   2  -911907.60 1472.11   1 0.01306-0.43064 0.95320-0.82683-0.30204-0.36178
   4   2  10 6662.16  934.46   1-0.42737 0.85062-0.39376 0.52019 0.81381-0.07639
   4  -2  10 8295.76 1197.11   1-0.55606 0.97931-0.32698 0.20056 0.76411-0.02669
  -4  -2 -10 5413.05 1611.68   1-0.99743 0.57360 0.02104-0.14745 0.06836-0.80575
  -4   2 -10 6022.77 1167.96   1-0.02423-0.39918 0.94530-0.81893-0.32528-0.41230
   4   3 -11 1207.44  434.48   1 0.97249-0.67252-0.16683 0.35645-0.16256-0.64858
   4  -3 -11  583.30  255.67   1 0.97197-0.67200-0.22398 0.03436-0.07139-0.73974
  -4   3  11 1254.04  511.24   1 0.44271-0.74334 0.76429-0.57452 0.46888 0.34257
   4   3 -10 7786.08 1225.87   1 0.97347-0.66757-0.20329 0.39291-0.10498-0.63242
   4  -3 -10 5328.03  989.52   1 0.96151-0.65575-0.27445 0.08485 0.01272-0.75019
  -4   3  10 9080.57  925.10   1 0.47228-0.77875 0.75211-0.56233 0.45964 0.27804
   4   3  -938366.88 3129.97   1 0.96974-0.65792-0.23990 0.42952-0.04508-0.61858
  -4   3   937810.46 3079.68   1 0.49371-0.80602 0.74260-0.55283 0.45252 0.21140
   4  -3  -824044.75 1474.78   1 0.90585-0.58823-0.37489 0.18533 0.19719-0.78716
  -4  -3   821045.02 1201.94   1-0.25804-0.05983 0.80684-0.99648 0.53142 0.05865
  -4   3   824943.93 1595.95   1 0.50705-0.82520 0.73639-0.54662 0.44789 0.14225
   4   3  -824654.51 1333.82   1 0.60680-0.28857 0.77736-0.58786 0.16580-0.75574
   4   3  -710352.07 1458.13   1 0.94568-0.62222-0.31435 0.50395 0.08282-0.59905
   4  -3  -7 7581.33  758.31   1 0.85537-0.53188-0.42408 0.23452 0.29747-0.81369
  -4  -3   7 7830.84  740.79   1-0.25410-0.06964 0.80781-0.99745 0.53185-0.01553
  -4   3   7 6429.30  773.96   1 0.51197-0.83595 0.73405-0.54427 0.44615 0.07022
   4   3  -7 7973.04  730.07   1 0.71639-0.39234 0.63530-0.44573 0.28840-0.80460
   4   3  -651770.56 2380.33   1 0.92354-0.59418-0.35202 0.54162 0.15215-0.59463
   4  -3  -666537.44 2518.94   1 0.78561-0.45612-0.47050 0.28088 0.40179-0.84442
  -4  -3   660180.38 2244.86   1-0.26720-0.06240 0.80454-0.99417 0.53039-0.08783
  -4   3   664128.44 2535.82   1 0.50774-0.83757 0.73606-0.54629 0.44765-0.00503
   4   3  -662966.62 2303.59   1 0.79484-0.46504 0.45432-0.26481 0.40224-0.84475
   4   3  -579583.64 2759.19   1 0.89285-0.55761-0.38948 0.57903 0.22606-0.59479
   4  -3  -570309.53 2400.13   1 0.69321-0.35784-0.51161 0.32199 0.50764-0.87650
  -4  -3   563902.39 2205.56   1-0.29532-0.04014 0.79696-0.98660 0.52689-0.15809
  -4   3   578445.30 2766.19   1 0.49325-0.82892 0.74281-0.55304 0.45267-0.08383
   4   3  -580407.29 2663.98   1 0.83264-0.49694 0.24374-0.05420 0.49728-0.86608
   4   3  -4 8830.75  513.58   1 0.85136-0.51024-0.42728 0.61683 0.30431-0.59930
   4  -3  -4 9004.76  506.22   1 0.57639-0.23479-0.54327 0.35359 0.61042-0.90544
  -4  -3   4 9956.09  576.52   1-0.33646-0.00487 0.78450-0.97414 0.52089-0.22585
  -4   3   4 9083.94  593.54   1 0.46691-0.80841 0.75440-0.56463 0.46137-0.16630
   4   3  -4 9301.03  497.43   1 0.82536-0.48388 0.02338 0.16617 0.56411-0.85921
   4  -3  -4 9287.96  333.93   1 0.79886-0.45720-0.11260-0.07701 0.59087-0.88601
   4   3  -320995.05  812.75   1 0.79644-0.44944-0.46437 0.65393 0.38734-0.60858
   4  -3  -322088.18  827.81   1 0.43623-0.08884-0.56243 0.37276 0.70239-0.92366
  -4  -3   321749.90  859.89   1-0.38775 0.04089 0.76611-0.95572 0.51255-0.29140
  -4   3   321416.12  904.93   1 0.42669-0.77403 0.77046-0.58069 0.47361-0.25230
  -4   3   322947.00  787.07   1 0.04863-0.39590 0.95861-0.76906-0.28052 0.50179
   4  -3  -321551.40  694.14   1 0.79777-0.45034 0.44441-0.63392 0.40749-0.62874
   4   3  -322441.49  861.90   1 0.77856-0.43102-0.18402 0.37365 0.59997-0.82133
   4   3  -2144409.6 3520.52   1 0.72487-0.37188-0.49946 0.68908 0.47444-0.62198
   4  -3  -2136594.8 3321.34   1 0.27897 0.07422-0.56521 0.37553 0.77634-0.92383
  -4  -3   2142124.9 3475.16   1-0.44787 0.09511 0.74147-0.93108 0.49962-0.35219
  -4   3   2146325.4 3618.46   1 0.37020-0.72340 0.78976-0.59999 0.48910-0.34159
  -4   3   2149437.0 3559.12   1 0.17931-0.53243 0.96481-0.77526-0.19229 0.33981
   4  -3  -2133234.8 3162.49   1 0.71876-0.36559 0.63125-0.82082 0.29136-0.43884
   4   3  -2148770.9 3592.58   1 0.70657-0.35316-0.36220 0.55183 0.60791-0.75548
   4   3  -1 6809.65  415.75   1 0.63322-0.27435-0.53033 0.71995 0.56371-0.63748
   4  -3  -1 5417.19  373.29   1 0.11548 0.24341-0.55139 0.36176 0.82621-0.89993
  -4  -3   1 4577.59  396.97   1-0.51313 0.15446 0.70986-0.89947 0.48247-0.40875
  -4   3   1 7647.96  451.87   1 0.29503-0.65409 0.81048-0.62071 0.50603-0.43227
  -4   3   1 8181.37  639.50   1 0.23881-0.59779 0.95949-0.76994-0.14947 0.22323
   4  -3  -1 4876.58  251.01   1 0.66120-0.30221 0.71598-0.90555 0.22398-0.29772
   4   3  -1 7236.30  524.58   1 0.62494-0.26598-0.50178 0.69135 0.59804-0.67177
   4   3   034594.50  991.17   1 0.51937-0.15462-0.55323 0.74291 0.65128-0.65128
  -4  -3   034934.11 1113.16   1-0.58065 0.21607 0.67115-0.86076 0.46086-0.46086
  -4   3   033131.37 1046.21   1 0.19929-0.56421 0.82899-0.63922 0.52254-0.52254
  -4   3   034062.64 1144.90   1 0.26473-0.62953 0.95558-0.76610-0.12949 0.12949
   4   3   031929.02  948.27   1 0.54657-0.18174-0.60616 0.79570 0.57777-0.57777
   4   3   1107851.2 2655.74   1 0.38524-0.01454-0.56512 0.75480 0.72953-0.65579
   4  -3   1100350.0 2548.78   1-0.17853 0.54915-0.48801 0.29837 0.85438-0.78063
  -4  -3  -1104293.6 2642.58   1-0.64772 0.27731 0.62552-0.81509 0.43492-0.50864
  -4   3  -1104237.7 2604.31   1 0.08202-0.45279 0.84030-0.65063 0.53587-0.60963
  -4   3  -1102606.7 2862.56   1 0.27155-0.64219 0.95435-0.76486-0.12438 0.05063
   4   3   1109079.8 2749.72   1 0.47868-0.10800-0.68044 0.86998 0.55485-0.48110
   4   3   267786.39 2101.35   1 0.23889 0.13764-0.56332 0.75300 0.79094-0.64345
   4  -3   260788.08 1986.44   1-0.29235 0.66882-0.44996 0.26033 0.84383-0.69634
  -4  -3  -264001.42 2091.07   1-0.71224 0.33593 0.57356-0.76312 0.40463-0.55207
  -4   3  -264328.60 2056.61   1-0.05466-0.32197 0.83886-0.64919 0.54158-0.68911
  -4   3  -269115.43 2242.22   1 0.26628-0.64275 0.95531-0.76583-0.12833-0.01915
   4   3   270825.22 2347.52   1 0.42412-0.04760-0.73165 0.92119 0.53366-0.38617
   4   3   3 4210.44  344.62   1 0.09317 0.28889-0.54829 0.73791 0.83107-0.60993
   4  -3   3 2271.10  334.62   1-0.38147 0.76378-0.41430 0.22466 0.82633-0.60510
  -4  -3  -3 2798.81  348.90   1-0.77236 0.39015 0.51593-0.70549 0.37049-0.59165
  -4   3  -3 4799.22  430.54   1-0.20676-0.17562 0.81831-0.62867 0.53629-0.75757
  -4   3  -3 4378.64  605.00   1 0.25290-0.63528 0.95744-0.76789-0.13908-0.08218
   4   3   440629.10 1486.65   1-0.03793 0.42579-0.52438 0.71401 0.85063-0.55577
   4  -3   436577.37 1506.66   1-0.44844 0.83660-0.38380 0.19416 0.80721-0.51224
  -4  -3  -437658.90 1489.92   1-0.82667 0.43889 0.45420-0.64367 0.33211-0.62693
  -4   3  -442652.11 1544.66   1-0.36631-0.02195 0.77440-0.58476 0.51586-0.81090
  -4   3  -438808.98 1506.76   1 0.23310-0.62133 0.96023-0.77068-0.15366-0.14136
   4   3   548501.62 1860.81   1-0.14556 0.53958-0.49757 0.68721 0.85511-0.48640
   4  -3   549149.67 2027.97   1-0.49695 0.89096-0.35946 0.16983 0.78981-0.42111
  -4  -3  -544711.50 1785.38   1-0.87452 0.48087 0.38738-0.57685 0.29177-0.66029
  -4   3  -548901.47 1843.54   1-0.52451 0.13041 0.70379-0.51418 0.47912-0.84770
  -4   3  -546659.89 2192.52   1 0.20846-0.60254 0.96286-0.77332-0.17153-0.19725
   4   3   618790.68 1942.97   1-0.22829 0.62816-0.47235 0.66199 0.85132-0.40886
   4  -3   619551.52 2092.35   1-0.53065 0.93051-0.34135 0.15172 0.77581-0.33335
  -4  -3  -620326.25 2470.46   1-0.91519 0.51567 0.31702-0.50649 0.24882-0.69104
  -4   3  -616939.25 1724.47   1-0.67105 0.27115 0.60775-0.41819 0.42462-0.86694
   4   3   713876.77 1014.98   1-0.28781 0.69353-0.45163 0.64127 0.84450-0.32829
   4  -3   719557.34 1445.03   1-0.55256 0.95826-0.32900 0.13937 0.76578-0.24959
  -4  -3  -718975.56 1963.36   1-0.94815 0.54270 0.24400-0.43342 0.20362-0.71945
  -4   3  -716255.77 1558.05   1-0.79737 0.39157 0.48863-0.29906 0.35415-0.87018
  -4   3  -718600.40 2577.01   1 0.14792-0.55371 0.96552-0.77597-0.21420-0.30210
   4   3   811159.83 1347.60   1-0.32767 0.73923-0.43649 0.62613 0.83791-0.24796
   4  -3   810770.98 1398.18   1-0.56502 0.97657-0.32176 0.13213 0.75974-0.16981
  -4  -3  -8 9993.56 1690.42   1-0.97328 0.56193 0.16810-0.35752 0.15641-0.74592
  -4   3  -812760.29 2439.51   1 0.11302-0.52466 0.96466-0.77511-0.23802-0.35203
   4   3   9  761.26  410.47   1-0.35144 0.76884-0.42691 0.61655 0.83320-0.16952
   4  -3   9 1174.14  518.35   1-0.56975 0.98716-0.31897 0.12933 0.75738-0.09370
  -4  -3  -9 1068.32  344.47   1-0.99014 0.57289 0.08992-0.27934 0.10735-0.77055
  -4   3  -9  399.23  340.56   1 0.07543-0.49292 0.96182-0.77227-0.26305-0.40076
   4  -3  10 8356.03 1139.76   1-0.56799 0.99124-0.32002 0.13038 0.75826-0.02085
  -4  -3 -10 4401.61 1436.97   1-0.99831 0.57447 0.00432-0.19394 0.05781-0.79520
  -4   3 -10 7199.53 1417.79   1 0.03435-0.45778 0.95686-0.76730-0.28850-0.44908
   4   4 -1119088.98 4074.01   1 0.97056-0.67059-0.15012 0.40295-0.18831-0.62283
   4  -4 -1118657.04 3118.72   1 0.97195-0.67198-0.22414-0.02868-0.07114-0.74000
  -4   4  1124480.66 2805.95   1 0.49406-0.79469 0.74245-0.48942 0.45240 0.35905
   4   4 -10 8282.87 1411.40   1 0.97352-0.66763-0.18450 0.43733-0.13490-0.60250
   4  -4 -10 7917.46 1292.91   1 0.96056-0.65480-0.27748 0.02467 0.01793-0.75539
  -4   4  10 8095.15 1047.49   1 0.52186-0.82834 0.72922-0.47619 0.44258 0.29510
   4  -4  -9 7540.16 1714.23   1 0.93691-0.62525-0.33085 0.07805 0.11278-0.77650
  -4   4   9 9354.28  917.48   1 0.54246-0.85477 0.71875-0.46572 0.43488 0.22904
   4   4  -8 7439.81 1490.30   1 0.96704-0.64948-0.25357 0.50638-0.02274-0.56722
   4  -4  -8 7815.37 1000.03   1 0.89873-0.58111-0.38309 0.13035 0.21334-0.80331
  -4   4   8 9291.19 1236.30   1 0.55588-0.87403 0.71160-0.45857 0.42965 0.16050
   4   4  -8 9205.56 1121.86   1 0.66522-0.34700 0.71083-0.45808 0.22844-0.81838
   4   4  -735043.90 3230.11   1 0.95678-0.63332-0.28842 0.54123 0.03691-0.55313
   4  -4  -732523.84 1870.38   1 0.84243-0.51893-0.43413 0.18139 0.31912-0.83534
  -4  -4   729753.75 1658.88   1-0.45491 0.13167 0.73831-0.99112 0.49793 0.01807
  -4   4   734386.99 2093.19   1 0.56187-0.88586 0.70833-0.45530 0.42726 0.08911
   4   4  -736553.94 2035.19   1 0.74753-0.42360 0.57662-0.32394 0.32968-0.84594
   4   4  -619279.67 2836.75   1 0.94095-0.61159-0.32357 0.57638 0.09949-0.54197
   4  -4  -616229.27 1686.61   1 0.76485-0.43536-0.48135 0.22852 0.42813-0.87076
  -4  -4   616747.56 1713.76   1-0.45677 0.12762 0.73747-0.99028 0.49748-0.05518
  -4   4   619978.10 1875.95   1 0.55980-0.88963 0.70947-0.45644 0.42809 0.01452
   4   4  -620467.94 1725.42   1 0.80533-0.47552 0.41656-0.16388 0.42179-0.86430
   4   4  -529187.68 2731.44   1 0.91851-0.58325-0.35906 0.61187 0.16551-0.53425
   4  -4  -532286.67 1237.02   1 0.66304-0.32767-0.52167 0.26884 0.53686-0.90573
  -4  -4   529385.00 1132.88   1-0.47356 0.13851 0.72966-0.98247 0.49328-0.12469
  -4   4   528830.85 1255.07   1 0.54869-0.88436 0.71546-0.46244 0.43247-0.06362
   4   4  -528675.50 1090.59   1 0.83290-0.49720 0.23985 0.01286 0.49873-0.86753
   4   4  -425025.80 1030.07   1 0.88809-0.54696-0.39444 0.64718 0.23603-0.53101
   4  -4  -425498.24 1045.96   1 0.53653-0.19492-0.55057 0.29767 0.63952-0.93455
  -4  -4   427968.26 1133.66   1-0.50230 0.16135 0.71548-0.96829 0.48556-0.19069
  -4   4   426159.82 1154.80   1 0.52713-0.86863 0.72660-0.47357 0.44065-0.14557
  -4   4   426330.84 1068.52   1 0.12253-0.46395 0.96506-0.71233-0.23158 0.52661
   4   4  -424382.01  987.85   1 0.82935-0.48787 0.05765 0.19509 0.55573-0.85083
   4  -4  -426004.70  887.14   1 0.78281-0.44115-0.17034-0.08249 0.59848-0.89363
   4   4  -311123.05  586.93   1 0.84755-0.50055-0.43025 0.68299 0.31070-0.53194
   4  -4  -312952.47  652.72   1 0.38845-0.04109-0.56499 0.31208 0.72792-0.94916
  -4  -4   313207.81  649.35   1-0.54028 0.19342 0.69508-0.94789 0.47429-0.25314
  -4   4   3 8917.06  636.80   1 0.49322-0.84056 0.74283-0.48980 0.45269-0.23138
  -4   4   3 9722.52  609.85   1 0.28282-0.63011 0.95214-0.69950-0.11588 0.33711
   4  -4  -311609.07  462.25   1 0.83230-0.48479 0.24844-0.50115 0.49552-0.71680
   4   4  -3 9585.52  541.11   1 0.79808-0.45067-0.11742 0.37017 0.59099-0.81231
   4   4  -213622.13  663.02   1 0.79433-0.44146-0.46559 0.71833 0.39019-0.53768
   4  -4  -2 9125.81  468.67   1 0.22706 0.12613-0.56258 0.30967 0.79494-0.94243
  -4  -4   210258.46  577.87   1-0.58488 0.23211 0.66849-0.92131 0.45936-0.31193
  -4   4   212304.08  736.44   1 0.44461-0.79779 0.76354-0.51051 0.46831-0.32077
  -4   4   211531.70  630.33   1 0.34356-0.69669 0.93659-0.68395-0.06888 0.21637
   4  -4  -2 9399.85  391.06   1 0.79325-0.43994 0.45957-0.71225 0.39942-0.54693
   4   4  -212159.68  563.65   1 0.74659-0.39318-0.27298 0.52582 0.60669-0.75426
   4   4  -138274.42 1268.85   1 0.72527-0.36641-0.49929 0.75212 0.47399-0.54777
   4  -4  -136711.06 1251.94   1 0.06473 0.29416-0.54392 0.29109 0.83663-0.91034
  -4  -4   137518.17 1319.17   1-0.63348 0.27486 0.63586-0.88861 0.44088-0.36716
  -4   4   141115.82 1463.02   1 0.37845-0.73751 0.78713-0.53411 0.48701-0.41326
  -4   4   138369.05 1325.64   1 0.36743-0.72639 0.92871-0.67606-0.04983 0.12358
   4   4  -139295.57 1388.21   1 0.68462-0.32566-0.40310 0.65586 0.60728-0.68102
   4   4   012518.65  555.48   1 0.63691-0.27216-0.52932 0.78215 0.56049-0.56049
   4  -4   012297.25  654.55   1-0.08583 0.45052-0.51323 0.26040 0.85394-0.85394
  -4  -4   011989.81  588.14   1-0.68408 0.31956 0.59735-0.85010 0.41856-0.41856
  -4   4   010622.56  614.21   1 0.29223-0.65715 0.81114-0.55812 0.50659-0.50659
  -4   4   0 9678.74  700.40   1 0.37213-0.73693 0.92703-0.67439-0.04604 0.04604
   4   4   012173.94  674.45   1 0.62134-0.25656-0.50712 0.75988 0.59728-0.59728
   4   4   118159.53  714.19   1 0.52711-0.15657-0.55207 0.80497 0.64603-0.57228
   4  -4   118988.96  816.07   1-0.21573 0.58636-0.47645 0.22360 0.85232-0.77857
  -4  -4  -118816.92  837.67   1-0.73453 0.36411 0.55337-0.80612 0.39273-0.46645
  -4   4  -119278.90  817.18   1 0.18378-0.55456 0.83120-0.57818 0.52471-0.59846
  -4   4  -117792.25  930.31   1 0.36513-0.73576 0.92952-0.67687-0.05169-0.02204
   4   4   118516.58  854.30   1 0.56286-0.19225-0.58638 0.83914 0.58252-0.50879
   4   4   278146.90 2395.67   1 0.39828-0.02195-0.56477 0.81767 0.72277-0.57525
   4  -4   273078.57 2386.13   1-0.32146 0.69793-0.43892 0.18607 0.83905-0.69156
  -4  -4  -269853.06 2251.12   1-0.78317 0.40685 0.50440-0.75716 0.36361-0.51104
  -4   4  -279105.67 2487.12   1 0.05207-0.42871 0.84134-0.58844 0.53798-0.68552
  -4   4  -277604.92 2484.07   1 0.35017-0.72664 0.93451-0.68187-0.06364-0.08384
   4   4   280454.39 2587.89   1 0.51270-0.13619-0.64482 0.89753 0.56686-0.41937
   4   4   3124671.7 4137.04   1 0.25850 0.12387-0.56437 0.81728 0.78400-0.56276
   4  -4   3120307.1 4095.22   1-0.40364 0.78595-0.40458 0.15173 0.82060-0.59937
  -4   4  -3115985.4 3892.25   1-0.10000-0.28250 0.83489-0.58199 0.54124-0.76254
  -4   4  -3124410.2 4259.66   1 0.32939-0.71169 0.94079-0.68815-0.08004-0.14118
   4   4   3126878.2 4328.59   1 0.47265-0.09028-0.68644 0.93916 0.55262-0.33138
   4   4   450413.16 1742.05   1 0.12125 0.26661-0.55214 0.80498 0.82488-0.53002
   4  -4   439311.30 1558.67   1-0.46525 0.85341-0.37559 0.12274 0.80154-0.50657
  -4  -4  -444188.45 1656.34   1-0.87006 0.48228 0.39422-0.64685 0.29592-0.59074
  -4   4  -448666.25 1698.27   1-0.26770-0.12055 0.80441-0.55156 0.53033-0.82537
  -4   4  -448907.37 1850.30   1 0.30406-0.69220 0.94742-0.69477-0.09968-0.19528
   4   4   448020.06 1830.50   1 0.44269-0.05448-0.71498 0.96769 0.54113-0.24614
   4   4   519284.68  834.39   1-0.00023 0.39389-0.53224 0.78508 0.84658-0.47800
   4  -4   526840.65 1327.43   1-0.50989 0.90390-0.35263 0.09978 0.78463-0.41592
  -4  -4  -526001.03 1180.37   1-0.90659 0.51294 0.33332-0.58595 0.25881-0.62733
  -4   4  -521182.17  936.74   1-0.44173 0.04763 0.74417-0.49136 0.50106-0.86965
  -4   4  -520114.29 1747.32   1 0.27501-0.66898 0.95369-0.70105-0.12178-0.24693
   4   4   521119.67 1106.33   1 0.42223-0.02817-0.73331 0.98603 0.53289-0.16416
   4   4   658922.32 3197.55   1-0.09869 0.49814-0.51002 0.76285 0.85447-0.41218
   4  -4   681536.61 4505.59   1-0.54092 0.94078-0.33562 0.08277 0.77120-0.32875
  -4  -4  -676687.00 4212.01   1-0.93759 0.53804 0.26968-0.52224 0.21949-0.66163
  -4   4  -663425.53 3441.33   1-0.60992 0.20991 0.65221-0.39940 0.45011-0.89241
   4   4   661193.33 3469.71   1 0.41031-0.01041-0.74356 0.99628 0.52796-0.08549
   4   4   711846.24 1431.82   1-0.17194 0.57765-0.48997 0.74282 0.85460-0.33840
   4  -4   711569.90 1506.01   1-0.56106 0.96677-0.32408 0.07123 0.76168-0.24549
  -4  -4  -710389.66 1715.49   1-0.96279 0.55734 0.20310-0.45567 0.17824-0.69406
  -4   4  -711779.11 1394.48   1-0.76107 0.35526 0.52755-0.27480 0.37742-0.89345
  -4   4  -712574.23 2404.32   1 0.20817-0.61396 0.96289-0.71016-0.17174-0.34455
   4   4   714238.36 1130.99   1 0.40597-0.00022-0.74723 0.99995 0.52614-0.00992
   4   4   8 9059.40 1079.72   1-0.22343 0.63500-0.47395 0.72680 0.85172-0.26178
   4  -4   8 9187.59 1293.52   1-0.57244 0.98399-0.31738 0.06453 0.75602-0.16609
  -4  -4  -8 6059.11 1381.16   1-0.98170 0.57035 0.13414-0.38671 0.13516-0.72467
  -4   4  -8 7888.45 1344.62   1 0.17064-0.58228 0.96515-0.71242-0.19839-0.39166
   4   4   8 7125.50  973.29   1 0.40827 0.00332-0.74529 0.99801 0.52711 0.06285
   4  -4   917975.68 1605.27   1-0.57627 0.99391-0.31503 0.06228 0.75409-0.09089
  -4  -4  -911077.81 2349.84   1-0.99402 0.57611 0.05868-0.31151 0.09202-0.75568
  -4   4  -919120.64 2826.74   1 0.13073-0.54822 0.96531-0.71258-0.22600-0.43781
   4   4   923000.27 1914.32   1 0.41640 0.00103-0.73836 0.99108 0.53049 0.13321
   4  -4  10 8786.64 1000.30   1-0.57459 0.99784-0.31610 0.06325 0.75493-0.01751
  -4  -4 -10 4666.61 1406.79   1-0.99885 0.57501-0.01518-0.23764 0.04547-0.78286
  -4   4 -10 7979.69 1687.35   1 0.08853-0.51187 0.96303-0.71030-0.25440-0.48316
   4   4  1011914.04 1275.25   1 0.42968-0.00639-0.72674 0.97946 0.53592 0.20153
   4   5 -11 1994.78  815.15   1 0.96742-0.66745-0.13175 0.44778-0.21617-0.59497
  -4   5  11 2102.00  530.50   1 0.53299-0.83362 0.72364-0.40735 0.43847 0.37299
   4   5 -10 1994.51  776.16   1 0.97223-0.66633-0.16405 0.48009-0.16687-0.57053
   4  -5 -10 2196.73  554.33   1 0.96069-0.65493-0.27706-0.03894 0.01721-0.75468
  -4   5  10 2067.78  656.56   1 0.55923-0.86570 0.70978-0.39350 0.42832 0.30936
   4   5  -922082.84 2904.88   1 0.97363-0.66181-0.19622 0.51225-0.11630-0.54735
   4  -5  -921433.45 1538.18   1 0.93534-0.62368-0.33356 0.01755 0.11776-0.78148
  -4   5   922577.44 1728.50   1 0.57897-0.89128 0.69868-0.38240 0.42026 0.24366
   4   5  -8 6303.30 1127.31   1 0.97146-0.65370-0.22833 0.54436-0.06425-0.52567
   4  -5  -8 4403.90  423.27   1 0.89375-0.57614-0.38852 0.07259 0.22414-0.81411
  -4   5   8 5812.92  650.33   1 0.59227-0.91042 0.69087-0.37459 0.41461 0.17554
   4   5  -8 5396.90  425.51   1 0.69873-0.38051 0.66370-0.34775 0.26695-0.85689
   4   5  -7 4157.32  708.74   1 0.96537-0.64191-0.26064 0.57664-0.01083-0.50539
   4  -5  -7 4118.58  399.41   1 0.83208-0.50859-0.44162 0.12570 0.33555-0.85178
  -4  -5   7 4032.85  380.98   1-0.64512 0.32190 0.62744-0.94338 0.43603 0.08000
  -4   5   7 4627.39  629.61   1 0.59889-0.92287 0.68688-0.37059 0.41173 0.10465
   4   5  -7 3584.45  387.92   1 0.76420-0.44027 0.53961-0.22376 0.35327-0.86953
   4   5  -633153.73 1945.35   1 0.95504-0.62568-0.29302 0.60903 0.04495-0.48743
   4  -5  -629599.79 1685.96   1 0.74728-0.41779-0.48972 0.17369 0.44915-0.89178
  -4  -5   630052.74 1580.61   1-0.63156 0.30244 0.63722-0.95316 0.44166 0.00065
  -4   5   633460.78 1906.03   1 0.59832-0.92815 0.68722-0.37094 0.41198 0.03063
   4   5  -633058.39 1737.11   1 0.80981-0.48000 0.39816-0.08231 0.43088-0.87339
   4   5  -526026.91 2206.78   1 0.93983-0.60457-0.32564 0.64164 0.10325-0.47198
   4  -5  -531988.81 1298.16   1 0.63702-0.30165-0.52929 0.21326 0.56039-0.92925
  -4  -5   533562.33 1324.91   1-0.63377 0.29875 0.63565-0.95159 0.44076-0.07216
  -4   5   527831.21 1484.41   1 0.58972-0.92538 0.69239-0.37611 0.41570-0.04686
  -4   5   526050.05  937.89   1 0.17373-0.50930 0.96504-0.64913-0.19622 0.56501
   4   5  -527527.17 1191.84   1 0.83245-0.49675 0.24637 0.06951 0.49630-0.86510
   4  -5  -528592.40 1020.93   1 0.44967-0.11408-0.70851 0.39261 0.54387-0.91259
   4   5  -4 1777.39  364.04   1 0.91888-0.57772-0.35856 0.67457 0.16456-0.45955
   4  -5  -4 1801.10  302.95   1 0.50244-0.16084-0.55559 0.23947 0.66246-0.95748
  -4  -5   4 1673.48  237.84   1-0.64785 0.30693 0.62543-0.94137 0.43487-0.13999
  -4   5   4 1118.10  320.78   1 0.57185-0.91335 0.70276-0.38647 0.42321-0.12813
  -4   5   4 1659.25  249.69   1 0.37416-0.71562 0.92629-0.61049-0.04440 0.33938
   4   5  -4 2333.85  327.78   1 0.83227-0.49079 0.09146 0.22447 0.54676-0.84186
   4  -5  -4 1465.71  134.56   1 0.76955-0.42788-0.21134-0.10470 0.60259-0.89774
   4   5  -383485.14 2912.88   1 0.89096-0.54396-0.39148 0.70740 0.23007-0.45130
   4  -5  -382336.07 2810.31   1 0.34864-0.00128-0.56602 0.24988 0.74703-0.96827
  -4  -5   385660.02 2952.04   1-0.67080 0.32398 0.60795-0.92389 0.42474-0.20358
  -4   5   368473.94 2513.28   1 0.54300-0.89034 0.71847-0.40218 0.43467-0.21336
  -4   5   385196.74 2849.98   1 0.43490-0.78219 0.90045-0.58465 0.00594 0.21528
   4  -5  -380713.78 2682.75   1 0.83348-0.48608 0.11080-0.42673 0.54131-0.76264
   4   5  -383928.92 2876.63   1 0.81159-0.46418-0.05873 0.37467 0.58126-0.80259
   4   5  -284950.25 2904.49   1 0.85427-0.50140-0.42496 0.74089 0.29935-0.44684
   4  -5  -286412.01 2952.05   1 0.18564 0.16755-0.55929 0.24316 0.80791-0.95540
  -4  -5   285209.46 2944.02   1-0.70010 0.34738 0.58404-0.89998 0.41078-0.26334
  -4   5   282451.75 2787.99   1 0.45724-0.81043 0.88895-0.57311 0.02608 0.12139
   4   5  -286908.97 3001.04   1 0.77481-0.42140-0.19564 0.51169 0.60115-0.74872
   4   5  -136663.64 1376.13   1 0.80649-0.44774-0.45838 0.77431 0.37342-0.44716
   4  -5  -135332.70 1343.86   1 0.02618 0.33270-0.53728 0.22124 0.84299-0.91670
  -4  -5   137218.60 1433.63   1-0.73354 0.37492 0.55429-0.87023 0.39328-0.31956
  -4   5   138616.21 1499.87   1 0.44310-0.80211 0.76414-0.44785 0.46877-0.39500
  -4   5   135468.41 1313.44   1 0.46044-0.81946 0.88721-0.57137 0.02886 0.04487
   4   5  -137785.78 1427.59   1 0.72858-0.36929-0.31545 0.63150 0.60799-0.68177
   4   5   0 9795.82  493.26   1 0.74465-0.37990-0.49092 0.80696 0.45219-0.45219
   4  -5   011977.88  621.40   1-0.11826 0.48303-0.50501 0.18895 0.85496-0.85496
  -4  -5   012608.61  645.86   1-0.76920 0.40469 0.51922-0.83516 0.37245-0.37245
  -4   5   0 9042.86  554.80   1 0.36608-0.73100 0.79104-0.47477 0.49012-0.49012
  -4   5   010030.61  649.93   1 0.45258-0.81743 0.89144-0.57560 0.02205-0.02205
   4   5   0 9547.03  589.02   1 0.67830-0.31351-0.41458 0.73053 0.60664-0.60664
   4   5   189577.14 3006.56   1 0.66520-0.29458-0.52100 0.83703 0.53484-0.46107
   4  -5   1110094.2 3769.37   1-0.24096 0.61158-0.46813 0.15207 0.85016-0.77642
  -4  -5  -1111981.4 3860.40   1-0.80563 0.43546 0.47982-0.79560 0.34745-0.42115
  -4   5  -185649.14 2955.70   1 0.26732-0.63810 0.81672-0.50044 0.51137-0.58513
  -4   5  -184541.36 2921.30   1 0.43739-0.80803 0.89923-0.58342 0.00807-0.08181
   4   5   219098.14  750.16   1 0.56553-0.18920-0.54542 0.86154 0.61861-0.47110
   4  -5   226616.86 1166.69   1-0.33991 0.71638-0.43163 0.11557 0.83555-0.68806
  -4  -5  -221918.43  813.19   1-0.30609-0.07037-0.44482 0.12876 0.84168-0.98917
  -4  -5  -230056.05 2279.98   1-0.84103 0.46500 0.43552-0.75131 0.32088-0.46829
  -4   5  -218844.84  863.54   1 0.14447-0.52111 0.83585-0.51957 0.52960-0.67711
  -4   5  -220114.53 2104.17   1 0.41665-0.79312 0.90901-0.59321-0.00944-0.13804
   4   5   220408.36 1002.95   1 0.58608-0.20965-0.55650 0.87245 0.58890-0.44143
   4   5   323320.59  858.68   1 0.44737-0.06525-0.56154 0.87766 0.69607-0.47481
   4  -5   323824.25 1130.50   1-0.41658 0.79889-0.39873 0.08267 0.81698-0.59576
  -4  -5  -320901.87  781.20   1-0.55803 0.17571-0.32584 0.00978 0.76316-0.98439
  -4  -5  -324312.89 1601.77   1-0.87461 0.49270 0.38725-0.70304 0.29169-0.51280
  -4   5  -322939.30  933.65   1-0.00342-0.37908 0.84125-0.52512 0.54062-0.76192
  -4   5  -324451.34 2187.47   1 0.39157-0.77387 0.91965-0.60384-0.03022-0.19100
   4   5   324008.74 1176.43   1 0.54916-0.16679-0.60306 0.91896 0.57856-0.35732
   4   5   4105550.2 3777.84   1 0.31792 0.07028-0.56606 0.88219 0.76058-0.46560
   4  -5   498070.78 3650.97   1-0.47411 0.86227-0.37117 0.05511 0.79840-0.50343
  -4  -5  -478984.07 2819.14   1-0.75970 0.37158-0.18286-0.13311 0.62402-0.91880
  -4  -5  -494123.61 4067.31   1-0.90544 0.51766 0.33543-0.65121 0.26010-0.55491
  -4   5  -4102097.1 3691.69   1-0.17298-0.21528 0.82456-0.50850 0.53867-0.83371
  -4   5  -4100476.9 3752.41   1 0.36291-0.75105 0.93028-0.61448-0.05347-0.24150
   4   5   4111996.7 4179.72   1 0.52013-0.13192-0.63663 0.95253 0.56935-0.27436
   4   5   5 7001.19  746.18   1 0.19089 0.20314-0.55976 0.87590 0.80635-0.43763
   4  -5   5 4893.36  842.89   1-0.51591 0.90992-0.34940 0.03334 0.78214-0.41343
  -4  -5  -5 5391.23  939.97   1-0.93274 0.53909 0.28068-0.59638 0.22627-0.59472
  -4   5  -5 8255.10  891.09   1-0.35696-0.03716 0.77766-0.46160 0.51750-0.88630
  -4   5  -5 8633.33 1319.02   1 0.33119-0.72517 0.94027-0.62447-0.07862-0.29009
   4   5   5 7639.75  996.46   1 0.49894-0.10488-0.65959 0.97549 0.56212-0.19339
   4   5   6 3313.80  348.41   1 0.07804 0.32140-0.54602 0.86207 0.83412-0.39183
   4  -5   6 2858.05  553.13   1-0.54506 0.94491-0.33328 0.01722 0.76930-0.32685
  -4  -5  -6 2112.62  476.30   1-0.95605 0.55650 0.22286-0.53856 0.19051-0.63265
  -4   5  -6 3841.72  366.65   1-0.54515 0.14514 0.69232-0.37630 0.47275-0.91505
  -4   5  -6 2935.46  583.89   1 0.29675-0.69656 0.94913-0.63332-0.10528-0.33717
   4   5   6 2552.08  403.87   1 0.48522-0.08532-0.67382 0.98972 0.55724-0.11476
   4  -5   727411.72 1651.51   1-0.56403 0.96974-0.32234 0.00628 0.76023-0.24403
  -4  -5  -726601.37 1518.49   1-0.97479 0.56934 0.16247-0.47817 0.15289-0.66872
  -4   5  -730856.45 2963.42   1 0.25983-0.66548 0.95642-0.64062-0.13314-0.38305
   4   5   731111.50 1760.05   1 0.47841-0.07266-0.68071 0.99661 0.55475-0.03853
   4  -5   825503.72 1959.01   1-0.57475 0.98630-0.31600-0.00005 0.75485-0.16491
  -4  -5  -823827.90 1809.00   1-0.98851 0.57716 0.09974-0.41544 0.11354-0.70305
  -4   5  -821998.47 2388.46   1 0.22098-0.63262 0.96164-0.64573-0.16248-0.42757
   4   5   824495.10 1942.01   1 0.47785-0.06625-0.68127 0.99717 0.55454 0.03541
   4  -5   911320.53 1489.37   1-0.57832 0.99595-0.31381-0.00212 0.75303-0.08984
  -4  -5  -9 8596.54 1679.47   1-0.99675 0.57884 0.03065-0.34669 0.07441-0.73806
  -4   5  -912268.36 1957.52   1 0.17955-0.59703 0.96480-0.64888-0.19213-0.47168
   4   5   910939.63 1229.90   1 0.48292-0.06548-0.67616 0.99206 0.55640 0.10730
   4  -5  10 2081.07  710.05   1-0.57633 0.99985-0.31500-0.00093 0.75406-0.01717
  -4  -5 -10 1927.16  660.24   1-0.99881 0.57497-0.03691-0.27912 0.03169-0.76908
  -4   5 -10  601.75  349.11   1 0.13593-0.55927 0.96542-0.64950-0.22244-0.51512
   4   5  10  661.34  414.66   1 0.49305-0.06977-0.66576 0.98166 0.56004 0.17740
   4   6 -10 5821.14 1288.22   1 0.96931-0.66341-0.14204 0.52128-0.20062-0.53678
  -4   6  10 9149.55 1180.26   1 0.58693-0.89340 0.69404-0.31450 0.41690 0.32079
   4  -6  -9 5695.93 1317.58   1 0.93585-0.62419-0.33269-0.04651 0.11616-0.77988
  -4   6   910238.98 1017.20   1 0.60583-0.91814 0.68261-0.30307 0.40866 0.25526
   4   6  -910249.86  865.66   1 0.64807-0.33567 0.73215-0.35302 0.20964-0.87332
   4   6  -823023.99 2312.10   1 0.97352-0.65577-0.20161 0.58085-0.10767-0.48225
   4  -6  -825761.11 1880.52   1 0.89153-0.57392-0.39087 0.01176 0.22885-0.81882
  -4   6   826888.76 2073.70   1 0.61858-0.93690 0.67464-0.29516 0.40275 0.18730
   4   6  -826839.05 1955.31   1 0.71843-0.40021 0.63181-0.25268 0.29095-0.88089
   4   6  -756578.37 3081.97   1 0.97110-0.64742-0.23107 0.61031-0.05972-0.45646
   4  -6  -759866.43 3142.35   1 0.82512-0.50162-0.44642 0.06731 0.34623-0.86245
  -4   6   752435.92 2922.70   1 0.62555-0.94967 0.67012-0.29064 0.39952 0.11677
   4   6  -757518.28 3057.81   1 0.77296-0.44903 0.51795-0.13893 0.36638-0.88264
   4  -6  -6 1373.94  404.81   1 0.73382-0.40433-0.49569 0.11645 0.46453-0.90716
  -4  -6   6  538.09  161.74   1-0.77542 0.44629 0.51271-0.89184 0.36857 0.07374
  -4   6   6  468.86  443.29   1 0.62602-0.95594 0.66981-0.29034 0.39930 0.04323
   4   6  -6  217.42  265.53   1 0.81123-0.48142 0.39197-0.01295 0.43388-0.87639
   4   6  -516315.65 2319.33   1 0.95623-0.62097-0.28991 0.66912 0.03951-0.40824
   4  -6  -514684.87 1536.28   1 0.61620-0.28083-0.53475 0.15551 0.57821-0.94707
  -4   6   514571.44 1627.39   1 0.61925-0.95498 0.67420-0.29473 0.40244-0.03365
  -4   6   514256.32 1538.61   1 0.44289-0.77860 0.89646-0.51745 0.01372 0.35498
   4   6  -514101.48 1479.08   1 0.83143-0.49573 0.25934 0.11973 0.49137-0.86018
   4   6  -438599.64 2058.80   1 0.94318-0.60202-0.31933 0.69854 0.09180-0.38679
   4  -6  -441953.51 1635.79   1 0.47517-0.13356-0.55886 0.17951 0.67962-0.97464
  -4  -6   441167.38 1623.08   1-0.76601 0.42509 0.52251-0.90164 0.37442-0.07954
  -4   6   443749.43 1888.11   1 0.60427-0.94578 0.68357-0.30403 0.40935-0.11427
  -4   6   440264.00 1523.76   1 0.50546-0.84700 0.86009-0.48108 0.06881 0.22615
   4   6  -439337.41 1603.31   1 0.83416-0.49267 0.12497 0.25414 0.53717-0.83227
   4  -6  -436833.58 1369.10   1 0.75628-0.41462-0.24815-0.13110 0.60535-0.90049
   4   6  -340920.28 2645.24   1 0.92567-0.57861-0.34889 0.72810 0.14627-0.36751
   4  -6  -331931.14 1197.40   1 0.31759 0.02976-0.56605 0.18669 0.76073-0.98196
  -4  -6   329690.15 1152.22   1-0.77608 0.42926 0.51200-0.89113 0.36815-0.14699
  -4   6   340550.88 1658.15   1 0.57935-0.92669 0.69847-0.31893 0.42010-0.19879
  -4   6   337511.66 1331.40   1 0.52761-0.87498 0.84479-0.46578 0.08911 0.13211
   4   6  -335232.38 1373.13   1 0.82113-0.47372-0.00593 0.38505 0.57070-0.79203
   4   6  -2 1541.23  241.87   1 0.90282-0.54995-0.37844 0.75755 0.20415-0.35165
   4  -6  -2 1305.72  445.36   1 0.15471 0.19847-0.55617 0.17681 0.81653-0.96402
  -4  -6   2 1126.75  233.99   1-0.79257 0.43985 0.49404-0.87317 0.35740-0.20996
  -4   6   2 2048.55  438.06   1 0.54261-0.89579 0.71867-0.33913 0.43482-0.28728
  -4   6   2 1948.23  276.32   1 0.53149-0.88468 0.84197-0.46296 0.09270 0.05477
   4   6  -148866.88 1766.70   1 0.87345-0.51470-0.40855 0.78766 0.26486-0.33861
   4  -6  -148698.75 1812.71   1-0.00097 0.35987-0.53210 0.15284 0.84667-0.92039
  -4  -6   143338.46 2003.16   1-0.81383 0.45541 0.47006-0.84901 0.34162-0.26791
  -4   6   154421.92 2053.11   1 0.49153-0.85055 0.74360-0.36406 0.45326-0.37949
  -4   6   150018.30 1801.47   1 0.52467-0.88369 0.84690-0.46789 0.08639-0.01264
   4   6  -151258.78 1976.69   1 0.76077-0.40148-0.23610 0.61536 0.60455-0.67833
   4   6   062716.92 2170.12   1 0.83581-0.47119-0.43897 0.81808 0.32971-0.32971
   4  -6   058542.19 2101.42   1-0.13954 0.50431-0.49925 0.11998 0.85514-0.85514
  -4  -6   058697.97 2136.17   1-0.83735 0.47306 0.44041-0.81935 0.32382-0.32382
  -4   6   062823.33 2255.65   1 0.42305-0.78791 0.77182-0.39228 0.47466-0.47466
  -4   6   062202.77 2210.87   1 0.51063-0.87547 0.85665-0.47763 0.07350-0.07350
   4   6   063423.33 2282.16   1 0.72207-0.35690-0.32981 0.70907 0.60813-0.60813
   4   6   120340.71  788.64   1 0.78756-0.41694-0.46942 0.84866 0.39922-0.32545
   4  -6   122264.73  992.18   1-0.25595 0.62657-0.46300 0.08373 0.84859-0.77485
  -4  -6  -124990.07 1806.05   1-0.86223 0.49206 0.40589-0.78483 0.30299-0.37669
  -4   6  -122792.04  982.09   1 0.33349-0.70427 0.80059-0.42106 0.49782-0.57158
  -4   6  -122984.51 1019.11   1 0.49121-0.86188 0.86923-0.49022 0.05599-0.12973
   4   6   122027.90  991.86   1 0.68238-0.31177-0.40721 0.78635 0.60707-0.53333
   4   6   214875.30  595.43   1 0.72534-0.34885-0.49926 0.87851 0.47392-0.32637
  -4  -6  -215011.26  594.21   1-0.28228-0.09418-0.45365 0.07438 0.84528-0.99277
   4  -6   217978.57  910.38   1-0.34938 0.72585-0.42779 0.04852 0.83361-0.68613
  -4  -6  -219212.47 2281.86   1-0.88725 0.51121 0.36704-0.74598 0.27940-0.42681
  -4   6  -214305.19  695.74   1 0.22016-0.59680 0.82567-0.44614 0.51940-0.66691
  -4   6  -216497.64  873.13   1 0.46753-0.84403 0.88327-0.50426 0.03505-0.18253
   4   6   217123.74  921.94   1 0.64556-0.26913-0.46996 0.84910 0.60197-0.45451
   4   6   326280.88 1018.83   1 0.64602-0.26364-0.52676 0.90601 0.55242-0.33110
   4  -6   322443.36 1078.16   1-0.42178 0.80409-0.39635 0.01707 0.81547-0.59425
  -4  -6  -321944.99  856.93   1-0.56315 0.18084-0.32286-0.05641 0.76066-0.98189
  -4  -6  -321208.14 2238.11   1-0.91140 0.52950 0.32431-0.70325 0.25329-0.47440
  -4   6  -327320.37 1132.33   1 0.07996-0.46247 0.84040-0.46104 0.53603-0.75733
  -4   6  -323977.66 1615.46   1 0.44057-0.82288 0.89765-0.51868 0.01078-0.23201
   4   6   327124.54 1267.98   1 0.61325-0.23100-0.51892 0.89806 0.59551-0.37431
  -4  -6  -427090.69 1531.51   1-0.93380 0.54605 0.27831-0.65716 0.22482-0.51957
  -4   6  -421347.06 1168.71   1-0.08605-0.30233 0.83630-0.45695 0.54146-0.83653
  -4   6  -422794.92 2542.65   1 0.41031-0.79845 0.91182-0.53286-0.01473-0.28023
   4   6   423136.65 1497.59   1 0.58662-0.19856-0.55577 0.93491 0.58904-0.29411
   4   6   544837.27 2417.62   1 0.43640-0.04270-0.56242 0.94177 0.70230-0.33352
   4  -6   544540.57 2615.77   1-0.51606 0.91006-0.34932-0.02994 0.78208-0.41337
  -4  -6  -544592.68 2561.84   1-0.95383 0.56018 0.22900-0.60784 0.19433-0.56277
  -4   6  -547092.27 2578.34   1-0.27532-0.11880 0.80243-0.42315 0.52943-0.89823
  -4   6  -545772.44 2701.69   1 0.37729-0.77126 0.92514-0.54618-0.04187-0.32684
   4   6   547821.08 2780.40   1 0.56621-0.17232-0.58219 0.96133 0.58348-0.21481
   4  -6   626516.12 1704.35   1-0.54395 0.94380-0.33391-0.04535 0.76981-0.32736
  -4  -6  -627056.88 2446.36   1-0.97083 0.57128 0.17685-0.55569 0.16188-0.60401
  -4   6  -632263.98 1731.55   1-0.47887 0.07886 0.72712-0.34790 0.49190-0.93420
  -4   6  -633122.69 3179.05   1 0.34176-0.74157 0.93715-0.55818-0.07031-0.37214
   4   6   634110.92 2055.10   1 0.55189-0.15198-0.59977 0.97885 0.57938-0.13690
   4  -6   7 3556.90  660.86   1-0.56222 0.96792-0.32340-0.05586 0.76112-0.24493
  -4  -6  -7 2118.11  794.76   1-0.98427 0.57883 0.12210-0.50095 0.12760-0.64342
  -4   6  -7 3302.56  717.14   1 0.30388-0.70953 0.94746-0.56850-0.09982-0.41638
   4   6   7 3444.80  751.17   1 0.54377-0.13802-0.60948 0.98856 0.57691-0.06069
   4  -6   8 4109.14  936.64   1-0.57261 0.98417-0.31727-0.06199 0.75593-0.16600
  -4  -6  -8 2265.97  567.75   1-0.99369 0.58170 0.06144-0.44069 0.09375-0.68367
  -4   6  -8 1930.42  541.37   1 0.26376-0.67524 0.95575-0.57679-0.13021-0.45972
   4   6   8 2595.52  690.47   1 0.54133-0.12973-0.61237 0.99145 0.57615 0.01380
   4  -6   9 8594.47 1251.21   1-0.57643 0.99383-0.31500-0.06427 0.75398-0.09031
  -4  -6  -9 5555.61 1696.15   1-0.99842 0.58051 0.00155-0.38080 0.05606-0.71971
  -4   6  -9 6735.27 1291.11   1 0.22186-0.63935 0.96155-0.58245-0.16184-0.50196
   4   6   9 5783.43  933.01   1 0.54413-0.12669-0.60906 0.98814 0.57702 0.08668
   4   7 -10 1882.38  798.96   1 0.96451-0.65861-0.11855 0.56099-0.23590-0.50150
  -4   7  10 2817.57  952.19   1 0.60660-0.91331 0.68221-0.23949 0.40818 0.32938
   4   7  -9 9713.45 1854.66   1 0.96998-0.65816-0.14620 0.58865-0.19429-0.46937
  -4   7   912161.70 1666.26   1 0.62471-0.93722 0.67067-0.22795 0.39991 0.26389
   4   7  -911550.57 1420.61   1 0.66896-0.35657 0.70595-0.26363 0.23261-0.89630
   4   7  -8 5184.52 1367.74   1 0.97299-0.65524-0.17336 0.61581-0.15239-0.43752
   4  -7  -8 7334.57 1589.35   1 0.89268-0.57506-0.38967-0.05262 0.22644-0.81641
  -4   7   8 3375.06  880.01   1 0.63736-0.95568 0.66226-0.21954 0.39392 0.19613
   4   7  -8 5315.70 1194.59   1 0.72993-0.41171 0.61141-0.16909 0.30554-0.89548
   4   7  -722125.18 3143.19   1 0.97357-0.64989-0.20005 0.64249-0.11018-0.40600
   4  -7  -718717.49 1538.80   1 0.82231-0.49881-0.44830 0.00601 0.35046-0.86668
  -4   7   721808.65 1978.76   1 0.64441-0.96853 0.65745-0.21473 0.39049 0.12580
   4   7  -721566.94 1795.02   1 0.77711-0.45317 0.50707-0.06488 0.37279-0.88905
   4   7  -626659.26 2431.75   1 0.97171-0.64210-0.22628 0.66873-0.06761-0.37482
   4  -7  -624447.35 1360.11   1 0.72535-0.39586-0.49926 0.05681 0.47391-0.91654
  -4  -7   621970.52 1733.10   1-0.88133 0.55226 0.37665-0.81875 0.28525 0.15696
  -4   7   626782.07 1675.59   1 0.64549-0.97542 0.65670-0.21398 0.38996 0.05257
   4   7  -626189.97 1506.96   1 0.81077-0.48096 0.39400 0.04818 0.43290-0.87541
   4   7  -546151.84 3598.46   1 0.96736-0.63210-0.25214 0.69455-0.02515-0.34357
   4  -7  -539479.35 2428.89   1 0.60179-0.26598-0.53774 0.09516 0.59048-0.95926
  -4  -7   537186.04 2321.88   1-0.86331 0.52837 0.40430-0.84640 0.30203 0.06648
  -4   7   545801.71 2952.24   1 0.63998-0.97570 0.66048-0.21776 0.39265-0.02386
  -4   7   541056.08 2480.52   1 0.54981-0.88552 0.82802-0.38584 0.10991 0.25879
   4   7  -544414.46 2756.30   1 0.82982-0.49412 0.27657 0.16567 0.48465-0.85345
   4   7  -4 7679.30 1342.95   1 0.96053-0.61937-0.27756 0.71997 0.01808-0.31306
   4  -7  -4 7221.71  833.72   1 0.45543-0.11382-0.56082 0.11825 0.69141-0.98643
  -4  -7   4 5433.75  843.59   1-0.85602 0.51520 0.41485-0.85695 0.30841-0.01360
  -4   7   4 8147.63 1031.32   1 0.62692-0.96845 0.66922-0.22650 0.39887-0.10384
  -4   7   4 7134.39  778.72   1 0.57607-0.91760 0.80614-0.36396 0.13518 0.15978
   4   7  -4 8346.99  984.99   1 0.83511-0.49351 0.15793 0.28431 0.52691-0.82195
   4   7  -319770.52 2249.52   1 0.95111-0.60405-0.30257 0.74498 0.06179-0.28303
   4  -7  -334262.05 1797.42   1 0.29560 0.05175-0.56569 0.12310 0.76980-0.99104
  -4  -7   331383.24 1758.49   1-0.85692 0.51024 0.41356-0.85566 0.30763-0.08652
  -4   7   323818.41 1292.29   1 0.58312-0.93048 0.79985-0.35767 0.14211 0.07911
   4   7  -324273.04 1357.33   1 0.82775-0.48034 0.04276 0.39954 0.55946-0.78078
   4   7  -212102.51 1372.41   1 0.93898-0.58602-0.32718 0.76959 0.10607-0.25356
   4  -7  -218357.55  879.03   1 0.13384 0.21926-0.55372 0.11126 0.82186-0.96930
  -4  -7   220298.73 1423.51   1-0.86399 0.51144 0.40330-0.84540 0.30142-0.15402
  -4   7   211173.49  893.73   1 0.57240-0.92558 0.70244-0.25964 0.42298-0.27544
  -4   7   211004.10  606.82   1 0.57928-0.93247 0.80330-0.36111 0.13833 0.00914
   4   7  -210127.98  735.19   1 0.81010-0.45678-0.06590 0.50821 0.58256-0.73011
   4   7  -110269.14 1008.49   1 0.92396-0.56510-0.35141 0.79381 0.15100-0.22475
   4  -7  -113960.13  776.20   1-0.01773 0.37663-0.52869 0.08623 0.84862-0.92234
  -4  -7   113620.26 1134.21   1-0.87553 0.51711 0.38582-0.82792 0.29082-0.21712
  -4   7   1 8657.81  630.20   1 0.52679-0.88581 0.72677-0.28397 0.44077-0.36700
  -4   7   1 9772.76  576.10   1 0.56812-0.92714 0.81300-0.37082 0.12746-0.05372
   4   7  -1 8432.83  718.32   1 0.78466-0.42537-0.16421 0.60667 0.59777-0.67156
   4   7   053380.61 2261.73   1 0.90563-0.54101-0.37515 0.81744 0.19770-0.19770
   4  -7   050967.55 1992.82   1-0.15097 0.51574-0.49605 0.05356 0.85506-0.85506
  -4  -7   050936.70 2163.78   1-0.89009 0.52580 0.36230-0.80440 0.27651-0.27651
  -4   7   059364.21 2302.31   1 0.46527-0.83013 0.75509-0.31229 0.46189-0.46189
  -4   7   060876.64 2327.32   1 0.55152-0.91636 0.82666-0.38448 0.11153-0.11153
   4   7   062125.26 2421.85   1 0.75510-0.38993-0.25126 0.69373 0.60554-0.60554
   4   7   1112817.8 4026.96   1 0.88384-0.51334-0.39869 0.84099 0.24465-0.17090
   4  -7   1112368.9 4127.59   1-0.26212 0.63275-0.46085 0.01836 0.84788-0.77413
  -4  -7  -1108156.5 4008.29   1-0.90643 0.53627 0.33361-0.77571 0.25899-0.33269
  -4   7  -1118215.5 4322.19   1 0.38441-0.75510 0.78536-0.34256 0.48520-0.55897
  -4   7  -1114631.1 4216.46   1 0.53054-0.90122 0.84266-0.40048 0.09183-0.16557
   4   7   1118246.5 4346.87   1 0.72401-0.35296-0.32558 0.76805 0.60811-0.53432
   4   7   264808.28 3238.43   1 0.85801-0.48163-0.42192 0.86422 0.29288-0.14539
   4  -7   257628.58 3010.43   1-0.35120 0.72767-0.42705-0.01543 0.83323-0.68574
  -4  -7  -261711.66 3228.72   1-0.92349 0.54745 0.30038-0.74248 0.23860-0.38601
  -4   7  -268725.59 3532.20   1 0.28006-0.65670 0.81394-0.37115 0.50897-0.65648
  -4   7  -265904.69 3428.55   1 0.50590-0.88239 0.85981-0.41762 0.06921-0.21669
   4   7   269404.40 3619.19   1 0.69332-0.31689-0.38681 0.82913 0.60801-0.46054
   4   7   318624.97 1861.34   1 0.82739-0.44514-0.44487 0.88717 0.34277-0.12153
   4  -7   323017.51 1397.74   1-0.42037 0.80268-0.39700-0.04548 0.81588-0.59466
  -4  -7  -322791.10 1932.02   1-0.94031 0.55846 0.26332-0.70531 0.21557-0.43664
  -4   7  -320792.38 1758.25   1 0.14943-0.53192 0.83534-0.39255 0.52903-0.75030
  -4   7  -318193.30 1967.72   1 0.47804-0.86037 0.87721-0.43503 0.04429-0.26551
   4   7   322194.12 1416.96   1 0.66586-0.28362-0.43639 0.87872 0.60512-0.38392
   4   7   4 4527.82  399.51   1 0.79128-0.40303-0.46734 0.90979 0.39428-0.09919
   4  -7   415512.01 1504.59   1-0.47268 0.86084-0.37189-0.07059 0.79891-0.50395
  -4  -7  -411558.35 1770.22   1-0.95616 0.56841 0.22254-0.66453 0.19032-0.48508
  -4   7  -4 5949.27  591.35   1-0.01094-0.37743 0.84104-0.39846 0.54085-0.83592
  -4   7  -4 6239.00  977.49   1 0.44764-0.83578 0.89405-0.45192 0.01683-0.31180
   4   7   4 4736.22  611.91   1 0.64244-0.25437-0.47492 0.91725 0.60142-0.30649
   4  -7   527262.88 1620.62   1-0.51110 0.90511-0.35199-0.09049 0.78413-0.41543
  -4  -7  -527126.40 1597.47   1-0.97034 0.57669 0.17854-0.62052 0.16293-0.53138
  -4   7  -523370.51 1300.69   1-0.20013-0.19398 0.81961-0.37712 0.53681-0.90561
  -4   7  -522478.46 2342.07   1 0.41432-0.80830 0.91005-0.46793-0.01138-0.35733
   4   7   526616.57 1621.79   1 0.62377-0.22988-0.50353 0.94586 0.59779-0.22913
  -4  -7  -6  413.47  240.81   1-0.98226 0.58271 0.13161-0.57359 0.13356-0.57570
  -4   7  -6  750.30  236.83   1 0.37855-0.77836 0.92467-0.48255-0.04084-0.40161
   4   7   6  832.92  488.01   1 0.61019-0.21048-0.52331 0.96564 0.59481-0.15241
   4  -7   7 8876.88  870.62   1-0.55616 0.96187-0.32692-0.11555 0.76406-0.24787
  -4  -7  -7 8810.43 1658.63   1-0.99135 0.58529 0.07898-0.52144 0.10473-0.62091
   4   7   7 8814.08  998.18   1 0.60173-0.19620-0.53523 0.97755 0.59283-0.07669
   4  -7   812100.62 1445.81   1-0.56651 0.97807-0.32088-0.12159 0.75900-0.16906
  -4  -7  -8 7705.42 1556.98   1-0.99707 0.58508 0.02644-0.46889 0.07176-0.66167
  -4   7  -8 6662.78 1511.65   1 0.30009-0.71157 0.94836-0.50623-0.10272-0.48721
   4   7   8 6497.17  864.95   1 0.59824-0.18689-0.54004 0.98237 0.59198-0.00211
   4  -7   9 1836.27  593.60   1-0.57048 0.98788-0.31854-0.12394 0.75701-0.09334
  -4  -7  -9 1652.13  570.54   1-0.99890 0.58099-0.02842-0.41402 0.03708-0.70073
  -4   7  -9 1406.22  665.13   1 0.25754-0.67485 0.95681-0.51468-0.13485-0.52883
   4   7   9 1265.63  513.38   1 0.59950-0.18233-0.53831 0.98064 0.59229 0.07130
   4   8  -9 8207.75 2116.68   1 0.96463-0.65280-0.11904 0.62469-0.23518-0.42848
  -4   8   911169.85 1180.66   1 0.63759-0.95011 0.66210-0.15614 0.39380 0.27000
   4   8  -911823.32 1109.52   1 0.68197-0.36957 0.68827-0.18276 0.24736-0.91104
   4   8  -8 2722.00  603.71   1 0.96958-0.65183-0.14367 0.64932-0.19814-0.39177
  -4   8   8 1578.65  604.77   1 0.64981-0.96813 0.65370-0.14773 0.38783 0.20222
   4   8  -8 2003.58  491.93   1 0.73615-0.41793 0.59976-0.09425 0.31363-0.90357
   4   8  -7 4114.90 1397.47   1 0.97255-0.64887-0.16752 0.67317-0.16149-0.35468
  -4   8   7 6991.58 1686.15   1 0.65679-0.98091 0.64877-0.14280 0.38434 0.13196
   4   8  -7 6173.16 1382.32   1 0.77824-0.45431 0.50400 0.00135 0.37458-0.89084
   4   8  -6 1767.11  468.15   1 0.97364-0.64403-0.19053 0.69618-0.12536-0.31708
   4  -8  -6 3171.22  451.73   1 0.72272-0.39323-0.50034-0.00531 0.47678-0.91942
  -4   8   6 1830.98  786.87   1 0.65821-0.98814 0.64775-0.14178 0.38362 0.05892
   4   8  -6 1089.17  330.51   1 0.80895-0.47914 0.40182 0.10353 0.42909-0.87160
   4   8  -516594.82 1617.15   1 0.97298-0.63745-0.21262 0.71828-0.08991-0.27879
   4  -8  -511612.74 1379.50   1 0.59400-0.25819-0.53951 0.03371 0.59672-0.96550
  -4  -8   5 8516.38 1821.65   1-0.93032 0.59567 0.28600-0.79112 0.22955 0.13888
  -4   8   516184.85 1199.60   1 0.65353-0.98926 0.65108-0.14511 0.38597-0.01719
  -4   8   515316.98  888.83   1 0.60302-0.93873 0.78110-0.27575 0.16197 0.20674
   4   8  -513860.60 1701.06   1 0.82755-0.49185 0.29679 0.20863 0.47650-0.84530
   4   8  -469720.00 4535.92   1 0.97073-0.62927-0.23369 0.73934-0.05540-0.23955
   4  -8  -466474.47 4012.43   1 0.44372-0.10212-0.56184 0.05604 0.69816-0.99319
  -4  -8   464840.30 3939.21   1-0.91935 0.57854 0.30879-0.81405 0.24377 0.05104
  -4   8   478090.29 4879.66   1 0.64192-0.98345 0.65916-0.15319 0.39171-0.09668
  -4   8   474867.74 4510.54   1 0.61611-0.95763 0.76774-0.26223 0.17595 0.11901
   4   8  -477053.96 4706.91   1 0.83497-0.49337 0.19115 0.31427 0.51601-0.81105
   4   8  -339971.43 2269.87   1 0.96706-0.62000-0.25350 0.75910-0.02287-0.19836
   4  -8  -350900.13 2805.36   1 0.28271 0.06464-0.56533 0.05952 0.77489-0.99613
  -4  -8   347879.21 3589.30   1-0.91525 0.56856 0.31691-0.82217 0.24875-0.02764
  -4   8   340699.80 2404.22   1 0.62220-0.96953 0.67230-0.16634 0.40108-0.17981
  -4   8   343324.54 2443.57   1 0.61683-0.96417 0.76700-0.26149 0.17669 0.04453
   4   8  -340423.82 2310.44   1 0.83206-0.48465 0.08849 0.41700 0.54758-0.76890
   4   8  -211162.10 1549.27   1 0.96230-0.60934-0.27185 0.77745 0.00825-0.15575
   4  -8  -217508.05 1833.75   1 0.12269 0.23040-0.55233 0.04666 0.82454-0.97197
  -4  -8   215688.77 2324.87   1-0.91648 0.56392 0.31450-0.81976 0.24727-0.09987
  -4   8   212119.70 1358.75   1 0.59271-0.94589 0.69061-0.18455 0.41442-0.26688
  -4   8   212509.05 1317.43   1 0.60967-0.96286 0.77448-0.26913 0.16873-0.02124
   4   8  -213553.47 1471.01   1 0.82063-0.46731-0.00905 0.51454 0.57137-0.71893
   4   8  -127562.21 1477.28   1 0.95685-0.59799-0.28826 0.79386 0.03662-0.11036
   4  -8  -135063.33 1880.59   1-0.02503 0.38393-0.52716 0.02149 0.84939-0.92310
  -4  -8   138217.78 3386.94   1-0.92178 0.56336 0.30388-0.80914 0.24075-0.16705
  -4   8   131409.68 1798.91   1 0.55137-0.91039 0.71403-0.20798 0.43142-0.35765
  -4   8   130825.87 1688.31   1 0.59698-0.95600 0.78695-0.28160 0.15589-0.08215
   4   8  -131800.83 1787.96   1 0.80269-0.44345-0.09883 0.60433 0.58814-0.66191
   4  -8   014519.68 1550.13   1-0.15370 0.51847-0.49527-0.01041 0.85502-0.85502
  -4  -8   015397.90 2588.66   1-0.93002 0.56587 0.28664-0.79177 0.22995-0.22995
  -4   8   010335.90 1190.17   1 0.49549-0.86034 0.74179-0.23574 0.45191-0.45191
  -4   8   011023.22 1217.82   1 0.57971-0.94456 0.80291-0.29756 0.13876-0.13876
   4   8   110018.40 1271.98   1 0.94703-0.57636-0.31157 0.81717 0.07782-0.00408
   4  -8   1 9311.02 1109.65   1-0.26062 0.63124-0.46138-0.04431 0.84805-0.77431
  -4  -8  -1 8297.02 1527.33   1-0.94012 0.57007 0.26376-0.76888 0.21584-0.28952
  -4   8  -1 9788.47 1071.40   1 0.42170-0.79239 0.77233-0.26627 0.47505-0.54882
  -4   8  -110101.89 1189.59   1 0.55858-0.92925 0.82097-0.31562 0.11827-0.19201
   4   8   111054.28 1255.26   1 0.75606-0.38501-0.24875 0.75442 0.60538-0.53160
   4   8   218554.65 1529.29   1 0.94592-0.56936-0.31385 0.81946 0.08192 0.06556
   4  -8   223802.76 1498.14   1-0.34635 0.72282-0.42902-0.07666 0.83424-0.68676
  -4  -8  -224276.32 2434.17   1-0.95121 0.57526 0.23602-0.74115 0.19868-0.34606
  -4   8  -221968.06 1881.41   1 0.32569-0.70233 0.80271-0.29667 0.49956-0.64707
  -4   8  -220995.36 1853.52   1 0.53405-0.91055 0.84008-0.33473 0.09509-0.24257
   4   8   222753.00 1637.18   1 0.73185-0.35493-0.30805 0.81373 0.60785-0.46028
   4  -8   331540.65 2098.27   1-0.41317 0.79548-0.40028-0.10541 0.81795-0.59673
  -4  -8  -330521.58 3269.63   1-0.96248 0.58063 0.20405-0.70918 0.17883-0.39990
  -4   8  -325769.30 1670.19   1 0.20393-0.58643 0.82829-0.32225 0.52186-0.74313
  -4   8  -325500.03 1733.91   1 0.50647-0.88880 0.85942-0.35407 0.06973-0.29095
   4   8   325925.30 1822.62   1 0.70921-0.32642-0.35685 0.86252 0.60800-0.38664
   4  -8   4  716.47  479.22   1-0.46399 0.85215-0.37621-0.12948 0.80197-0.50701
  -4  -8  -4  757.23  500.05   1-0.97321 0.58546 0.16833-0.67345 0.15655-0.45131
  -4   8  -4  728.50  356.01   1 0.05132-0.43970 0.84135-0.33555 0.53803-0.83310
  -4   8  -4  406.17  374.15   1 0.47609-0.86425 0.87836-0.37301 0.04257-0.33753
   4   8   4  785.32  470.59   1 0.68872-0.30066-0.39548 0.90100 0.60765-0.31271
   4  -8   527073.40 1607.05   1-0.50159 0.89560-0.35703-0.14866 0.78798-0.41928
  -4  -8  -523708.64 2594.82   1-0.98277 0.58913 0.12922-0.63435 0.13207-0.50052
  -4   8  -528078.07 1398.86   1-0.13364-0.26060 0.83081-0.32501 0.54026-0.90909
  -4   8  -531487.20 3004.03   1 0.44345-0.83743 0.89619-0.39091 0.01324-0.38195
   4   8   528383.05 1669.09   1 0.67235-0.27846-0.42515 0.93067 0.60596-0.23729
   4  -8   649173.4910339.41   1-0.52836 0.92822-0.34261-0.16308 0.77681-0.33436
  -4  -8  -645204.54 3285.25   1-0.99059 0.59104 0.08707-0.59219 0.10555-0.54769
  -4   8  -642670.60 3091.15   1 0.40802-0.80783 0.91282-0.40753-0.01664-0.42581
   4   8   647841.8810042.45   1 0.66000-0.26029-0.44634 0.95185 0.60429-0.16189
  -4  -8  -714405.91 2814.15   1-0.99604 0.58998 0.03913-0.54479 0.07974-0.59592
  -4   8  -715176.69 2572.75   1 0.37021-0.77585 0.92772-0.42244-0.04760-0.46860
   4   8   717781.00 1465.99   1 0.65189-0.24636-0.45975 0.96527 0.60304-0.08690
   4  -8   8 6727.60  992.76   1-0.55679 0.96834-0.32656-0.17913 0.76376-0.17382
  -4  -8  -8 3644.82 1120.22   1-0.99873 0.58674-0.00880-0.49685 0.04951-0.63942
  -4   8  -8 3479.75 1176.48   1 0.33009-0.74157 0.94059-0.43530-0.07948-0.51045
   4   8   8 5165.07 1450.99   1 0.64804-0.23669-0.46598 0.97150 0.60240-0.01253
   4   9  -8 2702.64  679.43   1 0.96303-0.64528-0.11262 0.68148-0.24469-0.34523
  -4   9   8 5007.58 1255.88   1 0.65704-0.97535 0.64859-0.07938 0.38421 0.20584
   4   9  -8 4918.77  938.49   1 0.73869-0.42046 0.59485-0.02615 0.31698-0.90692
   4   9  -7 3985.69 1211.97   1 0.96778-0.64410-0.13359 0.70245-0.21339-0.30278
  -4   9   7 3371.97  933.18   1 0.66384-0.98796 0.64369-0.07448 0.38074 0.13555
   4   9  -7 2692.96  607.02   1 0.77721-0.45328 0.50678 0.06174 0.37296-0.88922
   4   9  -617571.49 2112.14   1 0.97100-0.64139-0.15331 0.72216-0.18343-0.25900
  -4   9   619078.46 1583.30   1 0.66541-0.99534 0.64254-0.07333 0.37993 0.06260
   4   9  -620262.35 1560.53   1 0.80600-0.47619 0.41390 0.15462 0.42312-0.86563
   4   9  -517990.03 1913.16   1 0.97286-0.63733-0.17156 0.74042-0.15521-0.21349
   4  -9  -518538.02 1522.42   1 0.59374-0.25792-0.53957-0.02944 0.59693-0.96571
  -4  -9   516815.71 1549.24   1-0.97168 0.63703 0.17385-0.74212 0.16001 0.20843
  -4   9   518312.35 1726.69   1 0.66126-0.99699 0.64556-0.07635 0.38207-0.01328
   4   9  -517171.34 1542.17   1 0.82455-0.48885 0.31918 0.24942 0.46714-0.83594
   4   9  -4 1727.87  381.01   1 0.97361-0.63215-0.18806 0.75692-0.12927-0.16568
   4  -9  -4 3047.36  323.52   1 0.44038-0.09878-0.56211-0.00690 0.70006-0.99508
  -4  -9   4 2153.13  644.45   1-0.96139 0.62084 0.20735-0.77561 0.18088 0.11387
  -4   9   4 3194.59  669.75   1 0.65065-0.99218 0.65311-0.08390 0.38741-0.09238
  -4   9   4 2403.87  354.48   1 0.63844-0.97996 0.74341-0.17471 0.19931 0.09565
   4   9  -4  948.01  388.69   1 0.83381-0.49221 0.22427 0.34433 0.50443-0.79947
   4   9  -311739.49 1808.08   1 0.97350-0.62611-0.20237 0.77123-0.10645-0.11477
   4  -9  -3 8140.29 1018.73   1 0.27881 0.06854-0.56520-0.00383 0.77640-0.99764
  -4  -9   3 7419.33 1463.34   1-0.95554 0.60909 0.22427-0.79254 0.19139 0.02966
  -4   9   312240.60 1561.43   1 0.63251-0.97985 0.66551-0.09630 0.39623-0.17496
  -4   9   314854.67  934.28   1 0.63661-0.98395 0.74549-0.17679 0.19737 0.02385
   4   9  -312638.21 1544.94   1 0.83450-0.48700 0.13175 0.43685 0.53501-0.75629
   4   9  -2 8577.14 1485.57   1 0.97290-0.61958-0.21381 0.78266-0.08799-0.05948
   4  -9  -2 8642.30  724.99   1 0.12063 0.23247-0.55206-0.01681 0.82502-0.97245
  -4  -9   2 8780.95 1446.92   1-0.95371 0.60136 0.22931-0.79758 0.19452-0.04714
  -4   9   210357.09  943.22   1 0.60536-0.95854 0.68290-0.11359 0.40887-0.26133
  -4   9   2 8327.76  655.35   1 0.62855-0.98171 0.75448-0.18578 0.18887-0.04138
   4   9  -2 9349.30  884.77   1 0.82788-0.47456 0.04395 0.52472 0.55916-0.70671
   4   9  -1 2996.69  440.96   1 0.97226-0.61302-0.22120 0.79006-0.07595 0.00221
   4  -9  -1 2870.28  499.28   1-0.02372 0.38262-0.52744-0.04143 0.84925-0.92297
  -4  -9   1 2405.09  418.76   1-0.95519 0.59694 0.22524-0.79351 0.19199-0.11830
  -4   9   1 2879.02  543.91   1 0.56731-0.92633 0.70531-0.13600 0.42507-0.35130
  -4   9   1 2811.85  447.00   1 0.61556-0.97458 0.76846-0.19994 0.17476-0.10101
   4   9  -1 3241.68  518.34   1 0.81567-0.45642-0.03778 0.60646 0.57728-0.65105
   4   9   020059.17 1358.26   1 0.97214-0.60697-0.22241 0.79127-0.07396 0.07396
   4  -9   030403.70 1976.50   1-0.14865 0.51342-0.49671-0.07219 0.85509-0.85509
  -4  -9   028100.69 2422.36   1-0.95920 0.59505 0.21385-0.78212 0.18492-0.18492
  -4   9   024348.05 1706.71   1 0.51585-0.88071 0.73217-0.16285 0.44476-0.44476
  -4   9   020642.54 1427.39   1 0.59855-0.96340 0.78545-0.21693 0.15747-0.15747
   4   9   023151.00 1634.21   1 0.79951-0.43434-0.11180 0.68048 0.59015-0.59015
   4   9   145683.39 2782.08   1 0.97297-0.60187-0.21286 0.78172-0.08953 0.16327
   4  -9   147460.52 2954.23   1-0.25229 0.62292-0.46427-0.10463 0.84899-0.77525
  -4  -9  -145549.38 3241.87   1-0.96494 0.59489 0.19640-0.76466 0.17406-0.24775
  -4   9  -149728.52 3086.91   1 0.44782-0.81851 0.76226-0.19295 0.46733-0.54110
  -4   9  -148774.45 3087.60   1 0.57795-0.94862 0.80448-0.23596 0.13703-0.21077
   4   9   139820.14 2560.70   1 0.78083-0.40979-0.17677 0.74565 0.59920-0.52541
   4  -9   220384.21 1240.06   1-0.33557 0.71204-0.43336-0.13554 0.83640-0.68892
  -4  -9  -219941.17 2696.33   1-0.97170 0.59575 0.17377-0.74203 0.15995-0.30733
  -4   9  -217952.54 1112.96   1 0.35890-0.73553 0.79324-0.22395 0.49188-0.63939
  -4   9  -219961.46 1262.16   1 0.55411-0.93061 0.82459-0.25607 0.11400-0.26149
   4   9   218189.89 1209.69   1 0.76186-0.38495-0.23310 0.80198 0.60433-0.45676
   4  -9   3  856.26  425.53   1-0.40078 0.78309-0.40585-0.16305 0.82137-0.60014
  -4  -9  -3 1726.34  653.48   1-0.97879 0.59694 0.14665-0.71491 0.14299-0.36406
  -4   9  -3 3643.72  470.60   1 0.24520-0.62770 0.82117-0.25188 0.51530-0.73657
  -4   9  -3 2439.22  493.12   1 0.52729-0.90962 0.84502-0.27650 0.08881-0.31004
   4   9   3 3448.50  724.56   1 0.74363-0.36083-0.28027 0.84916 0.60700-0.38564
   4  -9   4 9558.28 1252.61   1-0.45070 0.83886-0.38270-0.18620 0.80647-0.51150
  -4  -9  -4 8014.03 1804.71   1-0.98559 0.59784 0.11558-0.68384 0.12350-0.41825
  -4   9  -413274.33 1153.33   1 0.10059-0.48897 0.83928-0.27025 0.53431-0.82937
  -4   9  -417546.36 1612.77   1 0.49769-0.88584 0.86514-0.29662 0.06180-0.35677
   4   9   414201.90 1471.72   1 0.72721-0.33854-0.31852 0.88740 0.60803-0.31288
   4  -9   5 4637.64  975.76   1-0.48791 0.88192-0.36415-0.20475 0.79330-0.42459
  -4  -9  -5 4938.25 1119.16   1-0.99139 0.59717 0.07873-0.64760 0.10457-0.47327
  -4   9  -5 6972.92 1431.28   1 0.46545-0.85943 0.88444-0.31592 0.03323-0.40194
   4   9   5 6055.95 1313.68   1 0.71339-0.31884-0.34824 0.91713 0.60810-0.23917
   4  -9   6  504.30  434.99   1-0.51467 0.91453-0.35007-0.21883 0.78266-0.34020
  -4  -9  -6 2400.23  643.91   1-0.99591 0.59577 0.04057-0.60944 0.08065-0.52309
  -4   9  -6 1724.64  534.70   1 0.43107-0.83088 0.90231-0.33386 0.00269-0.44515
   4   9   6 1772.61  561.38   1 0.70270-0.30228-0.36993 0.93882 0.60773-0.16501
   4  -9   7 7066.23 1039.12   1-0.53278 0.93849-0.34017-0.22873 0.77486-0.25867
  -4  -9  -7 5530.69 1656.35   1-0.99849 0.59243-0.00049-0.56837 0.05476-0.57094
  -4   9  -7 7129.08 1406.50   1 0.39389-0.79954 0.91871-0.35027-0.02831-0.48789
   4   9   7 8655.69 1196.89   1 0.69472-0.28919-0.38413 0.95284 0.60811-0.09197
   4  -9   8 9497.83 1393.43   1-0.54366 0.95522-0.33407-0.23483 0.76994-0.18001
  -4  -9  -8 7924.12 1167.92   1-0.99865 0.58666-0.04426-0.52460 0.02702-0.61693
  -4   9  -8 6513.01 1397.25   1 0.35434-0.76582 0.93316-0.36472-0.06033-0.52961
   4   9   8 8726.29 1258.43   1 0.69099-0.27964-0.39122 0.95993 0.60783-0.01797
   4  10  -8 3923.31  837.78   1 0.95285-0.63523-0.08059 0.71263-0.29251-0.29770
  -4  10   8 7408.25 1118.83   1 0.65986-0.97818 0.64657-0.01411 0.38278 0.20727
   4  10  -8 6352.87  898.95   1 0.73848-0.42026 0.59525 0.03663 0.31671-0.90666
   4  10  -7 9932.48 1868.65   1 0.95880-0.63526-0.09864 0.73068-0.26637-0.25006
  -4  10   713639.25 1397.46   1 0.66642-0.99054 0.64181-0.00935 0.37941 0.13688
   4  10  -712818.22 1247.77   1 0.77447-0.45054 0.51404 0.11766 0.36870-0.88496
   4  10  -6 6393.97 1752.39   1 0.96357-0.63397-0.11474 0.74680-0.24155-0.20088
  -4  10   610592.17 1442.24   1 0.66799-0.99792 0.64065-0.00820 0.37860 0.06394
   4  10  -6 9359.95 1072.26   1 0.80202-0.47221 0.42918 0.20251 0.41539-0.85790
   4  10  -512874.06 1583.99   1 0.96687-0.63134-0.12908 0.76114-0.22018-0.14851
  -4  10   514267.53 1332.71   1 0.66414-0.99986 0.64347-0.01102 0.38059-0.01180
   4  10  -514097.18 1191.53   1 0.82075-0.48505 0.34320 0.28858 0.45669-0.82549
   4  10  -421796.18 2400.59   1 0.96912-0.62766-0.14089 0.77296-0.20236-0.09259
   4 -10  -428509.64 2031.56   1 0.44570-0.10410-0.56168-0.07056 0.69703-0.99206
  -4 -10   423650.72 2599.25   1-0.98623 0.64567 0.11227-0.74367 0.12142 0.17333
  -4  10   420995.87 1784.52   1 0.65418-0.99571 0.65062-0.01816 0.38565-0.09062
  -4  10   422188.76 1663.24   1 0.65023-0.99175 0.72956-0.09767 0.21197 0.08299
   4  10  -423918.60 1812.30   1 0.83160-0.49000 0.25732 0.37446 0.49215-0.78719
   4  10  -3 7436.98 1617.73   1 0.97046-0.62308-0.14944 0.78150-0.18935-0.03186
   4 -10  -3 8998.44 1105.19   1 0.28375 0.06360-0.56536-0.06689 0.77449-0.99573
  -4 -10   3 6834.69 1495.18   1-0.98110 0.63465 0.13678-0.76818 0.13681 0.08425
  -4  10   311284.52 2193.46   1 0.63717-0.98451 0.66238-0.02993 0.39400-0.17273
  -4  10   3 8867.90 1108.17   1 0.64747-0.99481 0.73287-0.10098 0.20898 0.01223
   4  10  -3 8085.41 1098.47   1 0.83517-0.48767 0.17361 0.45817 0.52185-0.74313
   4  10  -2 8808.57 1458.58   1 0.97103-0.61771-0.15352 0.78559-0.18310 0.03562
   4 -10  -2 8653.61  605.79   1 0.12716 0.22594-0.55290-0.07918 0.82348-0.97091
  -4 -10   2 8257.34 1287.79   1-0.97837 0.62602 0.14839-0.77979 0.14408 0.00329
  -4  10   211039.53  829.38   1 0.61179-0.96493 0.67896-0.04650 0.40584-0.25833
  -4  10   211338.58  799.25   1 0.63930-0.99247 0.74242-0.11053 0.20023-0.05274
   4  10  -2 8511.24  734.04   1 0.83245-0.47912 0.09397 0.53789 0.54606-0.69361
   4  10  -119513.91 1469.35   1 0.97070-0.61146-0.15108 0.78314-0.18684 0.11310
   4 -10  -122408.56 1245.72   1-0.01446 0.37336-0.52937-0.10271 0.84826-0.92198
  -4 -10   121891.48 2202.67   1-0.97793 0.61968 0.15017-0.78158 0.14520-0.07151
  -4  10   121650.08 1345.31   1 0.57614-0.93516 0.70031-0.06774 0.42143-0.34767
  -4  10   121736.21 1260.52   1 0.62673-0.98572 0.75646-0.12458 0.18697-0.11323
   4  10  -122249.54 1340.70   1 0.82483-0.46558 0.01938 0.61248 0.56504-0.63881
   4  10   031845.94 1816.97   1 0.96862-0.60346-0.13809 0.77016-0.20660 0.20660
   4 -10   034456.22 1773.55   1-0.13652 0.50129-0.50009-0.13202 0.85514-0.85514
  -4 -10   034791.35 1860.92   1-0.97939 0.61524 0.14413-0.77554 0.14142-0.14142
  -4  10   033826.94 1799.67   1 0.52811-0.89296 0.72611-0.09354 0.44029-0.44029
  -4  10   037118.62 1933.82   1 0.61039-0.97524 0.77375-0.14206 0.16946-0.16946
   4  10   038019.05 2041.63   1 0.81358-0.44842-0.04873 0.68059 0.57939-0.57939
   4 -10   110744.39  815.40   1-0.23777 0.60839-0.46920-0.16291 0.85047-0.77673
  -4 -10  -112256.40 1358.81   1-0.98225 0.61220 0.13164-0.76304 0.13358-0.20727
  -4  10  -112871.18  912.07   1 0.46462-0.83531 0.75536-0.12280 0.46210-0.53587
  -4  10  -111670.26  830.69   1 0.59064-0.96131 0.79295-0.16126 0.14955-0.22330
   4  10   110046.25  773.64   1 0.80008-0.42899-0.10952 0.74139 0.58980-0.51603
   4 -10   2 8851.00 1138.86   1-0.31938 0.69585-0.43973-0.19238 0.83942-0.69193
  -4 -10  -2 8255.33 1722.88   1-0.98595 0.61000 0.11368-0.74508 0.12231-0.26968
  -4  10  -2 8532.78 1077.11   1 0.38188-0.75842 0.78619-0.15362 0.48586-0.63340
  -4  10  -2 7336.65  974.95   1 0.56775-0.94425 0.81332-0.18164 0.12709-0.27458
   4  10   2 7691.83 1113.58   1 0.78528-0.40836-0.16211 0.79421 0.59752-0.44995
   4 -10   318103.47 1429.05   1-0.38360 0.76592-0.41338-0.21873 0.82580-0.60458
  -4 -10  -319327.95 2280.32   1-0.98997 0.60812 0.09100-0.72241 0.10803-0.32910
  -4  10  -316450.95 1261.76   1 0.27470-0.65720 0.81513-0.18258 0.50999-0.73126
  -4  10  -320837.28 1717.73   1 0.54192-0.92424 0.83416-0.20247 0.10246-0.32368
   4  10   318579.02 1510.74   1 0.77099-0.38820-0.20709 0.83919 0.60222-0.38086
   4 -10   4 2484.04  758.92   1-0.43311 0.82128-0.39108-0.24104 0.81207-0.51710
  -4 -10  -4 3859.03 1100.60   1-0.99359 0.60530 0.06226-0.69434 0.09426-0.38922
  -4  10  -4 5368.15 1184.51   1 0.13819-0.52654 0.83646-0.20392 0.53030-0.82532
  -4  10  -4 5698.44 1363.24   1 0.51330-0.90145 0.85483-0.22315 0.07594-0.37091
   4  10   4 4642.84 1144.45   1 0.75782-0.36915-0.24406 0.87616 0.60509-0.30994
   4 -10   5 5497.27 1175.67   1-0.47033 0.86434-0.37306-0.25905 0.79975-0.43104
  -4 -10  -5 4264.57 1248.58   1-0.99669 0.60247 0.03142-0.66350 0.07490-0.44359
  -4  10  -5 1427.15  465.34   1 0.48202-0.87600 0.87485-0.24316 0.04780-0.41651
   4  10   5 2752.24  682.41   1 0.74649-0.35195-0.27322 0.90531 0.60670-0.23776
   4 -10   6 5097.16  978.57   1-0.49735 0.89721-0.35926-0.27286 0.78966-0.34721
  -4 -10  -6 5181.38 1211.94   1-0.99857 0.59843-0.00273-0.62934 0.05335-0.49578
  -4  10  -6 4703.47 1474.57   1 0.44854-0.84835 0.89358-0.26198 0.01760-0.46006
   4  10   6 3356.86  765.65   1 0.73756-0.33713-0.29482 0.92691 0.60752-0.16479
   4 -10   7 3903.59 1178.26   1-0.51589 0.92159-0.34942-0.28270 0.78215-0.26595
  -4 -10  -7 3957.66 1158.70   1-0.99875 0.59269-0.03992-0.59215 0.02978-0.54595
  -4  10  -7 1800.70  729.09   1 0.41220-0.81785 0.91099-0.27938-0.01315-0.50304
   4  10   7 1189.06  611.39   1 0.73136-0.32506-0.30917 0.94126 0.60788-0.09137
   4  11  -6 4846.97 1274.73   1 0.95088-0.62143-0.07517 0.77041-0.30028-0.14238
  -4  11   6 6226.77  922.26   1 0.66661-0.99653 0.64167 0.05402 0.37932 0.06322
   4  11  -6 7155.94  820.79   1 0.79703-0.46722 0.44695 0.24791 0.40615-0.84866
   4  11  -5 4754.50 1185.66   1 0.95457-0.61922-0.08552 0.78076-0.28542-0.08346
  -4  11   5 6938.70 1175.95   1 0.66287-0.99860 0.64439 0.05130 0.38124-0.01245
   4  11  -5 7484.90 1032.25   1 0.81607-0.48037 0.36848 0.32647 0.44523-0.81403
   4  11  -4 1930.67  415.80   1 0.95690-0.61563-0.09253 0.78777-0.27527-0.01983
  -4  11   4 1765.59  550.36   1 0.65332-0.99485 0.65123 0.04446 0.38608-0.09105
   4  11  -4 1312.94  462.06   1 0.82832-0.48672 0.29032 0.40464 0.47914-0.77418
   4  11  -315684.97 1909.74   1 0.95772-0.61055-0.09513 0.79038-0.27148 0.05015
  -4 -11   314458.95 1734.76   1-0.99441 0.64758 0.05530-0.75058 0.08990 0.13131
  -4  11   318933.83 1603.65   1 0.63706-0.98439 0.66246 0.03323 0.39406-0.17279
  -4  11   318746.85 1408.07   1 0.65211-0.99945 0.72728-0.03221 0.21401 0.00720
   4  11  -318830.88 1499.52   1 0.83427-0.48677 0.21418 0.48077 0.50803-0.72931
   4  11  -240846.56 2805.35   1 0.95659-0.60351-0.09158 0.78683-0.27664 0.12909
   4 -11  -243833.69 3007.05   1 0.14194 0.21116-0.55469-0.14059 0.81985-0.96728
  -4 -11   237248.02 2679.78   1-0.99234 0.63959 0.07198-0.76726 0.10035 0.04712
  -4  11   242484.15 3001.75   1 0.61289-0.96603 0.67826 0.01743 0.40535-0.25783
  -4  11   238923.44 2713.21   1 0.64428-0.99744 0.73664-0.04157 0.20555-0.05806
   4  11  -239392.63 2823.55   1 0.83480-0.48139 0.14142 0.55354 0.53207-0.67959
   4 -11  -1 9766.46  868.27   1 0.00225 0.35664-0.53274-0.16255 0.84627-0.91999
  -4 -11   1 7765.34 2251.98   1-0.99143 0.63276 0.07845-0.77373 0.10440-0.03066
  -4  11   1 9277.45  940.43   1 0.57903-0.93805 0.69865-0.00282 0.42023-0.34646
  -4  11   1 8879.59  870.85   1 0.63235-0.99134 0.75028-0.05521 0.19286-0.11912
   4  11  -1 8322.39 1613.82   1 0.83084-0.47159 0.07340 0.62164 0.55164-0.62541
   4 -11   0  842.02  449.56   1-0.11779 0.48257-0.50514-0.19018 0.85495-0.85495
  -4 -11   0  118.14  327.84   1-0.99167 0.62707 0.07678-0.77206 0.10335-0.10335
  -4  11   0  608.04  395.27   1 0.53357-0.89842 0.72334-0.02752 0.43825-0.43825
  -4  11   0 1674.58  615.11   1 0.61687-0.98171 0.76710-0.07225 0.17610-0.17610
   4  11   0 1877.09  541.28   1 0.82363-0.45846 0.01073 0.68431 0.56702-0.56702
   4 -11   1 1435.48  432.89   1-0.21747 0.58810-0.47589-0.21944 0.85219-0.77844
  -4  11  -1  948.65  423.93   1 0.47358-0.84428 0.75155-0.05572 0.45922-0.53299
  -4  11  -1   36.89  390.55   1 0.59807-0.96874 0.78591-0.09105 0.15698-0.23073
   4  11   1  195.36  440.64   1 0.81418-0.44310-0.04562 0.74067 0.57880-0.50502
   4 -11   2  517.34  346.87   1-0.29810 0.67457-0.44782-0.24750 0.84295-0.69547
  -4 -11  -2  115.88  274.95   1-0.99452 0.61807 0.05432-0.74961 0.08929-0.23677
  -4  11  -2 1232.95  405.69   1 0.39542-0.77195 0.78167-0.08584 0.48231-0.62985
  -4  11  -2 1075.64  447.51   1 0.57621-0.95271 0.80601-0.11116 0.13532-0.28281
   4  11   2  281.76  443.78   1 0.80357-0.42656-0.09515 0.79021 0.58755-0.44000
   4 -11   3 5087.35  944.46   1-0.36191 0.74422-0.42258-0.27274 0.83092-0.60969
  -4 -11  -3 4646.47 1019.84   1-0.99637 0.61400 0.03535-0.73064 0.07737-0.29859
  -4  11  -3 5000.28  892.20   1 0.29387-0.67637 0.81076-0.11495 0.50626-0.72753
  -4  11  -3 4606.00 1003.15   1 0.55144-0.93377 0.82673-0.13187 0.11146-0.33268
   4  11   3 4384.10 1035.26   1 0.79239-0.40960-0.13721 0.83251 0.59437-0.37301
   4 -11   422217.49 2323.39   1-0.41145 0.79961-0.40106-0.29426 0.81844-0.52347
  -4 -11  -416080.45 2837.79   1-0.99795 0.60966 0.01208-0.70737 0.06271-0.35767
  -4  11  -414995.09 1654.54   1 0.52389-0.91204 0.84746-0.15260 0.08566-0.38063
   4 -11   5 9001.05 1162.41   1-0.44899 0.84299-0.38353-0.31180 0.80703-0.43832
  -4 -11  -5 6374.86 1062.90   1-0.99884 0.60463-0.01499-0.68028 0.04559-0.41428
  -4  11  -5 7928.92  925.31   1 0.49365-0.88763 0.86771-0.17285 0.05817-0.42688
   4  11   5 8202.00  948.39   1 0.77321-0.37866-0.20050 0.89580 0.60161-0.23268
   4 -11   6  595.80  434.18   1-0.47652 0.87638-0.36995-0.32537 0.79753-0.35507
  -4 -11  -6  406.29  452.20   1-0.99861 0.59847-0.04552-0.64975 0.02622-0.46865
  -4  11  -6  634.88  396.18   1 0.46079-0.86060 0.88702-0.19216 0.02917-0.47162
   4  11   6  402.75  394.49   1 0.76602-0.36560-0.22148 0.91678 0.60344-0.16072
   4  12  -5 1319.53  530.23   1 0.93627-0.60091-0.04061 0.79906-0.34891-0.01997
  -4  12   5 2740.00  968.99   1 0.65797-0.99370 0.64792 0.11102 0.38374-0.01495
   4  12  -5 1534.36  537.74   1 0.81065-0.47497 0.39452 0.36351 0.43265-0.80140
   4  12  -4 3844.78  855.08   1 0.93733-0.59607-0.04288 0.80133-0.34577 0.05065
  -4  12   4 4274.86  962.41   1 0.64860-0.99013 0.65454 0.10440 0.38843-0.09340
   4  12  -4 1609.90  647.48   1 0.82395-0.48234 0.32329 0.43484 0.46538-0.76042
   4  12  -3 1346.56  367.06   1 0.93579-0.58862-0.03960 0.79805-0.35031 0.12897
  -4 -12   3 1374.22  449.65   1-0.99891 0.65208-0.02204-0.73644 0.04112 0.18009
  -4  12   3  964.88  600.88   1 0.63280-0.98013 0.66532 0.09361 0.39610-0.17483
  -4  12   3 2155.84  574.15   1 0.65215-0.99949 0.72723 0.03102 0.21405 0.00716
   4  12  -3 2679.91  679.50   1 0.83189-0.48439 0.25374 0.50440 0.49351-0.71480
  -4 -12   2  571.40  241.86   1-0.99850 0.64575-0.00060-0.75788 0.05469 0.09277
  -4  12   2 1080.54  619.66   1 0.60943-0.96257 0.68044 0.07850 0.40691-0.25939
  -4  12   2 2003.35  596.68   1 0.64486-0.99802 0.73596 0.02229 0.20617-0.05869
   4  12  -2 1264.66  684.18   1 0.83504-0.48164 0.18720 0.57093 0.51734-0.66486
   4 -12  -1 4017.94  729.27   1 0.02617 0.33271-0.53728-0.22122 0.84299-0.91671
  -4 -12   1 3079.62  741.69   1-0.99804 0.63937 0.01030-0.76879 0.06159 0.01214
  -4  12   1 4167.03  787.79   1 0.57683-0.93585 0.69992 0.05916 0.42115-0.34738
  -4  12   1 3369.99  704.04   1 0.63367-0.99266 0.74881 0.00945 0.19426-0.12052
  -4 -12   0 1974.29  851.25   1-0.99792 0.63332 0.01281-0.77130 0.06317-0.06317
  -4  12   0 1794.24  510.14   1 0.53322-0.89808 0.72352 0.03555 0.43838-0.43838
  -4  12   0 2354.04  622.05   1 0.61902-0.98383 0.76471-0.00645 0.17895-0.17895
   4  12   0  972.61  455.85   1 0.83028-0.46512 0.06719 0.69104 0.55327-0.55327
   4 -12   1 2426.75  562.62   1-0.19164 0.56227-0.48403-0.27451 0.85380-0.78006
  -4 -12  -1 2660.49  621.75   1-0.99814 0.62761 0.00838-0.76688 0.06037-0.13411
  -4  12  -1 4772.10  862.72   1 0.47584-0.84653 0.75057 0.00851 0.45849-0.53226
  -4  12  -1 4076.51  815.45   1 0.60126-0.97193 0.78282-0.02480 0.16019-0.23393
   4  12   1 4198.47  906.50   1 0.82424-0.45315 0.01505 0.74318 0.56603-0.49226
   4 -12   217600.96 2146.98   1-0.27194 0.64841-0.45738-0.30116 0.84666-0.69918
  -4 -12  -211013.84 3131.76   1-0.99854 0.62210-0.00189-0.75659 0.05388-0.20136
  -4  12  -216238.16 1966.82   1 0.40115-0.77769 0.77970-0.02061 0.48076-0.62830
  -4  12  -219466.60 2435.70   1 0.58042-0.95692 0.80228-0.04425 0.13945-0.28694
   4  12   216374.55 2127.12   1 0.81690-0.43989-0.03104 0.78928 0.57594-0.42839
   4 -12   311736.33 1121.27   1-0.33587 0.71819-0.43324-0.32529 0.83635-0.61512
  -4 -12  -3 9386.55 2220.89   1-0.99887 0.61650-0.01722-0.74127 0.04418-0.26540
  -4  12  -312491.36 1294.59   1 0.55671-0.93903 0.82249-0.06447 0.11648-0.33771
   4  12   310793.52 1203.69   1 0.80906-0.42614-0.07077 0.82902 0.58343-0.36211
   4 -12   4 7812.45 1178.90   1-0.38578 0.77394-0.41244-0.34610 0.82526-0.53029
  -4 -12  -4 7969.14 1324.34   1-0.99881 0.61052-0.03697-0.72151 0.03165-0.32661
  -4  12  -4 5980.66  963.91   1 0.53022-0.91837 0.84290-0.08487 0.09152-0.38649
   4  12   4 4249.42 1199.47   1 0.80145-0.41261-0.10396 0.86220 0.58895-0.29384
  -4  13   3 3111.45  709.74   1 0.62484-0.97217 0.67058 0.15160 0.39985-0.17858
   4  13  -3 4148.52  786.97   1 0.82807-0.48057 0.29247 0.52884 0.47827-0.69955
  -4 -13   2 4866.29  758.13   1-0.99751 0.64476-0.06962-0.75207 0.01087 0.13660
  -4  13   2 6331.11 1026.99   1 0.60182-0.95500 0.68508 0.13725 0.41043-0.26290
  -4  13   2 3806.81 1032.47   1 0.64191-0.99508 0.73941 0.08204 0.20301-0.05553
   4  13  -2 6654.72 1039.22   1 0.83342-0.48001 0.23146 0.58985 0.50182-0.64934
  -4 -13   1   -2.36  325.58   1-0.99828 0.63961-0.05486-0.76683 0.02027 0.05346
  -4  13   1  616.22  392.37   1 0.57013-0.92915 0.70373 0.11860 0.42391-0.35014
  -4  13   1  647.69  345.68   1 0.63150-0.99049 0.75122 0.07022 0.19197-0.11823
   4  13  -1 1092.27  529.99   1 0.83517-0.47586 0.17405 0.64727 0.52171-0.59547
  -4 -13   011716.02 1541.21   1-0.99852 0.63392-0.04868-0.77301 0.02421-0.02421
  -4  13   010774.14 1401.04   1 0.52778-0.89264 0.72627 0.09606 0.44041-0.44041
  -4  13   011005.12 1392.72   1 0.61781-0.98265 0.76612 0.05506 0.17707-0.17707
   4  13   011408.49 1599.30   1 0.83399-0.46883 0.12112 0.70029 0.53831-0.53831
   4 -13   115934.05 1879.75   1-0.16035 0.53097-0.49336-0.32838 0.85491-0.78116
  -4 -13  -120905.97 2482.25   1-0.99849 0.62796-0.04957-0.77212 0.02364-0.09738
  -4  13  -117225.65 2056.29   1 0.47222-0.84292 0.75213 0.07020 0.45966-0.53343
  -4  13  -119274.68 2336.87   1 0.60091-0.97159 0.78316 0.03803 0.15984-0.23359
   4  13   117575.93 2144.42   1 0.83080-0.45972 0.07297 0.74845 0.55175-0.47798
   4 -13   210187.48 1286.53   1-0.24093 0.61740-0.46814-0.35361 0.85017-0.70268
  -4 -13  -210720.63 1376.70   1-0.99821 0.62177-0.05645-0.76524 0.01926-0.16674
  -4  13  -211454.19 1494.55   1 0.58106-0.95756 0.80171 0.01948 0.14008-0.28756
   4  13   211219.46 1514.47   1 0.82624-0.44924 0.03022 0.79120 0.56249-0.41494
   5   0 -1112914.43 2583.60   1 0.96839-0.57713-0.24723 0.24723-0.03282-0.77832
   5   0 -10 2961.51  668.68   1 0.95630-0.55935-0.28972 0.28972 0.03918-0.77664
   5   0  -9  639.46  218.64   1 0.93645-0.53359-0.33166 0.33166 0.11427-0.77799
  -5   0   9  980.89  484.92   1 0.12676-0.53017 0.83750-0.83750 0.53152 0.13227
   5   0  -8 1046.06  383.47   1 0.90769-0.49894-0.37298 0.37298 0.19229-0.78226
  -5   0   8  467.67  232.25   1 0.13505-0.54433 0.83676-0.83676 0.53064 0.05939
  -5   0   7 4010.87  552.21   1 0.13177-0.54690 0.83706-0.83706 0.53099-0.01470
   5   0  -623130.15 1354.74   1 0.81821-0.39768-0.45100 0.45100 0.35654-0.79902
  -5   0   625071.90 1450.92   1 0.11705-0.53797 0.83812-0.83812 0.53277-0.09016
   5   0  -5107977.6 3640.31   1 0.75416-0.32761-0.48653 0.48653 0.44105-0.80991
  -5   0   5107927.6 3655.93   1 0.08979-0.51657 0.83991-0.83991 0.53524-0.16640
   5   0  -593440.84 3005.82   1 0.25372 0.17309 0.95742-0.95742-0.13769-0.23102
   5   0  -5103923.9 3334.92   1 0.83451-0.40765 0.13465-0.13465 0.53427-0.90315
   5   0  -489117.77 3070.33   1 0.67532-0.24289-0.51774 0.51774 0.52523-0.82032
  -5   0   497638.79 3391.71   1 0.05004-0.48269 0.84138-0.84138 0.53811-0.24304
   5   0  -483007.96 2751.09   1 0.19180 0.24081 0.96413-0.96413-0.18344-0.11158
   5   0  -494456.39 3117.63   1 0.73147-0.29852-0.30892 0.30892 0.60787-0.90302
   5   0  -3 1129.03  320.85   1 0.58121-0.14263-0.54227 0.54227 0.60673-0.82800
  -5   0   3  927.97  266.41   1-0.00229-0.43623 0.84128-0.84128 0.54058-0.31928
   5   0  -3  822.36  184.82   1 0.17732 0.26115 0.96490-0.96490-0.19370-0.02756
   5   0  -3  881.09  185.38   1 0.56990-0.13138-0.57753 0.57753 0.58452-0.80572
   5   0  -2133008.7 4042.53   1 0.47276-0.02839-0.55911 0.55911 0.68108-0.82860
  -5   0   2126724.9 3878.10   1-0.06688-0.37751 0.83797-0.83797 0.54160-0.39406
   5   0  -2138796.2 4150.57   1 0.42374 0.02060-0.73198 0.73198 0.53351-0.68100
   5   0  -153578.82 1747.63   1 0.35317 0.09707-0.56596 0.56596 0.74495-0.81869
  -5   0   151776.55 1711.06   1-0.14258-0.30755 0.82933-0.82933 0.54025-0.46649
   5   0   0 1198.06  427.04   1 0.22804 0.22804-0.56264 0.56264 0.79462-0.79462
  -5   0   0 1340.84  470.52   1-0.22800-0.22800 0.81385-0.81385 0.53446-0.53446
   5   0   143631.44 1506.62   1 0.10439 0.35726-0.54988 0.54988 0.82869-0.75497
  -5   0  -141840.80 1439.22   1-0.32040-0.14146 0.78957-0.78957 0.52336-0.59712
   5   0   281047.04 2845.67   1-0.01041 0.47786-0.53020 0.53020 0.84780-0.70037
  -5   0  -275141.10 2641.37   1-0.41677-0.05075 0.75472-0.75472 0.50663-0.65407
  -5   0  -281424.76 2882.02   1-0.13417-0.33369 0.91091-0.91091-0.39016 0.24264
   5   0   3  631.41  357.31   1-0.11094 0.58445-0.50694 0.50694 0.85481-0.63358
  -5   0  -3  206.58  240.14   1-0.51367 0.04023 0.70958-0.70958 0.48232-0.70347
  -5   0  -3  100.40  291.55   1-0.11215-0.36156 0.91914-0.91914-0.37760 0.15633
   5   0   435982.63 1438.90   1-0.19484 0.67420-0.48304 0.48304 0.85363-0.55866
  -5   0  -436736.91 1387.24   1-0.60776 0.12842 0.65366-0.65366 0.45094-0.74580
  -5   0  -438405.55 1548.79   1-0.10188-0.37768 0.92275-0.92275-0.37167 0.07663
   5   0   5104208.3 5243.03   1-0.26165 0.74686-0.46101 0.46101 0.84793-0.47922
  -5   0  -5105513.3 5291.86   1-0.69617 0.21103 0.58736-0.58736 0.41273-0.78132
  -5   0  -5100242.7 5074.70   1-0.10087-0.38454 0.92310-0.92310-0.37108 0.00229
   5   0   657808.57 3219.57   1-0.31255 0.80361-0.44236 0.44236 0.84061-0.39815
  -5   0  -661922.42 3414.59   1-0.77625 0.28522 0.51182-0.51182 0.36804-0.81035
  -5   0  -657853.18 3244.19   1-0.10731-0.38394 0.92086-0.92086-0.37481-0.06773
   5   0   7 9716.58 1278.94   1-0.34940 0.84631-0.42778 0.42778 0.83361-0.31741
  -5   0  -7 7186.50 1490.30   1-0.84577 0.34930 0.42913-0.42913 0.31703-0.83296
  -5   0  -7 9584.71 1238.77   1-0.11988-0.37722 0.91633-0.91633-0.38204-0.13427
   5   0   8 1035.15  409.81   1-0.37420 0.87695-0.41741 0.41741 0.82809-0.23815
  -5   0  -8  280.17  229.01   1-0.90417 0.40184 0.33774-0.33774 0.26151-0.85114
  -5   0  -8 1012.38  518.14   1-0.13760-0.36535 0.90957-0.90957-0.39210-0.19797
   5   0   9 2132.07  658.82   1-0.38864 0.89723-0.41120 0.41120 0.82454-0.16086
  -5   0  -9  478.81  237.80   1-0.94956 0.44127 0.24037-0.24037 0.20137-0.86457
   5   0  1010804.19 1428.64   1-0.39415 0.90859-0.40878 0.40878 0.82312-0.08570
   5  -1 -11 2154.23  888.13   1 0.96619-0.57514-0.25727 0.19407-0.01651-0.79469
   5   1 -11 3349.26 1010.58   1 0.97048-0.57921-0.23536 0.29857-0.05262-0.75852
   5   1 -1019270.83 2657.31   1 0.96103-0.56408-0.27599 0.33919 0.01536-0.75283
   5  -1 -1015241.53 3080.66   1 0.95161-0.55465-0.30143 0.23823 0.05977-0.79724
  -5   1  1017490.64 1771.06   1 0.21013-0.60768 0.82732-0.76406 0.52094 0.21660
   5   1  -9 5118.55 1248.81   1 0.94475-0.54190-0.31622 0.37942 0.08619-0.74991
   5  -1  -9 7687.31 1709.64   1 0.92820-0.52535-0.34507 0.28187 0.13911-0.80283
  -5  -1   9 8131.77 1538.83   1 0.00453-0.40784 0.84142-0.90465 0.54035 0.12355
  -5   1   9 5297.97 1088.39   1 0.22883-0.63224 0.82418-0.76093 0.51802 0.14577
   5   1  -8 9013.53 1141.01   1 0.92070-0.51195-0.35605 0.41925 0.15978-0.74975
   5  -1  -8 8520.42  659.39   1 0.89495-0.48618-0.38723 0.32405 0.22158-0.81155
  -5  -1   8 8685.68  702.93   1 0.01372-0.42290 0.84156-0.90478 0.53998 0.05014
  -5   1   8 7929.46  688.88   1 0.23716-0.64643 0.82268-0.75943 0.51666 0.07338
   5   1  -728504.82 1713.73   1 0.88791-0.47326-0.39462 0.45780 0.23639-0.75261
   5  -1  -725913.59 1553.56   1 0.84997-0.43532-0.42837 0.36518 0.30665-0.82287
  -5  -1   730749.42 1781.46   1 0.01024-0.42529 0.84151-0.90474 0.54013-0.02376
  -5   1   726394.68 1634.74   1 0.23499-0.65012 0.82308-0.75982 0.51702-0.00073
   5   1  -649049.85 2603.29   1 0.84468-0.42415-0.43244 0.49562 0.31544-0.75792
   5  -1  -650599.06 2668.28   1 0.79179-0.37126-0.46704 0.40385 0.39362-0.83609
  -5  -1   649572.31 2576.85   1-0.00571-0.41520 0.84119-0.90442 0.54069-0.09809
  -5   1   645235.89 2435.69   1 0.22187-0.64287 0.82538-0.76213 0.51913-0.07660
   5   1  -643736.67 2173.70   1 0.78906-0.36799 0.47278-0.40961 0.39223-0.83474
   5   1  -5 5522.88  475.94   1 0.78960-0.36320-0.46827 0.53145 0.39653-0.76526
   5  -1  -5 6253.31  524.77   1 0.71892-0.29237-0.50187 0.43867 0.48089-0.84975
  -5  -1   5 5835.61  438.08   1-0.03404-0.39273 0.84009-0.90332 0.54136-0.17253
  -5   1   5 6718.26  609.04   1 0.19719-0.62404 0.82930-0.76605 0.52284-0.15406
   5   1  -5 3823.13  397.98   1-0.06157 0.48850 0.93549-0.87231-0.34792-0.02086
   5   1  -5 5701.40  301.86   1 0.83289-0.40603 0.10061-0.03742 0.54421-0.91309
   5   1  -410124.75  569.10   1 0.72121-0.28879-0.50095 0.56416 0.47842-0.77351
   5  -1  -4 6273.70  447.27   1 0.63029-0.19786-0.53112 0.46791 0.56624-0.86133
  -5  -1   4 6192.34  427.81   1-0.07458-0.35807 0.83733-0.90056 0.54157-0.24650
  -5   1   412033.68  795.34   1 0.16020-0.59291 0.83415-0.77089 0.52775-0.23272
   5   1  -4 7402.05  652.07   1-0.04671 0.47949 0.93962-0.87644-0.33898 0.04395
   5  -1  -4 5391.63  258.14   1 0.48156-0.04882 0.87512-0.93829 0.04740-0.34237
   5  -1  -4 6297.36  294.57   1 0.67245-0.23976-0.42496 0.36177 0.60597-0.90090
   5   1  -328952.84 1167.03   1 0.63827-0.19997-0.52895 0.59216 0.55929-0.78061
  -5  -1   326808.42 1124.36   1-0.12680-0.31171 0.83172-0.89495 0.54051-0.31921
  -5   1   330613.55 1272.13   1 0.11043-0.54895 0.83861-0.77539 0.53340-0.31210
   5   1  -323168.07  865.95   1-0.01919 0.45782 0.94648-0.88329-0.32217 0.10090
   5  -1  -321098.56  889.22   1 0.39973 0.03876 0.91633-0.97949-0.02350-0.19772
   5   1  -329329.37 1064.30   1 0.65028-0.21176-0.46236 0.52555 0.60277-0.82397
   5  -1  -324945.03  903.33   1 0.45304-0.01454-0.70536 0.64218 0.54517-0.76641
   5   1  -227366.80 1004.25   1 0.54072-0.09635-0.54988 0.61310 0.63658-0.78409
   5  -1  -223587.39  946.72   1 0.40897 0.03539-0.56423 0.50100 0.71720-0.86471
  -5  -1   224389.86  966.70   1-0.18952-0.25474 0.82163-0.88484 0.53759-0.39007
  -5   1   233097.91 1222.80   1 0.04723-0.49162 0.84143-0.77821 0.53828-0.39075
   5  -1  -219104.52 1289.64   1 0.36637 0.07795 0.92908-0.99224-0.05069-0.09679
   5   1  -228093.95  967.94   1 0.53013-0.08578-0.62535 0.68853 0.57261-0.72010
   5   1  -158239.93 1874.66   1 0.43024 0.01990-0.56288 0.62610 0.70572-0.77948
   5  -1  -169514.97 2242.36   1 0.28310 0.16714-0.56534 0.50212 0.77474-0.84849
  -5  -1   171312.53 2301.41   1-0.26171-0.18842 0.80593-0.86914 0.53101-0.45725
  -5   1   158305.42 1909.98   1-0.02893-0.42132 0.84034-0.77711 0.54128-0.46751
   5   1  -162626.09 1996.22   1 0.42558 0.02460-0.73036 0.79354 0.53426-0.60801
   5   1   090119.95 2816.72   1 0.31088 0.14519-0.56598 0.62920 0.76355-0.76355
   5  -1   084215.78 2678.56   1 0.15531 0.30077-0.55624 0.49301 0.81637-0.81637
  -5  -1   076186.53 2434.01   1-0.34093-0.11506 0.78305-0.84626 0.52018-0.52018
  -5   1   090546.57 2842.42   1-0.11698-0.33914 0.83296-0.76973 0.54082-0.54082
  -5   1   094348.60 2922.05   1-0.10478-0.35138 0.92175-0.85856-0.37335 0.37335
   5   1   143170.61 1495.20   1 0.18894 0.27297-0.55959 0.62282 0.80694-0.73319
   5  -1   144374.90 1540.57   1 0.03286 0.42879-0.53849 0.47528 0.84198-0.76827
  -5  -1  -143880.85 1515.28   1-0.42455-0.03706 0.75151-0.81472 0.50495-0.57866
  -5   1  -138022.37 1364.06   1-0.21491-0.24694 0.81664-0.75343 0.53562-0.60938
  -5   1  -141269.57 1420.23   1-0.05794-0.40407 0.93653-0.87335-0.34575 0.27199
   5   1   213314.90  725.06   1 0.07146 0.39598-0.54500 0.60821 0.83538-0.68795
   5  -1   211035.35  726.96   1-0.07761 0.54506-0.51524 0.45203 0.85352-0.70609
  -5  -1  -2 9731.11  583.34   1-0.50991 0.04238 0.71155-0.77475 0.48340-0.63083
  -5   1  -214192.35  689.51   1-0.31976-0.14796 0.78976-0.72655 0.52346-0.67098
  -5   1  -212390.89 1540.23   1-0.03026-0.43760 0.94385-0.88066-0.32897 0.18146
   5   1   394167.28 3234.01   1-0.03471 0.50796-0.52508 0.58829 0.85034-0.62919
   5  -1   373463.77 2595.31   1-0.17203 0.64554-0.48995 0.42674 0.85460-0.63337
  -5  -1  -371932.96 2547.35   1-0.59407 0.12064 0.66263-0.72584 0.45604-0.67719
  -5   1  -392193.85 3168.31   1-0.42797-0.04546 0.75008-0.68688 0.50419-0.72534
  -5   1  -389091.07 3151.95   1-0.01666-0.45704 0.94706-0.88387-0.32061 0.09934
   5   1   410463.75  656.93   1-0.12520 0.60456-0.50316 0.56638 0.85506-0.56009
   5  -1   4 9048.26  701.55   1-0.24937 0.72873-0.46527 0.40206 0.84931-0.55433
  -5  -1  -4 8654.62  569.69   1-0.67455 0.19532 0.60499-0.66818 0.42302-0.71789
  -5   1  -411926.40  663.27   1-0.53523 0.05589 0.69790-0.63470 0.47586-0.77072
  -5   1  -414655.03 1470.14   1-0.01371-0.46585 0.94772-0.88454-0.31878 0.02375
   5   1   5 9934.29 1100.98   1-0.19893 0.68414-0.48177 0.54498 0.85341-0.48469
   5  -1   5 9996.37 1132.07   1-0.31004 0.79525-0.44332 0.38010 0.84103-0.47231
  -5  -1  -5 9694.96 1103.50   1-0.74910 0.26396 0.53945-0.60264 0.38449-0.75308
  -5   1  -510964.32 1207.16   1-0.63788 0.15275 0.63270-0.56952 0.43906-0.80765
  -5   1  -510721.77 1833.30   1-0.01901-0.46639 0.94652-0.88333-0.32206-0.04672
   5   1   633588.57 1978.23   1-0.25607 0.74712-0.46296 0.52617 0.84858-0.40612
   5  -1   638435.06 2235.81   1-0.35572 0.84677-0.42515 0.36194 0.83228-0.38983
  -5  -1  -641932.40 2374.90   1-0.81565 0.32506 0.46786-0.53102 0.34030-0.78252
  -5   1  -631044.55 1814.75   1-0.73222 0.24118 0.55552-0.49233 0.39400-0.83632
   5   1   720494.41 1194.97   1-0.29812 0.79503-0.44782 0.51103 0.84295-0.32675
   5  -1   724395.14 1384.81   1-0.38836 0.88526-0.41131 0.34810 0.82461-0.30841
  -5  -1  -724947.55 2622.26   1-0.87374 0.37727 0.38860-0.45175 0.29251-0.80843
  -5   1  -722367.49 1225.91   1-0.81490 0.31843 0.46878-0.40562 0.34085-0.85677
  -5   1  -722685.60 1305.52   1-0.04826-0.44884 0.93921-0.87602-0.33992-0.17638
   5   1   813385.15 1161.87   1-0.32698 0.82974-0.43676 0.49997 0.83804-0.24809
   5  -1   816080.61 1364.41   1-0.40992 0.91267-0.40175 0.33854 0.81887-0.22893
  -5  -1  -814575.48 1806.54   1-0.92185 0.41952 0.30373-0.36689 0.24066-0.83029
  -5   1  -811015.73 1473.60   1-0.88508 0.38275 0.37059-0.30743 0.28156-0.87119
  -5   1  -813311.88 2422.78   1-0.07017-0.43278 0.93296-0.86978-0.35305-0.23701
   5   1   9 4922.97  847.27   1-0.34445 0.85306-0.42980 0.49301 0.83463-0.17094
  -5  -1  -9 1897.67  549.10   1-0.95903 0.45075 0.21433-0.27747 0.18522-0.84842
  -5   1  -9 3661.75 1006.00   1-0.09604-0.41276 0.92474-0.86155-0.36828-0.29555
   5   1  10 6648.72  928.14   1-0.35209 0.86653-0.42664 0.48986 0.83306-0.09564
   5  -1  10 9947.11 1389.59   1-0.42598 0.94042-0.39441 0.33119 0.81423-0.07681
  -5   1 -10 8582.47 1206.49   1-0.12543-0.38922 0.91426-0.85107-0.38520-0.35238
   5   2 -11 3435.82 1237.11   1 0.97222-0.58096-0.22156 0.34797-0.07535-0.73579
   5  -2 -11 2934.79  979.40   1 0.96426-0.57321-0.26490 0.13850-0.00359-0.80761
   5   2 -10 1168.03  600.37   1 0.96545-0.56850-0.26033 0.38673-0.01135-0.72611
   5  -2 -10  983.07  325.06   1 0.94730-0.55034-0.31100 0.18459 0.07680-0.81427
  -5   2  10 1761.29  519.85   1 0.29407-0.69163 0.81071-0.68420 0.50622 0.23132
   5   2  -924653.08 2790.18   1 0.95270-0.54985-0.29884 0.42524 0.05518-0.71890
   5  -2  -920443.54 2876.05   1 0.92046-0.51761-0.35638 0.22997 0.16040-0.82412
  -5   2   926299.19 2058.66   1 0.31205-0.71546 0.80628-0.67977 0.50251 0.16128
   5   2  -881389.25 4001.95   1 0.93324-0.52449-0.33707 0.46347 0.12423-0.71421
   5  -2  -881254.83 3911.20   1 0.88263-0.47386-0.39988 0.27351 0.24707-0.83704
  -5  -2   869416.89 3345.69   1-0.12717-0.28200 0.83167-0.95812 0.54049 0.04963
  -5   2   883288.53 9266.52   1 0.32078-0.73005 0.80402-0.67751 0.50064 0.08940
   5  -2  -727725.00 1814.35   1 0.83171-0.41707-0.44188 0.31551 0.33612-0.85235
  -5  -2   728598.86 1819.61   1-0.12894-0.28610 0.83144-0.95789 0.54043-0.02406
  -5   2   730237.89 2031.71   1 0.32003-0.73516 0.80422-0.67771 0.50080 0.01548
   5   2  -729326.25 1782.59   1 0.71968-0.30443 0.62968-0.50330 0.29250-0.80870
   5   2  -619360.96 2029.40   1 0.87038-0.44986-0.41132 0.53769 0.27061-0.71309
   5  -2  -624239.23 1394.88   1 0.76633-0.34566-0.48061 0.35419 0.42630-0.86894
  -5  -2   624383.53 1393.39   1-0.14309-0.27771 0.82925-0.95568 0.54023-0.09767
  -5   2   618451.82 1991.41   1 0.30926-0.73025 0.80699-0.68048 0.50310-0.06057
   5   2  -619675.98 1971.68   1 0.81493-0.39382 0.37417-0.24781 0.44258-0.88514
   5   2  -540293.57 1642.11   1 0.82430-0.39790-0.44697 0.57334 0.34747-0.71620
   5  -2  -556579.33 2210.88   1 0.68504-0.25849-0.51447 0.38806 0.51577-0.88463
  -5  -2   556869.91 2163.12   1-0.17016-0.25650 0.82504-0.95146 0.53884-0.17003
  -5   2   543545.61 1862.51   1 0.28769-0.71454 0.81220-0.68569 0.50749-0.13871
   5   2  -541623.53 1549.40   1 0.83279-0.40594 0.09917 0.02719 0.54461-0.91349
   5   2  -415770.29  824.87   1 0.76656-0.33413-0.48049 0.60691 0.42602-0.72111
   5  -2  -420769.14  901.29   1 0.58759-0.15480-0.54092 0.41447 0.60177-0.89679
  -5  -2   422666.19  972.43   1-0.20872-0.22380 0.81791-0.94434 0.53613-0.24109
  -5   2   414943.04  790.40   1 0.25438-0.68709 0.81938-0.69287 0.51370-0.21868
   5  -2  -422785.37  774.96   1 0.71808-0.28536 0.63242-0.75880 0.29050-0.58547
   5   2  -415362.40  662.80   1 0.78745-0.35449-0.15474 0.28116 0.59663-0.89178
   5  -2  -422832.04  780.87   1 0.55937-0.12672-0.59062 0.46426 0.58159-0.87658
   5   2  -310838.82  651.39   1 0.69565-0.25734-0.51074 0.63715 0.50518-0.72650
   5  -2  -3 9044.12  535.74   1 0.47510-0.03652-0.55886 0.43241 0.67966-0.90093
  -5  -2   311419.11  660.80   1-0.25772-0.18068 0.80692-0.93334 0.53146-0.31018
  -5   2   312291.57  784.97   1 0.20834-0.64691 0.82760-0.70109 0.52121-0.29994
   5  -2  -3 9301.92  408.57   1 0.59909-0.16052 0.78493-0.91126 0.15801-0.37924
   5   2  -286596.78 2962.38   1 0.61073-0.16655-0.53610 0.66251 0.58274-0.73029
  -5  -2   272347.64 2541.72   1-0.31569-0.12857 0.79100-0.91743 0.52406-0.37654
  -5   2   292265.94 3197.99   1 0.14872-0.59315 0.83541-0.70890 0.52911-0.38160
  -5   2   296512.98 3223.82   1-0.13561-0.30885 0.91035-0.78398-0.39098 0.53850
   5  -2  -266028.19 2229.23   1 0.53512-0.09071 0.83929-0.96563 0.09608-0.24357
   5   2  -285922.67 2913.09   1 0.61069-0.16635-0.52259 0.64897 0.59493-0.74240
   5   2  -141635.69 1414.15   1 0.51208-0.06193-0.55428 0.68073 0.65615-0.72990
   5  -2  -142196.19 1499.59   1 0.22152 0.22872-0.56220 0.43574 0.79677-0.87052
  -5  -2   143174.23 1507.67   1-0.38079-0.06933 0.76916-0.89559 0.51320-0.43944
  -5   2   142537.32 1502.96   1 0.07502-0.52529 0.84061-0.71416 0.53640-0.46264
  -5   2   141597.95 1390.63   1-0.03953-0.41079 0.94151-0.81514-0.33463 0.40839
   5   2  -141737.55 1394.77   1 0.52068-0.07049-0.63601 0.76237 0.56953-0.64327
   5   2   0 1365.87  248.94   1 0.40208 0.05385-0.56459 0.69104 0.72080-0.72080
   5  -2   0 2083.38  365.01   1 0.09340 0.36246-0.54832 0.42190 0.83103-0.83103
  -5  -2   0 2378.28  346.28   1-0.45070-0.00500 0.74020-0.86661 0.49895-0.49895
  -5   2   0  743.02  316.44   1-0.01244-0.44368 0.84099-0.71454 0.54089-0.54089
  -5   2   0 1867.70  318.76   1 0.01875-0.47493 0.95424-0.82787-0.29844 0.29844
   5   2   0 1711.36  344.42   1 0.44344 0.01259-0.71429 0.84065 0.54142-0.54142
   5   2   131777.64 1224.32   1 0.28539 0.17652-0.56542 0.69187 0.77385-0.70010
   5  -2   138430.41 1504.00   1-0.02592 0.48758-0.52697 0.40055 0.84948-0.77576
  -5  -2  -137838.29 1480.81   1-0.52344 0.06182 0.70437-0.83077 0.47944-0.55316
  -5   2  -131714.78 1271.28   1-0.11243-0.34956 0.83350-0.70705 0.54095-0.61471
  -5   2  -129812.19 1183.39   1 0.05267-0.51456 0.95916-0.83279-0.27790 0.20414
   5   2   262930.62 2223.95   1 0.16871 0.29904-0.55765 0.68411 0.81274-0.66525
   5  -2   268172.02 2429.96   1-0.13109 0.59875-0.50157 0.37515 0.85512-0.70763
  -5   2  -255534.55 2000.40   1-0.22264-0.24508 0.81501-0.68859 0.53495-0.68247
  -5   2  -260185.19 2164.87   1 0.06964-0.53738 0.96121-0.83485-0.26685 0.11933
   5   2   316399.30  782.95   1 0.05875 0.41448-0.54295 0.66937 0.83770-0.61655
   5  -2   316078.67  888.45   1-0.21963 0.69314-0.47519 0.34876 0.85202-0.63079
  -5  -2  -317588.75  891.64   1-0.66740 0.19406 0.61061-0.73698 0.42628-0.64744
  -5   2  -315792.60  722.07   1-0.33936-0.13423 0.78356-0.65714 0.52043-0.74171
  -5   2  -318822.94 1949.84   1 0.07447-0.54806 0.96172-0.83536-0.26368 0.04241
   5   2   4 8241.04  524.99   1-0.03830 0.51734-0.52430 0.65072 0.85066-0.55580
   5  -2   412205.02  927.28   1-0.29106 0.77042-0.45044 0.32402 0.84402-0.54905
  -5  -2  -411748.46  714.10   1-0.73456 0.25532 0.55334-0.67972 0.39271-0.68759
  -5   2  -4 8885.34  578.69   1-0.45852-0.02080 0.73667-0.61026 0.49705-0.79192
  -5   2  -410615.95 1836.64   1 0.07020-0.54964 0.96127-0.83491-0.26649-0.02853
   5   2   5 6896.40  857.10   1-0.11900 0.60421-0.50482 0.63124 0.85497-0.48626
   5  -2   511680.30 1357.93   1-0.34652 0.83173-0.42896 0.30253 0.83421-0.46549
  -5  -2  -513199.12 1785.08   1-0.79601 0.31129 0.49091-0.61722 0.35406-0.72258
  -5   2  -5 5961.94  694.71   1-0.57490 0.08965 0.67471-0.54830 0.46287-0.83145
  -5   2  -5 6885.04 1132.44   1 0.05887-0.54416 0.95995-0.83359-0.27388-0.09490
   5   2   6 2192.21  451.51   1-0.18324 0.67429-0.48659 0.61302 0.85419-0.41173
   5  -2   6 2525.47  436.20   1-0.38792 0.87897-0.41151 0.28508 0.82472-0.38227
  -5  -2  -6 2637.26  573.30   1-0.85117 0.36057 0.42169-0.54800 0.31254-0.75476
  -5   2  -6  374.85  234.01   1-0.68425 0.19321 0.59721-0.47083 0.41848-0.86080
  -5   2  -6  741.45  291.27   1 0.04187-0.53301 0.95765-0.83128-0.28487-0.15767
   5   2   7 9229.16  767.04   1-0.23152 0.72843-0.47129 0.59771 0.85104-0.33484
   5  -2   7 8821.63  806.71   1-0.41723 0.91413-0.39843 0.27201 0.81679-0.30060
  -5  -2  -7 8187.05 1530.72   1-0.89873 0.40227 0.34747-0.47378 0.26746-0.78339
  -5   2  -710090.20  699.50   1-0.78217 0.28523 0.50549-0.37911 0.36425-0.88029
  -5   2  -7 8016.22  928.03   1 0.01940-0.51651 0.95435-0.82798-0.29803-0.21828
   5   2   846273.28 3278.84   1-0.26545 0.76821-0.45968 0.58610 0.84748-0.25753
   5  -2   846816.62 9836.32   1-0.43631 0.93906-0.38957 0.26315 0.81108-0.22114
  -5  -2  -844233.56 3199.14   1-0.93781 0.43542 0.26919-0.39547 0.21919-0.80870
  -5   2  -849903.5510438.12   1-0.86488 0.36255 0.40198-0.27567 0.30063-0.89025
  -5   2  -845039.72 4750.54   1-0.00633-0.49662 0.94933-0.82296-0.31420-0.27586
   5   2   928851.32 2846.97   1-0.28679 0.79540-0.45201 0.57843 0.84464-0.18095
   5  -2   924286.04 2436.37   1-0.44668 0.95527-0.38464 0.25822 0.80778-0.14411
  -5  -2  -925224.60 2467.13   1-0.96798 0.45969 0.18657-0.31285 0.16794-0.83114
  -5   2  -924354.22 3484.02   1-0.03559-0.47321 0.94252-0.81615-0.33223-0.33159
   5  -2  10 8954.83 1296.34   1-0.44950 0.96394-0.38328 0.25686 0.80686-0.06944
  -5   2 -10 5880.78 1450.86   1-0.06800-0.44665 0.93361-0.80724-0.35176-0.38582
   5   3 -11 1542.22  409.28   1 0.97336-0.58210-0.20593 0.39555-0.10073-0.71041
   5  -3 -11 1019.01  439.85   1 0.96282-0.57176-0.27009 0.08048 0.00524-0.81645
  -5   3  11 1540.63  474.32   1 0.33565-0.72735 0.79999-0.61022 0.49733 0.31397
   5   3 -10 1879.16  729.91   1 0.96925-0.57206-0.24271 0.43233-0.04039-0.69701
   5  -3 -10 2949.78  693.40   1 0.94373-0.54678-0.31826 0.12866 0.08986-0.82733
  -5   3  10 2484.64  646.07   1 0.36144-0.75900 0.79247-0.60270 0.49126 0.24628
   5   3  -9 6799.26 1740.81   1 0.95988-0.55703-0.27957 0.46917 0.02154-0.68526
   5  -3  -9 8256.66 1579.80   1 0.91368-0.51083-0.36547 0.17587 0.17777-0.84149
  -5   3   9 7981.82  930.21   1 0.37891-0.78232 0.78698-0.59722 0.48690 0.17689
   5   3  -8 1883.25  357.34   1 0.94482-0.53607-0.31610 0.50570 0.08596-0.67593
   5  -3  -8 1001.34  434.45   1 0.87146-0.46269-0.41035 0.22080 0.26861-0.85858
  -5  -3   8  916.20  296.11   1-0.28277-0.12630 0.80044-0.99007 0.52851 0.06156
  -5   3   8  302.73  392.42   1 0.38774-0.79711 0.78426-0.59449 0.48434 0.10581
   5   3  -735481.41 3815.65   1 0.92331-0.50866-0.35234 0.54194 0.15276-0.66899
   5  -3  -729163.20 1881.30   1 0.81484-0.40019-0.45317 0.26361 0.36147-0.87769
  -5  -3   726333.87 1681.48   1-0.28013-0.13481 0.80115-0.99079 0.52884-0.01252
  -5   3   735993.84 2422.70   1 0.38842-0.80362 0.78403-0.59426 0.48416 0.03221
   5   3  -732929.56 2012.54   1 0.76391-0.34871 0.54031-0.35080 0.35283-0.86909
   5   3  -642738.28 2446.31   1 0.89456-0.47403-0.38766 0.57722 0.22243-0.66491
   5  -3  -631674.93 1857.52   1 0.74256-0.32189-0.49186 0.30223 0.45460-0.89723
  -5  -3   626576.85 1537.34   1-0.29082-0.12998 0.79823-0.98787 0.52749-0.08492
  -5   3   641755.58 2426.58   1 0.38017-0.80116 0.78657-0.59681 0.48657-0.04404
   5   3  -645412.32 2476.10   1 0.82284-0.40174 0.33049-0.14095 0.46227-0.90483
   5   3  -5 9276.17  629.62   1 0.85717-0.43077-0.42261 0.61217 0.29435-0.66308
   5  -3  -5 7328.68  517.36   1 0.65354-0.22699-0.52456 0.33494 0.54562-0.91448
  -5  -3   5 7978.16  565.56   1-0.31347-0.11319 0.79167-0.98131 0.52438-0.15558
  -5   3   5 8334.48  764.48   1 0.36172-0.78858 0.79238-0.60262 0.49119-0.12241
   5   3  -5 7560.61  467.29   1 0.83348-0.40662 0.11080 0.07876 0.54131-0.91019
   5   3  -4105231.8 3556.44   1 0.80992-0.37764-0.45627 0.64583 0.36855-0.66353
   5  -3  -498517.51 3305.20   1 0.54834-0.11555-0.54858 0.35890 0.63116-0.92619
  -5  -3   4106757.0 3572.69   1-0.34676-0.08577 0.78112-0.97076 0.51922-0.22418
  -5   3   4105506.5 3651.32   1 0.33230-0.76501 0.80092-0.61115 0.49809-0.20307
   5  -3  -497308.23 3120.52   1 0.82033-0.38742 0.34565-0.53519 0.45560-0.75064
   5   3  -4101399.5 3345.14   1 0.80274-0.36996-0.09864 0.28820 0.58811-0.88321
   5   3  -393574.96 3219.04   1 0.75142-0.31312-0.48781 0.67743 0.44428-0.66560
   5  -3  -387830.61 3024.92   1 0.42903 0.00954-0.56296 0.37329 0.70639-0.92766
  -5  -3   390625.79 3118.13   1-0.38867-0.04933 0.76577-0.95538 0.51237-0.29122
  -5   3   395929.41 3374.89   1 0.29071-0.72928 0.81150-0.62174 0.50689-0.28563
  -5   3   395762.57 3204.68   1-0.10712-0.33149 0.92093-0.73137-0.37470 0.59598
   5  -3  -383851.00 2780.05   1 0.73387-0.29533 0.60408-0.79364 0.31065-0.53188
   5   3  -395706.63 3241.32   1 0.74358-0.30475-0.28039 0.47002 0.60701-0.82837
   5   3  -217719.65  790.56   1 0.68027-0.23609-0.51610 0.70572 0.52044-0.66799
   5  -3  -217868.34  840.67   1 0.30049 0.14391-0.56580 0.37612 0.76783-0.91532
  -5  -3   217472.64  836.55   1-0.43871-0.00519 0.74549-0.93510 0.50176-0.35433
  -5   3   214107.53  778.42   1 0.23574-0.68017 0.82294-0.63318 0.51689-0.36938
  -5   3   218379.09  923.08   1 0.02157-0.46605 0.95474-0.76518-0.29665 0.44417
   5  -3  -216124.28  645.10   1 0.66600-0.22163 0.70982-0.89938 0.22930-0.37679
   5   3  -218824.17  821.85   1 0.67071-0.22638-0.42800 0.61757 0.60575-0.75322
   5   3  -1 6823.49  477.22   1 0.59577-0.14562-0.53911 0.72879 0.59531-0.66907
   5  -3  -110421.00  688.40   1 0.16925 0.28099-0.55771 0.36803 0.81259-0.88633
  -5  -3   1 9306.76  574.11   1-0.49428 0.04446 0.71954-0.90915 0.48778-0.41406
  -5   3   1 7336.82  652.78   1 0.16637-0.61666 0.83342-0.64366 0.52698-0.45323
  -5   3   1 7356.02  869.58   1 0.09347-0.54365 0.96343-0.77388-0.25112 0.32488
   5   3  -1 7604.98  490.09   1 0.59640-0.14624-0.54257 0.73214 0.59153-0.66526
   5   3   059319.53 2071.30   1 0.49875-0.04281-0.55607 0.74575 0.66484-0.66484
   5  -3   067261.70 2386.29   1 0.04265 0.41321-0.54022 0.35059 0.84043-0.84043
  -5  -3   062936.23 2246.10   1-0.55338 0.09766 0.68758-0.87719 0.47010-0.47010
  -5   3   059665.97 2169.77   1 0.08192-0.53806 0.84031-0.65063 0.53587-0.53587
  -5   3   064546.51 2289.03   1 0.13385-0.58988 0.96538-0.77583-0.22387 0.22387
   5   3   061909.11 2184.18   1 0.52822-0.07219-0.62753 0.81706 0.57200-0.57200
   5   3   1 8735.95  487.98   1 0.39179 0.07012-0.56485 0.75453 0.72624-0.65249
   5  -3   114316.34  727.84   1-0.07270 0.53436-0.51642 0.32679 0.85324-0.77952
  -5  -3  -115897.61  813.89   1-0.61397 0.15243 0.64941-0.83898 0.44865-0.52236
  -5   3  -1 8489.81  538.05   1-0.01699-0.44500 0.84083-0.65116 0.54101-0.61478
  -5   3  -110433.40 1215.54   1 0.15402-0.61591 0.96549-0.77594-0.20997 0.13622
   5   3   110473.97  634.27   1 0.47027-0.00839-0.68878 0.87832 0.55173-0.47799
   5   3   225971.18 1048.48   1 0.28015 0.18759-0.56525 0.75493 0.77588-0.62839
   5  -3   227407.87 1157.79   1-0.17258 0.64024-0.48978 0.30015 0.85458-0.70710
  -5  -3  -224339.63 1099.15   1-0.67430 0.20686 0.60519-0.79476 0.42314-0.57057
  -5   3  -225552.98 1069.57   1-0.12898-0.33888 0.83144-0.64176 0.54043-0.68796
  -5   3  -227494.69 1178.88   1 0.16050-0.62823 0.96540-0.77586-0.20548 0.05796
   5   3   229552.43 1325.89   1 0.42385 0.04386-0.73188 0.92142 0.53356-0.38606
   5   3   388726.30 2983.56   1 0.17042 0.30316-0.55783 0.74751 0.81226-0.59103
   5  -3   385176.27 2951.90   1-0.25556 0.72907-0.46314 0.27350 0.84863-0.62740
  -5  -3  -386789.00 2988.11   1-0.73261 0.25927 0.55515-0.74472 0.39379-0.61494
  -5   3  -383929.50 2848.35   1-0.25137-0.22222 0.80847-0.61883 0.53214-0.75343
  -5   3  -388416.28 3097.71   1 0.15710-0.63069 0.96546-0.77591-0.20784-0.01343
   5   3   394198.81 3259.99   1 0.38875 0.08481-0.76138 0.95092 0.51880-0.29756
   5   3   471206.15 2649.02   1 0.06886 0.41016-0.54459 0.73421 0.83586-0.54100
   5  -3   474412.47 2873.32   1-0.32188 0.80124-0.43875 0.24912 0.83897-0.54400
  -5  -3  -475715.91 2895.79   1-0.78748 0.30824 0.49970-0.68926 0.36079-0.65566
  -5   3  -468323.69 2563.66   1-0.37955-0.09990 0.76962-0.57998 0.51343-0.80847
  -5   3  -468788.52 2709.39   1 0.14627-0.62571 0.96552-0.77597-0.21534-0.07968
   5   3   512765.79 1143.65   1-0.01896 0.50379-0.52844 0.71806 0.84875-0.48017
   5  -3   512040.81 1212.09   1-0.37306 0.85826-0.41790 0.22826 0.82836-0.45965
  -5  -3  -512436.77 1418.68   1-0.83757 0.35285 0.44012-0.62959 0.32365-0.69217
  -5   3  -510920.49 1016.57   1-0.50881 0.02357 0.71212-0.52251 0.48371-0.85230
  -5   3  -512309.38 1677.10   1 0.12958-0.61487 0.96528-0.77573-0.22678-0.14199
   5   3   614166.53 1013.20   1-0.09082 0.58144-0.51200 0.70162 0.85416-0.41187
   5  -3   611733.64 1045.40   1-0.41103 0.90208-0.40125 0.21162 0.81856-0.37610
  -5  -3  -611132.33 1502.47   1-0.88232 0.39172 0.37508-0.56455 0.28429-0.72651
  -5   3  -615681.85 1074.75   1-0.63302 0.14198 0.63619-0.44662 0.44106-0.88338
  -5   3  -615622.28 1829.17   1 0.10812-0.59926 0.96440-0.77485-0.24132-0.20121
   5   3   721556.34 1253.32   1-0.14567 0.64258-0.49754 0.68718 0.85511-0.33891
   5  -3   716939.46 1109.73   1-0.43776 0.93466-0.38889 0.19925 0.81063-0.29443
  -5  -3  -712997.21 1670.51   1-0.92075 0.42429 0.30597-0.49544 0.24203-0.75796
  -5   3  -722256.93 1188.33   1-0.74661 0.24967 0.54187-0.35231 0.38592-0.90196
  -5   3  -719970.50 2163.37   1 0.08262-0.57961 0.96252-0.77297-0.25831-0.25798
   5   3   8  960.07  410.90   1-0.18567 0.68842-0.48586 0.67549 0.85408-0.26414
   5  -3   8  424.80  586.93   1-0.45498 0.95772-0.38063 0.19099 0.80505-0.21511
  -5  -3  -8  720.34  242.04   1-0.95215 0.44976 0.23353-0.42295 0.19713-0.78664
  -5   3  -8  399.71  264.57   1 0.05363-0.55648 0.95928-0.76974-0.27728-0.31277
   5  -3   9 2058.15  715.61   1-0.46407 0.97266-0.37617 0.18653 0.80195-0.13827
  -5  -3  -9  580.69  365.49   1-0.97611 0.46783 0.15739-0.34681 0.14972-0.81292
  -5   3  -9 3270.50  701.51   1 0.02066-0.52947 0.95458-0.76502-0.29723-0.36659
   5  -3  10 2529.10  709.79   1-0.46612 0.98056-0.37516 0.18552 0.80124-0.06382
  -5  -3 -10 1087.85  412.30   1-0.99216 0.47717 0.07327-0.26290 0.10116-0.83855
  -5   3 -10 2683.21  647.92   1-0.01434-0.50032 0.94758-0.75802-0.31917-0.41841
   5   4 -10 1757.80  561.86   1 0.97202-0.57483-0.22355 0.47637-0.07210-0.66530
   5  -4 -10  476.69  310.52   1 0.94125-0.54430-0.32301 0.07021 0.09847-0.83594
  -5   4  10 1802.06  453.54   1 0.41451-0.81219 0.77496-0.52193 0.47708 0.26060
   5   4  -911541.00 1979.82   1 0.96590-0.56305-0.25849 0.51130-0.01445-0.64926
   5  -4  -912174.37 1532.49   1 0.90831-0.50546-0.37222 0.11942 0.19082-0.85454
  -5   4   912334.57 1211.26   1 0.43158-0.83511 0.76861-0.51558 0.47219 0.19173
   5   4  -8 7117.47 1434.49   1 0.95498-0.54622-0.29319 0.54600 0.04525-0.63522
   5  -4  -812481.00 1120.32   1 0.86200-0.45323-0.41860 0.16586 0.28585-0.87582
  -5   4   8 9353.88 1242.26   1 0.44115-0.85052 0.76490-0.51188 0.46935 0.12079
   5   4  -7 4648.23  741.80   1 0.93870-0.52405-0.32768 0.58049 0.10698-0.62321
   5  -4  -7 7651.76 1010.69   1 0.80003-0.38538-0.46227 0.20953 0.38242-0.89865
  -5  -4   7 7488.60  974.66   1-0.43552 0.02113 0.74687-0.99968 0.50249 0.01352
  -5   4   7 6000.43  902.07   1 0.44295-0.85816 0.76420-0.51117 0.46881 0.04757
   5   4  -7 5119.11  680.83   1 0.78336-0.36816 0.48971-0.23703 0.38277-0.89903
   5   4  -622816.65 2297.35   1 0.91641-0.49586-0.36189 0.61470 0.17092-0.61339
   5  -4  -618669.94 1611.92   1 0.72136-0.30069-0.50089 0.24806 0.47826-0.92089
  -5  -4   617965.70 1548.41   1-0.43928 0.01900 0.74524-0.99805 0.50163-0.05933
  -5   4   620464.64 1869.64   1 0.43645-0.85750 0.76674-0.51371 0.47075-0.02814
   5   4  -622485.36 1442.52   1 0.82553-0.40443 0.31229-0.05958 0.47006-0.91262
   5   4  -532763.36 1859.34   1 0.88730-0.46090-0.39523 0.64797 0.23764-0.60637
   5  -4  -528653.29 1594.84   1 0.62540-0.19885-0.53241 0.27958 0.57044-0.93930
  -5  -4   529835.83 1628.89   1-0.45479 0.02860 0.73836-0.99118 0.49796-0.12938
  -5   4   535077.90 2052.00   1 0.42086-0.84774 0.77263-0.51961 0.47529-0.10644
   5   4  -533885.01 1773.65   1 0.83432-0.40746 0.12912 0.12362 0.53593-0.90481
   5   4  -425765.88 1169.08   1 0.85013-0.41785-0.42824 0.68098 0.30638-0.60137
   5  -4  -423525.03 1045.48   1 0.51365-0.08086-0.55406 0.30116 0.65511-0.95013
  -5  -4   423965.05 1113.97   1-0.48022 0.04812 0.72647-0.97928 0.49155-0.19668
  -5   4   424965.16 1194.68   1 0.39513-0.82785 0.78177-0.52874 0.48238-0.18731
  -5   4   423122.66  896.70   1-0.11025-0.32251 0.91982-0.66708-0.37651 0.67155
   5  -4  -421796.31  816.78   1 0.83458-0.40180 0.13686-0.38961 0.53360-0.82870
   5   4  -422253.91  945.79   1 0.81374-0.38097-0.04790 0.30064 0.57923-0.87434
   5   4  -3 9646.11  682.61   1 0.80372-0.36557-0.46007 0.71281 0.37730-0.59854
   5  -4  -310417.63  639.66   1 0.38922 0.04935-0.56496 0.31205 0.72754-0.94878
  -5  -4   311032.28  681.90   1-0.51381 0.07580 0.70950-0.96232 0.48227-0.26112
  -5   4   3 8821.22  824.13   1 0.35798-0.79655 0.79352-0.54050 0.49210-0.27083
  -5   4   3 7694.34  650.99   1 0.07263-0.51110 0.96153-0.70880-0.26490 0.48617
   5  -4  -3 8433.31  376.59   1 0.80321-0.36452 0.42475-0.67743 0.41766-0.63891
   5   4  -3 9039.37  560.90   1 0.77106-0.33223-0.20689 0.45973 0.60220-0.82356
   5   4  -218071.79  814.19   1 0.74680-0.30262-0.48994 0.74277 0.44970-0.59724
   5  -4  -219218.90  839.45   1 0.25776 0.18664-0.56434 0.31143 0.78426-0.93175
  -5  -4   218116.45  802.58   1-0.55379 0.10988 0.68734-0.94015 0.46997-0.32253
  -5   4   220029.04 1022.34   1 0.30797-0.75240 0.80731-0.55430 0.50337-0.35586
  -5   4   219716.59  818.69   1 0.16290-0.60723 0.96536-0.71263-0.20381 0.35132
   5   4  -218673.95  881.70   1 0.71573-0.27103-0.34335 0.59618 0.60813-0.75571
   5   4  -126052.67 1076.57   1 0.67809-0.22803-0.51683 0.76966 0.52256-0.59633
   5  -4  -124953.18 1119.43   1 0.12644 0.32362-0.55281 0.29997 0.82365-0.89737
  -5  -4   125271.32 1098.80   1-0.59837 0.14856 0.65985-0.91266 0.45446-0.38074
  -5   4   126599.97 1168.05   1 0.24375-0.69404 0.82145-0.56843 0.51555-0.44179
  -5   4   129859.12 1894.81   1 0.21051-0.66069 0.96268-0.70995-0.17005 0.24381
   5   4  -126194.25 1080.27   1 0.65564-0.20548-0.45360 0.70635 0.60363-0.67737
   5   4   0 7844.06  493.63   1 0.59699-0.14104-0.53884 0.79174 0.59434-0.59434
   5  -4   0 7114.34  525.41   1 0.00254 0.45332-0.53279 0.27996 0.84623-0.84623
  -5  -4   0 5868.84  469.93   1-0.64573 0.19008 0.62700-0.87975 0.43577-0.43577
  -5   4   0 8452.92  812.25   1 0.16418-0.62033 0.83369-0.58067 0.52725-0.52725
  -5   4   0 8341.67 1201.17   1 0.23404-0.69007 0.96011-0.70738-0.15297 0.15297
   5   4   0 6378.55  464.52   1 0.59777-0.14178-0.54070 0.79346 0.59186-0.59186
   5   4   129321.89 1111.52   1 0.50457-0.04283-0.55531 0.80821 0.66108-0.58732
  -5  -4  -141481.97 1635.70   1-0.69439 0.23285 0.58885-0.84160 0.41360-0.48732
  -5   4  -131021.19 1246.70   1 0.06846-0.53046 0.84087-0.58796 0.53688-0.61065
  -5   4  -127565.15 1584.28   1 0.24224-0.70412 0.95902-0.70628-0.14695 0.07319
   5   4   127327.82 1160.52   1 0.54587-0.08399-0.60699 0.85971 0.57756-0.50381
   5   4   238493.28 1403.04   1 0.40362 0.06389-0.56451 0.81741 0.72000-0.57249
   5  -4   235823.24 1446.80   1-0.20334 0.67101-0.48039 0.22754 0.85315-0.70566
  -5  -4  -234554.62 1361.16   1-0.74274 0.27530 0.54560-0.79835 0.38813-0.53557
  -5   4  -233769.38 1290.43   1-0.04243-0.42543 0.83963-0.58673 0.54148-0.68901
  -5   4  -237993.05 2533.70   1 0.23985-0.70759 0.95935-0.70661-0.14871 0.00119
   5   4   319002.09  855.45   1 0.29919 0.17439-0.56577 0.81868 0.76835-0.54712
   5  -4   317252.27  901.84   1-0.28144 0.75495-0.45396 0.20111 0.84540-0.62417
  -5   4  -318280.07  881.22   1-0.16708-0.30651 0.82555-0.57270 0.53902-0.76030
  -5   4  -321050.19 1963.75   1 0.22969-0.70328 0.96065-0.70792-0.15615-0.06511
   5   4   322326.14 1174.25   1 0.46758 0.00598-0.69142 0.94413 0.55072-0.32949
   5   4   415660.64 1628.61   1 0.19795 0.28147-0.56037 0.81328 0.80423-0.50925
   5  -4   410893.11 1229.29   1-0.34350 0.82286-0.43018 0.17733 0.83483-0.53985
  -5  -4  -411075.26 1682.20   1-0.83330 0.35445 0.44571-0.69834 0.32701-0.62183
  -5   4  -414634.16 1536.58   1-0.30154-0.17792 0.79519-0.54234 0.52606-0.82110
  -5   4  -416778.56 2036.75   1 0.21352-0.69296 0.96240-0.70967-0.16788-0.12714
   5   4   416462.25 1838.99   1 0.44171 0.03769-0.71587 0.96859 0.54074-0.24575
   5   4   558658.62 3206.71   1 0.10547 0.37935-0.55003 0.80287 0.82845-0.45987
   5  -4   549084.92 2825.42   1-0.39120 0.87640-0.41008 0.15723 0.82388-0.45517
  -5  -4  -541487.08 2465.27   1-0.87352 0.38880 0.38893-0.64156 0.29271-0.66123
  -5   4  -559277.39 3270.73   1-0.44132-0.04391 0.74435-0.49154 0.50116-0.86974
  -5   4  -557074.43 3222.64   1 0.19252-0.67781 0.96408-0.71135-0.18293-0.18584
   5   4   557475.64 3327.04   1 0.42408 0.06117-0.73168 0.98440 0.53365-0.16492
   5   4   6 4564.92  676.53   1 0.02691 0.46370-0.53741 0.79025 0.84288-0.40059
   5  -4   6 4660.85  865.32   1-0.42651 0.91756-0.39416 0.14131 0.81407-0.37162
  -5  -4  -6 3637.99  663.89   1-0.90927 0.41868 0.32833-0.58096 0.25576-0.69798
  -5   4  -6 4415.98  617.28   1-0.57935 0.08820 0.67195-0.41914 0.46132-0.90362
  -5   4  -6 5234.72 1016.27   1 0.16748-0.65862 0.96524-0.71251-0.20060-0.24193
   5   4   6 5380.07  904.16   1 0.41392 0.07718-0.74049 0.99321 0.52946-0.08699
   5  -4   7 1481.60  637.79   1-0.45128 0.94818-0.38242 0.12957 0.80628-0.29008
  -5  -4  -7 1029.05  296.61   1-0.93978 0.44330 0.26456-0.51712 0.21633-0.73216
  -5   4  -7 1063.33  290.98   1-0.70939 0.21245 0.57605-0.32330 0.40610-0.92213
   5   4   7 1671.37  549.91   1 0.41044 0.08651-0.74346 0.99618 0.52801-0.01179
   5  -4   8 7755.39  880.62   1-0.46712 0.96987-0.37466 0.12181 0.80088-0.21095
  -5  -4  -8 5534.94 1242.38   1-0.96466 0.46227 0.19730-0.44986 0.17463-0.76414
  -5   4  -8 5497.60 1279.56   1 0.10734-0.61019 0.96435-0.71162-0.24184-0.34821
   5   4   8 5073.13 1120.60   1 0.41290 0.08989-0.74136 0.99408 0.52904 0.06092
   5  -4   911176.21 1175.80   1-0.47533 0.98392-0.37055 0.11770 0.79796-0.13428
  -5  -4  -9 7069.73 1747.29   1-0.98324 0.47495 0.12705-0.37962 0.13071-0.79391
  -5   4  -9 5660.19 1545.43   1 0.07291-0.58160 0.96156-0.70883-0.26471-0.39910
   5   4   9 7277.37  886.21   1 0.42065 0.08799-0.73468 0.98740 0.53224 0.13146
   5   5 -1020941.85 3827.58   1 0.97349-0.57630-0.20271 0.51874-0.10591-0.63148
   5  -5 -1019320.01 3168.78   1 0.94019-0.54324-0.32498 0.00898 0.10206-0.83952
  -5   5  1023975.96 2792.37   1 0.45653-0.85421 0.75873-0.44244 0.46465 0.27303
   5   5  -928984.29 3951.91   1 0.97044-0.56732-0.23560 0.55163-0.05224-0.61142
   5  -5  -925378.74 2479.39   1 0.90509-0.50219-0.37579 0.05987 0.19896-0.86267
  -5   5   932123.58 5117.10   1 0.47313-0.87666 0.75174-0.43546 0.45937 0.20455
   5   5  -8 4930.03 1073.86   1 0.96329-0.55454-0.26843 0.58443 0.00240-0.59238
   5  -5  -8 8983.86  810.24   1 0.85481-0.44604-0.42453 0.10860 0.29842-0.88839
  -5   5   8 7545.75 1541.61   1 0.48289-0.89225 0.74748-0.43119 0.45616 0.13398
   5   5  -718629.03 1700.08   1 0.95181-0.53716-0.30096 0.61696 0.05893-0.57516
   5  -5  -727257.53 1432.24   1 0.78794-0.37329-0.46920 0.15327 0.39873-0.91496
  -5  -5   727095.25 1412.53   1-0.58669 0.17230 0.66735-0.98337 0.45872 0.05729
  -5   5   719898.91 1375.83   1 0.48555-0.90075 0.74629-0.43001 0.45528 0.06110
   5   5  -718355.35 1007.84   1 0.79256-0.37736 0.46179-0.14594 0.39823-0.91449
   5   5  -633519.80 2773.55   1 0.93551-0.51496-0.33326 0.64927 0.11721-0.55969
   5  -5  -639252.80 2470.07   1 0.70349-0.28282-0.50785 0.19182 0.49716-0.93979
  -5  -5   635766.73 2242.23   1-0.58126 0.16097 0.67077-0.98678 0.46065-0.01835
  -5   5   631407.36 2091.99   1 0.48062-0.90166 0.74848-0.43219 0.45691-0.01430
   5   5  -630545.44 1921.48   1 0.82607-0.40497 0.30831 0.00757 0.47173-0.91429
   5   5  -5 3374.80  664.96   1 0.91382-0.48737-0.36529 0.68130 0.17743-0.54616
   5  -5  -5 6285.98  665.88   1 0.60169-0.17468-0.53776 0.22164 0.59057-0.95935
  -5  -5   5 5379.85  590.74   1-0.58761 0.16141 0.66677-0.98279 0.45839-0.08980
  -5   5   5 3239.91  612.51   1 0.46737-0.89425 0.75420-0.43792 0.46122-0.09238
   5   5  -5 3555.45  413.86   1 0.83501-0.40800 0.15088 0.16501 0.52914-0.89794
   5   5  -4 8812.96 1048.13   1 0.88601-0.45373-0.39654 0.71246 0.24028-0.53526
   5  -5  -4 6600.46  785.71   1 0.48436-0.05157-0.55783 0.24170 0.67395-0.96897
  -5  -5   4 7678.71  932.49   1-0.60351 0.17141 0.65648-0.97249 0.45254-0.15768
  -5   5   4 7865.16 1091.54   1 0.44479-0.87751 0.76347-0.44718 0.46825-0.17318
  -5   5   4 7150.75  865.39   1 0.10668-0.53931 0.96432-0.64840-0.24228 0.53731
   5   5  -4 7066.77  834.92   1 0.82183-0.38905-0.00141 0.31734 0.56972-0.86482
   5   5  -319193.09  899.48   1 0.85103-0.41288-0.42753 0.74346 0.30486-0.52610
   5  -5  -322770.33 1059.54   1 0.35618 0.08239-0.56591 0.24977 0.74355-0.96479
  -5  -5   323441.31 1087.17   1-0.62687 0.18892 0.64053-0.95647 0.44356-0.22240
  -5   5   320056.42 1021.84   1 0.41163-0.85019 0.77600-0.45971 0.47789-0.25658
  -5   5   320248.54  860.36   1 0.22237-0.66085 0.96149-0.64558-0.16148 0.38275
   5  -5  -320152.36  813.10   1 0.83024-0.39143 0.27241-0.58831 0.48629-0.70757
   5   5  -319101.82  867.13   1 0.79117-0.35234-0.14163 0.45767 0.59496-0.81632
   5   5  -2 4086.14  457.14   1 0.80785-0.36382-0.45755 0.77348 0.37150-0.51899
   5  -5  -2 4764.43  401.06   1 0.22334 0.22106-0.56232 0.24619 0.79618-0.94367
  -5  -5   2 6069.33  466.45   1-0.65631 0.21246 0.61911-0.93505 0.43121-0.28377
  -5   5   2 3573.16  563.45   1 0.27898-0.72330 0.95292-0.63711-0.11879 0.26627
   5   5  -2 2268.20  336.29   1 0.74939-0.30468-0.26597 0.58202 0.60635-0.75393
   5   5  -180007.22 2736.19   1 0.75535-0.30529-0.48596 0.80200 0.43963-0.51340
   5  -5  -185182.12 2911.54   1 0.09314 0.35692-0.54828 0.23224 0.83108-0.90480
  -5  -5   180762.42 2796.70   1-0.68997 0.24023 0.59252-0.90846 0.41574-0.34202
  -5   5   182431.60 2887.71   1 0.30736-0.75765 0.80747-0.49119 0.50350-0.42974
  -5   5   181857.10 2947.56   1 0.30632-0.75648 0.94687-0.63107-0.09794 0.17169
   5   5  -184213.78 2900.57   1 0.70171-0.25155-0.37051 0.68646 0.60852-0.68226
   5   5   062777.54 2176.36   1 0.69234-0.23641-0.51192 0.82796 0.50851-0.50851
   5  -5   063036.96 2254.02   1-0.02760 0.48347-0.52661 0.21057 0.84965-0.84965
  -5  -5   062283.86 2225.46   1-0.72632 0.27067 0.56095-0.87689 0.39721-0.39721
  -5   5   064258.35 2299.23   1 0.23319-0.68934 0.82340-0.50713 0.51731-0.51731
  -5   5   057723.55 2070.93   1 0.31660-0.77260 0.94427-0.62847-0.09000 0.09000
   5   5   062952.83 2268.38   1 0.65382-0.19784-0.45659 0.77254 0.60335-0.60335
   5   5   161079.83 2084.20   1 0.61844-0.15663-0.53419 0.85023 0.57633-0.50256
   5  -5   162884.52 2257.27   1-0.13427 0.59609-0.50070 0.18464 0.85513-0.78139
  -5  -5  -160883.70 2195.48   1-0.76393 0.30239 0.52464-0.84058 0.37569-0.44940
  -5   5  -164117.28 2321.35   1 0.14259-0.60460 0.83604-0.51976 0.52981-0.60357
  -5   5  -163070.18 2242.08   1 0.31559-0.77743 0.94454-0.62873-0.09078 0.01704
   5   5   161235.14 2220.85   1 0.60906-0.14726-0.52491 0.84086 0.59456-0.52082
   5   5   2 1357.99  210.24   1 0.53414-0.06662-0.55096 0.86708 0.64119-0.49367
   5  -5   2 1367.74  588.92   1-0.22471 0.69237-0.47353 0.15747 0.85162-0.70413
  -5  -5  -2 2341.43  582.75   1-0.80162 0.33451 0.48449-0.80028 0.35024-0.49764
  -5   5  -2 2087.91  361.44   1 0.03468-0.50255 0.84159-0.52546 0.53899-0.68652
  -5   5  -2 2418.53  523.26   1 0.30649-0.77416 0.94683-0.63102-0.09781-0.04967
   5   5   2 2567.37  482.51   1 0.56978-0.10216-0.57767 0.89362 0.58449-0.43702
   5   5   3 9188.52  973.37   1 0.44257 0.03073-0.56194 0.87806 0.69882-0.47755
   5  -5   310082.96 1135.06   1-0.29866 0.77217-0.44762 0.13156 0.84287-0.62164
  -5  -5  -3 9436.43 1403.60   1-0.83809 0.36511 0.43944-0.75522 0.32324-0.54435
  -5   5  -3 8242.87  912.41   1-0.08907-0.38465 0.83601-0.51988 0.54142-0.76272
  -5   5  -313069.66 1940.22   1 0.29124-0.76475 0.95036-0.63455-0.10948-0.11174
   5   5   3 7986.53  932.22   1 0.53708-0.06351-0.61734 0.93324 0.57483-0.35359
   5   5   430534.45 1720.73   1 0.34815 0.13127-0.56602 0.88216 0.74726-0.45228
   5  -5   416747.50 1583.79   1-0.35723 0.83658-0.42453 0.10847 0.83195-0.53699
  -5  -5  -419511.91 2077.43   1-0.87255 0.39370 0.39042-0.70621 0.29362-0.58843
  -5   5  -429092.45 1676.24   1-0.22698-0.25247 0.81407-0.49801 0.53456-0.82960
  -5   5  -432935.54 3461.53   1 0.27110-0.75044 0.95443-0.63863-0.12472-0.17025
   5   5   429735.20 1825.43   1 0.51163-0.03221-0.64599 0.96189 0.56650-0.27151
   5   5   515766.12 1066.76   1 0.25726 0.22799-0.56431 0.88045 0.78444-0.41572
   5  -5   512041.84 1085.43   1-0.40220 0.88740-0.40522 0.08916 0.82099-0.45228
  -5  -5  -514589.33 1631.89   1-0.90417 0.41945 0.33774-0.65353 0.26152-0.63004
  -5   5  -515514.69 1042.96   1-0.37414-0.11118 0.77160-0.45553 0.51444-0.88324
  -5   5  -515714.31 2273.95   1 0.24716-0.73245 0.95831-0.64239-0.14332-0.22545
   5   5   516023.10 1231.51   1 0.49322-0.00796-0.66558 0.98148 0.56011-0.19138
   5   5   617876.19  958.34   1 0.17549 0.31560-0.55833 0.87446 0.81084-0.36837
   5  -5   623717.97 1468.21   1-0.43547 0.92652-0.38997 0.07391 0.81134-0.36889
  -5  -5  -621127.12 1892.36   1-0.93217 0.44159 0.28194-0.59764 0.22705-0.66919
  -5   5  -622098.50 1190.97   1-0.52507 0.03392 0.70348-0.38747 0.47895-0.92125
  -5   5  -617207.58 1987.80   1 0.21949-0.71063 0.96180-0.64588-0.16357-0.27897
   5   5   621722.84 1370.36   1 0.48150 0.00960-0.67760 0.99350 0.55588-0.11341
   5  -5   729387.02 2255.01   1-0.45880 0.95570-0.37876 0.06270 0.80376-0.28756
  -5  -5  -725246.70 3154.21   1-0.95608 0.45960 0.22275-0.53845 0.19045-0.70627
  -5   5  -718928.82 2671.51   1 0.18873-0.68572 0.96432-0.64840-0.18563-0.33067
   5   5   722099.98 1747.88   1 0.47595 0.02100-0.68317 0.99907 0.55384-0.03762
   5  -5   8 5879.80 1139.07   1-0.47368 0.97642-0.37138 0.05532 0.79855-0.20862
  -5  -5  -8 5789.63 1186.82   1-0.97527 0.47289 0.16063-0.47634 0.15175-0.74126
  -5   5  -8 4834.65 1131.58   1 0.15517-0.65802 0.96548-0.64957-0.20918-0.38087
   5   5   8 7165.81  898.32   1 0.47603 0.02676-0.68309 0.99898 0.55387 0.03608
   5  -5   9 3970.02 1137.13   1-0.48130 0.98989-0.36753 0.05147 0.79577-0.13210
  -5  -5  -9 3382.59 1149.04   1-0.98919 0.48090 0.09575-0.41145 0.11102-0.77422
  -5   5  -9 5771.46 1470.58   1 0.11901-0.62770 0.96493-0.64901-0.23397-0.42984
   5   5   9 6298.78  954.47   1 0.48122 0.02742-0.67788 0.99378 0.55578 0.10792
   5   6 -10  825.60  279.80   1 0.97337-0.57618-0.18025 0.55949-0.14160-0.59580
  -5   6  10  531.50  440.76   1 0.48899-0.88668 0.74475-0.36520 0.45412 0.28356
   5   6  -9 3766.07  895.18   1 0.97308-0.56996-0.21119 0.59043-0.09223-0.57142
   5  -6  -9 2736.46  624.81   1 0.90388-0.50099-0.37721-0.00190 0.20173-0.86544
  -5   6   9 4173.24  855.65   1 0.50511-0.90863 0.73731-0.35777 0.44858 0.21534
   5   6  -813586.24 2134.60   1 0.96942-0.56037-0.24179 0.62103-0.04193-0.54799
   5  -6  -8 8684.84  828.65   1 0.85043-0.44166-0.42801 0.04889 0.30587-0.89584
  -5   6   818011.38 1628.03   1 0.51491-0.92427 0.73263-0.35308 0.44510 0.14505
   5   6  -815502.26 1206.00   1 0.74784-0.33851 0.57599-0.19697 0.33010-0.92011
   5   6  -718341.05 2414.44   1 0.96218-0.54753-0.27225 0.65146 0.00894-0.52517
   5  -6  -717805.07 1510.38   1 0.77931-0.36452-0.47390 0.09466 0.40996-0.92637
  -5   6   720626.99 1835.28   1 0.51817-0.93338 0.73104-0.35149 0.44392 0.07245
   5   6  -718561.77 1538.94   1 0.79668-0.38148 0.44815-0.06913 0.40552-0.92178
   5   6  -615555.91 1738.73   1 0.95121-0.53066-0.30234 0.68155 0.06138-0.50386
   5  -6  -617306.84  994.25   1 0.68966-0.26899-0.51287 0.13362 0.51119-0.95382
  -5  -6   618190.14 1058.56   1-0.70680 0.28655 0.57829-0.95742 0.40741 0.03489
  -5   6   618494.20 1413.95   1 0.51446-0.93550 0.73284-0.35330 0.44526-0.00264
   5   6  -617163.72  992.01   1 0.82541-0.40430 0.31319 0.06587 0.46968-0.91224
   5   6  -542595.44 2949.98   1 0.93616-0.50971-0.33215 0.71135 0.11516-0.48389
   5  -6  -544939.26 2802.73   1 0.58275-0.15575-0.54195 0.16260 0.60553-0.97432
  -5  -6   548641.89 3019.50   1-0.70411 0.27796 0.58062-0.95975 0.40878-0.04018
  -5   6   545197.45 2923.56   1 0.50309-0.92997 0.73826-0.35872 0.44928-0.08044
   5   6  -545599.00 2841.76   1 0.83516-0.40816 0.17571 0.20335 0.52117-0.88997
   5   6  -434904.50 2042.39   1 0.91659-0.48424-0.36165 0.74086 0.17045-0.46543
   5  -6  -433855.64 1929.07   1 0.46113-0.02834-0.56029 0.18094 0.68806-0.98308
  -5  -6   432233.78 1851.40   1-0.71075 0.27870 0.57486-0.95399 0.40540-0.11052
  -5   6   436238.80 2247.98   1 0.48312-0.91584 0.74737-0.36783 0.45608-0.16101
  -5   6   433581.00 1837.02   1 0.26648-0.69914 0.95527-0.57631-0.12818 0.42316
   5   6  -434709.01 2028.23   1 0.82768-0.39490 0.04218 0.33693 0.55960-0.85470
   5   6  -312357.39 1367.86   1 0.89193-0.45377-0.39046 0.76957 0.22802-0.44926
   5  -6  -3 9841.13 1094.15   1 0.33042 0.10815-0.56612 0.18676 0.75519-0.97643
  -5  -6   310397.13 1178.61   1-0.72475 0.28680 0.56238-0.94151 0.39805-0.17689
  -5   6   314756.02 1669.51   1 0.45337-0.89192 0.76002-0.38048 0.46563-0.24432
  -5   6   312455.24 1307.69   1 0.33464-0.77314 0.93928-0.56031-0.07591 0.29714
   5   6  -312886.64 1395.68   1 0.80633-0.36763-0.08320 0.46232 0.58558-0.80690
   5   6  -222569.86 1298.96   1 0.86144-0.41741-0.41907 0.79818 0.28685-0.43434
   5  -6  -229516.25 1653.90   1 0.19726 0.24714-0.56032 0.18096 0.80444-0.95193
  -5  -6   225832.58 1482.46   1-0.74440 0.30055 0.54400-0.92313 0.38719-0.23975
  -5   6   225782.34 1503.06   1 0.41235-0.85675 0.77574-0.39619 0.47768-0.33015
  -5   6   227770.71 2126.31   1 0.36730-0.81163 0.92875-0.54979-0.04994 0.19743
   5   6  -223824.89 1354.96   1 0.77483-0.33013-0.19557 0.57483 0.60114-0.74871
   5   6  -133352.49 1400.71   1 0.82431-0.37440-0.44696 0.82607 0.34745-0.42120
   5  -6  -130123.74 1297.51   1 0.06886 0.38120-0.54459 0.16533 0.83587-0.90958
  -5  -6   132023.74 1499.23   1-0.76816 0.31841 0.52030-0.89943 0.37310-0.29938
  -5   6   130727.92 1418.59   1 0.35822-0.80851 0.79344-0.41392 0.49204-0.41829
  -5   6   132593.66 2202.59   1 0.38070-0.83086 0.92386-0.54490-0.03910 0.11284
   5   6  -133940.03 1487.82   1 0.73790-0.28732-0.29401 0.67327 0.60749-0.68128
   5   6   0 1594.46  272.25   1 0.77971-0.32378-0.47369 0.85294 0.40945-0.40945
   5  -6   0 2124.60  376.96   1-0.04859 0.50446-0.52201 0.14276 0.85155-0.85155
  -5  -6   0 1471.87  493.20   1-0.79491 0.33954 0.49215-0.87110 0.35480-0.35480
  -5   6   0 2281.42  360.28   1 0.28947-0.74562 0.81179-0.43226 0.50714-0.50714
  -5   6   0 2355.04  431.93   1 0.38193-0.83793 0.92340-0.54443-0.03809 0.03809
   5   6   0 1771.24  501.21   1 0.69866-0.24268-0.37650 0.75564 0.60836-0.60836
   5   6   132757.63 1720.27   1 0.72660-0.26479-0.49874 0.87798 0.47254-0.39876
   5  -6   127419.09 1594.52   1-0.15131 0.61312-0.49595 0.11668 0.85506-0.78131
  -5  -6  -132733.19 3273.07   1-0.82283 0.36159 0.45903-0.83797 0.33501-0.40871
  -5   6  -133788.17 1836.56   1 0.20429-0.66630 0.82823-0.44870 0.52181-0.59557
  -5   6  -137291.67 3081.04   1 0.37467-0.83650 0.92611-0.54714-0.04399-0.02974
   5   6   131395.75 1750.60   1 0.66099-0.19919-0.44467 0.82381 0.60444-0.53070
   5  -6   217882.54 1889.01   1-0.23783 0.70550-0.46918 0.08991 0.85046-0.70298
  -5  -6  -215946.75 2117.18   1-0.85120 0.38409 0.42164-0.80058 0.31251-0.45992
  -5   6  -215966.27 1664.56   1 0.10101-0.56888 0.83925-0.45990 0.53427-0.68180
  -5   6  -215783.82 1872.49   1 0.36105-0.82872 0.93092-0.55196-0.05496-0.09251
   5   6   216965.03 1863.35   1 0.62672-0.15910-0.49911 0.87825 0.59840-0.45094
   5   6   3 1126.50  205.81   1 0.59380-0.12049-0.53955 0.91890 0.59688-0.37561
   5  -6   3 2157.06  451.40   1-0.30834 0.78186-0.44396 0.06469 0.84131-0.62008
  -5  -6  -3 1212.66  313.05   1-0.87905 0.40607 0.38030-0.75924 0.28747-0.50858
  -5   6  -3  456.95  275.34   1-0.01998-0.45375 0.84072-0.46137 0.54109-0.76239
  -5   6  -3  552.84  246.19   1 0.34240-0.81591 0.93695-0.55799-0.06980-0.15142
   5   6   3 1142.38  503.63   1 0.59727-0.12383-0.54138 0.92052 0.59174-0.37054
   5   6   4 3852.84  387.52   1 0.51679-0.03770-0.55361 0.93296 0.65301-0.35799
   5  -6   4 5182.19  693.73   1-0.36414 0.84349-0.42165 0.04238 0.83042-0.53545
  -5   6  -4 2967.81  357.52   1-0.15834-0.32111 0.82696-0.44768 0.53949-0.83454
  -5   6  -4 4192.67  636.92   1 0.31962-0.79896 0.94348-0.56451-0.08766-0.20731
   5   6   4 3773.75  592.73   1 0.57339-0.09412-0.57307 0.95221 0.58549-0.29056
   5  -6   521866.62 1395.85   1-0.40702 0.89222-0.40306 0.02379 0.81967-0.45096
  -5  -6  -522102.69 2548.72   1-0.92983 0.44514 0.28707-0.66591 0.23021-0.59866
  -5   6  -519953.97 1160.95   1-0.31040-0.17492 0.79259-0.41331 0.52482-0.89362
  -5   6  -517746.69 2229.36   1 0.29329-0.77846 0.94991-0.57094-0.10793-0.26078
   5   6   517832.13 1215.49   1 0.55519-0.06992-0.59576 0.97484 0.58036-0.21163
   5  -6   636454.20 3005.04   1-0.43878 0.92983-0.38841 0.00913 0.81031-0.36785
  -5  -6  -633671.40 4045.39   1-0.95141 0.46083 0.23549-0.61433 0.19835-0.64048
  -5   6  -633471.55 2671.61   1-0.47172-0.01942 0.73053-0.35131 0.49375-0.93605
  -5   6  -634101.13 4401.89   1 0.26383-0.75484 0.95574-0.57678-0.13016-0.31229
   5   6   635501.31 2934.47   1 0.54289-0.05179-0.61052 0.98960 0.57664-0.13416
  -5  -6  -7 3747.06 1204.71   1-0.96964 0.47316 0.18094-0.55978 0.16443-0.68025
  -5   6  -7 4722.87 1366.89   1 0.23187-0.72886 0.96038-0.58128-0.15456-0.36174
   5   6   7 4875.89 1228.19   1 0.53612-0.03917-0.61845 0.99752 0.57452-0.05830
   5  -6   8 3850.32  871.28   1-0.47533 0.97808-0.37055-0.00871 0.79796-0.20802
  -5  -6  -8 4000.77 1003.57   1-0.98396 0.48158 0.12361-0.50245 0.12854-0.71806
  -5   6  -8 7226.91 1341.25   1 0.19700-0.69984 0.96378-0.58468-0.17974-0.41031
   5   6   8 7889.16 1121.00   1 0.53454-0.03174-0.62028 0.99936 0.57402 0.01594
   5  -6   9 5563.18  922.23   1-0.48262 0.99122-0.36686-0.01241 0.79528-0.13161
  -5  -6  -9 4541.02 1122.97   1-0.99388 0.48482 0.05984-0.43908 0.09274-0.75640
  -5   6  -9 6926.96 1409.57   1 0.15965-0.66834 0.96542-0.58632-0.20607-0.45774
   5   6   9 9040.73 1263.37   1 0.53775-0.02911-0.61655 0.99563 0.57504 0.08867
   5   7  -9 3052.13  996.13   1 0.97354-0.57043-0.18517 0.62761-0.13385-0.52981
  -5   7   9 2960.41  868.21   1 0.52912-0.93265 0.72560-0.28280 0.43991 0.22400
   5   7  -8 5544.63 1541.97   1 0.97291-0.56387-0.21362 0.65606-0.08830-0.50162
   5  -7  -8 5325.13  894.13   1 0.84940-0.44062-0.42882-0.01347 0.30761-0.89758
  -5   7   8 6016.52 1171.28   1 0.53885-0.94822 0.72063-0.27783 0.43625 0.15389
   5   7  -8 8051.21  904.41   1 0.75552-0.34620 0.55950-0.11731 0.34078-0.93079
   5  -7  -718805.32 1390.41   1 0.77457-0.35977-0.47640 0.03395 0.41601-0.93241
  -5   7   724404.40 1882.60   1 0.54251-0.95771 0.71873-0.27593 0.43486 0.08152
   5   7  -727664.75 1947.20   1 0.79784-0.38265 0.44415-0.00196 0.40763-0.92389
   5   7  -6 5963.00 1050.26   1 0.96305-0.54250-0.26927 0.71167 0.00384-0.44632
   5  -7  -6 6363.79  817.49   1 0.68051-0.25984-0.51601 0.07356 0.52021-0.96284
  -5  -7   6 6213.15  966.45   1-0.81159 0.39145 0.47275-0.91485 0.34323 0.09898
  -5   7   6 6038.86 1004.39   1 0.53968-0.96073 0.72020-0.27740 0.43594 0.00667
   5   7  -6 5715.92  791.59   1 0.82384-0.40274 0.32400 0.11824 0.46508-0.90764
   5   7  -5 1870.81  462.90   1 0.95369-0.52724-0.29643 0.73884 0.05094-0.41967
   5  -7  -5 2580.07  441.81   1 0.56935-0.14235-0.54468 0.10210 0.61575-0.98453
  -5  -7   5 2205.88  656.05   1-0.80161 0.37559 0.48450-0.92660 0.35024 0.01827
  -5   7   5 3608.85  830.55   1 0.52977-0.95665 0.72527-0.28247 0.43967-0.07082
   5   7  -5 2881.76  500.61   1 0.83470-0.40769 0.20225 0.23999 0.51221-0.88101
   5   7  -411112.60 1773.52   1 0.94118-0.50883-0.32315 0.76556 0.09872-0.39371
   5  -7  -410781.47  833.44   1 0.44441-0.01161-0.56179 0.11921 0.69777-0.99280
  -5  -7   410077.39 1031.02   1-0.80050 0.36861 0.48577-0.92788 0.35100-0.05619
  -5   7   411007.08  970.30   1 0.51191-0.94462 0.73407-0.29128 0.44617-0.15110
  -5   7   4 8740.30  917.15   1 0.37336-0.80602 0.92658-0.48446-0.04505 0.34002
   5   7  -412492.22  972.04   1 0.83169-0.39892 0.08374 0.35856 0.54887-0.84397
   5   7  -348662.78 3874.68   1 0.92532-0.48707-0.34941 0.79181 0.14724-0.36848
   5  -7  -349024.91 2728.05   1 0.31213 0.12644-0.56599 0.12341 0.76303-0.98426
  -5  -7   347063.76 3673.71   1-0.80640 0.36864 0.47891-0.92101 0.34691-0.12580
  -5   7   344732.15 2619.63   1 0.41391-0.85240 0.91024-0.46811-0.01173 0.23296
   5   7  -348404.52 2745.36   1 0.81733-0.37863-0.02862 0.47093 0.57545-0.79677
   5   7  -238726.28 2232.59   1 0.90581-0.46178-0.37494 0.81724 0.19729-0.34478
   5  -7  -240173.55 2292.87   1 0.17938 0.26503-0.55871 0.11612 0.80973-0.95722
  -5  -7   240420.54 3701.28   1-0.81774 0.37411 0.46532-0.90742 0.33878-0.19137
  -5   7   238808.95 2304.58   1 0.44753-0.89192 0.76238-0.31958 0.46742-0.31988
  -5   7   238089.01 2161.04   1 0.43195-0.87627 0.90189-0.45976 0.00344 0.14404
   5   7  -237864.52 2193.99   1 0.79411-0.34941-0.13086 0.57333 0.59350-0.74107
   5   7  -117960.21 1845.64   1 0.88236-0.43246-0.40014 0.84244 0.24760-0.32135
   5  -7  -123910.64 1375.79   1 0.05308 0.39698-0.54200 0.09954 0.83869-0.91241
  -5  -7   124742.61 2722.46   1-0.83314 0.38364 0.44592-0.88802 0.32714-0.25343
  -5   7   118882.61 2042.20   1 0.39793-0.84816 0.78081-0.33801 0.48163-0.40787
  -5   7   118665.57 2105.84   1 0.43654-0.88671 0.89965-0.45752 0.00734 0.06639
   5   7  -118712.11 2007.41   1 0.76573-0.31514-0.22232 0.66478 0.60351-0.67730
   5   7   019531.53 1991.92   1 0.85462-0.39883-0.42469 0.86698 0.29876-0.29876
   5  -7   031054.08 1752.94   1-0.06120 0.51707-0.51913 0.07666 0.85250-0.85250
  -5  -7   032182.98 2847.56   1-0.85139 0.39602 0.42137-0.86347 0.31235-0.31235
  -5   7   021848.72 1310.40   1 0.33401-0.79016 0.80044-0.35766 0.49770-0.49770
  -5   7   023433.68 1960.03   1 0.43206-0.88806 0.90183-0.45971 0.00353-0.00353
   5   7   022649.83 1413.18   1 0.73477-0.27832-0.30133 0.74379 0.60770-0.60770
   5   7   115292.44 1313.15   1 0.82217-0.36051-0.44840 0.89069 0.35067-0.27692
   5  -7   122527.96 1576.58   1-0.16043 0.62224-0.49334 0.05086 0.85491-0.78116
  -5  -7  -120440.82 2155.03   1-0.87139 0.41015 0.39219-0.83429 0.29469-0.36839
  -5   7  -114626.91 1305.30   1 0.25423-0.71624 0.81941-0.37663 0.51373-0.58749
  -5   7  -114402.38 1694.84   1 0.42088-0.88272 0.90709-0.46496-0.00589-0.06785
   5   7   115665.92 1469.94   1 0.70378-0.24144-0.36780 0.81027 0.60779-0.53400
   5   7   2 2336.60  315.50   1 0.78484-0.31716-0.47092 0.91337 0.40279-0.25525
   5  -7   2 1615.29  417.13   1-0.24367 0.71133-0.46721 0.02473 0.84989-0.70241
  -5  -7  -2 1984.50  346.31   1-0.89218 0.42507 0.35878-0.80088 0.27437-0.42177
  -5   7  -2 1925.75  386.95   1 0.15657-0.62444 0.83456-0.39178 0.52818-0.67570
  -5   7  -2 2434.87  494.75   1 0.40448-0.87215 0.91433-0.47220-0.01957-0.12791
   5   7   2 1005.59  468.03   1 0.67419-0.20657-0.42191 0.86423 0.60618-0.45871
   5   7   324833.60 1555.78   1 0.74224-0.26868-0.49200 0.93445 0.45497-0.23366
   5  -7   324749.33 1705.51   1-0.31142 0.78494-0.44279 0.00030 0.84080-0.61957
  -5  -7  -326827.01 2950.53   1-0.91288 0.43990 0.32148-0.76358 0.25156-0.47267
  -5   7  -327581.45 1798.69   1 0.03924-0.51297 0.84155-0.39897 0.53874-0.76004
  -5   7  -329005.57 3735.44   1 0.38379-0.85729 0.92269-0.48056-0.03658-0.18464
   5   7   329403.13 2058.86   1 0.64839-0.17494-0.46543 0.90776 0.60246-0.38126
   5  -7   412177.15 1598.33   1-0.36507 0.84443-0.42126-0.02121 0.83021-0.53524
  -5  -7  -414032.10 2167.90   1-0.93269 0.45390 0.28079-0.72278 0.22635-0.52110
  -5   7  -410613.89 1283.56   1-0.09707-0.38253 0.83520-0.39263 0.54129-0.83636
  -5   7  -413300.17 1988.96   1 0.35944-0.83878 0.93147-0.48934-0.05625-0.23871
   5   7   412892.75 1696.29   1 0.62679-0.14753-0.49901 0.94134 0.59842-0.30348
  -5  -7  -5  149.22  245.83   1-0.95099 0.46630 0.23662-0.67860 0.19905-0.56749
  -5   7  -5  617.27  263.98   1-0.25184-0.23348 0.80836-0.36587 0.53209-0.90090
  -5   7  -5 1563.31  441.13   1 0.33187-0.81705 0.94008-0.49796-0.07809-0.29062
   5   7   5  700.45  477.97   1 0.60988-0.12479-0.52375 0.96608 0.59474-0.22608
   5  -7   6 5937.19 1369.10   1-0.43709 0.92814-0.38921-0.05327 0.81084-0.36839
  -5  -7  -6 4930.62 1247.92   1-0.96713 0.47655 0.18935-0.63133 0.16967-0.61181
  -5   7  -6 4726.22 1237.02   1 0.30141-0.79242 0.94805-0.50592-0.10172-0.34073
   5  -7   7 6690.94  961.72   1-0.45873 0.95563-0.37880-0.06368 0.80378-0.28759
  -5  -7  -7 5704.53 1239.71   1-0.98055 0.48407 0.13919-0.58117 0.13832-0.65414
  -5   7  -7 5987.04 1817.71   1 0.26827-0.76511 0.95495-0.51283-0.12684-0.38935
   5   7   7 7637.39 1036.76   1 0.59056-0.09383-0.55050 0.99283 0.59006-0.07392
   5  -7   8 3022.38  851.51   1-0.47261 0.97536-0.37192-0.07056 0.79894-0.20900
  -5  -7  -8  753.04  333.74   1-0.99075 0.48761 0.08304-0.52550 0.10727-0.69719
  -5   7  -8 2212.28  756.79   1 0.23293-0.73577 0.96025-0.51797-0.15378-0.43627
   5   7   8 2461.75  754.60   1 0.58794-0.08540-0.55401 0.99634 0.58939 0.00047
   5   8  -819957.38 3327.86   1 0.97350-0.56446-0.18380 0.68945-0.13601-0.45391
  -5   8   819011.53 1816.92   1 0.55603-0.96540 0.71152-0.20547 0.42959 0.16056
   5   8  -820933.44 1816.82   1 0.75899-0.34966 0.55173-0.04637 0.34571-0.93572
   5   8  -711501.98 2343.17   1 0.97319-0.55822-0.20933 0.71498-0.09525-0.42093
   5  -8  -713710.00 1410.46   1 0.77439-0.35959-0.47650-0.02915 0.41624-0.93265
  -5   8   717355.67 2011.84   1 0.55990-0.97511 0.70941-0.20336 0.42805 0.08833
   5   8  -714400.62 1503.37   1 0.79702-0.38182 0.44700 0.05835 0.40613-0.92239
   5   8  -6 2352.49  767.01   1 0.97065-0.54976-0.23417 0.73982-0.05460-0.38783
   5  -8  -6 3921.64  910.26   1 0.67662-0.25594-0.51732 0.01166 0.52398-0.96662
  -5   8   6 1631.08  639.09   1 0.55771-0.97875 0.71061-0.20455 0.42892 0.01368
   5   8  -6 2018.43  582.66   1 0.82146-0.40036 0.33900 0.16642 0.45855-0.90111
   5   8  -5 7646.28 1509.76   1 0.96594-0.53948-0.25834 0.76395-0.01471-0.35401
   5  -8  -511486.65 2111.31   1 0.56198-0.13497-0.54610 0.04030 0.62124-0.99002
  -5  -8   510691.45 1630.96   1-0.87676 0.45074 0.38390-0.88916 0.28966 0.07885
  -5   8   511332.38 2152.31   1 0.54890-0.97578 0.71535-0.20930 0.43239-0.06354
   5   8  -5 9841.17 1236.87   1 0.83350-0.40650 0.23002 0.27540 0.50235-0.87115
   5   8  -4  973.10  499.62   1 0.95916-0.52680-0.28173 0.78734 0.02527-0.32026
   5  -8  -4  498.49  247.91   1 0.43450-0.00171-0.56257 0.05677 0.70336-0.99838
  -5  -8   4  526.35  196.42   1-0.87064 0.43875 0.39334-0.89860 0.29539-0.00058
  -5   8   4 1099.06  648.94   1 0.53267-0.96539 0.72380-0.21774 0.43858-0.14351
  -5   8   4  516.26  234.03   1 0.44372-0.87638 0.89606-0.39077 0.01347 0.28150
   5   8  -4  614.32  318.93   1 0.83411-0.40133 0.12381 0.38167 0.53751-0.83261
   5   8  -3 5297.04  954.24   1 0.95037-0.51212-0.30427 0.80987 0.06480-0.28604
   5  -8  -3 3729.45  587.18   1 0.30135 0.13722-0.56582 0.06000 0.76748-0.98872
  -5  -8   3 3521.97  904.69   1-0.87084 0.43308 0.39304-0.89830 0.29521-0.07410
  -5   8   3 5511.60  827.35   1 0.50799-0.94654 0.73595-0.22989 0.44756-0.22626
  -5   8   3 5068.75  696.77   1 0.46892-0.90749 0.88249-0.37714 0.03626 0.18496
   5   8  -3 5345.50  799.56   1 0.82524-0.38654 0.02245 0.48304 0.56432-0.78565
   5   8  -227713.14 2219.16   1 0.93971-0.49556-0.32586 0.83146 0.10365-0.25114
   5  -8  -223602.68 1547.99   1 0.16940 0.27500-0.55772 0.05191 0.81255-0.96004
  -5  -8   222642.99 2135.84   1-0.87605 0.43242 0.38501-0.89026 0.29033-0.14292
  -5   8   227734.72 1874.68   1 0.47351-0.91790 0.75158-0.24552 0.45925-0.31171
  -5   8   227326.46 1755.54   1 0.47817-0.92257 0.87714-0.37179 0.04440 0.10308
   5   8  -226249.61 1771.89   1 0.80894-0.36432-0.07137 0.57686 0.58354-0.73109
   5   8  -129478.55 1901.99   1 0.92737-0.47732-0.34635 0.85195 0.14150-0.21524
   5  -8  -130266.83 1973.93   1 0.04525 0.40481-0.54067 0.03500 0.84001-0.91372
  -5  -8   132073.24 3051.45   1-0.88511 0.43561 0.37055-0.87580 0.28154-0.20783
  -5   8   132657.65 2124.47   1 0.42760-0.87783 0.77012-0.26406 0.47335-0.39958
  -5   8   131141.83 1994.73   1 0.47742-0.92765 0.87758-0.37223 0.04374 0.03000
   5   8  -131347.92 2086.65   1 0.78725-0.33666-0.15543 0.66111 0.59672-0.67050
   5   8   0   88.59  162.37   1 0.91364-0.45769-0.36552 0.87113 0.17787-0.17787
   5  -8   0 2181.18  702.76   1-0.06617 0.52203-0.51797 0.01230 0.85283-0.85283
  -5  -8   0 1107.45  577.33   1-0.89696 0.44159 0.35056-0.85582 0.26935-0.26935
  -5   8   0 1425.47  495.56   1 0.36810-0.82425 0.79042-0.28438 0.48962-0.48962
  -5   8   0  486.98  321.46   1 0.46950-0.92555 0.88216-0.37681 0.03677-0.03677
   5   8   0  573.58  370.16   1 0.76302-0.30656-0.22990 0.73558 0.60409-0.60409
   5   8   130306.27 1897.20   1 0.89878-0.43712-0.38303 0.88851 0.21322-0.13947
   5  -8   130099.12 1942.51   1-0.16242 0.62424-0.49276-0.01292 0.85486-0.78112
  -5  -8  -132547.37 3206.55   1-0.91066 0.44942 0.32572-0.83097 0.25415-0.32786
  -5   8  -131728.20 2042.18   1 0.29330-0.75531 0.81089-0.30485 0.50637-0.58013
  -5   8  -130911.75 2051.22   1 0.45604-0.91792 0.88960-0.38425 0.02504-0.09878
   5   8   245751.88 2403.14   1 0.88406-0.41653-0.39847 0.90396 0.24421-0.09672
   5  -8   249092.59 2688.46   1-0.24301 0.71067-0.46744-0.03825 0.84996-0.70247
  -5  -8  -252164.92 3897.29   1-0.92533 0.45834 0.29665-0.80178 0.23611-0.38349
  -5   8  -247928.77 2587.53   1 0.20084-0.66871 0.82876-0.32272 0.52231-0.66983
  -5   8  -247747.86 3062.09   1 0.43826-0.90593 0.89880-0.39351 0.00880-0.15629
   5   8   246604.76 2598.55   1 0.71385-0.24564-0.34729 0.85297 0.60811-0.46053
   5  -8   3 6881.26  765.05   1-0.30861 0.78212-0.44386-0.06183 0.84127-0.62004
  -5  -8  -3 5665.88  990.36   1-0.94022 0.46733 0.26353-0.76865 0.21569-0.43676
  -5   8  -3 6987.52  563.25   1 0.08818-0.56192 0.83999-0.33419 0.53537-0.75667
  -5   8  -3 4725.40  587.40   1 0.41652-0.89002 0.90907-0.40379-0.00955-0.21167
   5   8   3 6781.46  779.22   1 0.69133-0.21788-0.39059 0.89611 0.60786-0.38666
   5  -8   4 8470.29 1117.75   1-0.36066 0.84001-0.42311-0.08258 0.83120-0.53623
  -5  -8  -4 7206.27 1336.14   1-0.95463 0.47585 0.22679-0.73191 0.19295-0.48771
  -5   8  -4 7422.92  953.85   1-0.04510-0.43450 0.83948-0.33367 0.54151-0.83658
  -5   8  -4 6599.95 1074.66   1 0.39141-0.87076 0.91971-0.41442-0.03034-0.26462
   5   8   4 9109.05 1275.77   1 0.67241-0.19314-0.42504 0.93056 0.60596-0.31103
   5  -8   5 4483.96 1152.08   1-0.40088 0.88608-0.40581-0.09988 0.82134-0.45263
  -5  -8  -5 2575.70  956.35   1-0.96793 0.48324 0.18672-0.69184 0.16803-0.53648
  -5   8  -5 3875.23  881.84   1-0.20016-0.28516 0.81961-0.31391 0.53681-0.90561
  -5   8  -5 4867.96 1273.85   1 0.36330-0.84847 0.93015-0.42486-0.05316-0.31555
   5   8   5 4419.53 1160.47   1 0.65716-0.17208-0.45107 0.95659 0.60387-0.23520
  -5  -8  -6  923.48  319.39   1-0.97953 0.48894 0.14357-0.64869 0.14106-0.58320
  -5   8  -6 1907.65  542.55   1 0.33240-0.82341 0.93993-0.43464-0.07767-0.36478
   5   8   6 2631.41  813.33   1 0.64591-0.15500-0.46941 0.97492 0.60203-0.15963
   5  -8   7 2871.29  773.95   1-0.45216 0.94906-0.38200-0.12369 0.80599-0.28979
  -5  -8  -7 3938.67  904.06   1-0.98889 0.49240 0.09752-0.60265 0.11214-0.62796
  -5   8  -7 3304.69  864.23   1 0.29891-0.79575 0.94863-0.44335-0.10363-0.41256
   5   8   7 3516.88  911.20   1 0.63874-0.14202-0.48072 0.98623 0.60075-0.08462
   5   9  -8 3487.18  974.79   1 0.97088-0.56183-0.15240 0.72126-0.18481-0.40510
  -5   9   8 3814.32  870.45   1 0.56749-0.97685 0.70521-0.13590 0.42499 0.16515
   5   9  -8 3282.20  559.90   1 0.75952-0.35020 0.55050 0.01802 0.34648-0.93649
   5   9  -7 9290.60 1746.41   1 0.97312-0.55815-0.17535 0.74421-0.14928-0.36689
  -5   9   710799.50 1487.33   1 0.57144-0.98665 0.70299-0.13367 0.42338 0.09300
   5   9  -7 9703.94 1259.23   1 0.79467-0.37947 0.45490 0.11362 0.40193-0.91819
   5   9  -6 4905.03 1254.78   1 0.97362-0.55272-0.19730 0.76615-0.11458-0.32786
  -5   9   6 7813.51 1055.45   1 0.56967-0.99071 0.70399-0.13467 0.42410 0.01850
   5   9  -6 5786.71  978.01   1 0.81827-0.39717 0.35707 0.21153 0.45046-0.89303
   5   9  -5 3132.04 1100.52   1 0.97255-0.54572-0.21814 0.78700-0.08094-0.28776
   5  -9  -5 3797.03  870.23   1 0.56105-0.13404-0.54627-0.02274 0.62193-0.99071
  -5  -9   5 3239.88 1054.28   1-0.93191 0.50622 0.28253-0.85079 0.22741 0.14102
  -5   9   5 4203.90 1051.88   1 0.56166-0.98854 0.70845-0.13913 0.42735-0.05850
   5   9  -5 4337.21 1007.88   1 0.83149-0.40448 0.25869 0.30991 0.49162-0.86042
   5   9  -417253.16 2642.15   1 0.97010-0.53735-0.23773 0.80659-0.04869-0.24627
   5  -9  -426162.93 1917.24   1 0.43164 0.00114-0.56278-0.00624 0.70495-0.99997
  -5  -9   421466.99 2151.66   1-0.92334 0.49146 0.30068-0.86909 0.23878 0.05602
  -5   9   425125.40 2061.61   1 0.54668-0.97940 0.71653-0.14722 0.43325-0.13817
   5   9  -425212.04 1938.29   1 0.83515-0.40224 0.16246 0.40614 0.52547-0.82051
   5   9  -318728.12 2598.24   1 0.96653-0.52828-0.25581 0.82462-0.01898-0.20225
   5  -9  -329094.66 2392.47   1 0.29802 0.14054-0.56575-0.00328 0.76883-0.99006
  -5  -9   322813.92 2374.34   1-0.92010 0.48234 0.30729-0.87571 0.24285-0.02174
  -5   9   327258.09 2404.31   1 0.52376-0.96232 0.72828-0.15897 0.44189-0.22058
  -5   9   324005.75 1992.21   1 0.50590-0.94448 0.85980-0.29128 0.06921 0.15201
   5   9  -321061.33 1832.34   1 0.83061-0.39191 0.07082 0.49786 0.55232-0.77365
   5   9  -2 2478.57  430.85   1 0.96221-0.51806-0.27213 0.84094 0.00875-0.15624
   5  -9  -2 3516.59  449.25   1 0.16704 0.27736-0.55748-0.01155 0.81320-0.96069
  -5  -9   2 4328.79  735.92   1-0.92117 0.47754 0.30513-0.87355 0.24152-0.09411
  -5   9   2 3194.87  572.55   1 0.49166-0.93605 0.74354-0.17423 0.45322-0.30568
  -5   9   2 3498.14  463.23   1 0.51021-0.95461 0.85693-0.28841 0.07312 0.07435
   5   9  -2 1410.03  501.68   1 0.81967-0.37505-0.01498 0.58366 0.57263-0.72018
   5   9  -112421.41 1552.30   1 0.95761-0.50755-0.28617 0.85498 0.03298-0.10672
   5  -9  -112326.00  849.51   1 0.04487 0.40519-0.54061-0.02826 0.84007-0.91379
  -5  -9   110244.16 1500.95   1-0.92568 0.47639 0.29591-0.86418 0.23565-0.16196
  -5   9   115066.70 1058.74   1 0.44879-0.89903 0.76187-0.19256 0.46704-0.39327
  -5   9   114892.83  959.94   1 0.50652-0.95675 0.85939-0.29087 0.06977 0.00396
   5   9  -114300.51  950.37   1 0.80402-0.35349-0.09321 0.66189 0.58723-0.66101
   5   9   0 8447.84 1394.68   1 0.95342-0.49746-0.29710 0.86591 0.05212-0.05212
   5  -9   0 6479.24  566.49   1-0.06410 0.51996-0.51845-0.05042 0.85269-0.85269
  -5  -9   0 5918.07  927.25   1-0.93273 0.47755 0.28069-0.84896 0.22628-0.22628
  -5   9   0 8275.85  668.12   1 0.39329-0.84936 0.78239-0.21308 0.48287-0.48287
  -5   9   0 7111.96  643.27   1 0.49681-0.95286 0.86571-0.29719 0.06100-0.06100
   5   9   011273.86  948.64   1 0.78519-0.32873-0.16244 0.73133 0.59756-0.59756
   5  -9   1 5880.49  554.11   1-0.15794 0.61975-0.49406-0.07484 0.85495-0.78121
  -5  -9  -1 6855.05  846.66   1-0.94157 0.48048 0.26030-0.82857 0.21370-0.28739
  -5   9  -1 9870.24  791.63   1 0.32263-0.78464 0.80353-0.23424 0.50023-0.57399
  -5   9  -110996.06  833.57   1 0.48226-0.94415 0.87470-0.30618 0.04802-0.12176
   5   9   1 9488.13  874.65   1 0.76540-0.30307-0.22323 0.79212 0.60358-0.52980
   5  -9   2 3450.88  662.87   1-0.23645 0.70411-0.46965-0.09925 0.85059-0.70311
  -5  -9  -2 5321.82  859.07   1-0.95147 0.48448 0.23535-0.80361 0.19826-0.34564
  -5   9  -2 4507.03  707.62   1 0.23496-0.70283 0.82308-0.25379 0.51702-0.66453
  -5   9  -2 3126.05  555.80   1 0.46366-0.93137 0.88544-0.31692 0.03167-0.17915
   5   9   2 2735.49  623.24   1 0.74579-0.27758-0.27495 0.84384 0.60678-0.45920
   5  -9   323542.18 1836.49   1-0.30046 0.77397-0.44694-0.12196 0.84259-0.62136
  -5  -9  -326089.64 2585.47   1-0.96174 0.48885 0.20631-0.77458 0.18023-0.40130
  -5   9  -320918.61 1592.61   1 0.12754-0.60127 0.83743-0.26814 0.53144-0.75270
  -5   9  -319845.79 2874.53   1 0.44176-0.91526 0.89705-0.32860 0.01179-0.23302
   5   9   320468.98 1715.09   1 0.72752-0.25343-0.31782 0.88671 0.60802-0.38666
   5  -9   420767.27 1588.52   1-0.35140 0.83076-0.42697-0.14193 0.83319-0.53821
  -5  -9  -420971.51 3432.92   1-0.97176 0.49297 0.17357-0.74183 0.15983-0.45458
  -5   9  -419223.64 1387.98   1-0.00259-0.47701 0.84127-0.27224 0.54059-0.83566
  -5   9  -416871.79 1919.07   1 0.41648-0.89583 0.90909-0.34064-0.00957-0.28539
   5   9   420392.20 1689.18   1 0.71146-0.23149-0.35225 0.92113 0.60806-0.31291
   5  -9   5 2945.78  670.38   1-0.39090 0.87610-0.41021-0.15869 0.82396-0.45525
  -5  -9  -5 3210.36  772.57   1-0.98095 0.49627 0.13743-0.70570 0.13722-0.50566
  -5   9  -5 3939.91 1022.97   1 0.38830-0.87348 0.92094-0.35249-0.03289-0.33581
   5   9   5 5698.90 1069.39   1 0.69758-0.21250-0.37861 0.94732 0.60829-0.23963
   5  -9   6 2397.65  674.67   1-0.42054 0.91159-0.39692-0.17198 0.81584-0.37338
  -5  -9  -6 3367.82  811.86   1-0.98878 0.49819 0.09816-0.66642 0.11254-0.55468
  -5   9  -6 3161.86  695.21   1 0.35740-0.84842 0.93215-0.36370-0.05788-0.38457
   5   9   6 2231.35  570.17   1 0.68750-0.19660-0.39776 0.96647 0.60754-0.16514
   5  -9   7 6953.52 1155.28   1-0.44169 0.93859-0.38703-0.18188 0.80939-0.29319
  -5  -9  -7 3762.10 1064.59   1-0.99465 0.49744 0.05312-0.62199 0.08853-0.60471
  -5   9  -7 6072.17 1150.42   1 0.32393-0.82078 0.94231-0.37386-0.08430-0.43190
   5   9   7 5914.71  921.92   1 0.68085-0.18412-0.40999 0.97870 0.60691-0.09078
   5  10  -7  813.82  282.76   1 0.96892-0.55395-0.13976 0.77183-0.20407-0.31210
  -5  10   7  477.12  484.39   1 0.57797-0.99317 0.69926-0.06670 0.42068 0.09570
   5  10  -7 1732.48  490.38   1 0.79104-0.37584 0.46663 0.16506 0.39560-0.91186
   5  10  -6 9396.08 1789.26   1 0.97166-0.55076-0.15866 0.79072-0.17521-0.26723
  -5  10   610954.60 1261.33   1 0.57644-0.99748 0.70014-0.06757 0.42131 0.02130
   5  10  -610645.41 1094.73   1 0.81444-0.39337 0.37716 0.25453 0.44093-0.88343
   5  10  -525441.01 3495.25   1 0.97315-0.54633-0.17598 0.80804-0.14830-0.22040
  -5  10   526222.16 2655.89   1 0.56899-0.99587 0.70437-0.07180 0.42438-0.05553
   5  10  -522680.10 2295.62   1 0.82859-0.40158 0.28805 0.34373 0.48006-0.84886
   5  10  -4 7834.60 1584.24   1 0.97364-0.54089-0.19144 0.82351-0.12391-0.17105
   5 -10  -410854.58  908.36   1 0.43599-0.00320-0.56245-0.06978 0.70253-0.99755
  -5 -10   4 5911.09 1715.51   1-0.96060 0.52901 0.20973-0.84113 0.18236 0.11239
  -5  10   4 9857.45 1023.23   1 0.55493-0.98765 0.71212-0.07955 0.43003-0.13495
   5  10  -411149.31  998.95   1 0.83475-0.40184 0.20059 0.43119 0.51278-0.80782
   5  10  -3 3665.11 1256.96   1 0.97342-0.53474-0.20461 0.83668-0.10285-0.11837
   5 -10  -3 6427.93 1428.14   1 0.30210 0.13647-0.56583-0.06643 0.76717-0.98841
  -5 -10   3 4256.52 1406.73   1-0.95594 0.51845 0.22316-0.85456 0.19070 0.03036
  -5  10   3 3930.32  997.01   1 0.53337-0.97192 0.72345-0.09088 0.43833-0.21702
  -5  10   3 5952.60 1321.03   1 0.53022-0.96879 0.84290-0.21121 0.09152 0.12970
   5  10  -3 4435.41 1073.50   1 0.83380-0.39511 0.11705 0.51480 0.53950-0.76082
   5  10  -221452.54 1689.76   1 0.97282-0.52822-0.21483 0.84690-0.08632-0.06115
   5 -10  -233448.99 2432.39   1 0.17201 0.27239-0.55799-0.07427 0.81182-0.95931
  -5 -10   226588.26 2426.01   1-0.95462 0.51123 0.22682-0.85822 0.19297-0.04559
  -5  10   226299.80 2034.96   1 0.50312-0.94751 0.73825-0.10568 0.44927-0.30173
  -5  10   226374.45 1973.16   1 0.53175-0.97615 0.84177-0.21009 0.09295 0.05453
   5  10  -226161.59 2024.57   1 0.82724-0.38262 0.03838 0.59347 0.56053-0.70808
   5  10  -1 8410.32 1960.31   1 0.97228-0.52174-0.22103 0.85309-0.07623 0.00249
   5 -10  -115185.31 1269.91   1 0.05150 0.39856-0.54174-0.09034 0.83896-0.91268
  -5 -10   1 9683.18 2040.05   1-0.95610 0.50681 0.22270-0.85411 0.19042-0.11673
  -5  10   110027.71 1071.63   1 0.46269-0.91292 0.75617-0.12360 0.46271-0.38894
  -5  10   111445.68 1023.46   1 0.52652-0.97675 0.84558-0.21389 0.08809-0.01435
   5  10  -110511.90  968.91   1 0.81638-0.36584-0.03392 0.66579 0.57651-0.65029
   5 -10   0 2390.67  596.05   1-0.05549 0.51135-0.52044-0.11163 0.85208-0.85208
  -5 -10   0 1386.33  455.94   1-0.95978 0.50459 0.21214-0.84354 0.18386-0.18386
  -5  10   0 1383.61  404.73   1 0.41026-0.86633 0.77649-0.14392 0.47827-0.47827
  -5  10   0 1241.50  526.76   1 0.51599-0.97204 0.85299-0.22131 0.07840-0.07840
   5  10   0 1874.24  584.95   1 0.80265-0.34619-0.09902 0.73089 0.58817-0.58817
   5 -10   1 3127.29  710.64   1-0.14747 0.60928-0.49704-0.13507 0.85510-0.78135
  -5 -10  -1 2338.85  546.53   1-0.96504 0.50396 0.19608-0.82748 0.17386-0.24755
  -5  10  -1 2030.19  585.00   1 0.34330-0.80531 0.79783-0.16528 0.49558-0.56933
  -5  10  -1 1952.27  598.94   1 0.50108-0.96296 0.86296-0.23127 0.06485-0.13859
   5  10   1 2028.64  649.63   1 0.78710-0.32477-0.15594 0.78803 0.59678-0.52299
   5 -10   2 7717.23  811.68   1-0.22446 0.69212-0.47361-0.15850 0.85164-0.70415
  -5  10  -2 8310.52  812.93   1 0.25985-0.72772 0.81827-0.18572 0.51273-0.66024
  -5  10  -2 7784.65  850.28   1 0.48240-0.95011 0.87462-0.24293 0.04814-0.19562
   5  10   2 7662.49 1432.08   1 0.77157-0.30336-0.20540 0.83749 0.60207-0.45449
   5 -10   3 2377.11  569.70   1-0.28736 0.76087-0.45180-0.18031 0.84456-0.62333
  -5 -10  -3 2673.97  859.43   1-0.97795 0.50506 0.15011-0.78152 0.14516-0.36623
  -5  10  -3 1817.29  456.64   1 0.15678-0.63051 0.83454-0.20199 0.52816-0.74943
  -5  10  -3 2544.61  684.74   1 0.46036-0.93390 0.88726-0.25557 0.02879-0.25002
   5  10   3 1551.77  463.00   1 0.75674-0.28265-0.24694 0.87904 0.60527-0.38391
   5 -10   4 1490.68  480.77   1-0.33761 0.81697-0.43255-0.19956 0.83601-0.54103
  -5 -10  -4 1062.81  500.91   1-0.98446 0.50568 0.12118-0.75258 0.12702-0.42177
  -5  10  -4 2996.39  703.56   1 0.43554-0.91488 0.90014-0.26853 0.00648-0.30146
   5  10   4 2873.21  785.15   1 0.74343-0.26346-0.28076 0.91286 0.60702-0.31187
   5 -10   515892.56 1517.06   1-0.37675 0.86195-0.41633-0.21579 0.82748-0.45877
  -5 -10  -512891.85 2520.17   1-0.99033 0.50564 0.08875-0.72016 0.10662-0.47506
  -5  10  -515064.16 2769.99   1 0.40762-0.89280 0.91299-0.28138-0.01696-0.35174
   5  10   516005.36 1535.44   1 0.73224-0.24640-0.30716 0.93925 0.60783-0.23890
   5 -10   6 1260.92  605.91   1-0.40629 0.89734-0.40339-0.22873 0.81987-0.37742
  -5 -10  -6 1530.01  616.33   1-0.99492 0.50363 0.05062-0.68270 0.08696-0.52940
  -5  10  -6 1839.49  430.98   1 0.37702-0.86803 0.92524-0.29364-0.04209-0.40036
   5  10   6 3007.59  782.34   1 0.72360-0.23188-0.32648 0.95857 0.60811-0.16539
   5  11  -5 1106.47  506.12   1 0.96746-0.54064-0.13197 0.82724-0.21583-0.15286
  -5  11   5  442.10  710.17   1 0.57161-0.99849 0.70289-0.00707 0.42331-0.05446
   5  11  -5  536.28  409.86   1 0.82473-0.39773 0.31796 0.37700 0.46766-0.83646
   5  11  -4 2074.64  506.83   1 0.96947-0.53672-0.14302 0.83829-0.19913-0.09582
  -5  11   4 3813.28 1003.51   1 0.55820-0.99092 0.71034-0.01452 0.42873-0.13365
   5  11  -4 2748.33  667.57   1 0.83302-0.40011 0.23805 0.45691 0.49940-0.79444
   5  11  -3 3167.79  629.74   1 0.97066-0.53198-0.15080 0.84607-0.18727-0.03394
   5 -11  -3 2340.23  498.95   1 0.31355 0.12501-0.56601-0.12947 0.76243-0.98366
  -5 -11   3 2480.08  521.91   1-0.98000 0.54251 0.14155-0.83610 0.13980 0.08126
  -5  11   3 2522.05  693.01   1 0.53763-0.97619 0.72126-0.02543 0.43672-0.21541
   5  11  -3 4980.92  978.12   1 0.83514-0.39633 0.16135 0.53361 0.52582-0.74710
   5  11  -2  786.95  294.62   1 0.97111-0.52651-0.15419 0.84946-0.18208 0.03460
   5 -11  -2 1219.99  474.11   1 0.18410 0.26030-0.55915-0.13633 0.80836-0.95585
  -5 -11   2  418.49  227.86   1-0.97781 0.53442 0.15066-0.84521 0.14551 0.00186
  -5  11   2  774.69  408.01   1 0.50879-0.95319 0.73557-0.03974 0.44728-0.29974
  -5  11   2 1183.90  488.37   1 0.54533-0.98973 0.83153-0.13667 0.10567 0.04181
   5  11  -2 1420.66  443.57   1 0.83211-0.38750 0.08929 0.60575 0.54735-0.69490
   5 -11  -1 3913.44  778.92   1 0.06484 0.38522-0.54394-0.15135 0.83661-0.91032
  -5 -11   1 2901.30  695.88   1-0.97763 0.52834 0.15140-0.84594 0.14597-0.07228
  -5  11   1 2336.98  705.20   1 0.47027-0.92050 0.75297-0.05714 0.46029-0.38652
  -5  11   1 3953.02  797.12   1 0.53939-0.98962 0.83608-0.14122 0.10009-0.02634
   5  11  -1 4432.58  934.57   1 0.82524-0.37470 0.02243 0.67261 0.56433-0.63810
   5 -11   031019.96 2333.08   1-0.04070 0.49656-0.52377-0.17152 0.85088-0.85088
  -5 -11   029635.53 2365.30   1-0.97913 0.52394 0.14526-0.83981 0.14212-0.14212
  -5  11   032322.03 2477.04   1 0.42029-0.87636 0.77285-0.07702 0.47545-0.47545
  -5  11   029751.46 2304.07   1 0.52864-0.98469 0.84405-0.14919 0.09005-0.09005
   5 -11   120674.89 2112.89   1-0.13137 0.59318-0.50150-0.19383 0.85512-0.78138
  -5 -11  -115064.74 2502.63   1-0.98188 0.52079 0.13332-0.82787 0.13464-0.20833
  -5  11  -121396.14 2178.95   1 0.35634-0.81835 0.79401-0.09821 0.49250-0.56625
  -5  11  -120462.59 2128.46   1 0.51380-0.97568 0.85449-0.15963 0.07640-0.15014
   5  11   119895.23 2046.95   1 0.80428-0.34191-0.09211 0.78716 0.58705-0.51328
   5 -11   2 1785.68  524.09   1-0.20735 0.67501-0.47913-0.21620 0.85290-0.70541
  -5 -11  -2  888.09  489.38   1-0.98543 0.51844 0.11636-0.81090 0.12399-0.27137
  -5  11  -2 1776.84  467.11   1 0.27641-0.74428 0.81475-0.11895 0.50967-0.65718
  -5  11  -2 1066.39  541.85   1 0.49538-0.96309 0.86661-0.17175 0.05972-0.20721
   5  11   2 2947.60  749.65   1 0.79202-0.32381-0.13857 0.83387 0.59455-0.44698
   5 -11   3 6906.20 1035.07   1-0.26960 0.74312-0.45821-0.23711 0.84696-0.62573
  -5 -11  -3 5148.24 1206.13   1-0.98932 0.51643 0.09496-0.78951 0.11053-0.33160
  -5  11  -3 8223.66 1104.21   1 0.17712-0.65085 0.83208-0.13628 0.52560-0.74686
  -5  11  -3 5422.75 1095.11   1 0.47373-0.94727 0.87973-0.18487 0.04048-0.26171
   5  11   3 5765.31 1010.70   1 0.78034-0.30625-0.17837 0.87367 0.59937-0.37801
   5 -11   4 2300.18  742.82   1-0.31953 0.79889-0.43967-0.25566 0.83939-0.54442
  -5 -11  -4 4835.49  840.97   1-0.99291 0.51346 0.06772-0.76300 0.09768-0.39264
  -5  11  -4 3593.89 1047.75   1 0.44936-0.92870 0.89316-0.19839 0.01831-0.31328
   5  11   4 3761.24 1138.07   1 0.76963-0.28967-0.21110 0.90640 0.60257-0.30743
   5  12  -4 2591.79  595.53   1 0.95696-0.52447-0.09273 0.85118-0.27497-0.02013
  -5  12   4 3405.84  709.15   1 0.55708-0.98979 0.71096 0.04812 0.42918-0.13410
   5  12  -4 2976.70  600.01   1 0.82998-0.39708 0.27500 0.48314 0.48527-0.78031
  -5 -12   3  444.70  284.55   1-0.99345 0.55548 0.06339-0.82188 0.09497 0.12624
  -5  12   3 1563.99  733.31   1 0.53720-0.97576 0.72148 0.03759 0.43688-0.21557
   5  12  -3  543.29  405.92   1 0.83463-0.39582 0.20454 0.55360 0.51141-0.73270
  -5 -12   2 4552.30 1219.88   1-0.99164 0.54774 0.07699-0.83548 0.10349 0.04398
  -5  12   2 8088.75 1099.69   1 0.50939-0.95378 0.73528 0.02379 0.44707-0.29953
  -5  12   2 7915.06  928.49   1 0.55269-0.99709 0.82573-0.06770 0.11265 0.03483
   5  12  -2 6361.95  979.64   1 0.83470-0.38999 0.13797 0.62017 0.53313-0.68065
   5 -12  -1 3380.29  720.11   1 0.08470 0.36536-0.54703-0.21146 0.83281-0.90652
  -5 -12   1 4702.16 1100.20   1-0.99094 0.54111 0.08181-0.84030 0.10650-0.03276
  -5  12   1 3272.81  754.13   1 0.47229-0.92252 0.75210 0.00697 0.45964-0.38587
  -5  12   1 3210.86  714.26   1 0.54658-0.99681 0.83055-0.07253 0.10685-0.03311
   5  12  -1 3659.94  804.63   1 0.83109-0.38056 0.07633 0.68190 0.55086-0.62464
   5 -12   0 1427.35  501.52   1-0.01995 0.47582-0.52823-0.23027 0.84886-0.84886
  -5 -12   0  484.51  304.51   1-0.99128 0.53554 0.07945-0.83795 0.10503-0.10503
  -5  12   0 2947.36  764.99   1 0.42418-0.88025 0.77140-0.01232 0.47434-0.47434
  -5  12   0  426.73  325.17   1 0.53596-0.99202 0.83866-0.08063 0.09688-0.09688
   5 -12   1 4500.57  949.84   1-0.10986 0.57167-0.50722-0.25132 0.85478-0.78103
  -5 -12  -1 2643.49  754.50   1-0.99247 0.53079 0.07105-0.82954 0.09977-0.17351
  -5  12  -1 6049.75  785.62   1 0.36259-0.82460 0.79212-0.03306 0.49098-0.56474
  -5  12  -1 5164.94 1405.76   1 0.52147-0.98335 0.84917-0.09115 0.08343-0.15717
   5  12   1 4610.69  973.07   1 0.81699-0.35461-0.03054 0.78878 0.57584-0.50206
   5 -12   2 2767.19  825.11   1-0.18532 0.65298-0.48596-0.27257 0.85410-0.70661
  -5 -12  -2 1120.93  400.28   1-0.99417 0.52657 0.05743-0.81592 0.09123-0.23871
  -5  12  -2 1688.18  579.63   1 0.28546-0.75333 0.81272-0.05366 0.50792-0.65544
   5  12   2 1811.59  639.44   1 0.80821-0.33991-0.07473 0.83297 0.58412-0.43657
   5 -12   3  861.75  380.76   1-0.24735 0.72086-0.46596-0.29257 0.84952-0.62829
  -5 -12  -3 1366.92  461.63   1-0.99603 0.52251 0.03922-0.79771 0.07980-0.30102
  -5  12  -3  834.94  497.11   1 0.48241-0.95594 0.87461-0.11659 0.04815-0.26938
   5  12   3 2562.56  725.65   1 0.79933-0.32512-0.11249 0.87073 0.59025-0.36893
   6   0 -10  813.32  281.64   1 0.94265-0.45450-0.32036 0.32036 0.09366-0.83113
   6   0  -928206.61 3736.52   1 0.91778-0.42373-0.36006 0.36006 0.16742-0.83114
  -6   0   931505.18 2428.18   1 0.03094-0.52548 0.84161-0.84161 0.53918 0.12471
   6   0  -812007.88 1028.74   1 0.88472-0.38479-0.39783 0.39783 0.24289-0.83286
  -6   0   813061.36 1133.27   1 0.03729-0.53770 0.84157-0.84157 0.53885 0.05128
   6   0  -7  494.11  367.35   1 0.84227-0.33647-0.43424 0.43424 0.31936-0.83559
  -6   0   7  826.29  482.97   1 0.03334-0.53961 0.84160-0.84160 0.53906-0.02269
   6   0  -6 1690.72  478.67   1 0.78981-0.27813-0.46815 0.46815 0.39625-0.83873
  -6   0   6 1112.88  522.48   1 0.01913-0.53128 0.84160-0.84160 0.53975-0.09715
  -6   0   5 4853.68  639.85   1-0.00533-0.51267 0.84120-0.84120 0.54068-0.17185
   6   0  -5 6208.31  664.39   1 0.80693-0.28878-0.08052 0.08052 0.58512-0.95400
   6   0  -496430.34 4853.39   1 0.65282-0.12920-0.52478 0.52478 0.54628-0.84137
  -6   0   499950.72 5065.22   1-0.04007-0.48381 0.83977-0.83977 0.54145-0.24638
   6   0  -480676.31 4003.91   1 0.27742 0.24643 0.95322-0.95322-0.11996-0.17501
   6   0  -4101620.9 5015.65   1 0.68696-0.16307-0.39876 0.39876 0.60750-0.90243
   6   0  -3188040.5 6729.34   1 0.56853-0.03876-0.54484 0.54484 0.61637-0.83764
  -6   0   3211157.620827.60   1-0.08489-0.44485 0.83641-0.83641 0.54148-0.32018
   6   0  -3200876.4 7085.84   1 0.55320-0.02350-0.59818 0.59818 0.57977-0.80101
   6   0  -2262840.1 8514.72   1 0.47527 0.06028-0.55885 0.55885 0.67956-0.82707
  -6   0   2262078.3 8522.24   1-0.13917-0.39629 0.82981-0.82981 0.54040-0.39288
   6   0  -2280580.3 9889.05   1 0.43642 0.09912-0.72069 0.72069 0.53863-0.68613
   6   0  -193093.32 3195.72   1 0.37575 0.16571-0.56544 0.56544 0.73422-0.80796
  -6   0   185693.08 2955.59   1-0.20257-0.33876 0.81914-0.81914 0.53662-0.46286
   6   0   016138.89  797.80   1 0.27364 0.27364-0.56502 0.56502 0.77837-0.77837
  -6   0   014265.50  763.67   1-0.27360-0.27360 0.80288-0.80288 0.52964-0.52964
   6   0   118171.35  865.78   1 0.17329 0.37983-0.55811 0.55811 0.81146-0.73771
  -6   0  -118406.55  926.13   1-0.35061-0.20245 0.77983-0.77983 0.51858-0.59234
   6   0   2 1205.24  433.24   1 0.07865 0.47996-0.54612 0.54612 0.83400-0.68657
  -6   0  -2  475.70  316.96   1-0.43163-0.12704 0.74853-0.74853 0.50337-0.65081
   6   0   3  888.84  448.69   1-0.00647 0.57088-0.53100 0.53100 0.84734-0.62619
  -6   0  -3  632.41  438.66   1-0.51444-0.05013 0.70917-0.70917 0.48209-0.70324
   6   0   410465.65 1010.41   1-0.08009 0.65030-0.51464 0.51464 0.85365-0.55879
  -6   0  -4 9168.34  885.71   1-0.59667 0.02619 0.66096-0.66096 0.45509-0.74996
  -6   0  -413403.03 1328.70   1-0.15418-0.41661 0.90283-0.90283-0.40138 0.10634
   6   0   5 5935.88  678.44   1-0.14088 0.71729-0.49888 0.49888 0.85514-0.48642
  -6   0  -5 5611.50  697.29   1-0.67612 0.09986 0.60375-0.60375 0.42229-0.79089
  -6   0  -5 6083.49  681.80   1-0.15076-0.42588 0.90425-0.90425-0.39948 0.03068
   6   0   611771.48  809.53   1-0.18964 0.77190-0.48464 0.48464 0.85390-0.41144
  -6   0  -613091.32  855.17   1-0.75058 0.16842 0.53800-0.53800 0.38363-0.82594
  -6   0  -613404.37 1082.25   1-0.15434-0.42815 0.90277-0.90277-0.40147-0.04108
   6   0   711505.31 1107.98   1-0.22676 0.81486-0.47286 0.47286 0.85145-0.33525
  -6   0  -7 9666.38 1444.44   1-0.81776 0.23022 0.46529-0.46529 0.33876-0.85469
   6   0   8 2391.74  626.75   1-0.25321 0.84716-0.46395 0.46395 0.84889-0.25895
  -6   0  -8 3048.49  629.79   1-0.87711 0.28371 0.38334-0.38334 0.28932-0.87894
   6   0   9  922.58  534.06   1-0.27003 0.86983-0.45806 0.45806 0.84691-0.18322
  -6   0  -9  887.34  331.96   1-0.92638 0.32706 0.29445-0.29445 0.23475-0.89795
   6   1 -10 1035.92  423.41   1 0.94930-0.46116-0.30667 0.36987 0.06908-0.80654
   6  -1 -10 1337.98  448.88   1 0.93617-0.44803-0.33213 0.26893 0.11514-0.85260
  -6   1  10 2448.65  573.34   1 0.10876-0.59743 0.83873-0.77551 0.53356 0.20410
   6   1  -9 6499.13 1267.87   1 0.92815-0.43411-0.34515 0.40835 0.13926-0.80298
   6  -1  -9 8526.13 1174.38   1 0.90764-0.41360-0.37303 0.30983 0.19239-0.85611
  -6  -1   9 8275.16  808.92   1-0.07694-0.41759 0.83713-0.90036 0.54155 0.12234
  -6   1   9 9067.90  918.27   1 0.12437-0.61891 0.83753-0.77431 0.53203 0.13186
   6   1  -829757.54 2259.10   1 0.89967-0.39974-0.38204 0.44523 0.21126-0.80123
   6  -1  -832775.66 2417.36   1 0.87008-0.37015-0.41159 0.34841 0.27118-0.86115
  -6  -1   829295.70 2136.36   1-0.06931-0.43109 0.83777-0.90100 0.54159 0.04853
  -6   1   831013.15 2308.63   1 0.12997-0.63048 0.83722-0.77397 0.53118 0.05885
   6   1  -721331.55 1218.16   1 0.86279-0.35699-0.41793 0.48112 0.28445-0.80067
   6  -1  -718908.06 1176.36   1 0.82216-0.31636-0.44840 0.38521 0.35068-0.86690
  -6  -1   719328.38 1177.04   1-0.07262-0.43364 0.83750-0.90072 0.54158-0.02521
  -6   1   720700.25 1265.23   1 0.12656-0.63284 0.83735-0.77412 0.53181-0.01544
   6  -1  -6 6340.63  649.41   1 0.76342-0.25156-0.48205 0.41884 0.42987-0.87251
  -6  -1   6 8380.71  819.37   1-0.08652-0.42561 0.83626-0.89948 0.54146-0.09886
  -6   1   6 7108.93  843.58   1 0.11304-0.62518 0.83842-0.77520 0.53315-0.09055
   6   1  -515726.28 1448.13   1 0.76125-0.24352-0.48312 0.54633 0.43252-0.80138
   6  -1  -5 9568.76  913.10   1 0.69328-0.17554-0.51159 0.44838 0.50757-0.87643
  -6  -1   511490.11 1124.12   1-0.11073-0.40728 0.83370-0.89692 0.54099-0.17216
  -6   1   515639.20 1424.91   1 0.08946-0.60747 0.83993-0.77670 0.53526-0.16643
   6   1  -514730.07 1223.19   1 0.81318-0.29503-0.05079 0.11398 0.57978-0.94866
   6  -1  -5 8535.63  705.92   1 0.80125-0.28289-0.10295 0.03974 0.58939-0.95832
   6   1  -422338.38 1329.05   1 0.69532-0.17171-0.51085 0.57406 0.50551-0.80060
   6  -1  -421156.90 1249.74   1 0.61194-0.08833-0.53580 0.47260 0.58174-0.87683
  -6  -1   425080.74 1469.75   1-0.14455-0.37918 0.82904-0.89226 0.54016-0.24512
  -6   1   423162.52 1429.08   1 0.05556-0.57944 0.84126-0.77803 0.53776-0.24269
   6  -1  -419017.78 1903.89   1 0.48059 0.04336 0.87570-0.93887 0.04654-0.34151
   6   1  -421870.66 1167.54   1 0.72917-0.20493-0.31412 0.37733 0.60797-0.90311
   6  -1  -422839.87 1179.31   1 0.62492-0.10102-0.50181 0.43862 0.59803-0.89297
   6   1  -3 2293.30  545.94   1 0.61916-0.08967-0.53401 0.59722 0.57572-0.79704
   6  -1  -3 2082.80  496.42   1 0.52055 0.00921-0.55306 0.48984 0.65049-0.87176
  -6  -1   3 2152.45  458.26   1-0.18824-0.34136 0.82186-0.88507 0.53768-0.31639
  -6   1   3 2087.55  650.54   1 0.01118-0.54093 0.84153-0.77830 0.54009-0.31879
   6   1  -3 1716.78  295.19   1 0.62444-0.09473-0.50252 0.56571 0.59793-0.81913
   6  -1  -3 1261.00  246.22   1 0.46040 0.06929-0.69836 0.63518 0.54800-0.76924
   6   1  -270931.71 2477.80   1 0.53359 0.00196-0.55105 0.61427 0.64157-0.78908
   6  -1  -264892.01 2303.53   1 0.42106 0.11448-0.56350 0.50028 0.71074-0.85826
  -6  -1   260771.43 2174.41   1-0.24061-0.29485 0.81101-0.87422 0.53325-0.38573
  -6   1   276532.49 2687.01   1-0.04360-0.49201 0.83957-0.77634 0.54149-0.39396
   6   1  -276702.39 2596.56   1 0.52357 0.01197-0.63278 0.69596 0.57048-0.71797
   6   1  -1 4100.13  526.88   1 0.44041 0.10092-0.56211 0.62533 0.70004-0.77379
   6  -1  -1 4701.39  565.37   1 0.31699 0.22447-0.56605 0.50282 0.76098-0.83473
  -6  -1   1 2574.29  467.61   1-0.30057-0.24076 0.79547-0.85868 0.52619-0.45243
  -6   1   1 2802.43  369.87   1-0.10837-0.43311 0.83397-0.77074 0.54105-0.46728
   6   1  -1 2921.03  378.63   1 0.43685 0.10453-0.72030 0.78348 0.53881-0.61255
   6   1   021956.66  988.09   1 0.34269 0.20460-0.56607 0.62930 0.74974-0.74974
   6  -1   017220.03  918.53   1 0.21243 0.33486-0.56153 0.49831 0.79971-0.79971
  -6  -1   016571.14  895.59   1-0.36669-0.18050 0.77426-0.83748 0.51579-0.51579
  -6   1   020828.95  960.27   1-0.18218-0.36501 0.82296-0.75975 0.53808-0.53809
   6   1   112668.92  786.65   1 0.24432 0.30880-0.56364 0.62686 0.78905-0.71531
   6  -1   114081.10  882.20   1 0.11167 0.44115-0.55088 0.48767 0.82707-0.75336
  -6  -1  -112896.01  762.15   1-0.43718-0.11557 0.74615-0.80935 0.50211-0.57583
  -6   1  -111968.06  725.72   1-0.26379-0.28926 0.80540-0.74219 0.53078-0.60454
  -6   1  -113137.61  666.37   1-0.12925-0.42399 0.91281-0.84962-0.38738 0.31362
   6   1   253193.26 2097.21   1 0.14955 0.40941-0.55560 0.61882 0.81788-0.67039
   6  -1   262963.23 2527.61   1 0.01894 0.53968-0.53594 0.47273 0.84404-0.69661
  -6  -1  -257816.73 2249.87   1-0.51037-0.04829 0.71131-0.77451 0.48327-0.63070
  -6   1  -253195.03 2114.41   1-0.35118-0.20775 0.77964-0.71642 0.51848-0.66601
  -6   1  -258879.67 2338.25   1-0.10040-0.45869 0.92326-0.86007-0.37081 0.22329
   6   1   366843.15 3470.54   1 0.06193 0.50248-0.54347 0.60668 0.83713-0.61599
   6  -1   363866.26 3312.75   1-0.06309 0.62750-0.51869 0.45548 0.85263-0.63148
  -6  -1  -364089.50 3313.09   1-0.58408 0.01950 0.66900-0.73220 0.45965-0.68080
  -6   1  -363948.49 3299.08   1-0.44208-0.12248 0.74402-0.68082 0.50098-0.72213
  -6   1  -364442.67 3373.80   1-0.08399-0.48095 0.92868-0.86550-0.36122 0.13994
   6   1   4 7812.75  913.08   1-0.01517 0.58538-0.52922 0.59243 0.84834-0.55348
   6  -1   4 5793.96  669.08   1-0.13259 0.70314-0.50116 0.43795 0.85513-0.56015
  -6  -1  -4 6078.18  736.73   1-0.65640 0.08603 0.61904-0.68223 0.43117-0.72605
  -6   1  -4 6107.18  714.85   1-0.53373-0.03674 0.69874-0.63554 0.47632-0.77119
  -6   1  -4 7251.12 1252.17   1-0.07741-0.49338 0.93075-0.86757-0.35734 0.06230
   6   1   5 3333.92  551.42   1-0.08039 0.65639-0.51456 0.57777 0.85367-0.48509
   6  -1   5 1618.79  636.16   1-0.18977 0.76617-0.48461 0.42139 0.85389-0.48518
  -6  -1  -5 1215.03  326.60   1-0.72544 0.14918 0.56175-0.62494 0.39768-0.76628
  -6   1  -5 5486.18  577.77   1-0.62355 0.04728 0.64284-0.57966 0.44488-0.81348
  -6   1  -5 3994.39  824.87   1-0.07873-0.49791 0.93034-0.86716-0.35812-0.01066
   6   1   617843.14 1170.34   1-0.13274 0.71499-0.50112 0.56433 0.85513-0.41267
   6  -1   613512.53  953.91   1-0.23486 0.81711-0.47018 0.40696 0.85074-0.40828
  -6  -1  -612646.98  870.75   1-0.78958 0.20742 0.49737-0.56056 0.35939-0.80171
  -6   1  -615886.98  999.04   1-0.70875 0.12658 0.57661-0.51342 0.40643-0.84874
  -6   1  -615388.74 1857.72   1-0.08655-0.49594 0.92786-0.86467-0.36273-0.07982
   6   1   7  182.98  314.19   1-0.17347 0.76157-0.48952 0.55273 0.85455-0.33835
   6  -1   7 1847.60  591.68   1-0.26879 0.85689-0.45850 0.39528 0.84706-0.33086
  -6  -1  -7 1008.07  382.49   1-0.84707 0.25953 0.42735-0.49051 0.31596-0.83188
  -6   1  -7  633.47  294.11   1-0.78697 0.19891 0.50025-0.43706 0.36112-0.87715
   6   1   8 6776.98  894.39   1-0.20296 0.79691-0.48051 0.54372 0.85317-0.26323
   6  -1   8 7799.53 1055.87   1-0.29265 0.88660-0.44985 0.38664 0.84379-0.25384
  -6  -1  -8 6610.98 1258.27   1-0.89740 0.30400 0.34979-0.41295 0.26888-0.85851
  -6   1  -8 5559.71 1183.52   1-0.85559 0.26219 0.41545-0.35230 0.30878-0.89840
  -6   1  -8 5011.56  915.52   1-0.11774-0.47644 0.91712-0.85393-0.38081-0.20925
   6   1   9 8361.86 1100.93   1-0.22215 0.82195-0.47437 0.53758 0.85183-0.18814
   6  -1   911538.42 1455.28   1-0.30749 0.90729-0.44429 0.38108 0.84145-0.17776
  -6  -1  -9 6248.33 1872.11   1-0.93888 0.33955 0.26669-0.32983 0.21765-0.88085
  -6   1  -910697.16 1456.15   1-0.13974-0.46030 0.90872-0.84553-0.39330-0.27052
   6   2 -1011408.46 2299.40   1 0.95577-0.46763-0.29112 0.41752 0.04162-0.77909
   6  -2 -1010101.75 1978.43   1 0.93023-0.44209-0.34191 0.21551 0.13322-0.87069
  -6   2  1016687.31 2022.88   1 0.18852-0.67731 0.83055-0.70404 0.52406 0.21348
   6   2  -9 3987.72  876.85   1 0.93834-0.44430-0.32833 0.45473 0.10816-0.77188
   6  -2  -9 7263.46  877.99   1 0.89843-0.40438-0.38343 0.25705 0.21400-0.87772
  -6   2   9 4509.08  871.77   1 0.20340-0.69804 0.82837-0.70186 0.52194 0.14185
   6   2  -8 4395.27 1073.79   1 0.91428-0.41434-0.36469 0.49109 0.17627-0.76625
   6  -2  -8 8051.41 1620.46   1 0.85626-0.35633-0.42335 0.29698 0.29593-0.88590
  -6  -2   8 9232.87  781.51   1-0.18758-0.31268 0.82198-0.94841 0.53772 0.05235
  -6   2   8 5858.91 1292.19   1 0.20938-0.70988 0.82744-0.70093 0.52105 0.06898
   6  -2  -716444.53 1061.54   1 0.80307-0.29727-0.46046 0.33409 0.37821-0.89443
  -6  -2   715509.67  944.19   1-0.18902-0.31711 0.82172-0.94814 0.53762-0.02130
  -6   2   718097.21 1110.93   1 0.20638-0.71274 0.82791-0.70140 0.52150-0.00521
   6   2  -660766.58 3804.82   1 0.84378-0.33210-0.43312 0.55949 0.31691-0.75939
   6  -2  -653420.84 3299.56   1 0.73831-0.22645-0.49374 0.36733 0.45946-0.90210
  -6  -2   655193.71 3418.86   1-0.20127-0.31073 0.81939-0.94582 0.53672-0.09416
  -6   2   657331.81 3598.84   1 0.19412-0.70634 0.82975-0.70324 0.52328-0.08074
   6   2  -655522.80 3335.88   1 0.83269-0.32028 0.24305-0.11669 0.49754-0.94010
   6   2  -550510.33 2852.08   1 0.79571-0.27815-0.46479 0.59116 0.38833-0.75706
   6  -2  -549894.64 2791.84   1 0.66163-0.14390-0.52211 0.39569 0.53817-0.90703
  -6  -2   553204.39 2975.19   1-0.22370-0.29417 0.81479-0.94121 0.53485-0.16605
  -6   2   553195.11 3063.25   1 0.17219-0.69027 0.83271-0.70620 0.52624-0.15746
   6   2  -549154.91 2673.00   1 0.81890-0.30075-0.01955 0.14592 0.57359-0.94247
   6   2  -410858.93 1205.29   1 0.73833-0.21472-0.49373 0.62014 0.45943-0.75452
   6  -2  -412349.24 1392.34   1 0.57385-0.04987-0.54378 0.41733 0.61235-0.90738
  -6  -2   410928.03 1206.05   1-0.25561-0.26812 0.80744-0.93386 0.53169-0.23665
  -6   2   4 9266.99 1177.41   1 0.14010-0.66404 0.83628-0.70977 0.53009-0.23507
   6   2  -410380.47 1106.16   1 0.75905-0.23480-0.24077 0.36719 0.60487-0.90001
   6  -2  -410581.97 1073.32   1 0.53323-0.00938-0.62179 0.49543 0.57361-0.86859
   6   2  -3  337.89  381.00   1 0.67120-0.14171-0.51909 0.64550 0.52917-0.75049
   6  -2  -3 3763.48  381.53   1 0.47637 0.05339-0.55873 0.43228 0.67888-0.90015
  -6  -2   3 2628.98  394.55   1-0.29620-0.23339 0.79671-0.92314 0.52678-0.30549
  -6   2   3   81.86  373.16   1 0.09750-0.62725 0.83947-0.71302 0.53458-0.31328
   6  -2  -3 2382.38  221.92   1 0.57453-0.04474 0.80748-0.93382 0.13368-0.35491
   6   2  -3 1474.35  434.93   1 0.67834-0.14862-0.41451 0.54089 0.60665-0.82785
   6   2  -214570.70  828.43   1 0.59460-0.05904-0.53938 0.66583 0.59625-0.74376
  -6   2   216395.97  981.14   1 0.04392-0.57954 0.84149-0.71504 0.53847-0.39094
   6   2  -214114.74  734.17   1 0.59441-0.05888-0.54529 0.67167 0.59103-0.73850
   6   2  -1 9850.64  705.25   1 0.50963 0.03170-0.55462 0.68107 0.65776-0.73152
   6  -2  -1 9071.70  579.76   1 0.26509 0.27637-0.56467 0.43822 0.78158-0.85532
  -6  -2   110597.24  685.53   1-0.39875-0.14219 0.76190-0.88831 0.51037-0.43666
  -6   2   1 9982.39  613.17   1-0.02049-0.52099 0.84070-0.71425 0.54110-0.46733
  -6   2   111901.91  584.41   1-0.13051-0.41104 0.91233-0.78596-0.38809 0.46185
   6   2  -110219.94  608.67   1 0.51722 0.02416-0.63985 0.76621 0.56838-0.64213
   6   2   023187.48  983.06   1 0.41845 0.12868-0.56367 0.69012 0.71216-0.71216
   6  -2   024725.13 1197.66   1 0.15963 0.38766-0.55671 0.43025 0.81522-0.81522
  -6  -2   023411.50 1070.84   1-0.45834-0.08852 0.73675-0.86316 0.49710-0.49710
  -6   2   019907.98  947.38   1-0.09529-0.45206 0.83539-0.70894 0.54133-0.54133
  -6   2   021180.72 1233.36   1-0.07311-0.47429 0.93207-0.80570-0.35479 0.35479
   6   2   019228.04  866.71   1 0.45142 0.09581-0.70687 0.83323 0.54455-0.54455
   6   2   124808.09 1167.83   1 0.32431 0.22881-0.56610 0.69255 0.75785-0.68410
   6  -2   127121.51 1325.11   1 0.05990 0.49292-0.54314 0.41672 0.83750-0.76378
  -6  -2  -125173.86 1158.28   1-0.52114-0.03162 0.70561-0.83201 0.48012-0.55384
  -6   2  -124317.55 1161.10   1-0.17945-0.37360 0.82344-0.69702 0.53826-0.61202
  -6   2  -121063.42 1337.57   1-0.03637-0.51687 0.94232-0.81595-0.33271 0.25895
   6   2   126502.83 1302.34   1 0.39833 0.15474-0.75358 0.87994 0.52291-0.44916
   6   2   2 2858.95  437.09   1 0.23118 0.32778-0.56285 0.68930 0.79356-0.64607
   6  -2   2 2756.02  443.13   1-0.03028 0.58890-0.52604 0.39962 0.84991-0.70248
  -6  -2  -2 3635.23  517.32   1-0.58544 0.02677 0.66814-0.79455 0.45916-0.60660
  -6   2  -2 3017.55  376.42   1-0.27135-0.28757 0.80347-0.67704 0.52990-0.67742
  -6   2  -2 3248.11  564.16   1-0.01484-0.54425 0.94747-0.82110-0.31949 0.17197
   6   2   330071.71 1675.24   1 0.14280 0.42160-0.55479 0.68121 0.81963-0.59848
   6  -2   329411.26 1715.14   1-0.10864 0.67335-0.50753 0.38111 0.85475-0.63352
  -6  -2  -331814.30 1787.85   1-0.64954 0.08507 0.62418-0.75055 0.43414-0.65530
  -6   2  -329053.39 1628.77   1-0.36868-0.19611 0.77356-0.64713 0.51543-0.73671
  -6   2  -329133.00 2712.79   1-0.00482-0.56012 0.94965-0.82328-0.31326 0.09198
   6   2   463606.84 3530.32   1 0.06310 0.50710-0.54366 0.67008 0.83692-0.54206
   6  -2   457599.86 3257.35   1-0.17464 0.74519-0.48917 0.36275 0.85452-0.55954
  -6  -2  -454048.79 3044.09   1-0.71186 0.14149 0.57389-0.70027 0.40483-0.69971
  -6   2  -457047.05 3159.89   1-0.46886-0.10161 0.73188-0.60547 0.49448-0.78934
  -6   2  -451832.18 2955.81   1-0.00376-0.56703 0.94987-0.82350-0.31260 0.01756
   6   2   532525.43 1853.67   1-0.00578 0.58178-0.53114 0.65755 0.84726-0.47868
   6  -2   532111.52 1955.46   1-0.22820 0.80460-0.47239 0.34596 0.85133-0.48261
  -6  -2  -533489.67 1937.79   1-0.77090 0.19464 0.51745-0.64382 0.37140-0.73999
  -6   2  -534393.33 1929.36   1-0.56848-0.00790 0.67862-0.55221 0.46507-0.83366
  -6   2  -530689.31 2274.62   1-0.00987-0.56678 0.94857-0.82220-0.31640-0.05239
   6   2   6  425.74  319.29   1-0.06268 0.64448-0.51878 0.64520 0.85260-0.41030
   6  -2   6 1400.13  695.96   1-0.27006 0.85231-0.45805 0.33162 0.84690-0.40444
  -6  -2  -6 1199.81  611.04   1-0.82511 0.24344 0.45617-0.58249 0.33330-0.77552
  -6   2  -6  437.49  374.17   1-0.66463 0.08247 0.61275-0.48638 0.42753-0.86984
  -6   2  -6  912.36  352.36   1-0.02185-0.56064 0.94586-0.81949-0.32381-0.11873
   6   2   7 8302.79  764.45   1-0.10681 0.69491-0.50801 0.63443 0.85470-0.33849
   6  -2   713494.63 1206.80   1-0.30129 0.88939-0.44663 0.32021 0.84246-0.32625
  -6  -2  -712555.54 2237.98   1-0.87398 0.28645 0.38822-0.51453 0.29228-0.80820
  -6   2  -710901.14  899.69   1-0.75401 0.16594 0.53462-0.40824 0.38162-0.89765
  -6   2  -7 7466.41 2087.46   1-0.03876-0.54957 0.94171-0.81534-0.33416-0.18214
   6   2   8 7155.79  841.45   1-0.13970 0.73365-0.49921 0.62563 0.85514-0.26519
   6  -2   8 9419.54 1217.07   1-0.32300 0.91695-0.43832 0.31189 0.83877-0.24882
  -6  -2  -8 7253.27 1379.59   1-0.91619 0.32279 0.31506-0.44138 0.24762-0.83725
  -6   2  -8 5437.02 1552.33   1-0.83319 0.23979 0.44585-0.31954 0.32710-0.91673
  -6   2  -8 7706.59 1699.36   1-0.05993-0.53426 0.93596-0.80959-0.34694-0.24312
   6  -2   9 1623.73  686.46   1-0.33623 0.93603-0.43310 0.30667 0.83628-0.17259
  -6  -2  -9  275.14  302.25   1-0.95070 0.35138 0.23737-0.36365 0.19951-0.86271
  -6   2  -9 -261.21  388.09   1-0.08483-0.51521 0.92842-0.80204-0.36171-0.30211
   6  -3 -10 6233.94 1497.21   1 0.92518-0.43704-0.34961 0.16001 0.14762-0.88509
  -6   3  10 9821.99 1382.01   1 0.25527-0.74406 0.81920-0.62944 0.51355 0.22400
   6  -3  -9  -77.17  337.34   1 0.89011-0.39606-0.39235 0.20280 0.23183-0.89554
  -6   3   9 1328.13  666.87   1 0.26967-0.76432 0.81621-0.62645 0.51093 0.15286
   6   3  -8 7912.65  918.66   1 0.92838-0.42843-0.34480 0.53441 0.13861-0.72858
   6  -3  -8 4268.61 1052.30   1 0.84378-0.34385-0.43312 0.24356 0.31691-0.90688
  -6  -3   8 3892.23  913.52   1-0.31579-0.18447 0.79097-0.98061 0.52404 0.06603
  -6   3   8 6707.99 1604.29   1 0.27589-0.77640 0.81486-0.62510 0.50977 0.08027
   6   3  -7 5802.05  869.02   1 0.90261-0.39681-0.37868 0.56824 0.20463-0.72086
   6  -3  -7 4479.32  679.44   1 0.78561-0.27980-0.47048 0.28093 0.40180-0.91803
  -6  -3   7 4832.92  707.95   1-0.31364-0.19249 0.79162-0.98126 0.52435-0.00803
  -6   3   7 5692.98  898.03   1 0.27378-0.78014 0.81533-0.62556 0.51017 0.00611
   6   3  -6  917.57  408.31   1 0.86980-0.35812-0.41184 0.60140 0.27170-0.71418
   6  -3  -6 1557.02  384.14   1 0.71523-0.20337-0.50334 0.31372 0.48484-0.92747
  -6  -3   6 1466.78  377.43   1-0.32248-0.18952 0.78893-0.97857 0.52305-0.08049
  -6   3   6 2557.90  592.56   1 0.26297-0.77519 0.81763-0.62786 0.51217-0.06963
   6   3  -6 2363.61  390.75   1 0.83370-0.32130 0.22630-0.03676 0.50370-0.94626
   6   3  -522048.70 1912.20   1 0.82935-0.31180-0.44352 0.63308 0.33977-0.70850
   6  -3  -528970.12 1704.42   1 0.63266-0.11492-0.53048 0.34086 0.56419-0.93306
  -6  -3   530004.62 1778.77   1-0.34127-0.17659 0.78294-0.97258 0.52012-0.15132
  -6   3   523304.55 1502.65   1 0.24296-0.76104 0.82160-0.63183 0.51568-0.14690
   6   3  -524324.07 1391.98   1 0.82387-0.30573 0.01247 0.17708 0.56662-0.93550
   6   3  -439445.69 2104.33   1 0.78069-0.25707-0.47317 0.66279 0.40819-0.70328
   6  -3  -440953.59 2202.26   1 0.53924-0.01526-0.55013 0.36045 0.63762-0.93265
  -6  -3   443860.21 2371.55   1-0.36902-0.15471 0.77343-0.96307 0.51537-0.22033
  -6   3   443893.15 2393.69   1 0.21315-0.73709 0.82683-0.63707 0.52048-0.22546
   6   3  -437866.74 1987.87   1 0.78081-0.25657-0.17683 0.36646 0.59920-0.89435
   6  -3  -441781.32 2092.83   1 0.40425 0.11960-0.74867 0.55913 0.52541-0.82040
   6   3  -310771.64 1222.48   1 0.72316-0.19367-0.50016 0.68978 0.47631-0.69762
   6  -3  -312428.81 1368.80   1 0.43690 0.09286-0.56238 0.37271 0.70201-0.92328
  -6  -3   312718.39 1384.71   1-0.40416-0.12497 0.75979-0.94940 0.50928-0.28812
  -6   3   311212.38 1340.71   1 0.17288-0.70268 0.83262-0.64286 0.52615-0.30489
   6   3  -310813.40 1166.82   1 0.71927-0.18915-0.33584 0.52547 0.60815-0.82951
   6   3  -218777.54  885.86   1 0.65665-0.12128-0.52363 0.71325 0.54278-0.69032
   6  -3  -222662.88 1063.52   1 0.32931 0.20631-0.56612 0.37644 0.75568-0.90317
  -6  -3   224663.46 1221.20   1-0.44663-0.08841 0.74202-0.93163 0.49991-0.35248
  -6   3   215443.12  926.71   1 0.12158-0.65720 0.83776-0.64808 0.53232-0.38478
  -6   3   220466.99  965.66   1-0.09584-0.43986 0.92480-0.73525-0.36816 0.51568
   6   3  -220615.79  979.72   1 0.65093-0.11539-0.46131 0.65088 0.60288-0.75035
   6   3  -1130964.5 4742.06   1 0.58153-0.04018-0.54221 0.73188 0.60648-0.68024
  -6  -3   1138762.0 5054.23   1-0.49444-0.04651 0.71946-0.90907 0.48774-0.41402
  -6   3   1134077.0 4811.35   1-0.02203-0.51952 0.94582-0.75626-0.32392 0.39768
   6   3  -1136853.3 4950.52   1 0.58460-0.04325-0.55846 0.74803 0.58851-0.66225
   6   3   047910.77 1903.71   1 0.49919 0.04793-0.55602 0.74569 0.66456-0.66456
   6  -3   055183.75 2151.79   1 0.11525 0.43177-0.55136 0.36173 0.82626-0.82626
  -6  -3   051000.70 2044.13   1-0.54615-0.00071 0.69175-0.88136 0.47243-0.47243
  -6   3   048376.14 1928.01   1-0.01514-0.53221 0.84090-0.65122 0.54097-0.54097
  -6   3   049617.13 1946.06   1 0.02424-0.57165 0.95520-0.76564-0.29495 0.29495
   6   3   052355.32 2069.60   1 0.52504 0.02219-0.63113 0.82067 0.57096-0.57096
   6   3   1 3436.07  495.71   1 0.41194 0.14097-0.56406 0.75373 0.71563-0.64187
   6  -3   1 4632.23  658.58   1 0.01753 0.53529-0.53567 0.34605 0.84423-0.77052
  -6  -3  -1 3665.30  565.51   1-0.60025 0.04748 0.65862-0.84823 0.45376-0.52748
  -6   3  -1 3520.59  394.00   1-0.09996-0.45326 0.83490-0.64522 0.54124-0.61500
  -6   3  -1 3296.58  514.97   1 0.05186-0.60495 0.95905-0.76950-0.27843 0.20467
   6   3   1 4051.90  603.31   1 0.47469 0.07838-0.68441 0.87395 0.55338-0.47963
   6   3   220346.85 1752.35   1 0.32312 0.23584-0.56609 0.75577 0.75836-0.61087
   6  -3   215905.66 1768.62   1-0.06972 0.62835-0.51713 0.32750 0.85306-0.70563
  -6  -3  -216135.41 1750.85   1-0.65524 0.09667 0.61992-0.80948 0.43168-0.57912
  -6   3  -218483.96 1913.70   1-0.19444-0.36448 0.82071-0.63107 0.53723-0.68476
  -6   3  -219156.45 2924.01   1 0.06583-0.62477 0.96078-0.77124-0.26935 0.12183
   6   3   221061.64 1290.42   1 0.43422 0.12470-0.72267 0.91221 0.53775-0.39026
   6   3   3  748.43  429.44   1 0.23659 0.32820-0.56318 0.75286 0.79173-0.57049
   6  -3   3 2492.62  710.66   1-0.14465 0.70936-0.49783 0.30819 0.85512-0.63389
  -6  -3  -3  847.38  333.27   1-0.70976 0.14530 0.57572-0.76529 0.40591-0.62706
  -6   3  -3  275.32  271.00   1-0.29647-0.26832 0.79664-0.60700 0.52674-0.74802
  -6   3  -3  804.03  297.50   1 0.06960-0.63439 0.96121-0.77166-0.26688 0.04561
   6   3   3  254.05  479.23   1 0.40335 0.16141-0.74942 0.93896 0.52504-0.30380
   6   3   4 1787.30  355.13   1 0.15611 0.41452-0.55633 0.74601 0.81616-0.52118
   6  -3   4 1323.96  443.54   1-0.20717 0.77773-0.47918 0.28954 0.85291-0.55793
  -6  -3  -4 1962.25  518.37   1-0.76246 0.19209 0.52614-0.71570 0.37658-0.67145
  -6   3  -4 2330.91  340.52   1-0.40364-0.16683 0.75999-0.57038 0.50938-0.80425
  -6   3  -4 1535.06  289.59   1 0.06544-0.63608 0.96074-0.77119-0.26960-0.02542
   6   3   538341.69 2102.42   1 0.08424 0.49176-0.54697 0.73659 0.83290-0.46432
   6  -3   537093.06 2198.58   1-0.25753 0.83394-0.46245 0.27282 0.84841-0.47969
  -6  -3  -535404.17 3065.24   1-0.81194 0.23614 0.47234-0.66181 0.34298-0.71150
  -6   3  -542575.35 2330.84   1-0.51225-0.06413 0.71033-0.52072 0.48273-0.85131
  -6   3  -542732.64 2399.06   1 0.05493-0.63143 0.95945-0.76991-0.27644-0.09234
   6   3   6 3775.53  614.74   1 0.02376 0.55803-0.53683 0.72646 0.84334-0.40105
   6  -3   6 4513.56  749.63   1-0.29665 0.87890-0.44837 0.25873 0.84318-0.40072
  -6  -3  -6 2608.08  599.24   1-0.85761 0.27595 0.41257-0.60204 0.30703-0.74925
  -6   3  -6 3740.62  534.70   1-0.61901 0.03684 0.64598-0.45642 0.44668-0.88900
  -6   3  -6 3734.62  759.30   1 0.03853-0.62103 0.95750-0.76795-0.28582-0.15673
   6   3   7 3744.32  875.62   1-0.02479 0.61237-0.52721 0.71684 0.84936-0.33335
   6  -3   7 3366.49  900.54   1-0.32564 0.91374-0.43729 0.24765 0.83829-0.32208
  -6  -3  -7 3428.00  921.11   1-0.89834 0.31081 0.34815-0.53762 0.26788-0.78380
  -6   3  -7 3977.54  941.94   1-0.71987 0.13180 0.56679-0.37723 0.40065-0.91669
  -6   3  -7 4387.64 1139.12   1 0.01830-0.60665 0.95416-0.76460-0.29872-0.21758
   6  -3   8 2217.04  724.59   1-0.34561 0.93956-0.42932 0.23969 0.83439-0.24445
  -6   3  -8 2862.14  744.51   1-0.00576-0.58843 0.94945-0.75989-0.31385-0.27622
   6  -3   9 6159.40 1029.93   1-0.35760 0.95739-0.42437 0.23474 0.83187-0.16820
  -6  -3  -9 2518.97  536.84   1-0.96160 0.36228 0.20672-0.39614 0.18049-0.84369
  -6   3  -9 4082.25 1470.56   1-0.03325-0.56678 0.94311-0.75355-0.33080-0.33302
   6  -4 -10 2322.17  525.01   1 0.92137-0.43323-0.35510 0.10230 0.15798-0.89545
  -6   4  10 3155.57  738.48   1 0.31015-0.79894 0.80676-0.55374 0.50291 0.23463
   6   4  -910988.70 2217.95   1 0.95655-0.46251-0.28906 0.54187 0.03803-0.70175
   6  -4  -910759.07 1370.60   1 0.88333-0.38927-0.39920 0.14646 0.24568-0.90940
  -6   4   910734.62 1404.63   1 0.32421-0.81885 0.80311-0.55009 0.49989 0.16390
   6   4  -8 9611.23 1857.79   1 0.94130-0.44136-0.32292 0.57573 0.09831-0.68828
   6  -4  -8 7932.45  746.62   1 0.83313-0.33320-0.44088 0.18814 0.33392-0.92389
  -6   4   811941.25 1106.62   1 0.33072-0.83122 0.80135-0.54833 0.49844 0.09159
   6   4  -7 1922.57  485.21   1 0.92066-0.41481-0.35611 0.60891 0.15989-0.67612
   6  -4  -7 1687.69  481.63   1 0.77044-0.26446-0.47853 0.22570 0.42120-0.93761
  -6  -4   7 4390.79  685.36   1-0.44000-0.06552 0.74493-0.99774 0.50146 0.01454
  -6   4   7 1248.73  440.32   1 0.32949-0.83585 0.80169-0.54867 0.49872 0.01756
   6   4  -615107.61 1102.16   1 0.89422-0.38253-0.38803 0.64077 0.22316-0.66563
   6  -4  -618086.99 1057.91   1 0.69487-0.18301-0.51102 0.25819 0.50596-0.94860
  -6  -4   618202.67 1058.65   1-0.44395-0.06747 0.74320-0.99601 0.50054-0.05824
  -6   4   618750.32 1293.49   1 0.32013-0.83235 0.80419-0.55117 0.50078-0.05825
   6   4  -614913.02  848.67   1 0.83375-0.32134 0.22545 0.02725 0.50400-0.94656
   6   4  -5 1725.23  531.87   1 0.86122-0.34366-0.41926 0.67200 0.28724-0.65597
   6  -4  -5 3125.42  445.96   1 0.60728-0.08908-0.53645 0.28355 0.58602-0.95480
  -6  -4   5 4169.54  516.18   1-0.45764-0.05968 0.73707-0.98988 0.49727-0.12868
  -6   4   5 2571.44  615.00   1 0.30209-0.82017 0.80877-0.55575 0.50459-0.13581
   6   4  -5 1061.15  263.76   1 0.82799-0.30985 0.04494 0.20779 0.55892-0.92779
   6   4  -415694.11 1442.15   1 0.82116-0.29772-0.44906 0.70181 0.35217-0.64716
   6  -4  -412626.05 1178.62   1 0.50894 0.01503-0.55472 0.30182 0.65822-0.95324
  -6  -4   413429.77 1221.56   1-0.47981-0.04342 0.72666-0.97948 0.49165-0.19679
  -6   4   414095.78 1367.56   1 0.27468-0.79863 0.81513-0.56211 0.51000-0.21497
   6   4  -414613.06 1283.55   1 0.79726-0.27320-0.12058 0.37333 0.59145-0.88655
   6   4  -350416.01 2633.88   1 0.77353-0.24404-0.47694 0.72977 0.41732-0.63864
   6  -4  -351337.74 2716.52   1 0.40284 0.12692-0.56455 0.31165 0.72041-0.94168
  -6  -4   352938.01 2794.94   1-0.50920-0.01994 0.71192-0.96473 0.48360-0.26245
  -6   4   350417.60 2696.88   1 0.23715-0.76695 0.82268-0.56966 0.51666-0.29539
  -6   4   351835.86 2739.23   1-0.07619-0.45366 0.93113-0.67839-0.35662 0.57790
   6   4  -345701.19 2368.87   1 0.75037-0.22025-0.26347 0.51631 0.60622-0.82758
   6   4  -249527.70 2592.39   1 0.71780-0.18244-0.50232 0.75515 0.48209-0.62964
   6  -4  -242314.53 2300.98   1 0.29301 0.24261-0.56563 0.31272 0.77084-0.91833
  -6  -4   240573.31 2209.71   1-0.54453 0.00948 0.69267-0.94548 0.47294-0.32551
  -6   4   246483.55 2466.80   1 0.18871-0.72437 0.83052-0.57750 0.52403-0.37652
  -6   4   251057.81 2615.57   1 0.02074-0.55645 0.95459-0.70185-0.29718 0.44469
   6   4  -249486.43 2592.22   1 0.69565-0.16011-0.38235 0.63511 0.60817-0.75564
   6   4  -1  776.90  347.23   1 0.65399-0.11275-0.52443 0.77726 0.54521-0.61899
   6  -4  -1  469.09  397.19   1 0.18377 0.35769-0.55912 0.30621 0.80846-0.88220
  -6  -4   1  904.78  486.92   1-0.58449 0.04353 0.66874-0.92155 0.45950-0.38579
  -6   4   1  598.31  391.43   1 0.12870-0.67022 0.83733-0.58431 0.53132-0.45756
  -6   4   1  635.98  185.54   1 0.07893-0.62031 0.96217-0.70944-0.26075 0.33451
   6   4  -1  396.54  403.58   1 0.64005-0.09870-0.47867 0.73143 0.60099-0.67472
   6   4   020174.03 1748.97   1 0.58254-0.03540-0.54200 0.79489 0.60570-0.60570
   6  -4   016613.14 1788.90   1 0.07947 0.46755-0.54624 0.29341 0.83384-0.83384
  -6  -4   014306.37 1611.26   1-0.62764 0.08087 0.63998-0.89274 0.44324-0.44324
  -6   4   018072.00 1912.09   1 0.05658-0.60393 0.84123-0.58833 0.53770-0.53770
  -6   4   019320.76 2332.71   1 0.11354-0.66078 0.96468-0.71195-0.23767 0.23767
   6   4   016018.89 1698.01   1 0.58791-0.04073-0.55406 0.80682 0.58938-0.58938
   6   4   132693.70 1760.79   1 0.50503 0.04788-0.55525 0.80815 0.66078-0.58702
   6  -4   136286.32 2016.54   1-0.01595 0.56878-0.52906 0.27623 0.84842-0.77471
  -6  -4  -133001.19 1895.23   1-0.67287 0.12019 0.60633-0.85908 0.42379-0.49751
  -6   4  -131682.46 1716.22   1-0.02731-0.52590 0.84041-0.58751 0.54125-0.61501
  -6   4  -136787.67 2005.42   1 0.13193-0.68502 0.96534-0.71260-0.22518 0.15143
   6   4   134937.57 1991.84   1 0.54187 0.01121-0.61173 0.86445 0.57632-0.50258
   6   4   2 8996.19  983.79   1 0.42379 0.13491-0.56332 0.81622 0.70926-0.56175
   6  -4   2 8430.26 1058.99   1-0.10020 0.65883-0.50963 0.25680 0.85453-0.70710
  -6  -4  -2 9271.95 1128.91   1-0.71876 0.16019 0.56778-0.82054 0.40124-0.54867
  -6   4  -2 9110.85 1068.34   1-0.12240-0.43669 0.83229-0.57938 0.54065-0.68819
  -6   4  -2 8475.19 1466.39   1 0.13868-0.69762 0.96546-0.71273-0.22056 0.07305
   6   4   2 7364.47  963.03   1 0.50340 0.05552-0.65486 0.90758 0.56368-0.41619
   6   4   3 1432.42  314.31   1 0.34204 0.22276-0.56608 0.81899 0.75003-0.52880
   6  -4   3 3243.27  572.02   1-0.17190 0.73660-0.48999 0.23714 0.85460-0.63338
  -6   4  -3 1147.51  279.81   1-0.22735-0.33744 0.81399-0.56114 0.53452-0.75580
  -6   4  -3 1882.41  369.85   1 0.13667-0.70146 0.96543-0.71270-0.22194 0.00067
   6   4   416264.93 1040.23   1 0.26351 0.30712-0.56460 0.81751 0.78216-0.48718
   6  -4   423483.21 1625.07   1-0.23133 0.80188-0.47135 0.21850 0.85106-0.55609
  -6  -4  -422833.05 2280.29   1-0.80775 0.23782 0.47733-0.72995 0.34596-0.64077
  -6   4  -415953.63 1030.55   1-0.33951-0.23114 0.78351-0.53066 0.52041-0.81545
  -6   4  -414367.94 1667.23   1 0.12781-0.69845 0.96523-0.71250-0.22799-0.06703
   6   4   418518.27 1568.18   1 0.44997 0.12064-0.70823 0.96095 0.54398-0.24900
   6   4   5  204.31  266.56   1 0.19161 0.38486-0.55983 0.81274 0.80614-0.43741
   6  -4   5  825.42  446.52   1-0.27895 0.85535-0.45486 0.20201 0.84574-0.47702
  -6  -4  -5  878.99  300.57   1-0.84889 0.27310 0.42484-0.67747 0.31444-0.68296
  -6   4  -5  262.36  240.75   1-0.45611-0.12026 0.73776-0.48495 0.49764-0.86622
  -6   4  -5  227.01  311.15   1 0.11340-0.68990 0.96467-0.71194-0.23776-0.13102
   6   4   5  896.65  636.16   1 0.43433 0.14213-0.72258 0.97530 0.53780-0.16907
   6   4   6 8621.51 1606.36   1 0.12852 0.45327-0.55307 0.80590 0.82316-0.38086
   6  -4   6 7496.93 1489.81   1-0.31578 0.89803-0.44112 0.18827 0.84005-0.39759
  -6  -4  -6 5271.29 1168.77   1-0.88659 0.30493 0.36811-0.62074 0.28006-0.72228
  -6   4  -6 7711.49 1443.54   1-0.57265-0.00963 0.67608-0.42327 0.46365-0.90595
  -6   4  -6 8082.58 1962.96   1 0.09436-0.67671 0.96349-0.71076-0.25052-0.19201
   6   4   6 6889.18 1388.22   1 0.42530 0.15700-0.73061 0.98333 0.53415-0.09167
   6  -4   7 9544.50  949.59   1-0.34296 0.93106-0.43040 0.17755 0.83494-0.31873
  -6  -4  -7 6764.60 1156.44   1-0.92006 0.33252 0.30737-0.56000 0.24290-0.75882
  -6   4  -712360.79 1041.23   1-0.68523 0.09717 0.59641-0.34365 0.41801-0.93405
  -6   4  -711619.98 2216.37   1 0.07135-0.65955 0.96140-0.70866-0.26573-0.25056
   6   4   712357.17 1183.46   1 0.42226 0.16589-0.73328 0.98600 0.53290-0.01668
   6  -4   8 4925.69 1019.34   1-0.36158 0.95552-0.42272 0.16987 0.83099-0.24106
  -6  -4  -8 3236.26 1060.38   1-0.94849 0.35507 0.24313-0.49569 0.20308-0.79259
  -6   4  -8 4376.61 1263.69   1 0.04483-0.63888 0.95808-0.70534-0.28296-0.30709
   6   4   8 5428.68 1572.88   1 0.42460 0.16940-0.73122 0.98394 0.53386 0.05610
   6   5  -9 2420.64  837.42   1 0.96377-0.46973-0.26669 0.58270-0.00054-0.66317
   6  -5  -9 1591.54  515.83   1 0.87848-0.38443-0.40387 0.08795 0.25523-0.91895
  -6   5   9 1343.25  513.98   1 0.36844-0.86308 0.79031-0.47403 0.48954 0.17425
   6   5  -813690.98 2762.80   1 0.95260-0.45266-0.29907 0.61508 0.05560-0.64557
   6  -5  -817489.28 1796.03   1 0.82480-0.32487-0.44663 0.13070 0.34670-0.93667
  -6   5   820354.00 2158.20   1 0.37520-0.87570 0.78818-0.47190 0.48784 0.10219
   6   5  -727308.92 2031.09   1 0.93690-0.43105-0.33088 0.64688 0.11283-0.62906
   6  -5  -729206.24 2066.77   1 0.75795-0.25197-0.48472 0.16868 0.43651-0.95291
  -6  -5   728653.73 2014.74   1-0.56451 0.05898 0.68100-0.99702 0.46641 0.04959
  -6   5   726656.52 2052.28   1 0.37475-0.88111 0.78832-0.47204 0.48796 0.02832
   6   5  -6  286.47  346.77   1 0.91631-0.40456-0.36203 0.67804 0.17118-0.61366
   6  -5  -6  481.58  394.43   1 0.67782-0.16596-0.51691 0.20088 0.52282-0.96545
  -6  -5   6  729.67  440.14   1-0.56221 0.05078 0.68238-0.99839 0.46719-0.02489
  -6   5   6 2025.85  819.14   1 0.36671-0.87893 0.79085-0.47457 0.48997-0.04743
   6   5  -6  118.26  222.58   1 0.83328-0.32088 0.23374 0.08214 0.50098-0.94354
   6   5  -517883.48 1228.78   1 0.89047-0.37291-0.39198 0.70791 0.23109-0.59982
   6  -5  -515652.16 1054.87   1 0.58578-0.06759-0.54131 0.22518 0.60318-0.97196
  -6  -5   517658.68 1112.89   1-0.56954 0.05220 0.67798-0.99399 0.46471-0.09613
  -6   5   518964.47 1468.16   1 0.35051-0.86859 0.79574-0.47947 0.49389-0.12511
   6   5  -515739.78  961.57   1 0.83121-0.31306 0.07771 0.23821 0.55049-0.91937
   6   5  -417177.99 1215.90   1 0.85877-0.33534-0.42130 0.73722 0.29156-0.58654
   6  -5  -414383.84 1042.72   1 0.48355 0.04042-0.55792 0.24180 0.67445-0.96948
  -6  -5   413564.43 1056.02   1-0.58499 0.06174 0.66843-0.98444 0.45932-0.16446
  -6   5   417221.07 1380.68   1 0.32543-0.84937 0.80278-0.48651 0.49962-0.20460
  -6   5   417024.37 1069.06   1-0.08353-0.44048 0.92883-0.61290-0.36095 0.65598
   6   5  -418766.35 1293.05   1 0.80964-0.28557-0.06807 0.38400 0.58295-0.87805
   6   5  -313782.63 1272.72   1 0.82078-0.29147-0.44931 0.76524 0.35273-0.57397
   6  -5  -315533.95 1386.34   1 0.37478 0.15500-0.56547 0.24934 0.73469-0.95592
  -6  -5   313982.84 1319.69   1-0.60720 0.07805 0.65403-0.97005 0.45115-0.23000
  -6   5   315081.58 1459.23   1 0.29064-0.82045 0.81152-0.49524 0.50690-0.28564
  -6   5   315188.52 1574.70   1 0.04963-0.57932 0.95875-0.64283-0.27987 0.50114
   6   5  -315244.60 1366.70   1 0.77424-0.24412-0.19737 0.51341 0.60131-0.82268
   6   5  -2 1167.60  486.37   1 0.77614-0.24078-0.47558 0.79162 0.41402-0.56156
   6  -5  -2 1342.24  360.38   1 0.26354 0.27207-0.56460 0.24847 0.78215-0.92964
  -6  -5   2 1333.44  355.27   1-0.63472 0.09975 0.63497-0.95091 0.44036-0.29293
  -6   5   2 1155.91  308.61   1 0.12468-0.66022 0.96514-0.64922-0.23012 0.37764
   6   5  -2  830.97  358.47   1 0.73127-0.19528-0.30937 0.62541 0.60788-0.75545
   6   5  -115054.09 1601.82   1 0.72440-0.18316-0.49965 0.81569 0.47495-0.54872
   6  -5  -119285.22 2067.12   1 0.15454 0.38692-0.55615 0.24002 0.81658-0.89032
  -6  -5   117362.19 1869.54   1-0.66662 0.12574 0.61122-0.92716 0.42664-0.35292
  -6   5   114825.89 1597.91   1 0.18833-0.72985 0.83057-0.51430 0.52409-0.45033
  -6   5   113474.37 1565.17   1 0.16807-0.70946 0.96523-0.64931-0.20019 0.27395
   6   5  -114735.52 1597.23   1 0.68522-0.14387-0.40198 0.71793 0.60734-0.68107
   6   5   0  559.30  302.36   1 0.66569-0.11858-0.52084 0.83688 0.53438-0.53438
   6  -5   0  834.76  428.17   1 0.05179 0.49523-0.54179 0.22574 0.83891-0.83891
  -6  -5   0  999.46  463.57   1-0.70147 0.15469 0.58288-0.89882 0.41010-0.41010
  -6   5   0  824.42  404.13   1 0.11900-0.66636 0.83797-0.52184 0.53257-0.53257
  -6   5   0  393.26  284.07   1 0.19177-0.73901 0.96413-0.64822-0.18346 0.18346
   6   5   0  761.33  427.29   1 0.64065-0.09348-0.47773 0.79368 0.60110-0.60110
   6   5   119636.48 1668.76   1 0.60045-0.04753-0.53805 0.85417 0.59156-0.51780
   6  -5   118540.90 1680.22   1-0.04117 0.59400-0.52367 0.20762 0.85092-0.77720
  -6  -5  -121027.52 1861.14   1-0.73810 0.18542 0.55001-0.86595 0.39075-0.46447
  -6   5  -119759.08 1730.58   1 0.03719-0.59041 0.84157-0.52544 0.53885-0.61262
  -6   5  -121195.99 2394.71   1 0.20207-0.75516 0.96340-0.64748-0.17611 0.10236
   6   5   120667.46 1861.34   1 0.59991-0.04692-0.53774 0.85369 0.59239-0.51866
   6   5   232691.99 1852.69   1 0.53036 0.02834-0.55156 0.86769 0.64380-0.49629
   6  -5   231399.57 1870.52   1-0.12238 0.68123-0.50392 0.18786 0.85503-0.70754
  -6  -5  -233570.26 2043.79   1-0.77540 0.21683 0.51273-0.82867 0.36858-0.51602
  -6   5  -230270.78 1803.54   1-0.05707-0.50201 0.83870-0.52257 0.54159-0.68912
  -6   5  -235348.65 2667.92   1 0.20265-0.76159 0.96335-0.64744-0.17570 0.02819
   6   5   233478.09 2045.47   1 0.56462-0.00580-0.58418 0.90013 0.58303-0.43556
   6   5   354347.66 3319.65   1 0.45756 0.10693-0.56063 0.87675 0.69016-0.46889
   6  -5   348071.04 3071.42   1-0.19132 0.75602-0.48413 0.16807 0.85382-0.63259
  -6  -5  -350129.58 4450.32   1-0.81230 0.24825 0.47190-0.78769 0.34272-0.56383
  -6   5  -352519.24 3245.10   1-0.16310-0.40169 0.82620-0.51014 0.53924-0.76052
  -6   5  -355063.58 4599.71   1 0.19580-0.76059 0.96386-0.64795-0.18060-0.04066
   6   5   356997.75 3629.11   1 0.53545 0.02932-0.61923 0.93513 0.57431-0.35307
   6   5   4 4164.04  651.98   1 0.38503 0.18560-0.56512 0.88126 0.72964-0.43466
   6  -5   4 3531.98  687.99   1-0.24807 0.81863-0.46571 0.14965 0.84944-0.55447
  -6  -5  -4 3740.24  617.27   1-0.84792 0.27799 0.42618-0.74197 0.31526-0.61007
  -6   5  -4 2504.65  442.66   1-0.27870-0.29195 0.80153-0.48547 0.52902-0.82406
  -6   5  -4 3860.38  907.05   1 0.18305-0.75369 0.96463-0.64872-0.18965-0.10537
   6   5   4 2673.22  662.22   1 0.51283 0.05778-0.64468 0.96058 0.56690-0.27192
   6   5   511459.46 2096.52   1 0.31633 0.26014-0.56604 0.88217 0.76126-0.39253
   6  -5   515303.14 1491.92   1-0.29341 0.86982-0.44957 0.13351 0.84367-0.47496
  -6  -5  -514796.44 1842.90   1-0.88142 0.30563 0.37651-0.69230 0.28517-0.65368
  -6   5  -512782.66 1155.39   1-0.40155-0.17483 0.76081-0.44480 0.50981-0.87839
  -6   5  -5 9836.80 1568.56   1 0.16545-0.74194 0.96530-0.64938-0.20202-0.16675
   6   5   510103.68 1447.59   1 0.49653 0.07993-0.66212 0.97802 0.56128-0.19255
   6  -5   636175.92 2622.69   1-0.32840 0.91065-0.43620 0.12014 0.83777-0.39532
  -6  -5  -627067.46 3677.95   1-0.91205 0.33038 0.32308-0.63886 0.25254-0.69476
  -6   5  -633149.46 2296.45   1-0.52702-0.05526 0.70242-0.38641 0.47836-0.92066
  -6   5  -632214.37 2965.07   1 0.14373-0.72608 0.96551-0.64959-0.21709-0.22545
   6   5   630284.16 2321.31   1 0.48623 0.09607-0.67279 0.98869 0.55760-0.11513
   6  -5   7  636.94  468.22   1-0.35415 0.94224-0.42580 0.10973 0.83262-0.31643
  -6  -5  -7  247.15  203.12   1-0.93903 0.35151 0.26634-0.58204 0.21743-0.73325
  -6   5  -7   73.49  293.71   1 0.11843-0.70662 0.96490-0.64899-0.23437-0.28193
   6   5   7  847.17  466.98   1 0.48150 0.10666-0.67760 0.99350 0.55588-0.03966
   6  -5   8 4448.44  787.62   1-0.37173 0.96566-0.41846 0.10240 0.82867-0.23873
  -6  -5  -8 2880.18 1124.22   1-0.96186 0.36844 0.20592-0.52163 0.17999-0.76951
   6   5   8 3305.76 1020.39   1 0.48188 0.11212-0.67721 0.99311 0.55602 0.03394
   6   6  -9 8730.99 1906.49   1 0.96929-0.47489-0.24247 0.62170-0.04080-0.62286
   6  -6  -912667.01 1552.78   1 0.87597-0.38192-0.40623 0.02712 0.26008-0.92379
  -6   6   913744.56 1735.02   1 0.40344-0.89818 0.77890-0.39936 0.48014 0.18377
   6   6  -8 1426.53  438.37   1 0.96186-0.46192-0.27330 0.65250 0.01074-0.60071
   6  -6  -8 1985.17  586.21   1 0.81926-0.31933-0.45031 0.07120 0.35499-0.94496
  -6   6   8  716.26  511.60   1 0.41043-0.91101 0.77642-0.39688 0.47822 0.11193
   6   6  -7 5570.43 1110.75   1 0.95071-0.44487-0.30349 0.68270 0.06342-0.57965
   6  -6  -7 6351.59 1033.38   1 0.74874-0.24275-0.48905 0.10981 0.44744-0.96385
  -6   6   7 6776.47  856.52   1 0.41069-0.91711 0.77633-0.39679 0.47815 0.03823
   6   6  -7 5677.94  951.82   1 0.81214-0.30568 0.38791-0.00889 0.43583-0.95209
   6   6  -617922.76 2296.73   1 0.93560-0.42386-0.33311 0.71231 0.11693-0.55941
   6  -6  -613563.03 1092.69   1 0.66463-0.15277-0.52118 0.14193 0.53538-0.97801
  -6  -6   613396.51 1134.24   1-0.67085 0.15947 0.60791-0.98704 0.42472 0.01759
  -6   6   615980.33 1386.82   1 0.40383-0.91608 0.77876-0.39922 0.48004-0.03742
   6   6  -618161.44 1386.46   1 0.83234-0.31994 0.24785 0.13121 0.49574-0.93830
   6   6  -514117.12 2604.31   1 0.91628-0.39864-0.36207 0.74128 0.17125-0.53998
   6  -6  -514487.51  922.40   1 0.56884-0.05065-0.54478 0.16543 0.61613-0.98491
  -6  -6   513612.37  920.49   1-0.67162 0.15434 0.60731-0.98644 0.42436-0.05577
  -6   6   516669.55 1193.21   1 0.38930-0.90740 0.78374-0.40419 0.48393-0.11508
   6   6  -516070.03  949.41   1 0.83348-0.31533 0.11068 0.26843 0.54134-0.91022
   6   6  -415539.65 1107.66   1 0.89244-0.36900-0.38992 0.76903 0.22695-0.52193
   6  -6  -416758.14 1093.11   1 0.46350 0.06047-0.56006 0.18071 0.68665-0.98167
  -6  -6   419143.82 1203.93   1-0.68025 0.15707 0.60045-0.97958 0.42037-0.12550
  -6   6   416618.67 1308.16   1 0.36639-0.89033 0.79095-0.41142 0.49005-0.19502
   6   6  -414365.33  887.15   1 0.81898-0.29491-0.01907 0.39819 0.57349-0.86859
   6   6  -315153.13 1131.49   1 0.86368-0.33437-0.41717 0.79629 0.28285-0.50409
   6  -6  -320662.13 1429.73   1 0.35280 0.17698-0.56596 0.18660 0.74512-0.96636
  -6  -6   322279.88 1565.24   1-0.69531 0.16623 0.58808-0.96721 0.41315-0.19199
  -6   6   314581.68 1262.94   1 0.33418-0.86398 0.80040-0.42087 0.49767-0.27640
  -6   6   314887.61 1005.50   1 0.15757-0.68725 0.96545-0.58635-0.20752 0.42879
   6   6  -316256.80 1155.05   1 0.79263-0.26251-0.13635 0.51561 0.59425-0.81561
   6   6  -218619.69 1297.34   1 0.82970-0.29451-0.44329 0.82240 0.33924-0.48674
   6  -6  -224027.91 1599.33   1 0.24098 0.29463-0.56345 0.18409 0.79021-0.93770
  -6  -6   226085.08 1780.10   1-0.71552 0.18054 0.57067-0.94980 0.40293-0.25549
  -6   6   219664.18 1453.90   1 0.29174-0.82740 0.81126-0.43173 0.50669-0.35918
  -6   6   220160.47 1355.20   1 0.21264-0.74818 0.96248-0.58338-0.16852 0.31603
   6   6  -218274.63 1251.49   1 0.75916-0.22316-0.24046 0.61971 0.60485-0.75242
   6   6  -1 1749.22  358.23   1 0.79019-0.24913-0.46794 0.84705 0.39575-0.46950
   6  -6  -1 2337.39  462.66   1 0.13259 0.40864-0.55357 0.17432 0.82217-0.89589
  -6  -6   1 2665.78  466.78   1-0.73968 0.19881 0.54851-0.92764 0.38986-0.31614
  -6   6   1 1348.59  561.17   1 0.23804-0.77956 0.82252-0.44299 0.51651-0.44276
  -6   6   1 2246.67  318.70   1 0.24307-0.78446 0.95890-0.57980-0.14634 0.22010
   6   6  -1 1598.24  385.77   1 0.72217-0.18030-0.32959 0.70885 0.60813-0.68192
   6   6   0 7706.19  740.36   1 0.74513-0.19802-0.49070 0.86994 0.45163-0.45163
   6  -6   0 6722.85  685.46   1 0.03178 0.51525-0.53830 0.15904 0.84215-0.84215
  -6  -6   0 6780.75  747.16   1-0.76667 0.21989 0.52184-0.90097 0.37402-0.37402
  -6   6   0 9690.44 1033.80   1 0.17211-0.71949 0.83272-0.45319 0.52625-0.52625
  -6   6   0 8909.81 1238.90   1 0.25778-0.80498 0.95676-0.57780-0.13467 0.13467
   6   6   0 8292.16  965.33   1 0.68446-0.13728-0.40340 0.78254 0.60727-0.60727
   6   6   125616.23 1626.21   1 0.69446-0.14147-0.51116 0.89041 0.50638-0.43260
   6  -6   127271.12 1877.51   1-0.05875 0.61158-0.51969 0.14044 0.85232-0.77861
  -6  -6  -126184.83 2621.87   1-0.79554 0.24323 0.49144-0.87038 0.35438-0.42808
  -6   6  -127028.22 1790.47   1 0.09289-0.64611 0.83974-0.46038 0.53498-0.60874
  -6   6  -127627.96 1837.23   1 0.26150-0.81454 0.95614-0.57718-0.13190 0.05816
   6   6   128518.73 2033.29   1 0.64922-0.09622-0.46409 0.84323 0.60260-0.52886
   6   6   2 5175.76  693.08   1 0.63890-0.08002-0.52877 0.90802 0.55874-0.41120
   6  -6   2 5791.14  862.20   1-0.13733 0.69618-0.49986 0.12059 0.85514-0.70765
  -6  -6  -2 5327.63 1175.74   1-0.82500 0.26682 0.45631-0.83525 0.33338-0.48078
  -6   6  -2 5376.36  780.22   1 0.00052-0.55962 0.84134-0.46199 0.54049-0.68802
  -6   6  -2 6233.29  955.66   1 0.25713-0.81600 0.95687-0.57791-0.13515-0.01232
   6   6   2 4759.20  737.99   1 0.61773-0.05891-0.51242 0.89156 0.59650-0.44904
   6   6   3 2912.21  503.44   1 0.57937-0.01487-0.54266 0.92201 0.60814-0.38687
  -6  -6  -3 2798.44  582.87   1-0.85438 0.29032 0.41718-0.79612 0.30982-0.53093
  -6   6  -3 3498.67  632.15   1-0.10490-0.46005 0.83436-0.45501 0.54113-0.76243
  -6   6  -3 3889.75 1064.82   1 0.24662-0.81142 0.95839-0.57929-0.14372-0.07754
   6   6   3 3870.85  827.92   1 0.59099-0.02635-0.54992 0.92906 0.59017-0.36897
   6   6   424156.65 1954.66   1 0.51848 0.05180-0.55337 0.93271 0.65188-0.35686
   6  -6   421202.45 1867.07   1-0.25824 0.82880-0.46220 0.08293 0.84833-0.55336
  -6   6  -426942.77 2201.19   1-0.22252-0.34813 0.81504-0.43576 0.53496-0.83000
  -6   6  -425430.91 2990.69   1 0.23087-0.80151 0.96051-0.58141-0.15529-0.13973
   6   6   428753.46 2480.49   1 0.56949 0.00096-0.57804 0.95718 0.58441-0.28948
   6  -6   5 2181.22  525.56   1-0.30172 0.87813-0.44647 0.06719 0.84239-0.47367
  -6  -6  -5 2232.28  651.11   1-0.90961 0.33382 0.32769-0.70663 0.25536-0.62388
  -6   6  -5 2465.29  591.62   1-0.34957-0.22695 0.78018-0.40090 0.51875-0.88756
  -6   6  -5 2027.61  694.41   1 0.21082-0.78732 0.96265-0.58355-0.16983-0.19895
   6   6   5 3473.40  949.26   1 0.55325 0.02321-0.59811 0.97719 0.57979-0.21106
   6  -6   6 4364.61  945.55   1-0.33525 0.91750-0.43349 0.05422 0.83647-0.39401
  -6  -6  -6 5431.24 1338.21   1-0.93398 0.35235 0.27792-0.65676 0.22457-0.66671
  -6   6  -6 5633.01  967.79   1-0.48321-0.09907 0.72501-0.34579 0.49076-0.93306
  -6   6  -6 6487.19 1489.87   1 0.18706-0.76941 0.96441-0.58532-0.18681-0.25573
   6   6   6 6173.15 1273.57   1 0.54241 0.03989-0.61109 0.99017 0.57649-0.13402
   6  -6   710515.67 1409.81   1-0.35991 0.94800-0.42342 0.04414 0.83136-0.31517
  -6  -6  -7 7863.31 1564.39   1-0.95541 0.36789 0.22463-0.60347 0.19161-0.70744
  -6   6  -7 9715.54 1736.18   1 0.16001-0.74821 0.96541-0.58632-0.20581-0.31048
   6   6   710857.34 1581.89   1 0.53662 0.05153-0.61787 0.99695 0.57468-0.05846
   6  -6   812764.52 1642.40   1-0.37672 0.97066-0.41634 0.03706 0.82748-0.23755
  -6  -6  -810332.38 2401.78   1-0.97325 0.37983 0.16818-0.54702 0.15646-0.74598
  -6   6  -811198.99 2784.93   1 0.12997-0.72402 0.96529-0.58619-0.22652-0.36353
   6   6   814521.17 1785.44   1 0.53557 0.05842-0.61909 0.99816 0.57435 0.01561
   6   7  -8 3685.52  836.41   1 0.96872-0.46838-0.24556 0.68801-0.03562-0.55430
   6  -7  -8 7844.97  839.90   1 0.81694-0.31701-0.45182 0.00952 0.35840-0.94837
  -6   7   8 3938.53  845.42   1 0.43809-0.93866 0.76610-0.32330 0.47027 0.11988
   6  -7  -711142.22 1179.78   1 0.74327-0.23729-0.49154 0.04909 0.45379-0.97019
  -6   7   711912.55 1475.44   1 0.43884-0.94525 0.76581-0.32301 0.47004 0.04633
   6   7  -710485.59 1115.65   1 0.81158-0.30513 0.39039 0.05179 0.43464-0.95090
   6   7  -6 1592.82  511.81   1 0.95146-0.43972-0.30176 0.74417 0.06035-0.50283
   6  -7  -6  414.16  383.70   1 0.65576-0.14390-0.52390 0.08145 0.54360-0.98623
  -6  -7   6 1092.11  442.03   1-0.76627 0.25489 0.52225-0.96457 0.37426 0.06804
  -6   7   6 1786.51  774.07   1 0.43290-0.94515 0.76811-0.32531 0.47180-0.02919
   6   7  -6  400.08  291.83   1 0.83085-0.31845 0.26592 0.17632 0.48883-0.93139
   6   7  -5 8217.95 1863.07   1 0.93804-0.42040-0.32887 0.77128 0.10916-0.47789
   6  -7  -5 5255.50 1034.04   1 0.55688-0.03868-0.54705 0.10447 0.62499-0.99377
  -6  -7   5 6532.51 1267.78   1-0.76118 0.24390 0.52744-0.96975 0.37735-0.00875
  -6   7   5 5932.41 1226.08   1 0.41974-0.93783 0.77305-0.33025 0.47561-0.10676
   6   7  -5 8672.70 1677.70   1 0.83485-0.31654 0.14339 0.29885 0.53146-0.90026
   6   7  -425076.03 3279.65   1 0.92124-0.39770-0.35529 0.79769 0.15834-0.45332
   6  -7  -428228.29 2338.75   1 0.44913 0.07484-0.56139 0.11881 0.69506-0.99009
  -6  -7   426482.06 2198.43   1-0.76363 0.24045 0.52495-0.96727 0.37587-0.08099
  -6   7   429176.54 2515.62   1 0.39866-0.92259 0.78056-0.33776 0.48144-0.18636
   6   7  -427137.36 2258.54   1 0.82587-0.30180 0.02728 0.41502 0.56319-0.85829
   6   7  -3 5081.19  498.58   1 0.90090-0.37159-0.38064 0.82294 0.20850-0.42974
   6  -7  -3 7693.17  680.47   1 0.33715 0.19264-0.56611 0.12352 0.75222-0.97346
  -6  -7   3 6253.34  533.48   1-0.77220 0.24313 0.51609-0.95841 0.37059-0.14943
  -6   7   3 3812.64  551.51   1 0.36872-0.89852 0.79022-0.34744 0.48947-0.26820
  -6   7   3 3650.02  746.03   1 0.24400-0.77369 0.95877-0.51649-0.14565 0.36693
   6   7  -3 4546.25  529.86   1 0.80701-0.27702-0.08017 0.52248 0.58506-0.80639
   6   7  -212759.16 1566.86   1 0.87689-0.34170-0.40537 0.84767 0.25832-0.40581
   6  -7  -213339.55 1663.51   1 0.22527 0.31035-0.56246 0.11987 0.79554-0.94303
  -6  -7   212698.46 1598.04   1-0.78568 0.25070 0.50167-0.94399 0.36197-0.21453
  -6   7   212931.06 1625.46   1 0.32901-0.86467 0.80182-0.35903 0.49882-0.35131
  -6   7   212276.57 2368.05   1 0.28361-0.81914 0.95198-0.50985-0.11528 0.26277
   6   7  -213236.90 1622.97   1 0.78110-0.24511-0.17590 0.61837 0.59910-0.74668
   6   7  -128921.23 1625.69   1 0.84908-0.30802-0.42906 0.87136 0.30815-0.38189
   6  -7  -130347.54 1793.25   1 0.11792 0.42331-0.55171 0.10925 0.82565-0.89937
  -6  -7   128237.62 3338.01   1-0.80321 0.26264 0.48264-0.92474 0.34913-0.27543
  -6   7   131476.35 1861.71   1 0.27839-0.81991 0.81431-0.37153 0.50929-0.43554
  -6   7   124415.13 1985.86   1 0.30393-0.84530 0.94745-0.50532-0.09978 0.17352
   6   7  -130471.10 1817.32   1 0.75164-0.20976-0.26024 0.70271 0.60605-0.67984
   6   7   014457.50  856.46   1 0.81743-0.27049-0.45151 0.89380 0.35769-0.35769
   6  -7   014279.16  963.49   1 0.01896 0.52807-0.53594 0.09348 0.84403-0.84403
  -6  -7   012140.54 1836.76   1-0.82313 0.27669 0.45865-0.90075 0.33478-0.33478
  -6   7   015628.40 1109.29   1 0.21572-0.76310 0.82641-0.38363 0.52009-0.52009
  -6   7   015412.94 1606.22   1 0.31175-0.85895 0.94552-0.50340-0.09376 0.09376
   6   7   015004.95 1041.36   1 0.72095-0.17320-0.33222 0.77469 0.60814-0.60814
   6   7   121256.38 1209.14   1 0.78217-0.22917-0.47237 0.91483 0.40628-0.33250
   6  -7   126825.44 1632.14   1-0.06931 0.62214-0.51722 0.07476 0.85303-0.77932
  -6  -7  -126621.11 2277.71   1-0.84488 0.29257 0.43034-0.87244 0.31776-0.39146
  -6   7  -123450.88 1429.75   1 0.13993-0.69317 0.83630-0.39351 0.53011-0.60386
  -6   7  -121691.97 1912.14   1 0.31059-0.86362 0.94581-0.50369-0.09465 0.02090
   6   7   125653.34 1557.89   1 0.69068-0.13768-0.39181 0.83414 0.60781-0.53407
   6   7   213607.78  838.14   1 0.74339-0.18452-0.49149 0.93394 0.45365-0.30610
   6  -7   221306.64 1282.84   1-0.14557 0.70443-0.49757 0.05509 0.85511-0.70763
  -6  -7  -217464.93 2323.17   1-0.86758 0.30940 0.39796-0.84006 0.29819-0.44560
  -6   7  -214322.75  906.91   1 0.04985-0.60895 0.84138-0.39881 0.53812-0.68565
  -6   7  -215341.80 1741.79   1 0.30260-0.86147 0.94776-0.50564-0.10080-0.04668
   6   7   214924.42 1159.54   1 0.66327-0.10445-0.44082 0.88315 0.60476-0.45730
   6   7   3 5936.79  749.14   1 0.70193-0.13718-0.50844 0.95089 0.49877-0.27745
   6  -7   310387.74 1433.46   1-0.20983 0.77454-0.47834 0.03585 0.85273-0.63150
  -6  -7  -3 9578.22 1450.82   1-0.89042 0.32637 0.36175-0.80385 0.27618-0.49729
  -6   7  -3 6456.24  831.69   1-0.05414-0.51082 0.83890-0.39632 0.54158-0.76288
  -6   7  -3 4816.04 1160.50   1 0.28916-0.85387 0.95081-0.50868-0.11107-0.11015
   6   7   3 6411.19  937.61   1 0.63935-0.07471-0.47977 0.92210 0.60086-0.37966
   6  -7   4  790.68  445.03   1-0.26252 0.83307-0.46071 0.01823 0.84783-0.55286
  -6  -7  -4 1326.73  388.03   1-0.91266 0.34274 0.32191-0.76401 0.25182-0.54663
  -6   7  -4 1162.44  425.54   1-0.17221-0.39844 0.82469-0.38220 0.53871-0.83376
  -6   7  -4  -31.14  333.64   1 0.27121-0.84175 0.95441-0.51229-0.12464-0.17033
   6   7   4  -76.11  455.52   1 0.61958-0.04912-0.50972 0.95204 0.59690-0.30197
   6  -7   516706.31 1414.24   1-0.30453 0.88093-0.44541 0.00292 0.84194-0.47322
  -6  -7  -514214.20 2426.05   1-0.93357 0.35784 0.27884-0.72082 0.22514-0.59359
  -6   7  -520090.88 1557.79   1-0.30234-0.27418 0.79496-0.35247 0.52595-0.89475
  -6   7  -519756.09 2796.57   1 0.24960-0.82609 0.95795-0.51566-0.14152-0.22726
   6   7   520687.62 1718.64   1 0.60427-0.02799-0.53168 0.97400 0.59343-0.22477
   6  -7   6 6017.80  939.41   1-0.33694 0.91919-0.43282-0.00966 0.83614-0.39368
  -6  -7  -6 5437.04 1508.08   1-0.95261 0.37098 0.23230-0.67429 0.19637-0.63851
  -6   7  -6 8439.96 1565.38   1 0.22439-0.80673 0.96127-0.51899-0.16001-0.28252
   6   7   6 8746.26 1245.73   1 0.59350-0.01140-0.54653 0.98886 0.59080-0.14840
   6  -7   7 4303.55  753.64   1-0.36080 0.94890-0.42305-0.01943 0.83117-0.31497
  -6  -7  -7 3279.61 1009.26   1-0.96914 0.38162 0.18264-0.62463 0.16549-0.68132
  -6   7  -7 4463.69 1053.70   1 0.19610-0.78430 0.96384-0.52156-0.18038-0.33591
   6   7   7 6545.57 1090.38   1 0.58721 0.00070-0.55499 0.99732 0.58920-0.07306
   6   8  -7 5712.56 1108.67   1 0.96930-0.46304-0.24244 0.74809-0.04084-0.47533
   6  -8  -7 6435.59  697.39   1 0.74200-0.23602-0.49211-0.01354 0.45524-0.97165
  -6   8   7 9499.57 1156.91   1 0.46007-0.96648 0.75727-0.25121 0.46354 0.05283
   6   8  -7 6991.94  743.59   1 0.80970-0.30324 0.39863 0.10672 0.43065-0.94691
   6   8  -620669.86 2602.27   1 0.96339-0.45165-0.26808 0.77369 0.00182-0.44430
   6  -8  -622392.60 2209.31   1 0.65164-0.13978-0.52513 0.01947 0.54735-0.98999
  -6   8   625935.86 2713.64   1 0.45485-0.96710 0.75942-0.25336 0.46517-0.02256
   6   8  -620853.30 2072.53   1 0.82872-0.31632 0.28682 0.21860 0.48056-0.92312
   6   8  -514202.96 1816.97   1 0.95508-0.43744-0.29292 0.79853 0.04477-0.41350
   6  -8  -514710.76 1216.44   1 0.55024-0.03205-0.54824 0.04244 0.62980-0.99858
  -6  -8   515103.55 1661.03   1-0.83672 0.31962 0.44125-0.94651 0.32433 0.04418
  -6   8   516726.19 1450.11   1 0.44280-0.96089 0.76426-0.25820 0.46885-0.10001
   6   8  -515723.60 1267.24   1 0.83516-0.31685 0.17664 0.32878 0.52086-0.88966
   6   8  -4  878.48  256.94   1 0.94440-0.42085-0.31694 0.82255 0.08748-0.38247
   6  -8  -4 1753.29  485.43   1 0.44065 0.08332-0.56209 0.05629 0.69990-0.99493
  -6  -8   4  535.98  241.11   1-0.83419 0.31123 0.44455-0.94980 0.32631-0.03150
  -6   8   4 1986.21  718.76   1 0.42326-0.94719 0.77175-0.26569 0.47460-0.17952
   6   8  -4 1111.86  600.11   1 0.83068-0.30662 0.07164 0.43384 0.55210-0.84720
   6   8  -314350.49 1687.75   1 0.93139-0.40194-0.34008 0.84569 0.12981-0.35105
   6  -8  -315053.65 1348.40   1 0.32787 0.20191-0.56611 0.06030 0.75631-0.97754
  -6  -8   312481.98 1812.10   1-0.83737 0.30854 0.44039-0.94564 0.32381-0.10270
  -6   8   316491.94 1523.33   1 0.39537-0.92514 0.78169-0.27563 0.48232-0.26101
  -6   8   311894.57 1494.34   1 0.31065-0.84035 0.94580-0.44051-0.09460 0.31583
   6   8  -315019.99 1378.79   1 0.81770-0.28771-0.02652 0.53201 0.57502-0.79635
   6   8  -2 5974.12 1115.75   1 0.91615-0.38081-0.36224 0.86785 0.17158-0.31907
   6  -8  -2 4262.67  663.58   1 0.21626 0.31935-0.56182 0.05601 0.79848-0.94597
  -6  -8   2 4608.04  886.35   1-0.84514 0.31044 0.42998-0.93524 0.31754-0.17014
  -6   8   2 5349.07  923.50   1 0.35798-0.89364 0.79352-0.28748 0.49210-0.34459
  -6   8   2 4748.48 1008.75   1 0.33862-0.87415 0.93810-0.43281-0.07278 0.22027
   6   8  -2 4795.97  815.97   1 0.79851-0.26260-0.11576 0.62125 0.59074-0.73829
   6   8  -1 2223.87  406.52   1 0.89870-0.35764-0.38313 0.88861 0.21341-0.28716
   6  -8  -1 3175.11  641.51   1 0.11007 0.43116-0.55066 0.04499 0.82743-0.90115
  -6  -8   1 2602.10  648.57   1-0.85652 0.31595 0.41413-0.91939 0.30798-0.23427
  -6   8   1 2080.91  400.44   1 0.31017-0.85169 0.80676-0.30072 0.50291-0.42915
  -6   8   1 2480.61  469.64   1 0.35175-0.89311 0.93401-0.42872-0.06239 0.13613
   6   8  -1 1198.19  403.13   1 0.77520-0.23333-0.19444 0.70012 0.60103-0.67482
   6   8   015849.74 1346.26   1 0.87946-0.33252-0.40295 0.90843 0.25333-0.25333
   6  -8   016802.52 1502.45   1 0.01287 0.53415-0.53479 0.02912 0.84488-0.84488
  -6  -8   015675.92 2555.33   1-0.87058 0.32414 0.39343-0.89868 0.29544-0.29544
  -6   8   017883.59 1650.75   1 0.25059-0.79797 0.82013-0.31409 0.51437-0.51437
  -6   8   016286.17 1590.62   1 0.35469-0.90189 0.93305-0.42776-0.06005 0.06005
   6   8   017553.85 1599.57   1 0.75042-0.20267-0.26336 0.76903 0.60622-0.60622
   6   8   123239.62 1910.27   1 0.85876-0.30595-0.42131 0.92679 0.29157-0.21783
   6  -8   125259.77 2159.28   1-0.07339 0.62622-0.51625 0.01058 0.85328-0.77956
  -6  -8  -122435.19 3243.59   1-0.88648 0.33417 0.36829-0.87355 0.28017-0.35387
  -6   8  -125643.12 2164.33   1 0.17797-0.73120 0.83197-0.32593 0.52549-0.59924
  -6   8  -126484.94 2222.82   1 0.35008-0.90312 0.93454-0.42926-0.06371-0.01002
   6   8   125646.80 2178.42   1 0.72567-0.17204-0.32193 0.82760 0.60807-0.53429
   6  -8   2 4163.40  924.40   1-0.14768 0.70654-0.49698-0.00871 0.85510-0.70761
  -6  -8  -2 2605.66  671.35   1-0.90343 0.34525 0.33908-0.84433 0.26233-0.40974
  -6   8  -2 2772.14  650.14   1 0.09077-0.64987 0.83985-0.33405 0.53515-0.68269
  -6   8  -2 2895.56  620.31   1 0.33958-0.89845 0.93781-0.43252-0.07202-0.07545
   6   8   2 2679.43  693.01   1 0.70237-0.14287-0.37059 0.87627 0.60772-0.46014
   6  -8   3 3479.40  949.40   1-0.21019 0.77490-0.47822-0.02747 0.85271-0.63148
  -6  -8  -3 1302.16  422.22   1-0.92071 0.35666 0.30605-0.81131 0.24209-0.46320
  -6   8  -3 1410.40  464.98   1-0.01113-0.55382 0.84103-0.33523 0.54086-0.76216
  -6   8  -3 1584.61  513.48   1 0.32426-0.88896 0.94222-0.43694-0.08404-0.13718
   6   8   3 2273.08  777.91   1 0.68099-0.11636-0.40972 0.91524 0.60693-0.38573
   6  -8   417812.14 1551.88   1-0.26144 0.83199-0.46109-0.04460 0.84796-0.55298
  -6  -8  -412912.50 2512.07   1-0.93760 0.36778 0.26966-0.77478 0.21948-0.51423
  -6   8  -413818.14 1119.32   1-0.12833-0.44249 0.83152-0.32572 0.54045-0.83552
  -6   8  -414229.16 2400.77   1 0.30484-0.87539 0.94723-0.44194-0.09908-0.19589
   6   8   413550.38 1377.14   1 0.66333-0.09287-0.44072 0.94624 0.60477-0.30984
   6  -8   5 8448.92 1032.71   1-0.30234 0.87874-0.44624-0.05945 0.84229-0.47357
  -6   8  -5 6144.21 1467.04   1 0.28186-0.85824 0.95234-0.44705-0.11660-0.25210
   6   8   5 9364.91 1204.83   1 0.64928-0.07300-0.46398 0.96950 0.60261-0.23394
   6  -8   6  958.71  682.05   1-0.33394 0.91619-0.43401-0.07168 0.83672-0.39426
  -6  -8  -6 -242.32  376.29   1-0.96796 0.38634 0.18661-0.69174 0.16797-0.61010
  -6   8  -6  361.85  198.96   1 0.25568-0.83790 0.95711-0.45182-0.13623-0.30622
   6   8   6 1994.71  868.06   1 0.63907-0.05697-0.48020 0.98572 0.60081-0.15841
   6   9  -7 1815.31  511.81   1 0.97321-0.46694-0.20905 0.77791-0.09569-0.42048
  -6   9   7 3173.13  798.27   1 0.47527-0.98169 0.75081-0.18150 0.45867 0.05771
   6   9  -7  837.70  307.34   1 0.80670-0.30024 0.41110 0.15742 0.42452-0.94078
   6   9  -6 2338.59  609.53   1 0.97094-0.45875-0.23218 0.80104-0.05789-0.38454
   6  -9  -6 1846.08  476.71   1 0.65267-0.14081-0.52482-0.04404 0.54642-0.98905
  -6   9   6 1417.47  790.73   1 0.47060-0.98285 0.75283-0.18351 0.46019-0.01757
   6   9  -6 1939.97  561.36   1 0.82587-0.31346 0.30983 0.25877 0.47109-0.91365
   6   9  -5 6097.27 1409.50   1 0.96687-0.44923-0.25434 0.82315-0.02145-0.34728
   6  -9  -5 8936.71 1158.70   1 0.54924-0.03105-0.54842-0.02059 0.63052-0.99930
  -6   9   5 7230.88 1121.23   1 0.45943-0.97753 0.75753-0.18822 0.46374-0.09489
   6   9  -5 5487.51 1030.22   1 0.83444-0.31613 0.20998 0.35862 0.50951-0.87831
   6   9  -4 2170.98  470.22   1 0.96121-0.43767-0.27542 0.84423 0.01438-0.30937
   6  -9  -4 2281.21  526.46   1 0.43824 0.08573-0.56228-0.00673 0.70127-0.99629
  -6  -9   4 1399.24  438.41   1-0.89067 0.36771 0.36133-0.92974 0.27592 0.01888
  -6   9   4 3121.08  810.79   1 0.44114-0.96507 0.76491-0.19560 0.46936-0.17428
   6   9  -4 2313.05  577.68   1 0.83367-0.30961 0.11446 0.45422 0.54025-0.83535
   6   9  -3 5996.28 1501.87   1 0.95416-0.42471-0.29527 0.86408 0.04890-0.27014
   6  -9  -3 9743.05  861.57   1 0.32498 0.20480-0.56610-0.00293 0.75756-0.97879
  -6  -9   3 6956.43 1779.64   1-0.89002 0.36119 0.36242-0.93083 0.27659-0.05548
  -6   9   310001.43 1073.75   1 0.41489-0.94466 0.77482-0.20551 0.47697-0.25567
   6   9  -3 8353.83  783.73   1 0.82551-0.29552 0.02447 0.54420 0.56385-0.78518
   6   9  -210002.60 1913.92   1 0.94599-0.41065-0.31371 0.88252 0.08166-0.22916
   6  -9  -213621.34 1149.02   1 0.21380 0.32182-0.56164-0.00739 0.79927-0.94676
  -6  -9   215001.74 2005.54   1-0.89352 0.35882 0.35650-0.92492 0.27298-0.12557
  -6   9   212019.79 1062.76   1 0.37955-0.91521 0.78677-0.21748 0.48673-0.33922
  -6   9   210245.53 1374.17   1 0.38020-0.91573 0.92405-0.35561-0.03950 0.18699
   6   9  -210817.82  951.31   1 0.81171-0.27580-0.05814 0.62683 0.58115-0.72870
   6   9  -1 9369.71 1243.66   1 0.93712-0.39588-0.33048 0.89929 0.11210-0.18585
   6  -9  -114690.90 1219.60   1 0.10874 0.43249-0.55048-0.01839 0.82773-0.90144
  -6  -9   1 9260.30 1378.16   1-0.90032 0.35975 0.34465-0.91306 0.26574-0.19204
  -6   9   112456.08 1202.81   1 0.33420-0.87572 0.80039-0.23110 0.49766-0.42391
  -6   9   1 8813.16 1638.12   1 0.38836-0.92973 0.92091-0.35247-0.03284 0.10659
   6   9  -111623.17 1021.20   1 0.79385-0.25197-0.13185 0.70074 0.59364-0.66743
   6   9   022557.43 2365.09   1 0.92811-0.38097-0.34521 0.91402 0.13936-0.13936
   6  -9   026307.43 1913.28   1 0.01311 0.53392-0.53484-0.03403 0.84484-0.84484
  -6  -9   027056.23 3857.76   1-0.90965 0.36321 0.32762-0.89603 0.25532-0.25532
  -6   9   022406.73 1714.51   1 0.27741-0.82479 0.81453-0.24524 0.50948-0.50948
  -6   9   024855.52 2672.53   1 0.38797-0.93517 0.92107-0.35262-0.03316 0.03316
   6   9   025004.16 1900.29   1 0.77425-0.22650-0.19734 0.76623 0.60131-0.60131
   6  -9   110498.88  907.29   1-0.07145 0.62428-0.51671-0.05215 0.85316-0.77945
  -6  -9  -1 8416.65 1475.00   1-0.92075 0.36844 0.30597-0.87438 0.24203-0.31574
  -6   9  -112691.40 1165.65   1 0.20777-0.76101 0.82769-0.25840 0.52129-0.59505
  -6   9  -110699.04 2233.78   1 0.38106-0.93410 0.92373-0.35528-0.03880-0.03493
   6   9   112249.39 1231.00   1 0.75412-0.20049-0.25383 0.82272 0.60569-0.53190
   6  -9   2 4592.39 1168.26   1-0.14414 0.70300-0.49797-0.07093 0.85512-0.70763
  -6  -9  -2 3346.83  865.36   1-0.93293 0.37490 0.28027-0.84853 0.22602-0.37340
  -6   9  -2 8697.07  778.76   1 0.12349-0.68258 0.83760-0.26858 0.53212-0.67966
  -6   9  -2 7350.19 1868.09   1 0.36893-0.92780 0.92818-0.35973-0.04863-0.09885
   6   9   211790.67 1319.17   1 0.73470-0.17520-0.30150 0.87039 0.60770-0.46013
   6  -9   3 1599.99  502.45   1-0.20528 0.76998-0.47978-0.08912 0.85303-0.63180
  -6  -9  -3 1042.14  440.31   1-0.94555 0.38162 0.25058-0.81885 0.20769-0.42876
  -6   9  -3 4170.21  777.87   1 0.02395-0.58891 0.84162-0.27259 0.53953-0.76083
  -6   9  -3 3865.30  967.50   1 0.35242-0.91712 0.93379-0.36534-0.06186-0.15936
   6   9   3 4079.57  901.45   1 0.71697-0.15159-0.34073 0.90962 0.60814-0.38678
   6  -9   4 4943.33  972.01   1-0.25543 0.82599-0.46318-0.10572 0.84865-0.55367
  -6  -9  -4 4209.48 1234.06   1-0.95800 0.38817 0.21732-0.78558 0.18708-0.48183
  -6   9  -4 4026.09  737.27   1-0.09205-0.47877 0.83572-0.26669 0.54138-0.83645
  -6   9  -4 4899.53 1346.28   1 0.33213-0.90267 0.94001-0.37156-0.07789-0.21707
   6   9   4 5857.06  845.96   1 0.70105-0.13059-0.37183 0.94054 0.60849-0.31356
   6  -9   5 4783.97 1007.89   1-0.29554 0.87194-0.44878-0.12012 0.84335-0.47463
  -6  -9  -5 5483.81 1628.11   1-0.96971 0.39399 0.18071-0.74897 0.16428-0.53273
  -6   9  -5 6966.01 1509.72   1 0.30848-0.88485 0.94634-0.37789-0.09628-0.27243
   6   9   5 8291.08 1151.43   1 0.68855-0.11227-0.39580 0.96451 0.60763-0.23897
  -6  10   5 3541.72 1119.85   1 0.47042-0.98851 0.75290-0.12034 0.46024-0.09140
   6  10  -5 5320.64  801.77   1 0.83266-0.31435 0.24339 0.38838 0.49741-0.86621
   6  10  -4  150.32  280.52   1 0.97111-0.44706-0.23099 0.86305-0.05987-0.23509
   6 -10  -4  453.97  293.30   1 0.44202 0.08195-0.56198-0.07026 0.69913-0.99415
  -6 -10   4  256.79  259.52   1-0.93431 0.41168 0.27717-0.90858 0.22411 0.07063
  -6  10   4 2025.30  708.49   1 0.45310-0.97704 0.76013-0.12756 0.46571-0.17063
   6  10  -4  268.92  375.22   1 0.83508-0.31087 0.15575 0.47603 0.52760-0.82264
   6  10  -3 3135.66  725.04   1 0.96847-0.43850-0.24683 0.87890-0.03349-0.18772
   6 -10  -3 4325.06  830.32   1 0.32846 0.20132-0.56611-0.06614 0.75605-0.97728
  -6 -10   3 3754.28  923.20   1-0.93130 0.40277 0.28386-0.91527 0.22823-0.00717
  -6  10   3 3763.14  853.79   1 0.42819-0.95796 0.76990-0.13733 0.47318-0.25187
   6  10  -3 4937.37 1012.88   1 0.83083-0.30084 0.07332 0.55854 0.55166-0.77299
   6  10  -2 2116.85  498.14   1 0.96542-0.43008-0.26042 0.89243-0.01119-0.13630
   6 -10  -2 2398.95  535.92   1 0.21771 0.31790-0.56193-0.07033 0.79801-0.94550
  -6  10   2 4286.35  829.47   1 0.39471-0.93031 0.78191-0.14934 0.48250-0.33496
  -6  10   2 2937.77  768.74   1 0.41070-0.94623 0.91165-0.28004-0.01440 0.16189
   6  10  -2 3271.41  746.93   1 0.82155-0.28564-0.00323 0.63509 0.57012-0.71767
   6 -10  -1  897.76  512.31   1 0.11366 0.42758-0.55114-0.08093 0.82662-0.90034
  -6 -10   1  630.61  435.16   1-0.93522 0.39489 0.27513-0.90653 0.22285-0.14916
  -6  10   1  922.72  555.15   1 0.35127-0.89279 0.79552-0.16297 0.49371-0.41995
  -6  10   1  328.72  183.31   1 0.41555-0.95692 0.90950-0.27790-0.01035 0.08410
   6 -10   028827.08 2876.97   1 0.01934 0.52769-0.53601-0.09606 0.84398-0.84398
  -6 -10   023381.28 3238.87   1-0.94087 0.39465 0.26197-0.89338 0.21474-0.21474
  -6  10   026058.65 2601.40   1 0.29690-0.84428 0.81003-0.17748 0.50565-0.50565
  -6  10   022283.24 2688.69   1 0.41299-0.96019 0.91064-0.27903-0.01249 0.01249
   6  10   021424.10 2194.06   1 0.79326-0.24551-0.13403 0.76612 0.59394-0.59394
   6 -10   111837.30 1333.90   1-0.06386 0.61669-0.51851-0.11357 0.85268-0.77896
  -6 -10  -1 9434.13 2253.87   1-0.94817 0.39604 0.24395-0.87536 0.20359-0.27728
  -6  10  -112466.78 1335.92   1 0.22992-0.78316 0.82399-0.19144 0.51785-0.59160
  -6  10  -110073.11 1797.26   1 0.40464-0.95768 0.91426-0.28265-0.01944-0.05430
   6  10   111908.35 1364.97   1 0.77727-0.22364-0.18806 0.82016 0.60039-0.52660
   6 -10   2 3608.70  784.16   1-0.13532 0.69417-0.50042-0.13169 0.85514-0.70765
  -6 -10  -2 3374.16  946.76   1-0.95650 0.39848 0.22157-0.85298 0.18971-0.33709
  -6  10  -2 2915.24  591.76   1 0.14873-0.70782 0.83541-0.20286 0.52911-0.67662
  -6  10  -2 3852.05 1130.60   1 0.39153-0.95040 0.91966-0.28805-0.03024-0.11723
   6  10   2 4135.49  895.00   1 0.76145-0.20195-0.23422 0.86631 0.60441-0.45684
   6 -10   3 1747.37  531.33   1-0.19544 0.76014-0.48286-0.14925 0.85360-0.63237
  -6 -10  -3 1397.44  339.95   1-0.96531 0.40139 0.19523-0.82663 0.17333-0.39440
  -6  10  -3 1722.30  507.96   1 0.05121-0.61617 0.84136-0.20910 0.53804-0.75934
  -6  10  -3 1421.46  591.27   1 0.37437-0.93908 0.92622-0.29461-0.04423-0.17699
   6  10   3 2875.76  881.46   1 0.74671-0.18133-0.27269 0.90479 0.60667-0.38531
   6 -10   4 1357.67  569.50   1-0.24483 0.81539-0.46682-0.16529 0.84978-0.55480
  -6 -10  -4 1439.39  588.70   1-0.97405 0.40423 0.16524-0.79664 0.15462-0.44938
  -6  10  -4 2005.27  856.25   1 0.35364-0.92418 0.93339-0.30178-0.06088-0.23409
   6  10   4 1105.87  538.12   1 0.73371-0.16246-0.30378 0.93588 0.60776-0.31261
   6  11  -4 8037.52 1988.99   1 0.97350-0.44946-0.18378 0.87905-0.13604-0.15891
  -6  11   415849.54 2007.85   1 0.45983-0.98377 0.75736-0.06154 0.46361-0.16854
   6  11  -415569.43 1917.46   1 0.83486-0.31065 0.19639 0.49857 0.51423-0.80927
   6  11  -3 4087.52 1401.43   1 0.97364-0.44367-0.19498 0.89025-0.11828-0.10294
   6 -11  -3 5851.40  806.32   1 0.33833 0.19145-0.56610-0.12938 0.75170-0.97293
  -6 -11   3 4394.99 1044.27   1-0.96194 0.43341 0.20570-0.90025 0.17985 0.04120
  -6  11   3 7144.36 1106.72   1 0.43596-0.96573 0.76693-0.07110 0.47090-0.24959
   6  11  -3 5599.84  841.31   1 0.83396-0.30397 0.12040 0.57465 0.53852-0.75985
   6 -11  -2  780.33  441.52   1 0.22791 0.30771-0.56263-0.13285 0.79466-0.94215
  -6 -11   2  595.28  400.24   1-0.96072 0.42629 0.20936-0.90391 0.18213-0.03475
  -6  11   2  964.61  629.42   1 0.40383-0.93944 0.77876-0.08293 0.48004-0.33250
   6  11  -2 1605.21  644.93   1 0.82849-0.29258 0.04941 0.64564 0.55781-0.70536
   6 -11  -1 5066.03  989.98   1 0.12462 0.41662-0.55257-0.14271 0.82409-0.89780
  -6 -11   1 3465.64 1007.71   1-0.96184 0.42151 0.20601-0.90056 0.18005-0.10636
  -6  11   1 6125.72  872.76   1 0.36208-0.90360 0.79227-0.09647 0.49110-0.41735
  -6  11   1 4114.88  982.65   1 0.43490-0.97626 0.90045-0.20569 0.00594 0.06779
   6  11  -1 4840.18  999.55   1 0.81958-0.27776-0.01548 0.71053 0.57274-0.64651
   6 -11   0 2974.64  740.40   1 0.03130 0.51573-0.53821-0.15708 0.84222-0.84222
  -6 -11   0 2247.73  693.29   1-0.96484 0.41861 0.19673-0.89128 0.17427-0.17427
  -6  11   0 4682.40 1014.65   1 0.30973-0.85711 0.80687-0.11107 0.50300-0.50300
  -6  11   0 2789.80  959.81   1 0.43101-0.97821 0.90234-0.20757 0.00265-0.00265
   6  11   0 4284.23  884.05   1 0.80843-0.26068-0.07373 0.76879 0.58395-0.58395
   6 -11   1 3337.76  803.79   1-0.05089 0.60372-0.52149-0.17379 0.85173-0.77801
  -6 -11  -1 3026.07  814.58   1-0.96924 0.41711 0.18232-0.87686 0.16529-0.23898
  -6  11  -1  697.36  391.27   1 0.42184-0.97487 0.90665-0.21188-0.00508-0.06865
   6 -11   211259.54 1408.78   1-0.12147 0.68033-0.50416-0.19116 0.85501-0.70753
  -6 -11  -2 9525.63 2268.39   1-0.97455 0.41653 0.16335-0.85790 0.15345-0.30083
  -6  11  -211530.83 1448.74   1 0.16621-0.72531 0.83344-0.13764 0.52700-0.67451
  -6  11  -2 8656.89 2268.54   1 0.40825-0.96712 0.91272-0.21795-0.01644-0.13103
   6  11   210571.18 1402.35   1 0.78326-0.22376-0.16884 0.86415 0.59831-0.45074
   6 -11   310909.11 1363.51   1-0.18092 0.74562-0.48729-0.20803 0.85428-0.63305
  -6 -11  -3 9342.84 2181.33   1-0.98030 0.41637 0.14030-0.83484 0.13901-0.36008
  -6  11  -3 5614.99 1401.93   1 0.39082-0.95553 0.91994-0.22517-0.03083-0.19039
   7   0  -9 1292.48  594.21   1 0.90218-0.31697-0.37918 0.37918 0.20561-0.86933
  -7   0   9  371.55  306.37   1-0.05528-0.53048 0.83882-0.83882 0.54158 0.12231
   7   0  -8 8606.82 1008.65   1 0.86675-0.27566-0.41453 0.41453 0.27730-0.86727
  -7   0   8 8311.36 1011.88   1-0.04995-0.54168 0.83917-0.83917 0.54155 0.04857
   7   0  -735617.33 2508.38   1 0.82337-0.22641-0.44760 0.44760 0.34887-0.86509
  -7   0   735904.70 2585.11   1-0.05383-0.54366 0.83892-0.83892 0.54158-0.02521
   7   0  -624098.98 2066.25   1 0.77184-0.16879-0.47781 0.47781 0.41945-0.86208
  -7   0   625100.31 2145.16   1-0.06672-0.53664 0.83798-0.83798 0.54160-0.09900
   7   0  -5  -54.69  309.93   1 0.71197-0.10305-0.50462 0.50462 0.48830-0.85716
  -7   0   5  406.72  428.28   1-0.08848-0.52075 0.83607-0.83607 0.54143-0.17260
   7   0  -4 9065.97  871.84   1 0.64416-0.02936-0.52729 0.52729 0.55408-0.84917
  -7   0   4 9562.52  875.79   1-0.11892-0.49618 0.83272-0.83272 0.54076-0.24569
   7   0  -4 8212.75  568.39   1 0.66858-0.05349-0.43172 0.43172 0.60548-0.90041
   7   0  -3 2938.57  492.73   1 0.56932 0.05163-0.54468 0.54468 0.61577-0.83704
  -7   0   3 3199.39  586.61   1-0.15752-0.46328 0.82709-0.82709 0.53954-0.31826
   7   0  -3 2273.90  354.15   1 0.55683 0.06407-0.59375 0.59375 0.58085-0.80209
   7   0  -2 3910.92  547.66   1 0.48871 0.13803-0.55732 0.55732 0.67123-0.81874
  -7   0   2 3834.20  628.93   1-0.20440-0.42226 0.81878-0.81878 0.53648-0.38896
   7   0  -2 3598.04  471.56   1 0.45962 0.16713-0.69911 0.69911 0.54770-0.69520
   7   0  -1 8023.86  869.79   1 0.40447 0.22806-0.56447 0.56447 0.71956-0.79332
  -7   0   1 8826.18 1025.27   1-0.25860-0.37393 0.80670-0.80670 0.53136-0.45760
   7   0   056086.51 3158.40   1 0.31925 0.31925-0.56607 0.56607 0.76002-0.76002
  -7   0   051131.73 2892.15   1-0.31920-0.31920 0.78994-0.78994 0.52354-0.52354
   7   0   118024.39 1667.62   1 0.23575 0.40860-0.56313 0.56313 0.79202-0.71827
  -7   0  -113689.08 1260.86   1-0.38491-0.25899 0.76718-0.76718 0.51309-0.58681
   7   0   2  550.48  441.13   1 0.15671 0.49346-0.55639 0.55639 0.81600-0.66851
  -7   0  -2  584.07  338.94   1-0.45462-0.19519 0.73844-0.73844 0.49800-0.64544
   7   0   347668.00 2641.23   1 0.08412 0.57146-0.54695 0.54695 0.83292-0.61177
  -7   0  -348517.01 2681.41   1-0.52653-0.12918 0.70269-0.70269 0.47851-0.69966
   7   0   4 3320.00  485.89   1 0.02020 0.64117-0.53617 0.53617 0.84386-0.54899
  -7   0  -4 6406.91  710.76   1-0.59896-0.06266 0.65947-0.65947 0.45424-0.74911
   7   0   5 1199.43  313.16   1-0.03435 0.70152-0.52516 0.52516 0.85030-0.48172
  -7   0  -5  179.46  306.57   1-0.67021 0.00281 0.60842-0.60842 0.42501-0.79360
   7   0   6  153.37  382.69   1-0.07918 0.75215-0.51486 0.51486 0.85360-0.41131
  -7   0  -6  613.74  314.89   1-0.73849 0.06519 0.54964-0.54964 0.39053-0.83284
   7   0   7 1941.47  608.80   1-0.11385 0.79314-0.50618 0.50618 0.85487-0.33867
  -7   0  -7 2414.95  510.15   1-0.80167 0.12306 0.48443-0.48443 0.35020-0.86612
   7   0   8 5506.19  821.83   1-0.13976 0.82490-0.49919 0.49919 0.85514-0.26519
  -7   0  -8 2348.13  879.55   1-0.85937 0.17489 0.41004-0.41004 0.30551-0.89513
   7   1  -9 4305.99 1017.61   1 0.91363-0.32840-0.36554 0.42874 0.17790-0.84162
   7  -1  -9 2471.39  644.19   1 0.89099-0.30578-0.39144 0.32826 0.23000-0.89372
  -7  -1   9 1111.94  474.20   1-0.14983-0.43577 0.82826-0.89148 0.53992 0.12391
  -7   1   9 3263.82  722.58   1 0.02951-0.61527 0.84162-0.77839 0.53926 0.12463
   7   1  -8 7060.07 1015.27   1 0.88265-0.29157-0.39986 0.46304 0.24703-0.83700
   7  -1  -8 5861.43 1088.75   1 0.85138-0.26029-0.42726 0.36408 0.30428-0.89425
  -7  -1   8 4863.83  885.34   1-0.14312-0.44834 0.82925-0.89246 0.54023 0.04985
  -7   1   8 5269.46  947.02   1 0.03408-0.62571 0.84159-0.77837 0.53902 0.05110
   7   1  -7  223.96  389.08   1 0.84424-0.24727-0.43277 0.49596 0.31616-0.83239
   7  -1  -7  263.59  342.26   1 0.80320-0.20624-0.46038 0.39719 0.37803-0.89425
  -7  -1   7 1223.85  543.67   1-0.14602-0.45131 0.82883-0.89204 0.54010-0.02377
  -7   1   7  823.10  447.29   1 0.02985-0.62735 0.84161-0.77839 0.53924-0.02287
   7  -1  -6 9401.46 1282.99   1 0.74636-0.14331-0.49014 0.42694 0.45021-0.89285
  -7  -1   6 7940.95 1033.14   1-0.15810-0.44510 0.82700-0.89021 0.53951-0.09694
  -7   1   6 7879.16 1192.68   1 0.01686-0.62023 0.84158-0.77836 0.53985-0.09725
   7   1  -5 7661.39 1007.73   1 0.74447-0.13555-0.49100 0.55421 0.45240-0.82126
   7  -1  -513663.45 1660.44   1 0.68084-0.07191-0.51591 0.45270 0.51989-0.88875
  -7  -1   512573.67 1608.68   1-0.17899-0.43007 0.82352-0.88673 0.53829-0.16949
  -7   1   510391.14 1369.08   1-0.00492-0.60431 0.84121-0.77799 0.54067-0.17184
   7   1  -4  579.62  368.20   1 0.68297-0.06817-0.51518 0.57839 0.51781-0.81290
  -7  -1   4  364.27  387.74   1-0.20833-0.40660 0.81799-0.88120 0.53617-0.24112
  -7   1   4  393.82  383.45   1-0.03552-0.57958 0.84001-0.77679 0.54139-0.24632
   7   1  -4  474.02  233.24   1 0.70983-0.09429-0.35559 0.41880 0.60802-0.90316
   7  -1  -4  481.20  237.50   1 0.61390 0.00118-0.51798 0.45479 0.59565-0.89059
   7   1  -3 2660.77  515.00   1 0.61426 0.00640-0.53523 0.59844 0.57982-0.80113
   7  -1  -3 1423.70  420.79   1 0.52711 0.09384-0.55207 0.48884 0.64603-0.86730
  -7  -1   3 2406.32  461.22   1-0.24562-0.37518 0.80984-0.87305 0.53274-0.31146
  -7   1   3 2111.49  445.08   1-0.07488-0.54609 0.83731-0.77408 0.54157-0.32026
   7   1  -3 2717.80  384.23   1 0.61772 0.00318-0.51243 0.57562 0.59650-0.81770
   7  -1  -3 3016.38  410.73   1 0.48241 0.13849-0.67667 0.61349 0.55622-0.77745
   7   1  -259219.49 3317.25   1 0.53945 0.08729-0.55009 0.61332 0.63748-0.78499
   7  -1  -250882.29 2892.04   1 0.44180 0.18493-0.56200 0.49877 0.69925-0.84676
  -7  -1   248420.36 2771.10   1-0.29023-0.33644 0.79839-0.86161 0.52756-0.38004
  -7   1   265621.78 3687.56   1-0.12278-0.50406 0.83224-0.76901 0.54064-0.39311
   7   1  -262885.36 3433.83   1 0.53164 0.09510-0.62362 0.68680 0.57310-0.72059
   7   1  -127208.09 1659.56   1 0.46004 0.17248-0.56039 0.62362 0.68870-0.76245
   7  -1  -123389.83 1453.06   1 0.35402 0.27865-0.56594 0.50272 0.74455-0.81830
  -7  -1   124702.28 1604.67   1-0.34131-0.29121 0.78292-0.84614 0.52012-0.44636
  -7   1   119144.34 1703.54   1-0.17864-0.45388 0.82358-0.76037 0.53831-0.46455
   7   1  -127557.69 1655.79   1 0.45753 0.17506-0.70111 0.76429 0.54690-0.62065
   7   1   0  416.15  369.44   1 0.37837 0.26014-0.56536 0.62858 0.73293-0.73293
   7  -1   0 2167.15  629.22   1 0.26646 0.37204-0.56473 0.50150 0.78107-0.78107
  -7  -1   0  950.81  377.02   1-0.39765-0.24035 0.76233-0.82554 0.51060-0.51060
  -7   1   0  887.97  359.51   1-0.24205-0.39634 0.81067-0.74746 0.53311-0.53311
   7   1   0  972.68  400.48   1 0.39702 0.24141-0.75466 0.81783 0.52235-0.52235
   7   1   1 7579.15  789.73   1 0.29696 0.34738-0.56572 0.62895 0.76926-0.69551
   7  -1   1 8110.40  856.44   1 0.18206 0.46228-0.55896 0.49573 0.80895-0.73521
  -7  -1  -1 9852.28  979.61   1-0.45849-0.18541 0.73668-0.79989 0.49706-0.57078
  -7   1  -1 7683.56  795.56   1-0.31179-0.33247 0.79218-0.72896 0.52462-0.59838
   7   1   210390.42  835.87   1 0.21858 0.43160-0.56199 0.62521 0.79773-0.65024
   7  -1   2 8962.26  891.78   1 0.10314 0.54665-0.54971 0.48650 0.82896-0.68153
  -7  -1  -2 7317.06  755.07   1-0.52215-0.12766 0.70506-0.76827 0.47982-0.62726
  -7   1  -2 9537.83  808.75   1-0.38649-0.26332 0.76659-0.70339 0.51279-0.66022
   7   1   3 3657.56  632.97   1 0.14539 0.51018-0.55510 0.61830 0.81897-0.59782
   7  -1   3 2093.81  539.74   1 0.03217 0.62341-0.53837 0.47516 0.84209-0.62094
  -7  -1  -3 4077.70  743.59   1-0.58715-0.06856 0.66706-0.73027 0.45855-0.67970
  -7   1  -3 3019.02  528.07   1-0.46459-0.19112 0.73387-0.67067 0.49555-0.71670
  -7   1  -3 2602.84  584.54   1-0.14719-0.50899 0.90572-0.84254-0.39748 0.17620
   7   1   417092.34 1078.52   1 0.07994 0.58144-0.54631 0.60952 0.83375-0.53889
   7  -1   417901.57 1134.84   1-0.02973 0.69112-0.52616 0.46295 0.84986-0.55500
  -7  -1  -420037.53 1197.16   1-0.65199-0.00949 0.62235-0.68554 0.43309-0.72796
  -7   1  -416171.87 1136.78   1-0.54417-0.11744 0.69287-0.62967 0.47306-0.76792
  -7   1  -417380.89 1220.77   1-0.13811-0.52392 0.90937-0.84618-0.39238 0.09735
   7   1   516709.64 1461.93   1 0.02330 0.64387-0.53675 0.59996 0.84341-0.47483
   7  -1   523737.56 2046.25   1-0.08197 0.74915-0.51418 0.45097 0.85375-0.48517
  -7  -1  -525567.96 2156.88   1-0.71517 0.04777 0.57098-0.63417 0.40312-0.77171
  -7   1  -520995.55 1811.04   1-0.62334-0.04404 0.64299-0.57980 0.44497-0.81356
  -7   1  -518921.76 1652.14   1-0.13649-0.53139 0.91000-0.84682-0.39147 0.02268
   7   1   6 7310.06 1664.49   1-0.02383 0.69679-0.52742 0.59062 0.84927-0.40697
   7  -1   6 8535.96  937.55   1-0.12400 0.79744-0.50349 0.44028 0.85505-0.41259
  -7  -1  -6 9466.54  978.01   1-0.77524 0.10194 0.51290-0.57609 0.36868-0.81100
  -7   1  -6 9275.08  963.46   1-0.69998 0.02668 0.58414-0.52096 0.41084-0.85316
  -7   1  -6 9091.84 1006.74   1-0.14114-0.53259 0.90816-0.84498-0.39409-0.04846
   7   1   7 3958.16  817.75   1-0.06128 0.74004-0.51911 0.58232 0.85250-0.33649
   7  -1   7 3553.13  785.02   1-0.15698 0.83627-0.49433 0.43112 0.85497-0.33877
  -7  -1  -7 3005.58  811.72   1-0.83047 0.15186 0.44936-0.51252 0.32921-0.84513
  -7   1  -7 4648.33  847.52   1-0.77214 0.09295 0.51616-0.45297 0.37063-0.88666
  -7   1  -7 3940.68  880.04   1-0.15113-0.52844 0.90410-0.84091-0.39968-0.11662
   7   1   8 7119.35 1010.84   1-0.08926 0.77381-0.51238 0.57559 0.85410-0.26437
   7  -1   8 3746.58 1039.60   1-0.18106 0.86620-0.48725 0.42404 0.85428-0.26433
  -7  -1  -8 2425.62 1041.08   1-0.88046 0.19598 0.37806-0.44121 0.28611-0.87573
  -7   1  -8 3125.91  992.90   1-0.83740 0.15292 0.44035-0.37719 0.32379-0.91342
   7   2  -9 1957.44  726.18   1 0.92527-0.34004-0.34949 0.47589 0.14739-0.81110
   7  -2  -9 2565.83  760.17   1 0.88061-0.29540-0.40184 0.27547 0.25107-0.91479
  -7   2   9 2862.76  866.56   1 0.10364-0.68941 0.83908-0.71263 0.53403 0.12986
   7  -2  -8 2409.29  616.37   1 0.83701-0.24592-0.43811 0.31174 0.32781-0.91778
  -7  -2   8 2819.08  683.12   1-0.24518-0.34629 0.80994-0.93637 0.53279 0.05728
  -7   2   8 1685.15  612.16   1 0.10791-0.69955 0.83879-0.71234 0.53364 0.05649
   7   2  -7 4485.56 1082.70   1 0.86525-0.26828-0.41583 0.54220 0.28003-0.79626
   7  -2  -7 9168.31  941.99   1 0.78436-0.18719-0.47118 0.34477 0.40342-0.91983
  -7  -2   7 8988.17  870.82   1-0.24612-0.35121 0.80972-0.93615 0.53269-0.01637
  -7   2   7 6539.97 1576.21   1 0.10382-0.70132 0.83907-0.71262 0.53402-0.01765
   7   2  -6 4692.55  705.35   1 0.82496-0.22212-0.44653 0.57290 0.34647-0.78895
   7  -2  -6 5306.23  787.75   1 0.72247-0.11942-0.50044 0.37403 0.47706-0.91969
  -7  -2   6 7193.27  951.86   1-0.25636-0.34684 0.80725-0.93368 0.53161-0.08904
  -7   2   6 5415.87  838.63   1 0.09127-0.69464 0.83983-0.71338 0.53511-0.09251
   7   2  -5 6699.26  737.81   1 0.77757-0.16865-0.47483 0.60124 0.41219-0.78106
   7  -2  -5 5083.29  585.06   1 0.65178-0.04286-0.52508 0.39867 0.54722-0.91609
  -7  -2   5 5094.31  556.64   1-0.27529-0.33377 0.80243-0.92886 0.52943-0.16063
  -7   2   510031.65  980.86   1 0.07008-0.67932 0.84081-0.71435 0.53677-0.16793
   7   2  -5 6862.13  458.04   1 0.80411-0.19467-0.09285 0.21922 0.58717-0.95605
   7   2  -421753.40 1397.46   1 0.72285-0.10805-0.50028 0.62670 0.47664-0.77172
   7  -2  -419798.96 1246.36   1 0.57337 0.04179-0.54388 0.41743 0.61272-0.90774
  -7  -2   420152.00 1329.67   1-0.30233-0.31260 0.79496-0.92138 0.52595-0.23091
  -7   2   424189.46 1560.56   1 0.04008-0.65519 0.84154-0.71509 0.53869-0.24363
   7   2  -420520.35 1164.24   1 0.74136-0.12582-0.28577 0.41219 0.60721-0.90236
   7  -2  -419489.31 1054.69   1 0.54204 0.07301-0.61153 0.48517 0.57638-0.87136
   7   2  -337740.58 2399.77   1 0.66111-0.04043-0.52227 0.64868 0.53866-0.75997
  -7  -2   337776.73 2424.17   1-0.33680-0.28400 0.78440-0.91082 0.52084-0.29956
  -7   2   343963.88 2849.46   1 0.00114-0.62211 0.84136-0.71490 0.54047-0.31917
   7   2  -336312.29 2245.92   1 0.66682-0.04591-0.43474 0.56112 0.60525-0.82645
   7  -2  -341189.12 2514.66   1 0.39444 0.22646-0.75677 0.63041 0.52125-0.74248
   7   2  -222321.22 1545.30   1 0.59301 0.03373-0.53973 0.66618 0.59751-0.74502
   7  -2  -222762.33 1532.19   1 0.39951 0.22722-0.56471 0.43827 0.72213-0.86964
  -7  -2   223193.07 1579.12   1-0.37790-0.24876 0.77023-0.89665 0.51374-0.36622
  -7   2   222865.02 1570.22   1-0.04676-0.58008 0.83938-0.71292 0.54152-0.39399
   7   2  -224894.37 1506.24   1 0.59282 0.03390-0.54745 0.67383 0.59063-0.73810
   7   2  -121272.64 1840.57   1 0.51971 0.11282-0.55318 0.67963 0.65106-0.72481
   7  -2  -123410.70 1544.53   1 0.30923 0.32344-0.56595 0.43950 0.76424-0.83798
  -7  -2   126316.36 1607.77   1-0.42439-0.20770 0.75158-0.87798 0.50498-0.43126
  -7   2   119186.83 1747.13   1-0.10341-0.52929 0.83452-0.70807 0.54117-0.46740
   7   2  -120086.10 1731.93   1 0.52571 0.10688-0.63036 0.75672 0.57118-0.64493
   7   2   022674.10 1569.96   1 0.44299 0.19532-0.56190 0.68835 0.69858-0.69858
   7  -2   033703.28 2087.25   1 0.22045 0.41806-0.56212 0.43567 0.79712-0.79712
  -7  -2   033892.49 2055.42   1-0.47587-0.16213 0.72856-0.85496 0.49268-0.49268
  -7   2   023121.76 1548.16   1-0.16826-0.47013 0.82535-0.69893 0.53895-0.53895
  -7   2   023377.31 1433.77   1-0.15308-0.48555 0.90329-0.77692-0.40077 0.40077
   7   2   025649.29 1597.36   1 0.46841 0.17003-0.69061 0.81697 0.55103-0.55103
   7   2   1 9952.43 1057.89   1 0.36521 0.27913-0.56573 0.69218 0.73930-0.66555
   7  -2   111146.17 1234.22   1 0.13586 0.50813-0.55397 0.42755 0.82137-0.74765
  -7  -2  -110066.57 1073.04   1-0.53071-0.11319 0.70040-0.82681 0.47724-0.55096
  -7   2  -1 8636.90  950.38   1-0.24066-0.40360 0.81100-0.68457 0.53325-0.60701
  -7   2  -1 7872.63  797.65   1-0.11542-0.52906 0.91796-0.79159-0.37948 0.30572
   7   2   1 7899.20  824.16   1 0.42169 0.22259-0.73377 0.86013 0.53267-0.45892
   7   2   225065.76 1707.45   1 0.28887 0.36131-0.56552 0.69197 0.77248-0.62499
   7  -2   224766.58 1745.03   1 0.05821 0.59157-0.54286 0.41644 0.83780-0.69036
  -7  -2  -221297.69 1505.53   1-0.58763-0.06218 0.66676-0.79316 0.45838-0.60581
  -7   2  -222201.24 1497.02   1-0.31928-0.33084 0.78991-0.66349 0.52353-0.67105
  -7   2  -227741.90 2748.82   1-0.09127-0.55906 0.92632-0.79995-0.36549 0.21797
   7   2   317171.68 1153.86   1 0.21655 0.43946-0.56184 0.68829 0.79839-0.57715
   7  -2   313797.25 1722.71   1-0.01094 0.66653-0.53009 0.40367 0.84786-0.62671
  -7  -2  -315127.30 1043.15   1-0.64527-0.01032 0.62733-0.75371 0.43596-0.65712
  -7   2  -317537.34 1174.07   1-0.40261-0.25310 0.76040-0.63399 0.50959-0.73074
  -7   2  -318003.04 1754.87   1-0.07777-0.57841 0.93064-0.80427-0.35755 0.13627
   7   2   4 2768.68  458.84   1 0.15050 0.51135-0.55571 0.68216 0.81763-0.52265
   7  -2   4 2242.56  493.24   1-0.07064 0.73202-0.51691 0.39049 0.85311-0.55825
  -7  -2  -4 2209.99  422.18   1-0.70236 0.04087 0.58211-0.70849 0.40965-0.70453
  -7   2  -4 2803.51  470.54   1-0.48865-0.17296 0.72234-0.59594 0.48931-0.78417
  -7   2  -4 3416.53  777.63   1-0.07284-0.58919 0.93216-0.80579-0.35463 0.05960
   7   2   5 1073.38  407.70   1 0.09196 0.57520-0.54811 0.67453 0.83133-0.46275
   7  -2   5 1748.01  508.44   1-0.12017 0.78776-0.50451 0.37809 0.85499-0.48628
  -7  -2  -5 1034.20  343.98   1-0.75760 0.09020 0.53105-0.65742 0.37950-0.74809
  -7   2  -5 1239.97  443.42   1-0.07495-0.59293 0.93151-0.80514-0.35588-0.01290
   7   2   623776.18 1842.65   1 0.04285 0.63011-0.54025 0.66667 0.84040-0.39811
   7  -2   625516.86 2081.71   1-0.16036 0.83380-0.49336 0.36694 0.85491-0.41245
  -7  -2  -622031.33 2905.35   1-0.80944 0.13670 0.47532-0.60163 0.34476-0.78698
  -7   2  -623755.33 1845.27   1-0.66028-0.01300 0.61609-0.48972 0.42946-0.87178
  -7   2  -619067.56 2400.36   1-0.08294-0.59079 0.92902-0.80265-0.36060-0.08194
   7   2   710384.84 1367.04   1 0.00329 0.67546-0.53294 0.65936 0.84614-0.33013
   7  -2   7 9588.86 1354.51   1-0.19138 0.87067-0.48411 0.35769 0.85381-0.33761
  -7  -2  -7 7523.64 1884.75   1-0.85750 0.17889 0.41273-0.53904 0.30713-0.82305
  -7   2  -712117.52 1535.89   1-0.74116 0.06197 0.54711-0.42073 0.38903-0.90506
  -7   2  -7 8795.83 1973.69   1-0.09595-0.58363 0.92477-0.79840-0.36822-0.14808
   7   2   8 4007.17 1132.46   1-0.02661 0.71116-0.52683 0.65324 0.84955-0.25982
   7  -2   8 6189.90  971.36   1-0.21382 0.89896-0.47706 0.35064 0.85245-0.26251
  -7  -2  -8 2803.39 1017.44   1-0.90035 0.21587 0.34461-0.47093 0.26572-0.85534
   7  -3  -923552.58 2707.88   1 0.87144-0.28623-0.41037 0.22082 0.26865-0.93236
  -7   3   922900.05 2690.44   1 0.16716-0.75304 0.83333-0.64356 0.52688 0.13691
   7   3  -814505.59 2764.30   1 0.91403-0.32290-0.36502 0.55463 0.17691-0.76688
   7  -3  -816603.31 2025.30   1 0.82410-0.23301-0.44711 0.25755 0.34777-0.93774
  -7  -3   815557.79 1893.72   1-0.35331-0.23816 0.77891-0.96855 0.51812 0.07195
  -7   3   820181.77 2510.12   1 0.17144-0.76317 0.83280-0.64304 0.52634 0.06370
   7   3  -7 7272.99  925.14   1 0.88583-0.28887-0.39671 0.58627 0.24063-0.75685
   7  -3  -7 6597.15  773.38   1 0.76721-0.17004-0.48017 0.29054 0.42522-0.94162
  -7  -3   7 6752.46  712.32   1-0.35127-0.24607 0.77961-0.96924 0.51847-0.00215
  -7   3   7 7935.04  988.52   1 0.16778-0.76537 0.83325-0.64349 0.52680-0.01052
   7   3  -6 6945.85 1347.59   1 0.85134-0.24851-0.42729 0.61685 0.30434-0.74681
   7  -3  -6 9633.39  935.84   1 0.70075-0.09770-0.50887 0.31925 0.49998-0.94261
  -7  -3   611157.92 1008.16   1-0.35859-0.24461 0.77710-0.96674 0.51722-0.07465
  -7   3   6 8825.71  994.26   1 0.15602-0.75947 0.83462-0.64486 0.52825-0.08572
   7   3  -517405.45 1098.97   1 0.81039-0.20168-0.45598 0.64553 0.36788-0.73661
   7  -3  -517025.62 1000.67   1 0.62544-0.01652-0.53240 0.34277 0.57040-0.93927
  -7  -3   516493.26 1053.73   1-0.37445-0.23461 0.77148-0.96112 0.51438-0.14558
  -7   3   516542.79 1091.62   1 0.13588-0.74519 0.83668-0.64692 0.53055-0.16177
   7   3  -514209.45  818.55   1 0.81298-0.20354-0.05179 0.24135 0.57997-0.94885
   7   3  -4 2893.27  569.77   1 0.76287-0.14807-0.48232 0.67195 0.43055-0.72564
   7  -3  -4 2772.04  554.06   1 0.54274 0.07242-0.54954 0.35987 0.63516-0.93018
  -7  -3   4 3727.23  700.83   1-0.39742-0.21695 0.76242-0.95203 0.51064-0.21577
  -7   3   4 2547.51  582.55   1 0.10712-0.72223 0.83885-0.64917 0.53371-0.23865
   7   3  -4 2536.58  387.66   1 0.76567-0.15013-0.22249 0.41211 0.60352-0.89867
   7   3  -3 9711.50  786.53   1 0.70867-0.08799-0.50590 0.69552 0.49177-0.71309
   7  -3  -3 9169.05  782.55   1 0.45416 0.16679-0.56094 0.37127 0.69215-0.91342
  -7  -3   3 9409.55  911.94   1-0.42806-0.19222 0.75004-0.93965 0.50417-0.28302
  -7   3   3 7176.73  674.39   1 0.06925-0.69023 0.84084-0.65116 0.53683-0.31553
   7   3  -3 9568.82  837.23   1 0.70630-0.08489-0.36274 0.55237 0.60789-0.82926
   7   3  -2 8151.07  696.75   1 0.64820-0.02165-0.52613 0.71575 0.55046-0.69801
   7  -3  -2 8770.19  743.64   1 0.36251 0.26432-0.56579 0.37611 0.74058-0.88807
  -7  -3   2 7282.35  672.05   1-0.46469-0.16150 0.73383-0.92344 0.49553-0.34809
  -7   3   211518.15  974.06   1 0.02218-0.64903 0.84161-0.65194 0.53961-0.39208
   7   3  -210764.45  853.48   1 0.64390-0.01717-0.47260 0.66217 0.60168-0.74915
   7   3  -1  630.93  367.09   1 0.58221 0.05032-0.54207 0.73174 0.60596-0.67971
   7  -3  -1 2548.66  473.70   1 0.27057 0.36210-0.56490 0.37522 0.77953-0.85328
  -7  -3   1 2604.20  528.51   1-0.50629-0.12580 0.71343-0.90304 0.48443-0.41071
  -7   3   1 1184.02  339.10   1-0.11895-0.51383 0.91667-0.72712-0.38151 0.45527
   7   3  -1 1606.93  351.71   1 0.58485 0.04769-0.55813 0.74770 0.58858-0.66231
   7   3   011936.27  905.25   1 0.51204 0.12627-0.55429 0.74396 0.65617-0.65617
   7  -3   0 8647.33  786.98   1 0.18140 0.45711-0.55890 0.36922 0.80914-0.80914
  -7  -3   0 9322.47  887.44   1-0.55179-0.08621 0.68850-0.87811 0.47062-0.47062
  -7   3   010050.80  831.16   1-0.09945-0.53912 0.83495-0.64528 0.54125-0.54125
  -7   3   010833.71  966.32   1-0.07057-0.56807 0.93284-0.74329-0.35328 0.35328
   7   3   0 8411.86  858.42   1 0.53228 0.10616-0.62289 0.81243 0.57330-0.57330
   7   3   128695.67 1897.45   1 0.43953 0.20457-0.56218 0.75185 0.70054-0.62678
   7  -3   126337.94 1776.33   1 0.09748 0.54651-0.54891 0.35928 0.83017-0.75646
  -7  -3  -126193.93 1809.41   1-0.60003-0.04387 0.65877-0.84838 0.45384-0.52756
  -7   3  -128893.48 1908.58   1-0.17323-0.47102 0.82452-0.63488 0.53865-0.61241
  -7   3  -129154.69 1911.17   1-0.03912-0.60536 0.94162-0.75206-0.33438 0.26062
   7   3   131251.58 2044.85   1 0.48780 0.15648-0.67118 0.86072 0.55817-0.48442
   7   3   237394.42 2092.54   1 0.36700 0.28317-0.56568 0.75536 0.73844-0.59095
   7  -3   236159.87 2082.34   1 0.02133 0.62846-0.53638 0.34676 0.84370-0.69626
  -7  -3  -232017.50 1892.74   1-0.64979 0.00009 0.62399-0.81356 0.43404-0.58147
  -7   3  -234014.50 1908.30   1-0.25453-0.39560 0.80770-0.61806 0.53181-0.67933
  -7   3  -235849.98 2642.12   1-0.02047-0.62986 0.94618-0.75663-0.32296 0.17544
   7   3   238494.72 2195.78   1 0.45182 0.19831-0.70650 0.89604 0.54470-0.39721
   7   3   316914.62 1090.37   1 0.29687 0.35915-0.56572 0.75540 0.76929-0.54806
   7  -3   316636.42 1148.47   1-0.04582 0.70141-0.52263 0.33301 0.85132-0.63017
  -7  -3  -315234.52 1144.56   1-0.69999 0.04440 0.58413-0.77369 0.41084-0.63199
  -7   3  -316529.80 1105.47   1-0.34186-0.31412 0.78274-0.59310 0.52003-0.74131
  -7   3  -315263.97 1596.19   1-0.01178-0.64440 0.94815-0.75859-0.31759 0.09631
   7   3   317088.82 1276.67   1 0.42410 0.23187-0.73166 0.92120 0.53366-0.31242
   7   3   4 5830.20  812.80   1 0.23152 0.43033-0.56287 0.75255 0.79345-0.49847
   7  -3   4 2658.96  508.84   1-0.10330 0.76469-0.50884 0.31922 0.85463-0.55977
  -7  -3  -4 4266.93  719.67   1-0.74943 0.08794 0.53912-0.72869 0.38429-0.67917
  -7   3  -4 6266.39  841.50   1-0.43355-0.22807 0.74771-0.55810 0.50294-0.79781
  -7   3  -4 5276.40 1188.92   1-0.01104-0.65099 0.94831-0.75876-0.31713 0.02209
   7   3   4 5561.18  930.63   1 0.40409 0.25773-0.74881 0.93835 0.52535-0.23036
   7   3   5 8806.87  835.92   1 0.17297 0.49471-0.55808 0.74776 0.81155-0.44282
   7  -3   511892.67 1177.83   1-0.15064 0.81823-0.49614 0.30651 0.85506-0.48635
  -7  -3  -5 9933.94 1254.65   1-0.79678 0.12991 0.49004-0.67951 0.35355-0.72206
  -7   3  -5 9177.98  887.70   1-0.52706-0.14046 0.70240-0.51279 0.47835-0.84694
  -7   3  -5 7686.99 2040.01   1-0.01679-0.65108 0.94703-0.75747-0.32069-0.04809
   7   3   510199.26 1107.07   1 0.39109 0.27658-0.75950 0.94903 0.51981-0.15108
   7   3   6  418.48  278.96   1 0.12216 0.55080-0.55226 0.74189 0.82467-0.38237
   7  -3   6  551.83  509.56   1-0.18882 0.86226-0.48490 0.29526 0.85394-0.41148
  -7  -3  -6 1510.79  403.44   1-0.84153 0.16880 0.43485-0.62432 0.32048-0.76270
  -7   3  -6 1083.91  414.37   1-0.62011-0.05317 0.64522-0.45565 0.44625-0.88856
  -7   3  -6  642.77  260.81   1-0.02799-0.64574 0.94440-0.75484-0.32758-0.11496
   7   3   7 5740.06  673.79   1 0.08099 0.59776-0.54647 0.73610 0.83354-0.31753
   7  -3   7 8906.33 1161.61   1-0.21810 0.89739-0.47568 0.28605 0.85214-0.33594
  -7  -3  -7 5345.48 1660.15   1-0.88251 0.20390 0.37477-0.56424 0.28410-0.80003
  -7   3  -7 6664.83  739.54   1-0.70979 0.03060 0.57570-0.38614 0.40589-0.92193
  -7   3  -7 5624.06 1317.96   1-0.04383-0.63574 0.94039-0.75083-0.33724-0.17906
   7   4  -9 1572.92  551.99   1 0.94693-0.36170-0.31177 0.56457 0.07818-0.74190
   7  -4  -9 3412.63  655.52   1 0.86387-0.27866-0.41701 0.16427 0.28251-0.94623
  -7   4   9 1133.88  449.54   1 0.22119-0.80707 0.82550-0.57248 0.51924 0.14455
   7   4  -8 4675.30 1306.95   1 0.92870-0.33757-0.34431 0.59711 0.13769-0.72766
   7  -4  -8 3968.23  843.61   1 0.81308-0.22200-0.45429 0.20155 0.36401-0.95398
  -7   4   8 3047.89  768.90   1 0.22558-0.81731 0.82475-0.57173 0.51854 0.07149
   7   4  -715912.50 1396.70   1 0.90544-0.30848-0.37537 0.62811 0.19813-0.71435
   7  -4  -712173.19 1102.16   1 0.75232-0.15515-0.48739 0.23456 0.44323-0.95963
  -7  -4   715335.08 1320.23   1-0.45726-0.13940 0.73724-0.99006 0.49736 0.01865
  -7   4   714338.47 1265.33   1 0.22246-0.82006 0.82528-0.57226 0.51904-0.00275
   7   4  -6 5711.02 1334.52   1 0.87669-0.27386-0.40556 0.65830 0.25869-0.70117
   7  -4  -6 3214.32  835.87   1 0.68174-0.07870-0.51560 0.26277 0.51900-0.96164
  -7  -4   6 4656.39 1118.86   1-0.46084-0.14172 0.73560-0.98842 0.49648-0.05418
  -7   4   6 5969.67 1377.38   1 0.21161-0.81506 0.82708-0.57406 0.52072-0.07818
   7   4  -5 6133.53  860.78   1 0.84227-0.23355-0.43425 0.68699 0.31937-0.68810
   7  -4  -5 6568.80  894.60   1 0.60261 0.00676-0.53755 0.28465 0.58982-0.95860
  -7  -4   5 5924.20  802.81   1-0.47278-0.13569 0.73003-0.98284 0.49348-0.12489
  -7   4   5 9029.65 1348.70   1 0.19268-0.80200 0.82996-0.57694 0.52348-0.15470
   7   4  -5 6339.51  808.47   1 0.82011-0.21067-0.01228 0.26502 0.57206-0.94094
   7   4  -416222.73 1074.74   1 0.80196-0.18737-0.46112 0.71386 0.37976-0.67474
   7  -4  -417519.75 1098.99   1 0.51608 0.09908-0.55371 0.30081 0.65349-0.94851
  -7  -4   419272.01 1190.79   1-0.49211-0.12227 0.72063-0.97344 0.48837-0.19351
  -7   4   417236.41 1281.32   1 0.16527-0.78044 0.83356-0.58054 0.52712-0.23210
   7   4  -415708.53  897.90   1 0.78461-0.16908-0.16437 0.41721 0.59779-0.89294
   7   4  -3 4000.56  711.63   1 0.75575-0.13508-0.48577 0.73860 0.43914-0.66046
   7  -4  -3 5117.05  761.06   1 0.42457 0.19637-0.56327 0.31037 0.70884-0.93010
  -7  -4   3 5036.52  776.26   1-0.51786-0.10242 0.70736-0.96017 0.48109-0.25994
  -7   4   3 6089.71 1023.09   1 0.12895-0.74998 0.83731-0.58429 0.53129-0.31002
   7   4  -3 4560.67  695.60   1 0.73775-0.11634-0.29437 0.54721 0.60750-0.82886
   7   4  -2 9113.05 1157.61   1 0.70362-0.07706-0.50781 0.76064 0.49703-0.64457
   7  -4  -210125.03 1292.41   1 0.33101 0.29583-0.56612 0.31321 0.75494-0.90243
  -7  -4   210436.14 1382.71   1-0.54908-0.07711 0.69007-0.94288 0.47149-0.32406
  -7   4   210131.38 1320.11   1 0.08329-0.71014 0.84024-0.58734 0.53576-0.38823
  -7   4   2 7709.68 1152.18   1-0.09547-0.53146 0.92493-0.67218-0.36794 0.51546
   7   4  -2 7862.65 1042.93   1 0.68608-0.05935-0.40040 0.65316 0.60742-0.75488
   7   4  -111189.46  936.32   1 0.64607-0.01364-0.52675 0.77958 0.55237-0.62615
   7  -4  -113558.05 1071.89   1 0.23823 0.39444-0.56328 0.31038 0.79116-0.86491
  -7  -4   114086.36 1120.68   1-0.58473-0.04736 0.66859-0.92140 0.45942-0.38570
  -7   4   113042.42 1048.26   1 0.02808-0.66079 0.84162-0.58872 0.53933-0.46556
  -7   4   111619.07 1198.70   1-0.03299-0.59979 0.94317-0.69043-0.33065 0.40441
   7   4  -114235.02 1143.64   1 0.63527-0.00271-0.48611 0.73887 0.60010-0.67383
   7   4   025896.64 1723.97   1 0.58388 0.05443-0.54171 0.79461 0.60466-0.60466
  -7  -4   019166.06 1367.53   1-0.62369-0.01420 0.64274-0.89550 0.44483-0.44483
  -7   4   023020.02 1599.12   1-0.03671-0.60186 0.83995-0.58705 0.54141-0.54141
  -7   4   024221.50 2714.10   1 0.00747-0.64611 0.95214-0.69940-0.30556 0.30556
   7   4   026722.84 1773.23   1 0.58836 0.05000-0.55346 0.80622 0.58949-0.58949
   7   4   115603.50 1028.68   1 0.51855 0.12555-0.55336 0.80625 0.65184-0.57808
   7  -4   116129.70 1201.85   1 0.06646 0.57753-0.54420 0.29137 0.83631-0.76259
  -7  -4  -114187.80  947.94   1-0.66509 0.02129 0.61240-0.86515 0.42732-0.50104
  -7   4  -114969.15  972.87   1-0.11083-0.53362 0.83369-0.58078 0.54099-0.61476
  -7   4  -114848.30 1624.73   1 0.03225-0.67674 0.95652-0.70378-0.28984 0.21608
   7   4   114446.76 1013.10   1 0.54723 0.09706-0.60537 0.85809 0.57797-0.50422
   7   4   2 -110.28  319.39   1 0.45185 0.19804-0.56115 0.81405 0.69349-0.54598
   7  -4   2 2010.39  597.57   1-0.00797 0.65777-0.53069 0.27786 0.84752-0.70009
  -7  -4  -2 2433.31  534.54   1-0.70775 0.05805 0.57748-0.83023 0.40694-0.55437
  -7   4  -2 1250.65  394.69   1-0.19363-0.45649 0.82086-0.56801 0.53729-0.68481
  -7   4  -2 1460.80  489.55   1 0.04563-0.69578 0.95819-0.70546-0.28245 0.13493
   7   4   2 1946.81  745.93   1 0.51288 0.13725-0.64463 0.89734 0.56692-0.41943
   7   4   3 1867.36  441.65   1 0.38602 0.27000-0.56509 0.81799 0.72915-0.50791
   7  -4   3  636.07  400.95   1-0.07310 0.72869-0.51632 0.26349 0.85326-0.63211
  -7  -4  -3 1212.34  395.16   1-0.75062 0.09502 0.53796-0.79071 0.38360-0.60476
  -7   4  -3  823.44  274.51   1-0.28387-0.37212 0.80014-0.54729 0.52838-0.74966
  -7   4  -3  798.35  292.18   1 0.04975-0.70575 0.95876-0.70603-0.27979 0.05852
   7   4   3 1150.28  501.29   1 0.48549 0.17048-0.67354 0.92626 0.55733-0.33610
   7   4   4 8128.36 1538.44   1 0.32335 0.33850-0.56610 0.81900 0.75827-0.46329
   7  -4   411789.97 1110.09   1-0.12818 0.78993-0.50236 0.24951 0.85510-0.56012
  -7  -4  -4 8853.24 1093.76   1-0.79273 0.13123 0.49387-0.74662 0.35729-0.65217
  -7   4  -4 8098.89 1538.86   1-0.37986-0.28199 0.76950-0.51665 0.51337-0.80842
  -7   4  -4 8734.59 2253.66   1 0.04663-0.70848 0.95833-0.70560-0.28181-0.01321
   7   4   5 3881.11  918.19   1 0.26603 0.40166-0.56471 0.81762 0.78123-0.41250
   7  -4   5 3952.55 1023.70   1-0.17383 0.84142-0.48941 0.23657 0.85454-0.48583
  -7  -4  -5 4664.75 1313.97   1-0.83297 0.16610 0.44614-0.69877 0.32727-0.69579
  -7   4  -5 6005.46 1361.19   1-0.47965-0.18787 0.72674-0.47393 0.49170-0.86028
  -7   4  -5 3441.16 1095.08   1 0.03702-0.70491 0.95727-0.70453-0.28678-0.08200
   7   4   5 5104.84 1220.88   1 0.45071 0.21696-0.70754 0.96026 0.54427-0.17554
   7   4   6 7666.14  918.30   1 0.21590 0.45762-0.56179 0.81470 0.79860-0.35613
   7  -4   612271.28 1463.29   1-0.21024 0.88368-0.47821 0.22536 0.85270-0.41024
  -7  -4  -610183.14 2203.66   1-0.87082 0.19808 0.39307-0.64570 0.29522-0.73744
  -7   4  -6 8962.62 1034.18   1-0.58015-0.09328 0.67146-0.41865 0.46104-0.90334
  -7   4  -6 7494.76 1380.63   1 0.02292-0.69665 0.95497-0.70223-0.29579-0.14675
   7   4   6 8242.04 1185.61   1 0.44244 0.23107-0.71521 0.96793 0.54103-0.09855
   7  -4   7 2598.71  689.44   1-0.23804 0.91733-0.46911 0.21626 0.85044-0.33424
  -7  -4  -7 2768.19  708.38   1-0.90529 0.22668 0.33570-0.58833 0.26027-0.77619
  -7   4  -7 3495.28  975.04   1 0.00452-0.68411 0.95156-0.69882-0.30741-0.20889
   7   4   7 3352.96  850.17   1 0.43959 0.23977-0.71782 0.97053 0.53990-0.02367
   7   5  -8 1960.97  526.82   1 0.94201-0.35088-0.32157 0.63758 0.09586-0.68583
   7  -5  -8  583.42  328.82   1 0.80438-0.21330-0.45967 0.14374 0.37638-0.96635
  -7   5   8 2507.67  664.50   1 0.27082-0.86256 0.81597-0.49969 0.51072 0.07931
   7   5  -7  803.86  340.73   1 0.92346-0.32642-0.35213 0.66814 0.15237-0.66860
  -7  -5   7  866.18  295.22   1-0.56251-0.03415 0.68220-0.99821 0.46708 0.04892
  -7   5   7  764.72  669.53   1 0.26827-0.86586 0.81651-0.50024 0.51119 0.00508
   7   5  -6 7068.49  793.85   1 0.90035-0.29751-0.38127 0.69720 0.20974-0.65222
   7  -5  -6 6096.19 1088.41   1 0.66593-0.06288-0.52077 0.20473 0.53416-0.97679
  -7  -5   6 6893.43  734.82   1-0.56147-0.04110 0.68282-0.99883 0.46743-0.02513
  -7   5   6 9476.05 1010.29   1 0.25836-0.86181 0.81858-0.50230 0.51300-0.07047
   7   5  -6 8571.76  736.11   1 0.83515-0.23144 0.17790 0.13799 0.52045-0.96301
   7   5  -522033.46 1734.04   1 0.87232-0.26361-0.40958 0.72550 0.26699-0.63572
   7  -5  -519491.56 1499.30   1 0.58336 0.02601-0.54182 0.22570 0.60506-0.97384
  -7  -5   522071.20 1734.05   1-0.56864-0.03983 0.67852-0.99454 0.46502-0.09643
  -7   5   521187.44 1697.41   1 0.24069-0.85000 0.82203-0.50575 0.51607-0.14729
   7   5  -520318.65 1517.15   1 0.82572-0.21628 0.02615 0.28977 0.56345-0.93233
   7   5  -414451.39 1346.37   1 0.83926-0.22467-0.43647 0.75239 0.32422-0.61920
   7  -5  -414565.53 1361.47   1 0.49383 0.12133-0.55669 0.24057 0.66799-0.96301
  -7  -5   413886.06 1239.63   1-0.58290-0.03147 0.66974-0.98575 0.46006-0.16520
  -7   5   411523.28 2195.22   1 0.21481-0.82998 0.82656-0.51029 0.52023-0.22521
   7   5  -412558.34 1111.14   1 0.79964-0.18428-0.11127 0.42720 0.59007-0.88517
   7   5  -310191.50  772.08   1 0.80104-0.18057-0.46167 0.77760 0.38103-0.60227
   7  -5  -3 8490.88  677.76   1 0.40010 0.22085-0.56469 0.24856 0.72183-0.94310
  -7  -5   3 9377.19  772.21   1-0.60323-0.01705 0.65666-0.97268 0.45265-0.23150
  -7   5   311297.38  865.54   1 0.18020-0.80123 0.83168-0.51540 0.52519-0.30392
  -7   5   3 7347.81 1094.94   1-0.08818-0.53291 0.92734-0.61141-0.36368 0.58495
   7   5  -3 6997.45  620.55   1 0.76286-0.14145-0.23035 0.54639 0.60413-0.82549
   7   5  -217359.84 1102.95   1 0.75775-0.13120-0.48482 0.80085 0.43676-0.58430
   7  -5  -219311.91 1217.11   1 0.30529 0.32154-0.56589 0.24976 0.76587-0.91336
  -7  -5   217418.19 1233.54   1-0.62847 0.00237 0.63940-0.95534 0.44291-0.29547
  -7   5   214882.61 1550.56   1-0.00585-0.62109 0.94943-0.63350-0.31390 0.46142
   7   5  -218034.07 1162.84   1 0.72101-0.09372-0.33210 0.64815 0.60814-0.75572
   7   5  -117074.67 1111.90   1 0.70942-0.07699-0.50561 0.82165 0.49099-0.56476
   7  -5  -116013.72 1166.16   1 0.21226 0.42041-0.56152 0.24539 0.79977-0.87351
  -7  -5   115071.71 1080.16   1-0.65793 0.02593 0.61788-0.93382 0.43050-0.35678
  -7   5   116121.90 1114.53   1 0.08266-0.71538 0.84027-0.52414 0.53581-0.46205
  -7   5   116874.42 1595.28   1 0.04618-0.67877 0.95827-0.64235-0.28209 0.35585
   7   5  -116969.43 1096.92   1 0.67775-0.04520-0.41557 0.73151 0.60658-0.68032
   7   5   0 9590.81 1223.43   1 0.65665-0.01834-0.52363 0.83967 0.54278-0.54278
   7  -5   010773.57 1355.43   1 0.12377 0.51443-0.55247 0.23642 0.82429-0.82429
  -7  -5   010240.01 1345.90   1-0.69045 0.05255 0.59212-0.90806 0.41551-0.41551
  -7   5   0 9263.91 1238.79   1 0.01909-0.65767 0.84160-0.52547 0.53975-0.53975
  -7   5   0 7699.20 1721.17   1 0.07870-0.71715 0.96215-0.64623-0.26090 0.26090
   7   5   010668.86 1438.04   1 0.63679 0.00157-0.48375 0.79970 0.60039-0.60039
   7   5   126315.03 1412.84   1 0.60018 0.04392-0.53811 0.85423 0.59178-0.51802
  -7  -5  -136716.26 2033.36   1-0.72505 0.08125 0.56211-0.87805 0.39789-0.47161
  -7   5  -125784.52 1453.71   1-0.05447-0.58997 0.83888-0.52275 0.54158-0.61535
  -7   5  -128363.75 2165.93   1 0.09717-0.74147 0.96370-0.64778-0.24865 0.17490
   7   5   130835.72 1741.30   1 0.59980 0.04438-0.53789 0.85384 0.59236-0.51863
   7   5   211488.76  814.55   1 0.54162 0.10826-0.54973 0.86585 0.63594-0.48843
   7  -5   216977.57 1096.29   1-0.03021 0.68001-0.52605 0.21001 0.84991-0.70247
  -7  -5  -212598.76  910.25   1-0.76077 0.11107 0.52785-0.84379 0.37760-0.52503
  -7   5  -2 9887.97  783.10   1-0.13775-0.51238 0.83001-0.51395 0.54046-0.68798
  -7   5  -210925.34 1980.37   1 0.10517-0.75532 0.96423-0.64831-0.24330 0.09578
   7   5   213000.69  990.91   1 0.56795 0.08206-0.57999 0.89594 0.58397-0.43651
   7   5   317061.82 1479.92   1 0.48262 0.17305-0.55803 0.87415 0.67503-0.45376
   7  -5   314937.18 1392.14   1-0.09341 0.74899-0.51135 0.19531 0.85427-0.63313
  -7  -5  -318618.37 2196.12   1-0.79663 0.14150 0.49020-0.80599 0.35364-0.57475
  -7   5  -316693.67 1488.36   1-0.22975-0.42623 0.81346-0.49740 0.53430-0.75558
  -7   5  -315860.93 2797.35   1 0.10505-0.76105 0.96422-0.64830-0.24338 0.02211
   7   5   319484.17 1842.07   1 0.54169 0.11428-0.61194 0.92784 0.57627-0.35503
   7   5   423750.74 1744.48   1 0.42525 0.23622-0.56322 0.87935 0.70847-0.41344
   7  -5   421042.60 1622.10   1-0.14658 0.80833-0.49729 0.18123 0.85510-0.56013
  -7  -5  -422985.98 2684.54   1-0.83186 0.17086 0.44758-0.76336 0.32814-0.62295
  -7   5  -425545.87 1866.71   1-0.32912-0.33274 0.78685-0.47079 0.52204-0.81709
  -7   5  -426322.06 1961.83   1 0.09842-0.76027 0.96379-0.64787-0.24781-0.04721
   7   5   428260.96 2173.85   1 0.52133 0.14049-0.63529 0.95119 0.56974-0.27476
   7  -5   520329.88 1691.26   1-0.19048 0.85807-0.48439 0.16833 0.85386-0.48514
  -7  -5  -518103.98 2410.38   1-0.86562 0.19875 0.40089-0.71667 0.29996-0.66848
  -7   5  -526507.49 2024.12   1-0.43409-0.23343 0.74748-0.43146 0.50282-0.87140
  -7   5  -519883.99 3742.01   1 0.08642-0.75412 0.96285-0.64694-0.25580-0.11298
   7   5   524908.61 2037.10   1 0.50665 0.16101-0.65137 0.96727 0.56480-0.19607
   7  -5   6 5658.25 1012.44   1-0.22538 0.89883-0.47331 0.15725 0.85157-0.40911
  -7  -5  -6 5729.58 1042.43   1-0.89715 0.22441 0.35023-0.66601 0.26915-0.71137
  -7   5  -6 5986.53  831.83   1-0.54151-0.13192 0.69438-0.37837 0.47390-0.91620
  -7   5  -6 5711.72 1524.14   1 0.06984-0.74340 0.96123-0.64532-0.26672-0.17581
   7   5   6 6245.02 1062.50   1 0.49738 0.17613-0.66123 0.97713 0.56158-0.11910
   7  -5   7  784.75  519.06   1-0.25195 0.93124-0.46438 0.14832 0.84903-0.33283
  -7  -5  -7 1631.36  645.37   1-0.92565 0.24709 0.29598-0.61168 0.23569-0.75152
  -7   5  -7  283.07  270.06   1 0.04930-0.72871 0.95870-0.64279-0.28008-0.23621
   7   5   7 1118.64  732.61   1 0.49317 0.18618-0.66563 0.98153 0.56009-0.04387
   7   6  -8 1183.46  409.04   1 0.95353-0.36240-0.29682 0.67602 0.05162-0.64159
   7  -6  -8 2051.46  502.13   1 0.79839-0.20730-0.46323 0.08412 0.38468-0.97465
  -7   6   8 2534.05  718.73   1 0.30798-0.89971 0.80731-0.42778 0.50337 0.08666
   7   6  -710432.47 2648.00   1 0.93951-0.34248-0.32622 0.70543 0.10431-0.62054
   7  -6  -717820.87 1599.88   1 0.73109-0.13392-0.49686 0.11761 0.46758-0.98398
  -7   6   718399.86 1763.89   1 0.30596-0.90355 0.80782-0.42829 0.50379 0.01249
   7   6  -6 4732.65 1214.33   1 0.92163-0.31870-0.35474 0.73395 0.15730-0.59978
   7  -6  -6 6036.37 1005.30   1 0.65372-0.05068-0.52451 0.14526 0.54546-0.98809
  -7  -6   6 5479.76  956.42   1-0.65596 0.05345 0.61938-0.99851 0.43137 0.01094
  -7   6   6 5342.99 1026.91   1 0.29692-0.90037 0.81003-0.43050 0.50565-0.06311
   7   6  -6 6037.34  982.76   1 0.83480-0.23109 0.19858 0.18049 0.51348-0.95604
   7   6  -5  680.00  395.50   1 0.89978-0.29106-0.38192 0.76103 0.21101-0.57974
   7  -6  -5  578.31  379.65   1 0.56827 0.04110-0.54489 0.16554 0.61656-0.98534
  -7  -6   5  903.66  474.91   1-0.65815 0.04974 0.61771-0.99684 0.43040-0.06181
  -7   6   5 1130.21  726.68   1 0.28048-0.88979 0.81385-0.43432 0.50889-0.14011
   7   6  -5 1033.33  433.79   1 0.82996-0.22052 0.06384 0.31527 0.55414-0.92302
   7   6  -4 4567.45  949.30   1 0.87374-0.25915-0.40829 0.78740 0.26433-0.55931
   7  -6  -4 3665.95  778.79   1 0.47633 0.13883-0.55873 0.17938 0.67890-0.97393
  -7  -6   4 3141.37  730.65   1-0.66719 0.05289 0.61077-0.98990 0.42638-0.13150
  -7   6   4 5366.75 1110.68   1 0.25611-0.87128 0.81903-0.43950 0.51340-0.21838
   7   6  -4 6524.53 1260.84   1 0.81126-0.19591-0.06030 0.43942 0.58155-0.87665
   7   6  -3 8929.41 1159.22   1 0.84346-0.22300-0.43335 0.81246 0.31743-0.53866
   7  -6  -3 5126.80  775.78   1 0.38110 0.23990-0.56527 0.18590 0.73159-0.95282
  -7  -6   3 5564.72  863.20   1-0.68199 0.06179 0.59904-0.97817 0.41955-0.19839
  -7   6   3 7800.78 1119.35   1 0.22325-0.84428 0.82515-0.44562 0.51891-0.29765
   7   6  -3 7649.76  988.74   1 0.78288-0.16146-0.17012 0.54938 0.59846-0.81982
   7   6  -2 3901.38  579.22   1 0.80893-0.18259-0.45688 0.83600 0.36996-0.51745
   7  -6  -2 4215.57  676.40   1 0.28545 0.34139-0.56542 0.18606 0.77383-0.92132
  -7  -6   2 3809.58  736.92   1-0.70155 0.07544 0.58281-0.96194 0.41006-0.26262
  -7   6   2 4720.64  814.94   1 0.18128-0.80817 0.83153-0.45200 0.52505-0.37753
  -7   6   2 3301.70  782.84   1 0.07421-0.70095 0.96170-0.58260-0.26385 0.41137
   7   6  -2 5298.65  748.95   1 0.74928-0.12199-0.26625 0.64551 0.60637-0.75394
   7   6  -111796.61  835.26   1 0.77036-0.13793-0.47858 0.85782 0.42131-0.49508
   7  -6  -112374.58  935.58   1 0.19257 0.44010-0.55991 0.18055 0.80585-0.87960
  -7  -6   112476.10  986.75   1-0.72488 0.09288 0.56226-0.94139 0.39798-0.32426
  -7   6   111885.64  964.05   1 0.12961-0.76236 0.83725-0.45772 0.53122-0.45746
  -7   6   111193.32 1484.43   1 0.11653-0.74912 0.96482-0.58572-0.23565 0.30941
   7   6  -111472.08  880.48   1 0.71363-0.08046-0.34775 0.72700 0.60810-0.68189
   7   6   020183.15 1705.02   1 0.72783-0.08953-0.49823 0.87747 0.47118-0.47118
   7  -6   023883.06 2056.38   1 0.10497 0.53323-0.54996 0.17071 0.82856-0.82856
  -7  -6   023846.80 2045.00   1-0.75108 0.11317 0.53751-0.91664 0.38334-0.38334
  -7   6   023511.18 1999.34   1 0.06757-0.70615 0.84090-0.46154 0.53695-0.53695
  -7   6   021789.39 2500.79   1 0.14152-0.77996 0.96549-0.58639-0.21861 0.21861
   7   6   021572.28 1835.69   1 0.67815-0.03978-0.41484 0.79398 0.60663-0.60663
   7   6   1 1391.60  306.76   1 0.68203-0.03785-0.51550 0.89475 0.51872-0.44495
   7  -6   1 2296.16  513.86   1 0.02509 0.61891-0.53708 0.15783 0.84315-0.76943
  -7  -6  -1 1501.40  354.07   1-0.77922 0.13542 0.50866-0.88779 0.36615-0.43987
  -7   6  -1  848.57  365.68   1-0.00480-0.63964 0.84122-0.46186 0.54067-0.61443
  -7   6  -1 1359.29  401.26   1 0.15421-0.79850 0.96549-0.58639-0.20985 0.13609
   7   6   1 3122.19  724.87   1 0.64557-0.00138-0.46995 0.84908 0.60198-0.52824
   7   6   2 5638.94 1109.30   1 0.63387 0.01618-0.53015 0.90940 0.56314-0.41559
   7  -6   2 3575.98  870.25   1-0.04588 0.69568-0.52262 0.14337 0.85132-0.70389
  -7  -6  -2 2655.93  744.64   1-0.80847 0.15921 0.47647-0.85541 0.34545-0.49285
  -7   6  -2 4144.97  928.86   1-0.08761-0.56270 0.83615-0.45680 0.54144-0.68898
  -7   6  -2 4006.64 1155.35   1 0.15768-0.80783 0.96545-0.58635-0.20744 0.05992
   7   6   2 5868.92 1296.48   1 0.61675 0.03326-0.51386 0.89300 0.59629-0.44882
   7   6   317221.24 1299.76   1 0.58433 0.07134-0.54162 0.92096 0.60431-0.38304
   7  -6   318250.06 1435.70   1-0.10708 0.76298-0.50794 0.12866 0.85470-0.63347
  -7  -6  -318849.68 2549.10   1-0.83792 0.18280 0.43966-0.81860 0.32337-0.54448
  -7   6  -319953.52 1508.60   1-0.18052-0.47547 0.82325-0.44398 0.53819-0.75947
  -7   6  -321594.90 2420.99   1 0.15394-0.80994 0.96549-0.58639-0.21003-0.01123
   7   6   320441.99 1596.34   1 0.59242 0.06340-0.54799 0.92713 0.59053-0.36933
   7  -6   4 6052.81 1183.31   1-0.15881 0.82055-0.49381 0.11454 0.85494-0.55996
  -7   6  -4 6132.35 1094.70   1-0.28222-0.37964 0.80059-0.42131 0.52858-0.82362
  -7   6  -4 5991.67 1216.78   1 0.14435-0.80621 0.96551-0.58641-0.21666-0.07836
   7   6   4 6495.93 1144.34   1 0.57295 0.08869-0.57363 0.95277 0.58537-0.29044
   7  -6   5 6385.99 1156.09   1-0.20121 0.86881-0.48106 0.10179 0.85328-0.48456
  -7  -6  -5 2642.49  708.24   1-0.89463 0.22776 0.35460-0.73354 0.27182-0.64033
  -7   6  -5 2870.42  605.36   1-0.39141-0.27611 0.76473-0.38551 0.51183-0.88042
  -7   6  -5 2492.38  714.01   1 0.12989-0.79759 0.96529-0.58619-0.22658-0.14220
   7   6   5 2935.19  862.58   1 0.55832 0.10935-0.59193 0.97100 0.58128-0.21255
   7  -6   6 -104.38  432.77   1-0.23487 0.90831-0.47017 0.09090 0.85074-0.40828
  -7  -6  -6  381.16  309.50   1-0.92046 0.24772 0.30656-0.68550 0.24240-0.68462
  -7   6  -6 1903.70  764.06   1 0.11123-0.78478 0.96457-0.58547-0.23923-0.20331
   7   6   6 3741.16  925.98   1 0.54860 0.12491-0.60373 0.98281 0.57839-0.13591
   7   7  -7 1743.08  667.03   1 0.95302-0.35599-0.29807 0.74047 0.05382-0.57005
   7  -7  -7 3469.98  928.34   1 0.72555-0.12838-0.49917 0.05672 0.47369-0.99010
  -7   7   7 3073.50  982.63   1 0.33630-0.93389 0.79981-0.35702 0.49718 0.01909
   7   7  -6 6826.58 1447.17   1 0.94005-0.33711-0.32525 0.76765 0.10254-0.54502
   7  -7  -613602.79 1678.34   1 0.64550-0.04245-0.52691 0.08446 0.55288-0.99552
  -7  -7   6 9838.62 1257.65   1-0.74183 0.13931 0.54647-0.98879 0.38865 0.05365
  -7   7   610798.61 1544.36   1 0.32805-0.93151 0.80208-0.35929 0.49904-0.05651
   7   7  -610376.40 1307.35   1 0.83393-0.23022 0.22187 0.22037 0.50529-0.94785
   7   7  -5 5847.32 1245.56   1 0.92387-0.31503-0.35154 0.79395 0.15125-0.51999
   7  -7  -5 9672.20 1099.87   1 0.55767 0.05170-0.54690 0.10433 0.62441-0.99319
  -7  -7   510645.92 1218.35   1-0.73934 0.13093 0.54884-0.99115 0.39005-0.02146
  -7   7   510399.79 1242.75   1 0.31271-0.92203 0.80611-0.36333 0.50237-0.13359
   7   7  -5 9443.12 1052.71   1 0.83291-0.22347 0.10097 0.34133 0.54411-0.91298
   7   7  -4 2368.25  553.56   1 0.90444-0.28985-0.37655 0.81885 0.20045-0.49543
   7  -7  -4 1660.21  580.76   1 0.46383 0.15133-0.56003 0.11745 0.68645-0.98147
  -7  -7   4 1190.49  517.85   1-0.74341 0.12911 0.54495-0.98727 0.38775-0.09287
  -7   7   4 2023.46  611.64   1 0.28976-0.90493 0.81172-0.36894 0.50708-0.21206
   7   7  -4 1860.99  472.67   1 0.82018-0.20483-0.01182 0.45412 0.57197-0.86707
   7   7  -3 2184.07  664.76   1 0.88173-0.26127-0.40076 0.84305 0.24885-0.47009
   7  -7  -3 3782.64  985.19   1 0.36746 0.25354-0.56567 0.12308 0.73822-0.95946
  -7  -7   3 3854.18  950.92   1-0.75297 0.13276 0.53565-0.97797 0.38223-0.16107
  -7   7   3 1954.80  666.03   1 0.25858-0.87961 0.81853-0.37575 0.51296-0.29169
   7   7  -3 1626.26  584.32   1 0.79897-0.17769-0.11393 0.55624 0.59047-0.81179
   7   7  -214022.29 1194.09   1 0.85580-0.22946-0.42373 0.86603 0.29673-0.44422
   7  -7  -218497.90 1533.42   1 0.27147 0.35536-0.56493 0.12235 0.77919-0.92668
  -7  -7   216997.00 1381.87   1-0.76702 0.14092 0.52147-0.96379 0.37380-0.22636
  -7   7   215547.18 1319.99   1 0.21849-0.84538 0.82595-0.38317 0.51966-0.37215
  -7   7   2 8313.85 2337.62   1 0.14340-0.77014 0.96550-0.52322-0.21731 0.36483
   7   7  -215016.87 1281.92   1 0.77220-0.14491-0.20351 0.64598 0.60189-0.74947
   7   7  -1 6492.57 1284.67   1 0.82675-0.19454-0.44531 0.88760 0.34375-0.41749
   7  -7  -110129.62  984.82   1 0.17901 0.45366-0.55867 0.11608 0.80983-0.88358
  -7  -7   110494.49  977.41   1-0.78466 0.15266 0.50278-0.94510 0.36263-0.28892
  -7   7   1 7580.33 1482.99   1 0.16880-0.80155 0.83313-0.39035 0.52667-0.45292
  -7   7   1 4707.75 1358.54   1 0.17679-0.80938 0.96492-0.52264-0.19407 0.26783
   7   7  -1 3898.06  856.95   1 0.74306-0.10989-0.28166 0.72413 0.60706-0.68084
   7   7   0 8069.15 1512.55   1 0.79485-0.15676-0.46529 0.90758 0.38949-0.38949
   7  -7   0 6875.67 1433.19   1 0.09243 0.54577-0.54818 0.10572 0.83123-0.83123
  -7  -7   0 5861.56 1642.82   1-0.80517 0.16765 0.48036-0.92246 0.34777-0.34777
  -7   7   0 8370.15 1604.54   1 0.10864-0.74722 0.83874-0.39616 0.53357-0.53357
  -7   7   0 7045.12 1643.17   1 0.19532-0.83376 0.96390-0.52162-0.18094 0.18094
   7   7   0 8539.61 1628.01   1 0.71357-0.07453-0.34788 0.79034 0.60810-0.60810
   7   7   127874.49 2053.77   1 0.76067-0.11649-0.48340 0.92586 0.43323-0.35946
   7  -7   118628.11 1490.83   1 0.01395 0.63005-0.53500 0.09254 0.84473-0.77102
  -7  -7  -118791.00 2110.27   1-0.82733 0.18394 0.45337-0.89547 0.33161-0.40532
  -7   7  -126388.01 2049.05   1 0.03785-0.68230 0.84156-0.39898 0.53882-0.61258
  -7   7  -123376.35 2277.75   1 0.20317-0.84746 0.96331-0.52103-0.17533 0.10157
   7   7   128075.17 2183.43   1 0.68498-0.04079-0.40243 0.84475 0.60732-0.53358
   7   7   218925.77 1365.01   1 0.72462-0.07456-0.49956 0.94201 0.47471-0.32717
   7  -7   217210.20 1404.05   1-0.05545 0.70525-0.52045 0.07799 0.85208-0.70465
  -7  -7  -214870.79 2343.51   1-0.85061 0.20135 0.42246-0.86456 0.31301-0.46041
  -7   7  -219716.41 1549.39   1-0.04398-0.60633 0.83954-0.39696 0.54150-0.68903
  -7   7  -219441.25 1811.83   1 0.20291-0.85306 0.96333-0.52105-0.17551 0.02800
   7   7   224073.91 1885.67   1 0.65948-0.00946-0.44721 0.88954 0.60422-0.45675
   7  -7   3 9598.11  970.27   1-0.11510 0.77099-0.50585 0.06336 0.85490-0.63367
  -7  -7  -310326.41 1775.84   1-0.87428 0.21915 0.38776-0.82986 0.29200-0.51311
  -7   7  -3 9404.78  868.31   1-0.13692-0.51906 0.83013-0.38764 0.54049-0.76177
  -7   7  -310712.63 1631.23   1 0.19623-0.85223 0.96383-0.52155-0.18029-0.04097
  -7  -7  -412438.57 2013.77   1-0.89762 0.23662 0.34942-0.79152 0.26865-0.56347
  -7   7  -4 9615.86 1088.98   1-0.24005-0.42181 0.81114-0.36865 0.53331-0.82835
  -7   7  -4 9306.25 1992.54   1 0.18427-0.84612 0.96457-0.52229-0.18879-0.10623
   7   7   411881.80 1441.49   1 0.61935 0.04230-0.51006 0.95239 0.59685-0.30192
   7  -7   510626.09 1147.64   1-0.20656 0.87415-0.47938 0.03689 0.85295-0.48423
  -7  -7  -5 7513.65 1587.64   1-0.91997 0.25311 0.30754-0.74964 0.24300-0.61152
  -7   7  -5 7180.54  834.05   1-0.35218-0.31554 0.77930-0.33681 0.51832-0.88712
  -7   7  -5 6889.42 1186.72   1 0.16784-0.83555 0.96523-0.52295-0.20035-0.16843
   7   7   5 7553.20 1015.80   1 0.60544 0.06203-0.53004 0.97237 0.59371-0.22504
   7  -7   6  833.63  496.81   1-0.23921 0.91265-0.46872 0.02623 0.85033-0.40787
  -7  -7  -6 1533.32  493.96   1-0.94066 0.26800 0.26248-0.70446 0.21505-0.65718
  -7   7  -6  719.99  379.29   1 0.14754-0.82109 0.96552-0.52324-0.21446-0.22807
   7   7   6 1606.67  657.29   1 0.59575 0.07754-0.54346 0.98579 0.59136-0.14896
   7   8  -6 1387.01  495.21   1 0.95496-0.35203-0.29322 0.79883 0.04530-0.48778
   7  -8  -6 1512.32  541.64   1 0.64158-0.03854-0.52802 0.02236 0.55637-0.99900
  -7   8   6 1282.87  564.52   1 0.35248-0.95593 0.79516-0.28912 0.49342-0.05089
   7   8  -6 1762.43  588.36   1 0.83240-0.22869 0.24709 0.25833 0.49603-0.93859
   7   8  -5 2864.02  691.22   1 0.94394-0.33511-0.31784 0.82345 0.08911-0.45784
   7  -8  -5 3211.39  688.31   1 0.55182 0.05756-0.54796 0.04216 0.62867-0.99745
  -7  -8   5 2515.62  705.39   1-0.81082 0.20266 0.47367-0.97893 0.34378 0.02473
  -7   8   5 3524.09  857.33   1 0.33811-0.94742 0.79930-0.29326 0.49677-0.12800
   7   8  -5 3232.01  688.52   1 0.83468-0.22507 0.13732 0.36810 0.53332-0.90212
   7   8  -417418.19 2081.56   1 0.93050-0.31577-0.34149 0.84710 0.13244-0.42743
   7  -8  -419386.65 1984.51   1 0.45651 0.15865-0.56073 0.05493 0.69078-0.98580
  -7  -8   415068.74 2282.78   1-0.81055 0.19651 0.47400-0.97926 0.34398-0.04916
  -7   8   417946.16 1936.54   1 0.31641-0.93158 0.80516-0.29912 0.50158-0.20656
   7   8  -415843.55 1647.88   1 0.82679-0.21144 0.03469 0.47080 0.56142-0.85652
   7   8  -324232.36 2497.35   1 0.91474-0.29411-0.36409 0.86970 0.17513-0.39636
   7  -8  -330994.99 2384.94   1 0.35937 0.26163-0.56585 0.06004 0.74206-0.96329
  -7  -8   328042.79 3097.65   1-0.81541 0.19551 0.46815-0.97340 0.34047-0.11936
  -7   8   328211.05 2286.00   1 0.28676-0.90779 0.81242-0.30638 0.50767-0.28640
   7   8  -325278.37 1984.07   1 0.81139-0.19011-0.05968 0.56517 0.58144-0.80276
   7   8  -2 6567.77  696.23   1 0.89673-0.27039-0.38530 0.89078 0.21772-0.36522
   7  -8  -2 8739.44  847.77   1 0.26331 0.36352-0.56459 0.05878 0.78223-0.92972
  -7  -8   2 7826.63 1149.31   1-0.82452 0.19875 0.45691-0.96217 0.33374-0.18633
  -7   8   2 8086.58  939.42   1 0.24844-0.87533 0.82055-0.31451 0.51474-0.36723
  -7   8   2 5496.15 1467.43   1 0.20083-0.82757 0.96350-0.45803-0.17700 0.32452
   7   8  -2 6462.92 1088.59   1 0.79062-0.16333-0.14361 0.64928 0.59522-0.74279
   7   8  -1 3675.15  684.67   1 0.87681-0.24459-0.40545 0.91093 0.25847-0.33222
   7  -8  -1 6011.78 1133.28   1 0.17142 0.46125-0.55793 0.05211 0.81198-0.88573
  -7  -8   1 5831.92 1239.01   1-0.83702 0.20538 0.44085-0.94610 0.32409-0.25039
  -7   8   1 3660.52  774.02   1 0.20067-0.83342 0.82878-0.32274 0.52234-0.44858
  -7   8   1 3900.42  909.22   1 0.22687-0.85947 0.96098-0.45552-0.15820 0.23196
   7   8  -1 3671.46  747.60   1 0.76723-0.13407-0.21803 0.72371 0.60316-0.67695
   7   8   0 2056.78  482.75   1 0.85527-0.21717-0.42416 0.92964 0.29764-0.29764
   7  -8   0 4377.56  983.62   1 0.08586 0.55234-0.54721 0.04154 0.83257-0.83257
  -7  -8   0 3303.10  977.15   1-0.85212 0.21460 0.42035-0.92561 0.31174-0.31174
  -7   8   0 1718.06  483.73   1 0.14267-0.78128 0.83603-0.32999 0.52980-0.52980
  -7   8   0 1091.99  392.18   1 0.24018-0.87862 0.95930-0.45384-0.14847 0.14847
   7   8   0 1199.21  516.41   1 0.74286-0.10382-0.28215 0.78782 0.60708-0.60708
   7  -8   1 1278.72  647.29   1 0.00868 0.63532-0.53399 0.02832 0.84544-0.77172
  -7  -8  -1 1202.19  494.76   1-0.86907 0.22568 0.39572-0.90098 0.29683-0.37053
  -7   8  -1  698.40  370.69   1 0.07346-0.71791 0.84068-0.33487 0.53652-0.61029
  -7   8  -1  391.31  268.83   1 0.24417-0.88847 0.95874-0.45328-0.14553 0.07177
   7   8   1  594.90  440.65   1 0.71905-0.07413-0.33631 0.84199 0.60815-0.53436
  -7  -8  -2 6804.91 1187.02   1-0.88716 0.23790 0.36718-0.87244 0.27949-0.42689
  -7   8  -2 6834.12  861.71   1-0.00703-0.64328 0.84115-0.33535 0.54074-0.68827
  -7   8  -2 5877.87 1334.05   1 0.24099-0.89113 0.95919-0.45373-0.14787 0.00036
   7   8   2 7724.46 1096.69   1 0.69646-0.04644-0.38078 0.88630 0.60822-0.46076
   7  -8   3 9965.63 1406.15   1-0.11765 0.77355-0.50518-0.00051 0.85495-0.63372
  -7  -8  -3 9886.27 1782.07   1-0.90571 0.25058 0.33493-0.84019 0.25980-0.48091
  -7   8  -310696.72 1353.97   1-0.09927-0.55691 0.83497-0.32917 0.54125-0.76255
  -7   8  -310793.88 1975.48   1 0.23203-0.88802 0.96036-0.45490-0.15444-0.06682
   7   8   312391.64 1620.13   1 0.67693-0.02110-0.41703 0.92255 0.60649-0.38529
   7  -8   4  844.13  476.15   1-0.16676 0.82851-0.49150-0.01419 0.85475-0.55978
  -7  -8  -4 1236.54  479.50   1-0.92404 0.26318 0.29933-0.80446 0.23775-0.53251
  -7   8  -4  824.70  331.10   1-0.20331-0.45854 0.81899-0.31329 0.53657-0.83161
  -7   8  -4 2043.48  566.84   1 0.21825-0.88010 0.96193-0.45646-0.16446-0.13056
   7   8   4 1898.12  658.13   1 0.66056 0.00109-0.44539 0.95091 0.60437-0.30944
   7  -8   5 1389.76  499.59   1-0.20695 0.87455-0.47925-0.02644 0.85292-0.48420
  -7   8  -5  672.02  334.33   1 0.20035-0.86805 0.96353-0.45807-0.17735-0.19143
   7   8   5  307.83  470.66   1 0.64766 0.01980-0.46659 0.97211 0.60234-0.23367
   7   9  -5 4699.96 1225.42   1 0.95932-0.35049-0.28123 0.85004 0.02442-0.39315
   7  -9  -5 6401.51  898.99   1 0.55095 0.05842-0.54812-0.02090 0.62929-0.99807
  -7   9   5 6157.25 1036.26   1 0.35732-0.96663 0.79372-0.22442 0.49226-0.12348
   7   9  -5 6713.47  951.30   1 0.83517-0.22556 0.17374 0.39486 0.52181-0.89061
   7   9  -4 1059.51  304.11   1 0.95108-0.33634-0.30266 0.87147 0.06195-0.35693
   7  -9  -4 1687.34  625.05   1 0.45450 0.16066-0.56091-0.00810 0.69195-0.98697
  -7  -9   4  152.16  316.38   1-0.86682 0.25279 0.39909-0.96751 0.29888-0.00406
  -7   9   4  845.96  466.71   1 0.33671-0.95188 0.79970-0.23040 0.49709-0.20207
   7   9  -4 1130.33  511.36   1 0.83137-0.21601 0.07962 0.48905 0.54998-0.84508
   7   9  -3 3756.63  733.34   1 0.94133-0.32069-0.32287 0.89168 0.09821-0.31945
   7  -9  -3 2124.18  567.65   1 0.35685 0.26414-0.56590-0.00313 0.74324-0.96447
  -7  -9   3 1241.13  337.45   1-0.86804 0.24814 0.39727-0.96568 0.29777-0.07666
  -7   9   3 2709.10  699.95   1 0.30841-0.92944 0.80721-0.23791 0.50328-0.28201
   7   9  -3 2291.04  567.24   1 0.82084-0.19956-0.00772 0.57640 0.57109-0.79241
   7   9  -2 2502.38  943.96   1 0.93035-0.30382-0.34173 0.91053 0.13287-0.28037
   7  -9  -2 2192.58  614.14   1 0.26088 0.36595-0.56448-0.00455 0.78313-0.93062
  -7  -9   2 2198.95  621.30   1-0.87316 0.24738 0.38949-0.95790 0.29305-0.14564
   7   9  -2 5117.32 1010.94   1 0.80548-0.17828-0.08692 0.65560 0.58620-0.73375
   7   9  -1 5378.90 1500.28   1 0.91853-0.28609-0.35904 0.92785 0.16547-0.23922
   7  -9  -1 5027.94  961.70   1 0.16959 0.46308-0.55774-0.01129 0.81249-0.88624
  -7  -9   1 4080.19 1038.09   1-0.88142 0.24978 0.37651-0.94492 0.28516-0.21146
  -7   9   1 7054.80 1113.52   1 0.22569-0.85844 0.82473-0.25544 0.51853-0.44477
  -7   9   1 6639.39 1677.75   1 0.26743-0.90000 0.95510-0.38665-0.12746 0.20121
   7   9  -1 7153.52 1085.43   1 0.78686-0.15369-0.15677 0.72565 0.59688-0.67067
   7  -9   013395.26 1750.88   1 0.08499 0.55321-0.54708-0.02179 0.83275-0.83275
  -7  -9   0 9030.45 2069.58   1-0.89213 0.25461 0.35887-0.92728 0.27442-0.27442
  -7   9   0 8079.63 1970.85   1 0.27663-0.91503 0.95338-0.38493-0.12056 0.12056
   7   9   013517.10 1711.03   1 0.76712-0.12808-0.21835 0.78724 0.60319-0.60319
   7  -9   113494.09 1758.44   1 0.00896 0.63504-0.53404-0.03483 0.84540-0.77169
  -7  -9  -117080.77 3062.38   1-0.90460 0.26121 0.33696-0.90537 0.26104-0.33474
  -7   9  -111723.47 1529.59   1 0.10215-0.74661 0.83918-0.27015 0.53417-0.60793
  -7   9  -1 9835.55 1726.10   1 0.27764-0.92187 0.95318-0.38473-0.11980 0.04605
   7   9   113086.00 1835.87   1 0.74734-0.10242-0.27112 0.84000 0.60660-0.53281
   7  -9   214584.47 1497.72   1-0.05788 0.70768-0.51989-0.04897 0.85226-0.70483
  -7  -9  -2 9868.76 1947.30   1-0.91820 0.26894 0.31109-0.87950 0.24518-0.39259
  -7   9  -2 8892.55  906.95   1 0.02316-0.67348 0.84162-0.27259 0.53957-0.68710
  -7   9  -2 8830.07 1439.12   1 0.27221-0.92228 0.95422-0.38578-0.12388-0.02360
   7   9   210293.22 1117.94   1 0.72860-0.07781-0.31540 0.88428 0.60799-0.46041
   7  -9   3 4835.15  896.05   1-0.11512 0.77102-0.50584-0.06306 0.85490-0.63367
  -7  -9  -3 5776.25 1028.04   1-0.93229 0.27733 0.28168-0.84995 0.22689-0.44796
  -7   9  -3 3043.25  843.98   1-0.06821-0.58797 0.83786-0.26883 0.54159-0.76289
  -7   9  -3 4150.10 1450.01   1 0.26154-0.91744 0.95614-0.38769-0.13187-0.08935
   7   9   3 8205.47 1339.46   1 0.71174-0.05507-0.35166 0.92055 0.60807-0.38671
   7  -9   4 9137.28 1204.06   1-0.16330 0.82504-0.49251-0.07639 0.85484-0.55987
  -7  -9  -4 7471.81 1659.73   1-0.94634 0.28548 0.24860-0.81686 0.20647-0.50122
  -7   9  -4 8797.95 2302.40   1 0.24656-0.90841 0.95840-0.38975-0.14377-0.15125
   7   9   413342.73 1851.45   1 0.69671-0.03506-0.38029 0.94900 0.60824-0.31331
   7  10  -3 1590.24  523.96   1 0.96055-0.33992-0.27750 0.90951 0.01798-0.23922
   7 -10  -3 4257.84 1160.44   1 0.35994 0.26106-0.56584-0.06642 0.74179-0.96303
  -7 -10   3 2453.35  989.13   1-0.91131 0.29141 0.32448-0.95605 0.25339-0.03228
  -7  10   3 1384.64  702.49   1 0.32408-0.94511 0.80314-0.17059 0.49992-0.27865
   7  10  -3 1011.34  454.56   1 0.82769-0.20642 0.04230 0.58956 0.55957-0.78090
   7 -10  -2 2236.54  702.10   1 0.26410 0.36273-0.56463-0.06763 0.78194-0.92943
  -7 -10   2 1822.84  741.21   1-0.91336 0.28759 0.32056-0.95213 0.25099-0.10358
  -7  10   2 1604.50  686.08   1 0.28873-0.91562 0.81196-0.17941 0.50728-0.35977
   7  10  -2 1682.80  701.24   1 0.81677-0.18957-0.03176 0.66363 0.57608-0.72363
   7 -10  -1 6539.34  934.62   1 0.17338 0.45929-0.55812-0.07413 0.81143-0.88518
  -7 -10   1 5819.32 1134.97   1-0.91824 0.28660 0.31101-0.94258 0.24513-0.17143
  -7  10   1 8190.66 1123.68   1 0.24432-0.87707 0.82134-0.18879 0.51545-0.44170
  -7  10   1 6197.60 1524.08   1 0.29917-0.93173 0.94857-0.31696-0.10343 0.17717
   7  10  -111061.92 1480.63   1 0.80281-0.16970-0.09832 0.73018 0.58806-0.66183
   7 -10   011256.82 1405.40   1 0.08960 0.54860-0.54776-0.08431 0.83181-0.83181
  -7 -10   010461.99 2094.23   1-0.92534 0.28808 0.29663-0.92804 0.23610-0.23610
  -7  10   016661.67 2046.83   1 0.18989-0.82850 0.83035-0.19780 0.52387-0.52387
  -7  10   0 7899.43 1915.95   1 0.30538-0.94378 0.94710-0.31549-0.09866 0.09866
   7  10   014799.12 1897.73   1 0.78693-0.14789-0.15650 0.78860 0.59685-0.59685
   7 -10   1 4826.63  892.89   1 0.01452 0.62947-0.53511-0.09697 0.84465-0.77094
  -7 -10  -1 1719.09  541.13   1-0.93407 0.29091 0.27770-0.90911 0.22444-0.29813
  -7  10  -1 2818.76  832.85   1 0.12420-0.76865 0.83755-0.20529 0.53205-0.60582
  -7  10  -1 2399.24  784.22   1 0.30424-0.94848 0.94737-0.31577-0.09954 0.02579
   7  10   1 3366.40 1031.74   1 0.77087-0.12595-0.20746 0.83955 0.60225-0.52846
   7 -10   2 5433.99  912.69   1-0.05138 0.70117-0.52138-0.11070 0.85177-0.70434
  -7 -10  -2 3147.96  634.25   1-0.94388 0.29482 0.25470-0.88610 0.21024-0.35762
  -7  10  -2 2434.38  559.61   1 0.04670-0.69702 0.84144-0.20919 0.53831-0.68584
  -7  10  -2 1915.96  470.91   1 0.29726-0.94733 0.94901-0.31740-0.10489-0.04258
   7  10   2 2011.74  567.35   1 0.75531-0.10451-0.25072 0.88281 0.60551-0.45793
   8   0  -8 4609.36  727.74   1 0.85459-0.17235-0.42470 0.42470 0.29880-0.88877
  -8   0   8 3977.77 1115.20   1-0.12939-0.55346 0.83138-0.83138 0.54041 0.04971
   8   0  -7  481.15  377.49   1 0.81197-0.12386-0.45499 0.45499 0.36561-0.88183
  -8   0   7  615.42  384.63   1-0.13285-0.55587 0.83092-0.83092 0.54029-0.02392
  -8   0   6  384.13  385.30   1-0.14395-0.55045 0.82913-0.82913 0.54019-0.09763
   8   0  -538980.20 2740.59   1 0.70715-0.00704-0.50647 0.50647 0.49336-0.86222
  -8   0   545589.22 3204.43   1-0.16326-0.53701 0.82617-0.82617 0.53923-0.17043
   8   0  -446533.26 3744.34   1 0.64569 0.06029-0.52686 0.52686 0.55272-0.84780
  -8   0   448657.90 8722.10   1-0.19010-0.51603 0.82152-0.82152 0.53754-0.24250
   8   0  -325929.03 2206.78   1 0.57939 0.13274-0.54265 0.54265 0.60812-0.82939
  -8   0   327974.23 2392.04   1-0.22417-0.48783 0.81468-0.81468 0.53481-0.31353
   8   0  -326711.11 2172.61   1 0.57217 0.13992-0.57462 0.57462 0.58516-0.80636
   8   0  -2 4105.78  572.85   1 0.50931 0.20861-0.55467 0.55467 0.65797-0.80549
  -8   0   2 3824.77  568.39   1-0.26504-0.45282 0.80509-0.80509 0.53064-0.38311
   8   0  -2 4869.60  537.06   1 0.48887 0.22908-0.67008 0.67008 0.55855-0.70604
   8   0  -1  642.37  413.46   1 0.43715 0.28657-0.56236 0.56236 0.70188-0.77563
  -8   0   1  397.41  343.90   1-0.31216-0.41157 0.79207-0.79207 0.52457-0.45081
   8   0  -1  679.84  331.39   1 0.41985 0.30395-0.73537 0.73537 0.53191-0.60566
   8   0   0 2649.59  658.38   1 0.36486 0.36486-0.56573 0.56573 0.73946-0.73946
  -8   0   0 1146.67  612.50   1-0.36480-0.36480 0.77493-0.77493 0.51613-0.51613
   8   0   122502.44 1392.31   1 0.29424 0.44131-0.56566 0.56566 0.77035-0.69660
  -8   0  -120606.94 1270.39   1-0.42192-0.31313 0.75261-0.75261 0.50552-0.57924
   8   0   214457.22 1376.38   1 0.22724 0.51416-0.56259 0.56259 0.79489-0.64740
  -8   0  -214417.14 1433.57   1-0.48281-0.25814 0.72521-0.72521 0.49086-0.63830
   8   0   311975.01 1040.30   1 0.16547 0.58176-0.55732 0.55732 0.81363-0.59240
  -8   0  -311591.81  999.70   1-0.54607-0.20079 0.69179-0.69179 0.47246-0.69361
   8   0   4  788.31  434.35   1 0.10981 0.64273-0.55063 0.55063 0.82749-0.53263
  -8   0  -4  -19.57  343.24   1-0.61039-0.14222 0.65183-0.65183 0.45002-0.74490
   8   0   5 4229.80  882.31   1 0.06186 0.69648-0.54346 0.54346 0.83715-0.46857
  -8   0  -5 3610.32  817.51   1-0.67441-0.08410 0.60511-0.60511 0.42308-0.79168
   8   0   6 5604.76  705.44   1 0.02176 0.74237-0.53646 0.53646 0.84363-0.40134
  -8   0  -6 6324.98  772.66   1-0.73672-0.02770 0.55131-0.55131 0.39152-0.83383
   8  -1  -8 1799.08  690.64   1 0.83918-0.15694-0.43653 0.37334 0.32434-0.91431
   8   1  -8 1619.55  692.25   1 0.87070-0.18846-0.41103 0.47422 0.27002-0.85999
  -8  -1   8 3173.06  909.09   1-0.21176-0.47091 0.81729-0.88051 0.53589 0.05419
  -8   1   8 1749.40  675.86   1-0.05364-0.62921 0.83893-0.77571 0.54157 0.04855
   8  -1  -7 2733.32  635.25   1 0.79241-0.10429-0.46669 0.40350 0.39279-0.90901
  -8  -1   7 1527.33  442.18   1-0.21404-0.47449 0.81682-0.88004 0.53569-0.01937
  -8   1   7 8544.44 1162.42   1-0.05779-0.63093 0.83864-0.77542 0.54159-0.02522
   8   1  -6 5373.43 1006.82   1 0.78790-0.09391-0.46922 0.53240 0.39878-0.84126
   8  -1  -6 2828.12  595.10   1 0.73877-0.04454-0.49354 0.43033 0.45893-0.90157
  -8  -1   6 2678.74  608.16   1-0.22442-0.46997 0.81463-0.87784 0.53479-0.09223
  -8   1   6 8226.17  999.54   1-0.06982-0.62476 0.83773-0.77450 0.54159-0.09899
   8   1  -5 2225.46  623.17   1 0.73734-0.03723-0.49416 0.55737 0.46056-0.82942
   8  -1  -5 2479.54  824.56   1 0.67852 0.02158-0.51668 0.45347 0.52214-0.89100
  -8  -1   5 1694.78  638.10   1-0.24253-0.45773 0.81056-0.87378 0.53306-0.16426
  -8   1   5 1472.89  505.55   1-0.08965-0.61081 0.83595-0.77273 0.54141-0.17258
   8   1  -4 4573.16  939.15   1 0.68094 0.02504-0.51587 0.57908 0.51979-0.81488
   8  -1  -4 4847.67 1042.84   1 0.61250 0.09348-0.53567 0.47246 0.58128-0.87637
  -8  -1   4 4322.88  955.05   1-0.26796-0.43817 0.80434-0.86755 0.53030-0.23526
  -8   1   4 6037.51 1211.14   1-0.11714-0.58918 0.83294-0.76971 0.54081-0.24575
   8   1  -4 5110.80  999.22   1 0.70438 0.00189-0.36521 0.42840 0.60865-0.90358
   8   1  -315818.81 1452.15   1 0.61946 0.09239-0.53393 0.59714 0.57547-0.79679
   8  -1  -314245.82 1267.49   1 0.54197 0.17017-0.54967 0.48645 0.63570-0.85697
  -8  -1   318142.06 1665.71   1-0.30027-0.41172 0.79555-0.85877 0.52623-0.30495
  -8   1   316215.88 1448.99   1-0.15191-0.56008 0.82795-0.76474 0.53982-0.31854
   8   1  -317540.70 1492.44   1 0.62359 0.08850-0.50379 0.56698 0.59776-0.81896
   8  -1  -318046.39 1494.39   1 0.51198 0.20013-0.64561 0.58243 0.56662-0.78785
   8   1  -2 3904.02  655.22   1 0.55397 0.16395-0.54757 0.61080 0.62710-0.77462
   8  -1  -2 1717.64  398.71   1 0.46814 0.24979-0.55959 0.49637 0.68388-0.83139
  -8  -1   2 2457.37  401.93   1-0.33892-0.37894 0.78371-0.84692 0.52050-0.37298
  -8   1   2 4963.18  583.28   1-0.19419-0.52367 0.82075-0.75754 0.53725-0.38973
   8   1  -2 3716.38  480.02   1 0.54884 0.16911-0.60344 0.66662 0.57846-0.72595
   8  -1  -2 4294.36  466.19   1 0.42178 0.29618-0.73370 0.67052 0.53271-0.68020
   8   1  -1 8072.31  702.01   1 0.48569 0.23802-0.55767 0.62090 0.67312-0.74687
   8  -1  -110797.42  868.45   1 0.39295 0.33076-0.56502 0.50179 0.72549-0.79924
  -8  -1   110290.81  894.10   1-0.38323-0.34050 0.76826-0.83147 0.51274-0.43898
  -8   1   1 8601.22  722.54   1-0.24328-0.48045 0.81039-0.74717 0.53298-0.45922
   8   1  -1 9171.81  701.06   1 0.48406 0.23973-0.67500 0.73818 0.55682-0.63056
   8   1   0 6398.05  635.83   1 0.41635 0.31315-0.56380 0.62702 0.71328-0.71328
   8  -1   0 6971.57  762.65   1 0.31855 0.41117-0.56606 0.50284 0.76032-0.76032
  -8  -1   0 6120.21  592.89   1-0.43217-0.29697 0.74830-0.81150 0.50325-0.50325
   8   1   0 6975.72  722.43   1 0.43043 0.29922-0.72607 0.78925 0.53623-0.53623
   8   1   1 7438.66  693.54   1 0.34792 0.38764-0.56602 0.62925 0.74736-0.67362
   8  -1   1 7419.08  779.74   1 0.24671 0.48885-0.56377 0.50054 0.78821-0.71447
  -8  -1  -1 7051.44  766.94   1-0.48535-0.24970 0.72397-0.78717 0.49019-0.56391
  -8   1  -1 5906.18  618.48   1-0.35923-0.37622 0.77688-0.71366 0.51711-0.59087
   8   1   2 4179.29  667.76   1 0.28207 0.45932-0.56531 0.62854 0.77514-0.62765
   8  -1   2 4994.33  773.38   1 0.17933 0.56206-0.55870 0.49547 0.80974-0.66225
  -8  -1  -2 4565.68  722.97   1-0.54138-0.19957 0.69446-0.75766 0.47394-0.62137
  -8   1  -2 4494.39  702.77   1-0.42421-0.31674 0.75165-0.68845 0.50502-0.65245
   8   1   3 3765.61  863.60   1 0.22062 0.52661-0.56213 0.62536 0.79707-0.57583
   8  -1   3 2429.43  690.35   1 0.11757 0.62919-0.55166 0.48845 0.82573-0.60458
  -8  -1  -3 2222.08  612.75   1-0.59913-0.14773 0.65936-0.72256 0.45418-0.67533
  -8   1  -3 2831.93  627.68   1-0.49246-0.25440 0.72045-0.65725 0.48828-0.70943
   8   1   4 5358.13 1291.66   1 0.16499 0.58807-0.55727 0.62050 0.81376-0.51878
   8  -1   4 4029.54 1017.71   1 0.06311 0.68944-0.54366 0.48045 0.83692-0.54206
  -8  -1  -4 3364.92  888.47   1-0.65740-0.09522 0.61829-0.68147 0.43073-0.72561
  -8   1  -4 3661.65  873.82   1-0.56247-0.19029 0.68222-0.61902 0.46710-0.76197
   8   1   5 1155.40  537.36   1 0.11581 0.64253-0.55143 0.61464 0.82613-0.45756
   8  -1   5  543.92  426.49   1 0.01634 0.74200-0.53545 0.47224 0.84440-0.47582
  -8  -1  -5  487.90  369.55   1-0.71497-0.04355 0.57115-0.63434 0.40322-0.77181
  -8   1  -5  644.34  337.82   1-0.63281-0.12570 0.63634-0.57315 0.44115-0.80974
   8   1   6 8385.00  981.13   1 0.07462 0.68951-0.54549 0.60870 0.83478-0.39248
   8  -1   6 7817.31  962.98   1-0.02244 0.78659-0.52771 0.46450 0.84912-0.40683
  -8  -1  -6 7012.79  906.77   1-0.77060 0.00618 0.51777-0.58096 0.37159-0.81390
  -8   1  -6 8642.14  996.40   1-0.70182-0.06259 0.58257-0.51938 0.40992-0.85224
   8   2  -8 7495.42 1205.40   1 0.88707-0.20483-0.39547 0.52184 0.23811-0.82808
   8  -2  -8 4607.96  773.54   1 0.82489-0.14265-0.44657 0.32020 0.34657-0.93654
  -8  -2   8 6991.43 1006.91   1-0.30055-0.38211 0.79547-0.92190 0.52619 0.06388
  -8   2   8 8972.78 1203.12   1 0.01434-0.69720 0.84156-0.71511 0.53996 0.05017
   8   2  -7 3662.38  778.32   1 0.85330-0.16518-0.42574 0.55211 0.30101-0.81724
   8  -2  -7 5488.76 1057.57   1 0.77431-0.08595-0.47654 0.35012 0.41634-0.93274
  -8  -2   7 5424.92 1105.44   1-0.30096-0.38757 0.79535-0.92178 0.52613-0.00981
  -8   2   7 4284.25  805.86   1 0.00992-0.69865 0.84151-0.71506 0.54014-0.02377
   8   2  -6 2039.18  625.40   1 0.81371-0.11972-0.45389 0.58026 0.36310-0.80558
   8  -2  -6 2014.74  558.84   1 0.71646-0.02223-0.50286 0.37644 0.48353-0.92617
  -8  -2   6 1601.24  435.33   1-0.30952-0.38488 0.79285-0.91928 0.52494-0.08238
  -8   2   6 1558.63  466.30   1-0.00220-0.69239 0.84128-0.71483 0.54058-0.09798
   8   2  -5 1990.86  589.49   1 0.76845-0.06834-0.47954 0.60596 0.42369-0.79255
   8  -2  -5 3008.41  766.53   1 0.65203 0.04807-0.52501 0.39860 0.54700-0.91586
  -8  -2   5 3012.64  847.75   1-0.32570-0.37457 0.78793-0.91435 0.52257-0.15377
  -8   2   5 1121.18  600.19   1-0.02205-0.67840 0.84064-0.71419 0.54113-0.17230
   8   2  -4 1175.87  417.02   1 0.71756-0.01157-0.50242 0.62884 0.48235-0.77744
   8  -2  -4 2856.32  727.32   1 0.58217 0.12418-0.54207 0.41562 0.60599-0.90101
  -8  -2   4 2580.13  580.04   1-0.34895-0.35718 0.78039-0.90681 0.51886-0.22382
  -8   2   4  381.73  417.60   1-0.04965-0.65668 0.83919-0.71274 0.54155-0.24648
   8   2  -4 1186.17  327.74   1 0.73423-0.02740-0.30259 0.42901 0.60773-0.90288
   8   2  -311028.90 1365.38   1 0.66160 0.05025-0.52212 0.64853 0.53820-0.75952
   8  -2  -310727.49 1342.26   1 0.50788 0.20426-0.55486 0.42841 0.65892-0.88018
  -8  -2   3 9824.85 1250.08   1-0.37870-0.33329 0.76993-0.89636 0.51359-0.29231
  -8   2   310438.34 1397.72   1-0.08495-0.62725 0.83641-0.70995 0.54148-0.32017
   8   2  -310780.24 1275.97   1 0.66679 0.04530-0.43480 0.56118 0.60525-0.82645
   8  -2  -311234.13 2048.47   1 0.44295 0.26915-0.71474 0.58838 0.54123-0.76247
   8   2  -217823.59 1604.33   1 0.60138 0.11655-0.53783 0.66428 0.59082-0.73833
   8  -2  -213117.73 1226.80   1 0.43104 0.28689-0.56282 0.43637 0.70528-0.85280
  -8  -2   216645.28 1581.51   1-0.41390-0.30343 0.75589-0.88230 0.50724-0.35981
  -8   2   220527.97 1842.81   1-0.12784-0.59023 0.83159-0.70514 0.54047-0.39294
   8   2  -219206.61 1607.52   1 0.60130 0.11662-0.53582 0.66220 0.59272-0.74019
   8   2  -123115.51 1395.57   1 0.53790 0.18582-0.55035 0.67680 0.63857-0.71232
   8  -2  -123554.79 1375.33   1 0.35374 0.37014-0.56595 0.43949 0.74468-0.81843
  -8  -2   126952.49 1607.90   1-0.45472-0.26852 0.73840-0.86480 0.49798-0.42426
   8   2  -124963.29 1383.30   1 0.54215 0.18165-0.61140 0.73776 0.57641-0.65016
   8   2   0 3140.22  523.03   1 0.47263 0.25687-0.55913 0.68558 0.68116-0.68116
   8  -2   0 2699.37  398.00   1 0.27788 0.45184-0.56517 0.43872 0.77676-0.77676
  -8  -2   0 1681.91  408.60   1-0.49979-0.22935 0.71676-0.84317 0.48626-0.48626
  -8   2   0 2062.24  509.32   1-0.23499-0.49460 0.81229-0.68587 0.53380-0.53380
   8   2   0 2805.87  439.76   1 0.49136 0.23828-0.66751 0.79387 0.55944-0.55944
   8   2   1 1487.80  429.30   1 0.40723 0.32806-0.56432 0.69077 0.71812-0.64436
   8  -2   1 2820.19  644.04   1 0.20551 0.53005-0.56100 0.43454 0.80189-0.72815
  -8  -2  -1 2380.43  591.78   1-0.54816-0.18688 0.69059-0.81700 0.47179-0.54550
  -8   2  -1 2020.92  556.47   1-0.29824-0.43721 0.79613-0.66971 0.52650-0.60026
   8   2   1 1865.22  509.66   1 0.44952 0.28597-0.70866 0.83502 0.54380-0.47006
   8   2   225212.81 2131.91   1 0.34364 0.39776-0.56607 0.69252 0.74931-0.60182
   8  -2   231101.75 2634.18   1 0.13805 0.60291-0.55423 0.42782 0.82082-0.67339
  -8  -2  -228291.59 2171.06   1-0.59884-0.14211 0.65955-0.78595 0.45429-0.60172
  -8   2  -221893.73 1888.36   1-0.36672-0.37460 0.77425-0.64783 0.51578-0.66331
   8   2   226679.55 2292.39   1 0.41641 0.32492-0.73835 0.86471 0.53050-0.38301
   8   2   310323.61  923.83   1 0.28339 0.46384-0.56535 0.69181 0.77463-0.55339
   8  -2   3 5959.66 1385.67   1 0.07735 0.66941-0.54592 0.41950 0.83425-0.61311
  -8  -2  -3 7587.96 1317.08   1-0.65072-0.09600 0.62330-0.74968 0.43364-0.65479
  -8   2  -3 8810.05  870.27   1-0.43927-0.30758 0.74525-0.61884 0.50163-0.72278
  -8   2  -3 8520.06  852.86   1-0.14641-0.60101 0.90604-0.77967-0.39704 0.17577
   8   2   3 8492.71  943.75   1 0.39146 0.35572-0.75920 0.88556 0.51997-0.29873
   8   2   4 1978.72  555.85   1 0.22816 0.52490-0.56265 0.68910 0.79458-0.49960
   8  -2   4 1374.28  559.26   1 0.02405 0.72850-0.53689 0.41047 0.84330-0.54844
  -8  -2  -4 1257.72  453.33   1-0.70279-0.04983 0.58175-0.70812 0.40944-0.70432
  -8   2  -4 2175.24  608.57   1-0.51450-0.23826 0.70914-0.58273 0.48207-0.77694
  -8   2  -4 2159.91  821.93   1-0.13867-0.61459 0.90914-0.78277-0.39270 0.09767
   8   2   5 1552.97  449.96   1 0.17921 0.57969-0.55869 0.68514 0.80977-0.44105
   8  -2   5 2180.41  598.90   1-0.02137 0.77972-0.52793 0.40152 0.84901-0.48043
  -8  -2  -5 2677.16  554.80   1-0.75391-0.00461 0.53472-0.66110 0.38168-0.75028
  -8   2  -5 2452.90  605.48   1-0.59078-0.16788 0.66475-0.53834 0.45724-0.82583
  -8   2  -5 2194.07  672.17   1-0.13772-0.62139 0.90952-0.78315-0.39217 0.02337
   8   2   6  280.75  296.20   1 0.13693 0.62720-0.55410 0.68052 0.82110-0.37881
   8  -2   6  791.09  595.59   1-0.05878 0.82292-0.51969 0.39327 0.85232-0.41003
  -8  -2  -6 1318.86  599.43   1-0.80265 0.03884 0.48329-0.60961 0.34952-0.79174
  -8   2  -6  319.80  297.01   1-0.66646-0.09796 0.61134-0.48496 0.42671-0.86902
  -8   2  -6   39.25  410.65   1-0.14255-0.62241 0.90760-0.78123-0.39488-0.04766
   8   3  -8  967.19  471.17   1 0.90325-0.22101-0.37794 0.56750 0.20318-0.79315
   8  -3  -8 3318.42  723.13   1 0.81213-0.12988-0.45489 0.26533 0.36539-0.95536
  -8  -3   8 1625.54  479.79   1-0.39237-0.28953 0.76436-0.95397 0.51164 0.07808
  -8   3   8 2006.06  647.52   1 0.07434-0.75720 0.84064-0.65096 0.53645 0.05367
   8   3  -7 8022.18  907.59   1 0.87405-0.18593-0.40800 0.59756 0.26374-0.77996
   8  -3  -7 8556.67  894.44   1 0.75795-0.06959-0.48472 0.29510 0.43652-0.95292
  -8  -3   7 8115.47  904.73   1-0.39038-0.29743 0.76512-0.95473 0.51204 0.00397
  -8   3   7 6729.49  995.14   1 0.06995-0.75868 0.84081-0.65113 0.53678-0.02041
   8   3  -613620.03 1531.57   1 0.83954-0.14554-0.43627 0.62582 0.32378-0.76626
   8  -3  -612875.29 1393.37   1 0.69634-0.00210-0.51049 0.32087 0.50448-0.94712
  -8  -3   612625.87 1435.99   1-0.39656-0.29715 0.76275-0.95236 0.51081-0.06851
  -8   3   613272.94 1472.63   1 0.05806-0.75265 0.84119-0.65152 0.53760-0.09500
   8   3  -5 4820.67  917.68   1 0.79971-0.09984-0.46246 0.65201 0.38286-0.75160
   8  -3  -5 5203.82  988.50   1 0.62818 0.07192-0.53168 0.34205 0.56806-0.93692
  -8  -3   5 4703.81  890.91   1-0.41021-0.28940 0.75738-0.94699 0.50802-0.13944
  -8   3   5 5498.32 1051.26   1 0.03856-0.73902 0.84156-0.65188 0.53878-0.16994
   8   3  -4 6679.43 1491.70   1 0.75477-0.04879-0.48624 0.67586 0.44032-0.73541
   8  -3  -4 4822.42 1112.15   1 0.55490 0.15145-0.54741 0.35773 0.62643-0.92145
  -8  -3   4 3929.50  945.28   1-0.43066-0.27486 0.74894-0.93855 0.50359-0.20872
  -8   3   4 8177.10 1066.19   1 0.01133-0.71766 0.84153-0.65185 0.54008-0.24502
   8   3  -4 6803.95 1496.36   1 0.75826-0.05143-0.24288 0.43251 0.60501-0.90016
   8   3  -3 7529.71 1457.76   1 0.70486 0.00699-0.50734 0.69696 0.49575-0.71706
   8  -3  -3 5767.63 1187.59   1 0.47762 0.23452-0.55859 0.36891 0.67811-0.89938
  -8  -3   3 7525.39 1444.95   1-0.45724-0.25419 0.73725-0.92686 0.49737-0.27622
  -8   3   3 6260.64 1314.38   1-0.02371-0.68848 0.84057-0.65089 0.54117-0.31987
   8   3  -3 7004.50 1341.36   1 0.70276 0.00933-0.36844 0.55801 0.60857-0.82977
   8   3  -221031.10 1819.53   1 0.65061 0.06712-0.52543 0.71505 0.54829-0.69583
  -8  -3   225893.43 2256.25   1-0.48920-0.22813 0.72207-0.91168 0.48916-0.34173
  -8   3   222626.49 1983.65   1-0.06661-0.65145 0.83799-0.64831 0.54160-0.39406
   8   3  -227072.42 2281.49   1 0.64651 0.07141-0.46844 0.65801 0.60214-0.74961
   8   3  -1  596.87  537.66   1 0.59284 0.13087-0.53977 0.72944 0.59764-0.67140
   8  -3  -1  426.75  340.29   1 0.31963 0.40425-0.56607 0.37639 0.75986-0.83360
  -8  -3   1 1351.46  542.28   1-0.52576-0.19747 0.70311-0.89272 0.47874-0.40503
   8   3  -1  833.40  359.78   1 0.59372 0.13002-0.54623 0.73580 0.59086-0.66459
   8   3   011752.40 2192.93   1 0.53272 0.19678-0.55119 0.74086 0.64217-0.64217
   8  -3   011240.86 2122.96   1 0.24302 0.48670-0.56356 0.37388 0.78951-0.78951
  -8  -3   012225.64 1259.25   1-0.56607-0.16307 0.68007-0.86968 0.46589-0.46589
  -8   3   011006.93 1418.35   1-0.17522-0.55437 0.82418-0.63454 0.53853-0.53853
  -8   3   012082.35 1113.27   1-0.15518-0.57469 0.90241-0.71286-0.40194 0.40194
   8   3   012314.64 1190.65   1 0.54682 0.18282-0.60586 0.79540 0.57785-0.57785
   8   3   1 3006.44  618.02   1 0.47168 0.26361-0.55923 0.74890 0.68174-0.60798
   8  -3   1 3152.11  664.87   1 0.17065 0.56491-0.55785 0.36817 0.81220-0.73845
  -8  -3  -1 4855.65  819.98   1-0.60921-0.12584 0.65269-0.84230 0.45038-0.52410
  -8   3  -1 4103.18  822.98   1-0.24022-0.49524 0.81110-0.62146 0.53329-0.60705
  -8   3  -1 2886.08  490.23   1-0.12165-0.61406 0.91568-0.72612-0.38305 0.30929
   8   3   1 4050.67  717.24   1 0.50699 0.22850-0.65101 0.84055 0.56491-0.49117
   8   3   2 2463.36  707.64   1 0.41136 0.32972-0.56409 0.75377 0.71594-0.56843
   8  -3   2  535.81  445.87   1 0.10380 0.63716-0.54980 0.36017 0.82881-0.68138
  -8  -3  -2 1441.47  568.85   1-0.65417-0.08665 0.62072-0.81029 0.43214-0.57958
  -8   3  -2  565.51  364.25   1-0.31132-0.43000 0.79232-0.60268 0.52469-0.67221
  -8   3  -2  354.65  369.17   1-0.09993-0.64163 0.92342-0.73386-0.37054 0.22302
   8   3   2  995.83  497.95   1 0.47452 0.26682-0.68459 0.87413 0.55331-0.40582
   8   3   326732.57 1962.91   1 0.35360 0.39363-0.56595 0.75563 0.74475-0.52351
   8  -3   323000.98 1843.83   1 0.04413 0.70262-0.54048 0.35085 0.84019-0.61904
  -8  -3  -327172.29 2079.47   1-0.70010-0.04662 0.58404-0.77360 0.41078-0.63194
  -8   3  -324199.36 1803.56   1-0.38750-0.35936 0.76621-0.57660 0.51260-0.73375
  -8   3  -320498.26 3139.13   1-0.08769-0.65973 0.92749-0.73794-0.36339 0.14211
   8   3   323866.32 1880.45   1 0.44923 0.29795-0.70892 0.89846 0.54369-0.32245
   8   3   413470.99 1196.25   1 0.29984 0.45323-0.56579 0.75547 0.76809-0.47311
   8  -3   411759.15 1221.68   1-0.00786 0.76041-0.53072 0.34109 0.84750-0.55264
  -8  -3  -413551.57 1262.99   1-0.74595-0.00667 0.54251-0.73208 0.38630-0.68118
  -8   3  -410011.61  999.47   1-0.46732-0.28543 0.73260-0.54299 0.49486-0.78973
  -8   3  -4 7855.42 2322.22   1-0.08320-0.67006 0.92894-0.73938-0.36075 0.06572
   8   3   411290.69 1334.91   1 0.43073 0.32230-0.72580 0.91534 0.53635-0.24136
   8   3   510098.28 1314.74   1 0.25158 0.50733-0.56403 0.75371 0.78649-0.41776
   8  -3   512834.53 1789.90   1-0.05189 0.81024-0.52126 0.33164 0.85181-0.48323
  -8  -3  -511735.94 1543.44   1-0.79075 0.03222 0.49608-0.68564 0.35862-0.72721
  -8   3  -511146.48 1454.27   1-0.54916-0.20950 0.69002-0.50041 0.47147-0.84005
  -8   3  -5 8380.87 1894.43   1-0.08517-0.67394 0.92830-0.73875-0.36192-0.00687
   8   3   512356.79 1767.97   1 0.41848 0.34040-0.73657 0.92611 0.53135-0.16262
   8   3   6 3745.66 1014.76   1 0.20997 0.55476-0.56135 0.75103 0.80049-0.35802
   8  -3   6 1427.70  570.70   1-0.08796 0.85210-0.51271 0.32308 0.85404-0.41174
  -8  -3  -6 2529.41  809.38   1-0.83331 0.06949 0.44570-0.63517 0.32701-0.76923
  -8   3  -6 3326.62  930.20   1-0.63123-0.13318 0.63745-0.44789 0.44179-0.88411
  -8   3  -6 2426.56  967.18   1-0.09264-0.67232 0.92587-0.73631-0.36629-0.07626
   8   3   6 4674.43  999.47   1 0.41194 0.35278-0.74218 0.93172 0.52864-0.08616
   8   4  -7 3439.69 1005.45   1 0.89416-0.20604-0.38809 0.64083 0.22328-0.73951
   8  -4  -7 3339.07  924.60   1 0.74382-0.05546-0.49129 0.23846 0.45315-0.96956
  -8  -4   7 4424.74  769.54   1-0.48221-0.20559 0.72550-0.97831 0.49102 0.02498
  -8   4   7 3615.23 1065.69   1 0.12228-0.81101 0.83770-0.58480 0.53224-0.01588
   8   4  -6 1941.85  576.82   1 0.86476-0.17077-0.41625 0.66899 0.28090-0.72338
   8  -4  -6  490.20  350.41   1 0.67884 0.01538-0.51658 0.26375 0.52183-0.96446
  -8  -4   6  488.05  473.30   1-0.48522-0.20849 0.72403-0.97684 0.49022-0.04792
  -8   4   6 1409.73  567.19   1 0.11084-0.80543 0.83858-0.58568 0.53336-0.09076
   8   4  -5 4565.65  943.23   1 0.83058-0.13071-0.44267 0.69541 0.33788-0.70661
   8  -4  -5 3596.62  865.32   1 0.60768 0.09288-0.53635 0.28345 0.58569-0.95447
  -8  -4   5 5349.14 1017.44   1-0.49556-0.20405 0.71890-0.97171 0.48743-0.11884
  -8   4   5 4048.41  886.96   1 0.09195-0.79241 0.83979-0.58689 0.53505-0.16622
   8   4  -4 8493.11  827.51   1 0.79165-0.08591-0.46711 0.71985 0.39379-0.68878
   8  -4  -4 7301.30 1690.37   1 0.53127 0.17508-0.55142 0.29852 0.64318-0.93820
  -8  -4   4 8062.70  992.73   1-0.51244-0.19308 0.71022-0.96304 0.48267-0.18780
  -8   4   4 9941.63 1013.52   1 0.06540-0.77174 0.84097-0.58807 0.53710-0.24203
   8   4  -4 7490.42 1614.29   1 0.77770-0.07087-0.18673 0.43957 0.60026-0.89540
   8   4  -3 8043.27 1544.86   1 0.74828-0.03642-0.48927 0.74210 0.44798-0.66929
   8  -4  -310905.63  993.06   1 0.45158 0.26055-0.56117 0.30827 0.69364-0.91491
  -8  -4   3 9454.76  974.91   1-0.53510-0.17632 0.69798-0.95079 0.47590-0.25475
  -8   4   3 9051.31  915.78   1 0.03100-0.74321 0.84161-0.58871 0.53918-0.31788
   8   4  -3 9715.57  870.91   1 0.73284-0.02013-0.30579 0.55863 0.60780-0.82916
   8   4  -2 5891.66 1207.57   1 0.70064 0.01709-0.50892 0.76174 0.50010-0.64764
   8  -4  -2 8587.52 1653.01   1 0.37081 0.34724-0.56558 0.31268 0.73661-0.88410
  -8  -4   2 9813.78  949.87   1-0.56276-0.15457 0.68205-0.93486 0.46700-0.31957
  -8   4   2 6977.01 1365.65   1-0.01139-0.70667 0.84102-0.58812 0.54086-0.39333
   8   4  -2 7229.45 1392.64   1 0.68501 0.03291-0.40237 0.65513 0.60732-0.75479
   8   4  -1 7021.28 1333.30   1 0.64944 0.07416-0.52577 0.77860 0.54934-0.62311
   8  -4  -1 8655.15 1656.86   1 0.29090 0.43299-0.56557 0.31267 0.77168-0.84543
  -8  -4   111709.70 1171.84   1-0.59461-0.12863 0.66229-0.91510 0.45585-0.38213
  -8   4   1 6868.98 1386.98   1-0.06184-0.66209 0.83835-0.58545 0.54160-0.46783
  -8   4   1 6914.57 1325.05   1-0.13104-0.59297 0.91212-0.65938-0.38839 0.46215
   8   4  -1 8228.05 1598.00   1 0.63881 0.08492-0.48061 0.73337 0.60076-0.67450
   8   4   0 5178.54 1015.84   1 0.59550 0.13400-0.53917 0.79207 0.59553-0.59553
   8  -4   0 7525.36 1458.47   1 0.21403 0.51569-0.56165 0.30875 0.79920-0.79920
  -8  -4   0 5419.26 1107.89   1-0.62970-0.09932 0.63854-0.89129 0.44241-0.44241
  -8   4   0 6783.17 1425.03   1-0.12021-0.60959 0.83256-0.57966 0.54072-0.54072
  -8   4   0 5511.43 1344.47   1-0.08750-0.64237 0.92756-0.67481-0.36328 0.36328
   8   4   0 7477.06 1510.26   1 0.59650 0.13306-0.54244 0.79520 0.59155-0.59155
   8   4   1 1324.02  562.76   1 0.54010 0.19519-0.54998 0.80288 0.63702-0.56326
   8  -4   1 -131.33  406.52   1 0.14178 0.59338-0.55468 0.30184 0.81989-0.74617
  -8  -4  -1 1015.22  386.70   1-0.66738-0.06754 0.61062-0.86337 0.42629-0.50001
  -8   4  -1 1003.24  399.59   1-0.18614-0.54931 0.82224-0.56939 0.53782-0.61158
  -8   4  -1 1306.48  435.63   1-0.05860-0.67711 0.93634-0.68360-0.34614 0.27239
   8   4   1 1209.91  474.40   1 0.55945 0.17604-0.59053 0.84325 0.58162-0.50787
   8   4   2 6663.81 1506.47   1 0.48461 0.25647-0.55780 0.81070 0.67380-0.52628
   8  -4   2 2724.77  770.32   1 0.07603 0.66493-0.54571 0.29288 0.83451-0.68708
  -8  -4  -2 3384.23  874.20   1-0.70665-0.03417 0.57843-0.83118 0.40750-0.55493
  -8   4  -2 5683.95 1295.94   1-0.25908-0.48224 0.80658-0.55373 0.53131-0.67883
  -8   4  -2 5968.14 1802.06   1-0.04102-0.70054 0.94113-0.68838-0.33554 0.18802
   8   4   2 6100.98 1417.87   1 0.52844 0.21290-0.62728 0.88000 0.57207-0.42457
   8   4   3  758.33  391.98   1 0.43059 0.31627-0.56285 0.81575 0.70553-0.48426
   8  -4   3  207.61  498.73   1 0.01754 0.72921-0.53568 0.28284 0.84423-0.62309
  -8  -4  -3 1091.84  563.69   1-0.74660-0.00012 0.54188-0.79463 0.38593-0.60708
  -8   4  -3  412.24  324.73   1-0.33803-0.40916 0.78400-0.53115 0.52064-0.74193
  -8   4  -3  620.35  342.97   1-0.03242-0.71499 0.94331-0.69057-0.33030 0.10902
   8   4   3  561.68  660.76   1 0.50359 0.24359-0.65466 0.90738 0.56374-0.34250
   8   4   411584.53 1256.40   1 0.37981 0.37326-0.56531 0.81822 0.73223-0.43725
   8  -4   410482.87 1284.82   1-0.03313 0.78568-0.52543 0.27259 0.85019-0.55532
  -8  -4  -412603.28 1521.29   1-0.78638 0.03375 0.50091-0.75366 0.36151-0.65639
  -8   4  -410509.26 2702.17   1-0.03113-0.72213 0.94363-0.69089-0.32951 0.03447
   8   4   413519.36 1595.77   1 0.48477 0.26826-0.67428 0.92700 0.55707-0.26209
   8   4   511040.83 1060.97   1 0.33358 0.42532-0.56612 0.81902 0.75380-0.38508
   8  -4   512640.27 1391.24   1-0.07582 0.83417-0.51567 0.26283 0.85342-0.48484
  -8  -4  -5 9658.65 2623.36   1-0.82491 0.06697 0.45642-0.70905 0.33344-0.70196
  -8   4  -511938.53 1127.34   1-0.50868-0.24998 0.71219-0.45937 0.48375-0.85233
  -8   4  -511590.85 2085.29   1-0.03593-0.72318 0.94243-0.68969-0.33244-0.03635
   8  -4   6 7914.46 1216.04   1-0.11018 0.87482-0.50713 0.25429 0.85479-0.41233
  -8  -4  -6 7023.48 1798.69   1-0.86180 0.09798 0.40652-0.65915 0.30337-0.74559
  -8   4  -6 7544.05 1036.22   1-0.59673-0.16784 0.66092-0.40810 0.45507-0.89737
  -8   4  -6 5115.24 1388.86   1-0.04590-0.71906 0.93984-0.68710-0.33849-0.10405
   8   4   6 5084.86  919.84   1 0.46393 0.30079-0.69496 0.94768 0.54935-0.10687
   8   5  -7 2966.34  683.88   1 0.91303-0.22480-0.36631 0.68232 0.17939-0.69562
   8  -5  -7 4911.58  693.91   1 0.73231-0.04395-0.49634 0.18030 0.46622-0.98262
  -8  -5   7 4401.89  741.15   1-0.57285-0.11496 0.67596-0.99198 0.46358 0.05243
  -8   5   7 4500.30  922.67   1 0.16705-0.85587 0.83334-0.51707 0.52690-0.01061
   8   5  -6 4721.56  953.79   1 0.88878-0.19478-0.39373 0.70965 0.23460-0.67708
   8  -5  -6 7097.72  869.51   1 0.66437 0.02986-0.52126 0.20522 0.53562-0.97825
  -8  -5   6 6854.39  866.73   1-0.57223-0.12148 0.67634-0.99236 0.46379-0.02149
  -8   5   6 7447.06  995.20   1 0.15619-0.85087 0.83460-0.51833 0.52823-0.08570
   8   5  -5 1981.71  505.47   1 0.86024-0.16037-0.42007 0.73600 0.28897-0.65770
   8  -5  -5 3356.96  719.11   1 0.59046 0.11010-0.54029 0.22417 0.59952-0.96830
  -8  -5   5 3082.52  748.67   1-0.57880-0.12081 0.67229-0.98831 0.46151-0.09293
  -8   5   5 1750.63  527.86   1 0.13808-0.83862 0.83647-0.52020 0.53031-0.16153
   8   5  -5 1717.14  421.41   1 0.82127-0.12054-0.00502 0.32096 0.57051-0.93938
   8   5  -4 2587.88  701.91   1 0.82752-0.12178-0.44478 0.76071 0.34257-0.63756
   8  -5  -4 2010.96  639.58   1 0.51161 0.19473-0.55435 0.23822 0.65646-0.95148
  -8  -5   4 1327.26  502.77   1-0.59168-0.11384 0.66417-0.98019 0.45691-0.16205
  -8   5   4  955.78  500.79   1 0.11247-0.81880 0.83847-0.52234 0.53321-0.23814
   8   5  -4 1685.32  511.79   1 0.79339-0.08656-0.13355 0.44960 0.59387-0.88902
   8   5  -313365.62 1110.31   1 0.79074-0.07912-0.46763 0.78355 0.39501-0.61625
   8  -5  -312261.51 1106.46   1 0.43004 0.28209-0.56289 0.24677 0.70583-0.92710
  -8  -5   310813.43  972.35   1-0.61004-0.10138 0.65213-0.96815 0.45006-0.22891
  -8   5   313636.25 1243.02   1 0.07898-0.79119 0.84044-0.52431 0.53610-0.31480
   8   5  -311697.79  977.46   1 0.75744-0.04474-0.24508 0.56113 0.60515-0.82651
   8   5  -2 2869.86  790.27   1 0.75026-0.03252-0.48835 0.80439 0.44566-0.59320
   8  -5  -2  757.71  394.39   1 0.34806 0.36999-0.56602 0.24989 0.74730-0.89479
  -8  -5   2  509.56  406.62   1-0.63294-0.08428 0.63624-0.95218 0.44109-0.29366
  -8   5   2 2215.93  706.50   1 0.03742-0.75550 0.84157-0.52544 0.53884-0.39131
  -8   5   2 2145.14  546.06   1-0.11880-0.59937 0.91673-0.60080-0.38142 0.52893
   8   5  -2 2002.63  643.28   1 0.71787 0.00070-0.33883 0.65488 0.60815-0.75572
   8   5  -1 6137.90 1421.21   1 0.70631 0.01730-0.50679 0.82283 0.49424-0.56801
   8  -5  -1 8769.97  884.88   1 0.26761 0.45628-0.56478 0.24864 0.78064-0.85438
  -8   5   1 3878.62  935.10   1-0.01239-0.71154 0.84099-0.52487 0.54089-0.46713
   8   5  -1 5436.91 1255.91   1 0.67778 0.04596-0.41552 0.73146 0.60658-0.68032
   8   5   010655.18  969.91   1 0.65966 0.06982-0.52272 0.83875 0.54000-0.54000
   8  -5   012281.91 1093.37   1 0.19084 0.53888-0.55976 0.24363 0.80637-0.80637
  -8  -5   0 9337.54  891.09   1-0.68981-0.03921 0.59265-0.90859 0.41582-0.41582
  -8   5   0 9406.67  945.26   1-0.07052-0.65928 0.83767-0.52155 0.54159-0.54159
  -8   5   0 8676.89 2147.17   1-0.02412-0.70575 0.94533-0.62940-0.32521 0.32521
   8   5   015333.43 1382.77   1 0.64031 0.08925-0.47826 0.79421 0.60104-0.60104
   8   5   115608.04 1272.76   1 0.61122 0.12414-0.53598 0.85202 0.58234-0.50857
   8  -5   115628.39 1417.47   1 0.11920 0.61596-0.55188 0.23583 0.82535-0.75164
  -8  -5  -111438.98 1000.48   1-0.72199-0.01293 0.56489-0.88083 0.39953-0.47325
  -8   5  -115378.85 1300.29   1-0.13679-0.59866 0.83014-0.51408 0.54049-0.61425
  -8   5  -112707.09 1815.62   1-0.00006-0.73565 0.95064-0.63471-0.31029 0.23653
   8   5   115538.04 1322.80   1 0.60667 0.12870-0.52829 0.84424 0.59400-0.52027
   8   5   2 2278.62  540.64   1 0.56193 0.17915-0.54611 0.86223 0.62128-0.47376
   8  -5   2 1392.09  519.36   1 0.05444 0.68652-0.54223 0.22619 0.83845-0.69102
  -8   5  -2 1903.85  475.83   1-0.21084-0.53048 0.81748-0.50142 0.53596-0.68348
  -8   5  -2 1915.72  439.62   1 0.01340-0.75497 0.95326-0.63733-0.30183 0.15431
   8   5   2 1763.36  554.23   1 0.57776 0.16344-0.56743 0.88338 0.58669-0.43922
   8   5   3   12.79  240.66   1 0.51353 0.23334-0.55408 0.87020 0.65519-0.43392
  -8  -5  -3 1161.80  431.64   1-0.78973 0.04300 0.49721-0.81315 0.35930-0.58045
  -8   5  -3 1345.15  465.94   1-0.29185-0.45533 0.79794-0.48187 0.52735-0.74863
  -8   5  -3  414.76  380.60   1 0.01849-0.76591 0.95419-0.63826-0.29860 0.07733
   8   5   3  587.74  720.60   1 0.55392 0.19326-0.59730 0.91320 0.57999-0.35875
   8   5   4 3332.11  662.66   1 0.46736 0.28530-0.55967 0.87580 0.68434-0.38932
   8  -5   4 5513.47 1190.83   1-0.05223 0.80479-0.52119 0.20514 0.85183-0.55697
  -8  -5  -4 4897.71  991.56   1-0.82357 0.07150 0.45810-0.77388 0.33445-0.62927
  -8   5  -4 5199.61 1014.34   1-0.37873-0.37432 0.76992-0.45386 0.51359-0.80863
  -8   5  -4 3194.77  922.25   1 0.01678-0.77005 0.95388-0.63796-0.29969 0.00465
   8   5   4 5154.11 1045.14   1 0.53538 0.21764-0.61930 0.93520 0.57429-0.27931
   8  -5   5 2851.54  878.23   1-0.09368 0.85203-0.51128 0.19524 0.85428-0.48571
  -8  -5  -5 3813.65 1032.26   1-0.85657 0.09863 0.41406-0.72984 0.30793-0.67645
  -8   5  -5 2967.68  869.43   1-0.47015-0.28851 0.73127-0.41526 0.49415-0.86273
  -8   5  -5 2834.59 1116.20   1 0.00939-0.76851 0.95251-0.63658-0.30435-0.06443
   8   5   5 2193.93  767.73   1 0.52198 0.23689-0.63456 0.95046 0.56996-0.20123
   8   6  -6 3971.59 1264.39   1 0.91091-0.21679-0.36899 0.74820 0.18456-0.62704
   8  -6  -6 6475.29  912.48   1 0.65325 0.04097-0.52465 0.14540 0.54588-0.98852
  -8  -6   6 4736.43  742.94   1-0.65504-0.03859 0.62007-0.99919 0.43176 0.01054
  -8   6   6 5106.84  916.78   1 0.19461-0.88929 0.82968-0.45015 0.52321-0.08067
   8   6  -514019.67 1324.05   1 0.88796-0.18809-0.39456 0.77367 0.23628-0.60501
   8  -6  -514484.54 1343.95   1 0.57702 0.12354-0.54314 0.16379 0.60994-0.97872
  -8  -6   513479.64 1330.28   1-0.65769-0.04184 0.61806-0.99719 0.43061-0.06201
  -8   6   512950.84 1319.49   1 0.17731-0.87785 0.83206-0.45253 0.52557-0.15680
   8   6  -514616.78 1363.07   1 0.82679-0.12606 0.03468 0.34444 0.56142-0.93030
   8   6  -415986.10 1997.23   1 0.86140-0.15566-0.41910 0.79821 0.28692-0.58190
   8  -6  -417763.81 2193.67   1 0.49620 0.21014-0.55640 0.17705 0.66647-0.96150
  -8  -6   419335.50 2380.91   1-0.66642-0.03900 0.61137-0.99050 0.42672-0.13185
  -8   6   412137.32 1592.39   1 0.15264-0.85904 0.83499-0.45546 0.52865-0.23363
   8   6  -413681.45 1704.70   1 0.80619-0.09954-0.08381 0.46293 0.58568-0.88078
   8   6  -3  716.84  497.21   1 0.83138-0.11976-0.44211 0.82122 0.33664-0.55788
   8  -6  -3 1079.54  540.19   1 0.41320 0.29894-0.56398 0.18464 0.71496-0.93623
  -8  -6   3  931.82  558.61   1-0.68037-0.03095 0.60034-0.97947 0.42031-0.19915
  -8   6   3 1143.79  480.60   1 0.12022-0.83242 0.83787-0.45852 0.53245-0.31115
   8   6  -3  692.94  336.75   1 0.77760-0.06490-0.18702 0.56628 0.60029-0.82165
   8   6  -2 3105.33  691.03   1 0.79808-0.08059-0.46341 0.84252 0.38509-0.53258
   8  -6  -2 3047.43  707.28   1 0.33041 0.38764-0.56612 0.18676 0.75520-0.90269
  -8  -6   2 2804.06  693.98   1-0.69873-0.01850 0.58520-0.96433 0.41147-0.26403
  -8   6   2 3367.10  838.43   1 0.07972-0.79779 0.84041-0.46106 0.53604-0.38851
   8   6  -2 3899.80  771.00   1 0.74513-0.02655-0.27659 0.65584 0.60685-0.75442
   8   6  -1 8678.82  914.23   1 0.76197-0.03836-0.48277 0.86201 0.43165-0.50542
   8  -6  -1 5214.10  981.56   1 0.24976 0.47413-0.56393 0.18457 0.78714-0.86088
  -8  -6   1 5878.82 1091.83   1-0.72068-0.00244 0.56606-0.94519 0.40022-0.32650
  -8   6   1 6059.14 1086.74   1 0.03083-0.75477 0.84161-0.46226 0.53919-0.46542
  -8   6   1 4965.77 1305.85   1 0.00138-0.72540 0.95093-0.57182-0.30938 0.38314
   8   6  -1 8629.29  954.41   1 0.71152 0.01292-0.35211 0.73137 0.60806-0.68185
   8   6   0 1453.15  475.04   1 0.72331 0.00617-0.50010 0.87934 0.47614-0.47614
   8  -6   0 1189.49  469.06   1 0.17332 0.55640-0.55812 0.17876 0.81145-0.81145
  -8  -6   0 1290.88  564.84   1-0.74547 0.01643 0.54297-0.92210 0.38658-0.38658
  -8   6   0 2070.28  636.45   1-0.02663-0.70317 0.84044-0.46109 0.54123-0.54123
  -8   6   0 1330.98  366.05   1 0.03355-0.76342 0.95673-0.57762-0.28901 0.28901
   8   6   0 3060.68  762.43   1 0.67853 0.05103-0.41417 0.79331 0.60667-0.60667
   8   6   1 4362.99  790.00   1 0.68292 0.05244-0.51520 0.89444 0.51785-0.44408
   8  -6   1 6334.89 1155.93   1 0.10244 0.63273-0.54961 0.17036 0.82911-0.75539
  -8  -6  -1 3782.49  787.90   1-0.77230 0.03737 0.51599-0.89512 0.37053-0.44425
  -8   6  -1 6246.59 1135.46   1-0.09272-0.64295 0.83565-0.45630 0.54137-0.61513
  -8   6  -1 4659.67 1208.10   1 0.05310-0.78860 0.95921-0.58012-0.27763 0.20387
   8   6   1 8337.68 1100.06   1 0.64854 0.08684-0.46518 0.84431 0.60248-0.52875
   8   6   215271.44 1570.82   1 0.64173 0.09950-0.52798 0.90723 0.55624-0.40869
  -8  -6  -212601.92 2815.43   1-0.80042 0.06009 0.48587-0.86482 0.35106-0.49847
  -8   6  -212939.41 1418.93   1-0.16727-0.57405 0.82552-0.44624 0.53900-0.68653
  -8   6  -210111.39 2509.09   1 0.06283-0.80418 0.96043-0.58134-0.27130 0.12379
   8   6   217323.20 1925.97   1 0.62216 0.11904-0.50592 0.88506 0.59745-0.44999
   8  -6   3 8017.19 1245.56   1-0.01741 0.76417-0.52876 0.14951 0.84858-0.62744
  -8  -6  -3 5128.18 1201.30   1-0.82906 0.08286 0.45116-0.83011 0.33029-0.55140
  -8   6  -3 6940.70 1006.80   1-0.24968-0.49751 0.80887-0.42960 0.53232-0.75360
  -8   6  -3 3670.09 1417.56   1 0.06482-0.81203 0.96067-0.58157-0.27000 0.04873
   8   6   3 8695.51 1384.18   1 0.59995 0.14707-0.53769 0.91683 0.59240-0.37120
   8  -6   410865.79 1257.34   1-0.06563 0.81818-0.51809 0.13884 0.85280-0.55793
  -8  -6  -4 6864.85 2093.32   1-0.85757 0.10550 0.41263-0.79157 0.30707-0.60188
  -8   6  -411801.07 1213.11   1-0.33907-0.41399 0.78366-0.40438 0.52048-0.81552
  -8   6  -4 7342.16 1606.21   1 0.06050-0.81355 0.96015-0.58106-0.27282-0.02220
   8   6   410440.08 1135.18   1 0.58220 0.17065-0.56163 0.94077 0.58788-0.29295
   8   7  -5 3779.94 1389.23   1 0.91299-0.21297-0.36636 0.80876 0.17947-0.54821
   8  -7  -5 6326.68  919.22   1 0.56764 0.13292-0.54501 0.10244 0.61703-0.98581
  -8  -7   5 3805.03 1074.96   1-0.73079 0.03125 0.55685-0.99916 0.39479-0.02619
  -8   7   5 5613.17 1056.45   1 0.20992-0.91046 0.82735-0.38457 0.52097-0.15220
   8   7  -5 5997.61  835.04   1 0.83087-0.13014 0.07371 0.36859 0.55156-0.92043
   8   7  -4  407.97  352.12   1 0.89240-0.18665-0.38996 0.83226 0.22703-0.52201
   8  -7  -4 2039.39  604.65   1 0.48524 0.22110-0.55773 0.11515 0.67340-0.96842
  -8  -7   4 2222.59  565.43   1-0.73548 0.03004 0.55248-0.99479 0.39220-0.09733
  -8   7   4  793.93  734.59   1 0.18622-0.89262 0.83086-0.38808 0.52438-0.22935
   8   7  -4 1033.27  354.62   1 0.81617-0.10952-0.03507 0.47737 0.57674-0.87184
   8   7  -3 5902.76  948.13   1 0.86900-0.15738-0.41255 0.85485 0.27318-0.49442
   8  -7  -3 7338.64 1034.80   1 0.40117 0.31097-0.56463 0.12206 0.72127-0.94254
  -8  -7   3 8167.15 1113.41   1-0.74514 0.03380 0.54329-0.98561 0.38676-0.16561
  -8   7   3 5995.23  967.00   1 0.15494-0.86720 0.83474-0.39196 0.52838-0.30711
   8   7  -3 5070.17  918.39   1 0.79398-0.08128-0.13135 0.57382 0.59357-0.81493
   8   7  -2 3088.70  676.43   1 0.84299-0.12550-0.43370 0.87600 0.31819-0.46568
   8  -7  -2 6248.76 1003.47   1 0.31790 0.40015-0.56606 0.12347 0.76060-0.90809
  -8  -7   2 3890.57  876.00   1-0.75896 0.04173 0.52968-0.97199 0.37868-0.23124
  -8   7   2 3365.31  995.62   1 0.11555-0.83362 0.83824-0.39566 0.53291-0.38538
   8   7  -2 3193.67  686.13   1 0.76778-0.04921-0.21644 0.65891 0.60303-0.75060
   8   7  -1  625.41  366.34   1 0.81468-0.09131-0.45327 0.89557 0.36170-0.43544
   8  -7  -1  940.87  426.48   1 0.23727 0.48661-0.56323 0.12064 0.79149-0.86524
  -8  -7   1 1233.30  450.83   1-0.77618 0.05305 0.51190-0.95421 0.36808-0.29436
  -8   7   1  225.42  401.81   1 0.06777-0.79171 0.84089-0.39831 0.53693-0.46317
  -8   7   1  414.19  275.54   1 0.05772-0.78152 0.95981-0.51753-0.27463 0.34839
   8   7  -1  565.36  412.84   1 0.73979-0.01534-0.28952 0.73199 0.60735-0.68113
   8   7   0 2697.75  643.54   1 0.78462-0.05513-0.47104 0.91349 0.40309-0.40309
   8  -7   0 4718.55  985.85   1 0.16132 0.56840-0.55689 0.11430 0.81476-0.81476
  -8   7   0 3792.96  808.23   1 0.01122-0.74103 0.84153-0.39895 0.54009-0.54009
  -8   7   0 3148.72  919.98   1 0.08467-0.81432 0.96270-0.52042-0.25696 0.25696
   8   7   0 5548.77 1144.26   1 0.71197 0.01836-0.35119 0.79366 0.60807-0.60807
   8   7   1 2076.19  467.83   1 0.75314-0.01777-0.48701 0.92946 0.44225-0.36848
   8  -7   1 3714.10  816.06   1 0.09124 0.64393-0.54800 0.10554 0.83148-0.75776
  -8  -7  -1 3972.18 1079.43   1-0.81792 0.08346 0.46509-0.90719 0.33864-0.41234
  -8   7  -1 2904.33  635.16   1-0.05429-0.68138 0.83889-0.39631 0.54158-0.61534
  -8   7  -1 3162.74  809.23   1 0.09994-0.83544 0.96389-0.52161-0.24680 0.17305
   8   7   1 3490.58  738.78   1 0.68526 0.05011-0.40191 0.84424 0.60734-0.53361
   8  -7   2  312.83  445.58   1 0.02850 0.71246-0.53770 0.09524 0.84264-0.69521
  -8  -7  -2  634.64  377.48   1-0.84092 0.10059 0.43567-0.87777 0.32097-0.46838
  -8   7  -2  261.94  326.83   1-0.12880-0.61274 0.83146-0.38888 0.54044-0.68797
  -8   7  -2  152.62  289.07   1 0.10626-0.84762 0.96429-0.52201-0.24256 0.09505
   8   7   2 1379.83  842.60   1 0.66166 0.07954-0.44353 0.88586 0.60453-0.45707
   8  -7   3 5101.84  931.82   1-0.02653 0.77330-0.52684 0.08438 0.84954-0.62839
  -8  -7  -3 3522.65 1275.55   1-0.86450 0.11830 0.40255-0.84465 0.30097-0.52208
  -8   7  -3 5583.53  819.02   1-0.21211-0.53507 0.81722-0.37473 0.53586-0.75714
  -8   7  -3 2568.42 1211.93   1 0.10547-0.85268 0.96424-0.52196-0.24309 0.02182
   8  -7   4 6929.99 1187.84   1-0.07370 0.82626-0.51618 0.07372 0.85330-0.55843
  -8  -7  -4 4441.56 1132.51   1-0.88801 0.13593 0.36578-0.80788 0.27863-0.57345
  -8   7  -4 7364.08  976.67   1-0.30340-0.44965 0.79465-0.35216 0.52580-0.82084
  -8   7  -4 5293.79 1779.78   1 0.09884-0.85190 0.96382-0.52154-0.24754-0.04748
   8   8  -4 2191.28  421.73   1 0.91965-0.21372-0.35751 0.86312 0.16255-0.45754
   8  -8  -4 2440.48  601.90   1 0.47889 0.22746-0.55845 0.05265 0.67733-0.97236
  -8  -8   4 1454.41  386.33   1-0.79792 0.09281 0.48873-0.99399 0.35277-0.05795
   8   8  -4 2877.41  558.70   1 0.82381-0.11716 0.01201 0.49347 0.56673-0.86183
   8   8  -3 2584.27  761.43   1 0.90250-0.19088-0.37881 0.88429 0.20488-0.42612
   8  -8  -3 2625.95  818.70   1 0.39404 0.31810-0.56497 0.05917 0.72493-0.94620
  -8  -8   3 1328.99  585.14   1-0.80358 0.09260 0.48221-0.98747 0.34888-0.12777
   8   8  -3 2188.74  720.58   1 0.80736-0.09479-0.07861 0.58410 0.58479-0.80612
   8   8  -2 6021.67  743.10   1 0.88351-0.16601-0.39902 0.90450 0.24532-0.39281
   8  -8  -2 5028.73 1022.61   1 0.31051 0.40754-0.56597 0.06016 0.76370-0.91119
  -8  -8   2 4050.98 1053.92   1-0.81317 0.09632 0.47086-0.97612 0.34210-0.19469
  -8   8   2 5667.67  780.26   1 0.14521-0.86333 0.83577-0.32973 0.52951-0.38200
   8   8  -2 6023.42  727.91   1 0.78640-0.06782-0.15832 0.66400 0.59707-0.74464
   8   8  -117981.42 1616.08   1 0.86296-0.13959-0.41778 0.92327 0.28414-0.35788
   8  -8  -118942.36 1774.42   1 0.23006 0.49383-0.56277 0.05696 0.79394-0.86769
  -8  -8   115553.45 2772.37   1-0.82597 0.10325 0.45509-0.96035 0.33265-0.25895
  -8   8   122023.40 2025.81   1 0.09851-0.82245 0.83941-0.33360 0.53449-0.46072
   8   8  -119642.95 1810.25   1 0.76351-0.03905-0.22854 0.73422 0.60399-0.67778
   8  -8   014063.98 1426.29   1 0.15465 0.57507-0.55617 0.05035 0.81655-0.81655
  -8  -8   012969.49 2053.35   1-0.84128 0.11269 0.43519-0.94045 0.32069-0.32069
  -8   8   016904.41 1629.18   1 0.04303-0.77284 0.84150-0.33570 0.53853-0.53853
  -8   8   0 7943.12 2550.57   1 0.12877-0.85842 0.96526-0.45979-0.22734 0.22734
   8   8   015390.71 1498.13   1 0.74013-0.00980-0.28871 0.79439 0.60732-0.60732
   8  -8   1  185.95  467.04   1 0.08536 0.64981-0.54713 0.04146 0.83267-0.75896
  -8  -8  -1 1383.98  569.77   1-0.85845 0.12399 0.41137-0.91663 0.30631-0.38001
  -8   8  -1  795.61  386.87   1-0.02169-0.71398 0.84065-0.33485 0.54113-0.61489
  -8   8  -1 1032.17  344.43   1 0.14038-0.87588 0.96548-0.46001-0.21940 0.14564
   8   8   1 1371.83  755.45   1 0.71761 0.01858-0.33937 0.84504 0.60815-0.53436
   8  -8   2 2462.49  860.22   1 0.02355 0.71741-0.53680 0.03113 0.84338-0.69594
  -8  -8  -2  636.61  440.25   1-0.87683 0.13650 0.38378-0.88904 0.28959-0.43699
  -8   8  -2  951.72  386.30   1-0.09587-0.64567 0.83533-0.32952 0.54131-0.68885
  -8   8  -2  588.53  415.94   1 0.14381-0.88516 0.96551-0.46004-0.21703 0.06952
   8   8   2 1444.06  828.96   1 0.69641 0.04479-0.38087 0.88639 0.60822-0.46075
   9   0  -6 7820.72 1151.87   1 0.76121 0.02420-0.48314 0.48314 0.43257-0.87520
  -9   0   6 7075.39 1075.20   1-0.21576-0.56984 0.81647-0.81647 0.53555-0.09299
   9   0  -5 2677.38  720.92   1 0.71014 0.08115-0.50533 0.50533 0.49023-0.85909
  -9   0   5 1120.68  582.97   1-0.23282-0.55864 0.81278-0.81278 0.53401-0.16521
   9   0  -4  320.29  403.34   1 0.65476 0.14240-0.52420 0.52420 0.54451-0.83960
  -9   0   4 2255.89  685.51   1-0.25655-0.54078 0.80721-0.80721 0.53159-0.23654
   9   0  -3 5189.38  920.39   1 0.59605 0.20728-0.53905 0.53905 0.59509-0.81636
  -9   0   3 3461.60  720.60   1-0.28661-0.51659 0.79939-0.79939 0.52803-0.30675
   9   0  -242590.05 3176.65   1 0.53481 0.27430-0.55085 0.55085 0.64072-0.78823
  -9   0   243416.54 3246.93   1-0.32261-0.48645 0.78889-0.78889 0.52303-0.37551
   9   0  -244682.62 3276.31   1 0.52191 0.28725-0.63464 0.63464 0.56993-0.71743
   9   0  -119284.48 1668.63   1 0.47245 0.34245-0.55915 0.55915 0.68127-0.75503
  -9   0   116506.10 1517.81   1-0.36407-0.45085 0.77519-0.77519 0.51626-0.44249
   9   0  -116326.56 1347.04   1 0.46043 0.35458-0.69834 0.69834 0.54801-0.62176
   9   0   0 1019.89  470.91   1 0.41034 0.41034-0.56415 0.56415 0.71648-0.71648
  -9   0   0  308.20  414.30   1-0.41014-0.41014 0.75741-0.75741 0.50804-0.50804
   9   0   0 1511.46  595.30   1 0.41042 0.41042-0.74347 0.74347 0.52801-0.52801
   9   0   1  396.49  651.78   1 0.35010 0.47667-0.56600 0.56600 0.74636-0.67262
  -9   0  -1 2146.00  648.63   1-0.46068-0.36550 0.73568-0.73568 0.49652-0.57024
   9   0   2 2017.53  707.67   1 0.29281 0.53980-0.56562 0.56562 0.77092-0.62343
  -9   0  -2  422.30  398.69   1-0.51452-0.31757 0.70913-0.70913 0.48207-0.62950
   9   0   3 4621.53  904.08   1 0.23980 0.59865-0.56338 0.56338 0.79063-0.56939
  -9   0  -3 5677.50  908.92   1-0.57071-0.26729 0.67726-0.67726 0.46431-0.68546
   9   0   4 4832.44  746.66   1 0.19207 0.65222-0.55987 0.55987 0.80600-0.51102
  -9   0  -4 7684.65 1116.66   1-0.62822-0.21552 0.63958-0.63958 0.44301-0.73789
   9   1  -6 2043.47  773.46   1 0.78486 0.00055-0.47091 0.53412 0.40277-0.84540
   9  -1  -6 1123.00  468.52   1 0.73885 0.04656-0.49350 0.43030 0.45885-0.90148
  -9  -1   6 3422.23 1020.32   1-0.28687-0.49873 0.79932-0.86253 0.52799-0.08543
  -9   1   6 1819.13  737.31   1-0.14917-0.63643 0.82836-0.76515 0.53995-0.09739
   9   1  -5  218.50  411.44   1 0.73796 0.05333-0.49389 0.55710 0.45986-0.82872
  -9  -1   5 1179.14  609.04   1-0.30261-0.48886 0.79488-0.85809 0.52591-0.15711
  -9   1   5 1163.64  475.82   1-0.16708-0.62438 0.82555-0.76234 0.53902-0.17021
   9   1  -4 2045.34  569.27   1 0.68675 0.11041-0.51388 0.57709 0.51408-0.80917
   9  -1  -4  423.72  407.88   1 0.62482 0.17234-0.53256 0.46935 0.57093-0.86602
  -9  -1   4 2386.81  696.72   1-0.32483-0.47250 0.78820-0.85141 0.52270-0.22766
  -9   1   4 2442.82  548.27   1-0.19179-0.60554 0.82120-0.75799 0.53743-0.24238
   9   1  -3 1637.51  728.44   1 0.63194 0.17110-0.53068 0.59388 0.56482-0.78614
   9  -1  -3 1345.08  473.40   1 0.56263 0.24069-0.54597 0.48275 0.62076-0.84203
  -9  -1   3  890.49  586.90   1-0.35312-0.45007 0.77898-0.84219 0.51816-0.29687
  -9   1   3 1005.76  443.18   1-0.22306-0.58013 0.81492-0.75171 0.53491-0.31363
   9   1  -3  125.98  251.89   1 0.63789 0.16540-0.48205 0.54524 0.60059-0.82179
   9   1  -2 2864.36  745.39   1 0.57450 0.23461-0.54365 0.60688 0.61186-0.75937
   9  -1  -2 2328.28  631.81   1 0.49828 0.31083-0.55613 0.49291 0.66514-0.81266
  -9  -1   2 2924.44  766.43   1-0.38657-0.42191 0.76656-0.82976 0.51278-0.36534
  -9   1   2 2467.14  693.84   1-0.26061-0.54845 0.80620-0.74299 0.53114-0.38362
   9   1  -2 2203.87  526.25   1 0.57200 0.23712-0.57485 0.63804 0.58511-0.73258
   9  -1  -2 1695.76  434.34   1 0.46677 0.34239-0.69221 0.62903 0.55042-0.69791
   9   1  -1 2844.64  651.68   1 0.51540 0.29950-0.55381 0.61704 0.65394-0.72770
   9  -1  -1 3342.37  724.45   1 0.43331 0.38159-0.56265 0.49943 0.70402-0.77778
  -9  -1   1 5233.78 1015.04   1-0.42558-0.38880 0.75108-0.81428 0.50472-0.43100
  -9   1   1 4480.93  866.29   1-0.30404-0.51088 0.79446-0.73125 0.52571-0.45195
   9   1  -1 3990.12  768.73   1 0.51447 0.30053-0.64288 0.70606 0.56746-0.64120
   9  -1  -1 4303.99  819.96   1 0.40263 0.41238-0.75002 0.68684 0.52473-0.59848
   9   1   0 2383.22  679.18   1 0.45598 0.36471-0.56077 0.62400 0.69108-0.69108
   9  -1   0 3875.26  818.35   1 0.36934 0.45160-0.56562 0.50240 0.73732-0.73732
  -9  -1   0 4361.10  933.58   1-0.46896-0.35132 0.73183-0.79503 0.49445-0.49445
   9   1   0 3103.16  586.33   1 0.46618 0.35467-0.69278 0.75596 0.55020-0.55020
   9   1   1  965.14  469.73   1 0.39762 0.42885-0.56480 0.62803 0.72310-0.64934
   9  -1   1 1228.27  727.41   1 0.30759 0.51919-0.56593 0.50270 0.76492-0.69117
  -9  -1  -1  312.58  367.01   1-0.51596-0.31022 0.70836-0.77157 0.48165-0.55536
  -9   1  -1  125.85  382.86   1-0.40614-0.42005 0.75900-0.69580 0.50887-0.58259
   9   1   1  657.19  414.64   1 0.42706 0.39964-0.72906 0.79224 0.53486-0.46111
   9   1   2 4755.02  878.69   1 0.34188 0.49073-0.56608 0.62931 0.75010-0.60261
   9  -1   2 6856.19  900.59   1 0.24950 0.58311-0.56392 0.50069 0.78723-0.63974
  -9  -1  -2 6190.74 1259.64   1-0.56575-0.26635 0.68026-0.74347 0.46600-0.61343
  -9   1  -2 6736.97  866.34   1-0.46358-0.36851 0.73434-0.67114 0.49580-0.64324
   9   1   2 5539.64 1012.45   1 0.39653 0.43601-0.75506 0.81824 0.52214-0.37465
   9   1   310052.42 1330.69   1 0.28970 0.54875-0.56554 0.62877 0.77215-0.55092
   9  -1   310807.93 1496.12   1 0.19620 0.64224-0.56023 0.49700 0.80476-0.58352
  -9  -1  -310369.54 1368.84   1-0.61737-0.22048 0.64710-0.71029 0.44732-0.66848
  -9   1  -310468.40 1376.67   1-0.52394-0.31405 0.70409-0.64089 0.47929-0.70044
   9   1   4 2110.36  684.72   1 0.24231 0.60197-0.56352 0.62675 0.78975-0.49477
   9  -1   4  951.09  480.59   1 0.14860 0.69568-0.55549 0.49226 0.81813-0.52315
  -9  -1  -4 1457.49  553.06   1-0.66993-0.17382 0.60864-0.67183 0.42514-0.72001
  -9   1  -4 3339.54 1044.34   1-0.58617-0.25773 0.66768-0.60448 0.45890-0.75377
   9   2  -6 3442.29 1086.28   1 0.80921-0.02406-0.45671 0.58308 0.36957-0.81205
   9  -2  -6 2821.56  895.90   1 0.71822 0.06719-0.50216 0.37574 0.48164-0.92428
  -9   2   6 2837.20  853.69   1-0.08823-0.69759 0.83609-0.70964 0.54143-0.09883
   9   2  -5 6301.35  807.39   1 0.76687 0.02442-0.48034 0.60675 0.42564-0.79451
   9  -2  -5 5864.28  765.93   1 0.65985 0.13143-0.52266 0.39624 0.53982-0.90868
  -9  -2   5 8703.52 1121.62   1-0.37532-0.41614 0.77116-0.89759 0.51422-0.14542
  -9   2   5 5804.04  743.05   1-0.10653-0.68515 0.83418-0.70773 0.54110-0.17226
   9   2  -4 1558.74  612.47   1 0.72022 0.07694-0.50135 0.62777 0.47949-0.77458
   9  -2  -4 1119.74  592.40   1 0.59762 0.19992-0.53869 0.41224 0.59384-0.88886
  -9  -2   4 1669.53  637.67   1-0.39487-0.40180 0.76341-0.88981 0.51115-0.21628
  -9   2   4 1638.90  498.59   1-0.13171-0.66584 0.83107-0.70462 0.54033-0.24526
   9   2  -3 7411.49 1025.54   1 0.66992 0.13312-0.51950 0.64591 0.53039-0.75171
   9  -2  -311616.86 1333.19   1 0.53228 0.27105-0.55126 0.42481 0.64248-0.86375
  -9  -2   312607.86 1510.36   1-0.42095-0.38162 0.75301-0.87941 0.50573-0.28458
  -9   2   3 8752.97 1143.70   1-0.16344-0.63976 0.82614-0.69972 0.53922-0.31794
   9   2  -3 8544.88  944.68   1 0.67511 0.12818-0.42027 0.54665 0.60628-0.82748
   9   2  -2 3447.01  666.02   1 0.61672 0.19219-0.53462 0.66104 0.57777-0.72531
   9  -2  -2 5938.50 1083.46   1 0.46537 0.34375-0.55987 0.43342 0.68553-0.83305
  -9  -2   2 5615.80 1011.61   1-0.45226-0.35621 0.73950-0.86591 0.49857-0.35114
  -9   2   2 3855.34  783.43   1-0.20199-0.60707 0.81925-0.69283 0.53667-0.38915
   9   2  -2 2339.81  495.02   1 0.61679 0.19232-0.51379 0.64017 0.59630-0.74376
   9  -2  -2 5837.57  929.24   1 0.40740 0.40176-0.74602 0.61966 0.52674-0.67423
   9   2  -1  768.09  434.31   1 0.56160 0.25330-0.54617 0.67262 0.62152-0.69528
   9  -2  -1 1471.47  532.43   1 0.39838 0.41653-0.56477 0.43832 0.72271-0.79647
  -9  -2   1  967.61  439.76   1-0.48819-0.32619 0.72257-0.84898 0.48943-0.41571
   9   2  -1 1826.06  676.83   1 0.56404 0.25089-0.58490 0.71128 0.58286-0.65660
   9   2   0 8763.65  889.56   1 0.50562 0.31506-0.55517 0.68162 0.66039-0.66039
   9  -2   0 8672.39 1031.83   1 0.33301 0.48793-0.56612 0.43966 0.75406-0.75406
  -9  -2   0 8200.71 1074.28   1-0.52804-0.29224 0.70187-0.82828 0.47806-0.47806
  -9   2   0 8252.50  837.45   1-0.29747-0.52332 0.79635-0.66993 0.52661-0.52661
   9   2   010458.36 1055.37   1 0.51844 0.30241-0.63850 0.76486 0.56879-0.56879
   9   2   116562.27 1762.87   1 0.45010 0.37638-0.56130 0.68775 0.69450-0.62075
   9  -2   117095.80 1851.03   1 0.27041 0.55636-0.56489 0.43844 0.77959-0.70584
  -9  -2  -116367.47 1790.63   1-0.57106-0.25513 0.67705-0.80346 0.46419-0.53791
  -9   2  -116996.05 1777.27   1-0.35340-0.47326 0.77888-0.65246 0.51811-0.59187
   9   2   119047.99 1979.85   1 0.48047 0.34623-0.67864 0.80500 0.55551-0.48176
   9   2   213639.89 1820.45   1 0.39635 0.43591-0.56486 0.69131 0.72375-0.57624
   9  -2   213040.43 1677.73   1 0.21201 0.62060-0.56150 0.43505 0.79985-0.65236
  -9  -2  -214103.66 1843.81   1-0.61638-0.21557 0.64778-0.77415 0.44771-0.59515
  -9   2  -215000.13 1937.57   1-0.41375-0.41834 0.75595-0.62955 0.50728-0.65471
   9   2   215636.47 2036.22   1 0.45003 0.38251-0.70818 0.83453 0.54400-0.39651
   9   2   3 1169.79  392.02   1 0.34587 0.49258-0.56605 0.69250 0.74830-0.52706
   9  -2   3  837.78  479.55   1 0.15884 0.67961-0.55662 0.43017 0.81543-0.59420
  -9  -2  -3 1617.06  638.06   1-0.66324-0.17460 0.61383-0.74020 0.42815-0.64931
  -9   2  -3  574.12  362.20   1-0.47784-0.36016 0.72761-0.60121 0.49217-0.71332
   9   2   3  601.98  635.87   1 0.42673 0.41166-0.72935 0.85571 0.53473-0.31349
   9   2   4 3442.70  988.40   1 0.29947 0.54481-0.56578 0.69223 0.76824-0.47326
   9  -2   4 3034.22  971.75   1 0.11124 0.73247-0.55082 0.42440 0.82717-0.53231
  -9  -2  -4 4707.07  898.29   1-0.71067-0.13307 0.57493-0.70131 0.40544-0.70032
  -9   2  -4 4793.29  749.74   1-0.54443-0.29947 0.69273-0.56632 0.47298-0.76784
   9   2   4 1410.05  604.68   1 0.41001 0.43423-0.74382 0.87018 0.52783-0.23285
   9   3  -6 1586.02  572.99   1 0.83392-0.04877-0.44032 0.62987 0.33268-0.77515
   9  -3  -6 2506.19  514.44   1 0.69973 0.08568-0.50925 0.31963 0.50102-0.94366
  -9  -3   6 3045.41  625.59   1-0.43726-0.34760 0.74612-0.93573 0.50209-0.05979
  -9   3   6 1075.81  620.25   1-0.03275-0.75307 0.84016-0.65048 0.54134-0.09874
   9   3  -5 7528.54  856.78   1 0.79619-0.00516-0.46452 0.65407 0.38768-0.75641
   9  -3  -5 8129.73 1183.59   1 0.63829 0.15300-0.52894 0.33932 0.55928-0.92814
  -9  -3   5 5144.80 1019.09   1-0.44893-0.34183 0.74100-0.93061 0.49937-0.13079
  -9   3   5 9439.83 1180.98   1-0.05114-0.74054 0.83910-0.64942 0.54156-0.17273
   9   3  -418279.94 2236.04   1 0.75454 0.04263-0.48635 0.67597 0.44060-0.73569
   9  -3  -418322.05 2280.14   1 0.57323 0.22431-0.54391 0.35423 0.61282-0.90785
  -9  -3   419499.89 2423.11   1-0.46668-0.32999 0.73290-0.92251 0.49503-0.20016
  -9   3   418301.91 2357.79   1-0.07646-0.72109 0.83717-0.64750 0.54155-0.24649
   9   3  -319564.34 2375.33   1 0.70919 0.09384-0.50569 0.69532 0.49122-0.71254
   9  -3  -318644.73 2270.12   1 0.50538 0.29795-0.55520 0.36553 0.66055-0.88182
  -9  -3   324743.92 2999.59   1-0.48992-0.31265 0.72172-0.91133 0.48896-0.26781
  -9   3   321567.80 2619.96   1-0.10867-0.69475 0.83394-0.64426 0.54104-0.31974
   9   3  -321560.63 2568.36   1 0.70729 0.09669-0.36074 0.55037 0.60793-0.82929
   9   3  -2 1249.47  445.16   1 0.66087 0.14804-0.52234 0.71196 0.53888-0.68642
   9  -3  -2  714.15  576.88   1 0.43643 0.37269-0.56242 0.37275 0.70228-0.84979
  -9  -3   2 1597.98  636.94   1-0.51806-0.29041 0.70725-0.89686 0.48103-0.33360
  -9   3   2 1281.71  444.88   1-0.14752-0.66154 0.82861-0.63897 0.54003-0.39251
   9   3  -2  473.45  330.02   1 0.65627 0.15285-0.45256 0.64213 0.60373-0.75120
   9   3  -1 1127.17  451.37   1 0.61037 0.20442-0.53619 0.72581 0.58304-0.65681
   9  -3  -1 2462.00  602.55   1 0.36809 0.44702-0.56566 0.37598 0.73792-0.81167
  -9  -3   1 3762.74  740.30   1-0.55044-0.26394 0.68928-0.87889 0.47105-0.39733
  -9   3   1 1929.27  525.89   1-0.19320-0.62173 0.82094-0.63130 0.53732-0.46356
   9   3  -1 3380.90  694.11   1 0.60882 0.20611-0.52525 0.71482 0.59450-0.66823
   9   3   0 6162.66 1161.92   1 0.55862 0.26207-0.54673 0.73640 0.62371-0.62371
   9  -3   0 5802.13 1060.81   1 0.30165 0.51929-0.56582 0.37614 0.76736-0.76736
  -9  -3   0 6975.48  996.78   1-0.58636-0.23392 0.66756-0.85717 0.45883-0.45883
  -9   3   0 5779.05 1013.83   1-0.24517-0.57562 0.80994-0.62031 0.53279-0.53279
   9   3   0 5873.38 1044.47   1 0.56662 0.25414-0.58167 0.77124 0.58360-0.58360
   9   3   1  774.67  481.74   1 0.50680 0.31968-0.55501 0.74468 0.65962-0.58586
   9  -3   1   85.44  419.41   1 0.23864 0.58813-0.56331 0.37363 0.79102-0.71728
  -9  -3  -1 1654.33  635.18   1-0.62500-0.20104 0.64183-0.83140 0.44430-0.51802
  -9   3  -1  246.17  364.84   1-0.30297-0.52369 0.79477-0.60514 0.52586-0.59962
   9   3   1 -260.86  418.62   1 0.53054 0.29615-0.62488 0.81442 0.57275-0.49900
   9   3   2  617.73  359.59   1 0.45614 0.37612-0.56076 0.75043 0.69099-0.54348
   9  -3   2 1044.62  509.11   1 0.18029 0.65233-0.55879 0.36911 0.80946-0.66197
  -9  -3  -2  812.17  428.27   1-0.66574-0.16621 0.61190-0.80146 0.42703-0.57447
  -9   3  -2 1251.49  538.58   1-0.36592-0.46660 0.77453-0.58490 0.51593-0.66345
   9   3   2 1638.57  642.65   1 0.50090 0.33164-0.65752 0.84706 0.56281-0.41531
   9   3   3 4300.37  877.16   1 0.40791 0.43015-0.56428 0.75396 0.71776-0.49649
   9  -3   3 1242.92  714.78   1 0.12714 0.71078-0.55289 0.36327 0.82348-0.60234
  -9  -3  -3  987.57  392.87   1-0.70766-0.13019 0.57756-0.76712 0.40698-0.62814
  -9   3  -3 2738.86  638.94   1-0.43316-0.40484 0.74788-0.55827 0.50303-0.72418
   9   3   3 3096.47  865.97   1 0.47758 0.36081-0.68154 0.87108 0.55445-0.33321
   9   3   4  101.96  301.48   1 0.36350 0.48078-0.56576 0.75544 0.74011-0.44513
   9  -3   4  405.39  633.29   1 0.08055 0.76317-0.54641 0.35678 0.83363-0.53877
  -9  -3  -4  633.58  384.34   1-0.74992-0.09383 0.53865-0.72821 0.38401-0.67889
  -9   3  -4  254.57  448.43   1-0.50369-0.34021 0.71477-0.52516 0.48517-0.78003
  -9   3  -4  666.86  388.47   1-0.15236-0.69213 0.90359-0.71403-0.40037 0.10533
   9   3   4 1317.97  503.86   1 0.46028 0.38395-0.69847 0.88801 0.54796-0.25297
   9   4  -5  958.48  573.41   1 0.82550-0.03448-0.44616 0.69890 0.34565-0.71438
   9  -4  -5 2428.77  817.58   1 0.61961 0.17167-0.53390 0.28107 0.57534-0.94420
  -9  -4   5 2253.94  719.77   1-0.52341-0.26735 0.70438-0.95719 0.47945-0.11086
  -9   4   5 1293.12  661.46   1-0.00156-0.79012 0.84130-0.58839 0.54056-0.17173
   9   4  -4 2217.32  654.56   1 0.78889 0.00800-0.46867 0.72141 0.39747-0.69246
   9  -4  -4 2853.58  736.98   1 0.55216 0.24538-0.54790 0.29500 0.62842-0.92344
  -9  -4   4 2631.35  652.98   1-0.53817-0.25849 0.69626-0.94907 0.47494-0.18008
  -9   4   4 2905.44  773.60   1-0.02672-0.77083 0.84044-0.58754 0.54123-0.24617
   9   4  -311983.91 1522.77   1 0.74899 0.05405-0.48894 0.74177 0.44715-0.66846
   9  -4  -310649.20 1394.31   1 0.48225 0.32108-0.55807 0.30517 0.67526-0.89653
  -9  -4   3 9575.30 1379.36   1-0.55817-0.24440 0.68477-0.93758 0.46853-0.24738
  -9   4   312812.89 1702.89   1-0.05885-0.74457 0.83857-0.58567 0.54159-0.32029
   9   4  -310772.79 1368.20   1 0.73450 0.06948-0.30196 0.55479 0.60771-0.82907
   9   4  -210110.77 1358.98   1 0.70605 0.10286-0.50689 0.75972 0.49451-0.64205
   9  -4  -210453.54 1462.47   1 0.41171 0.39740-0.56407 0.31117 0.71575-0.86327
  -9  -4   2 5549.98 1092.83   1-0.58276-0.22572 0.66983-0.92264 0.46012-0.31268
  -9   4   2 7470.48 1069.02   1-0.09796-0.71133 0.83511-0.58221 0.54128-0.39374
   9   4  -2 8649.67 1141.90   1 0.69066 0.11845-0.39185 0.64460 0.60781-0.75527
   9   4  -1 4158.43  852.06   1 0.66084 0.15395-0.52235 0.77518 0.53891-0.61268
  -9  -4   1 2406.46  618.43   1-0.61115-0.20310 0.65132-0.90407 0.44973-0.37601
  -9   4   1 3419.24  737.54   1-0.14387-0.67105 0.82914-0.57629 0.54019-0.46643
   9   4  -1 1801.69  482.03   1 0.64871 0.16623-0.46491 0.71767 0.60251-0.67625
   9   4   0 1339.66  502.95   1 0.61418 0.20649-0.53525 0.78808 0.57989-0.57989
   9  -4   0 2905.16  799.10   1 0.27534 0.54560-0.56508 0.31217 0.77773-0.77773
  -9  -4   0  908.30  426.37   1-0.64289-0.17726 0.62908-0.88183 0.43697-0.43697
  -9   4   0 2103.93  640.01   1-0.19665-0.62414 0.82029-0.56743 0.53707-0.53707
   9   4   0 1864.00  633.13   1 0.61037 0.21038-0.52304 0.77580 0.59486-0.59486
   9   4   1 4002.51  859.43   1 0.56692 0.25955-0.54515 0.79805 0.61757-0.54381
   9  -4   1 7476.72 1189.51   1 0.21226 0.61452-0.56152 0.30861 0.79977-0.72602
  -9  -4  -1 6223.73 1000.81   1-0.67712-0.14893 0.60295-0.85571 0.42183-0.49555
  -9   4  -1 4317.55  900.25   1-0.25577-0.57089 0.80740-0.55455 0.53167-0.60543
  -9   4  -1 4319.39  878.22   1-0.14279-0.68416 0.90750-0.65476-0.39502 0.32126
   9   4   1 4726.52  919.04   1 0.57680 0.24977-0.56867 0.82143 0.58643-0.51270
   9   4   2 3154.43  700.51   1 0.52038 0.31189-0.55309 0.80598 0.65060-0.50309
   9  -4   2 4162.07 1041.44   1 0.15419 0.67842-0.55612 0.30321 0.81667-0.66918
  -9  -4  -2 3619.72  778.09   1-0.71309-0.11886 0.57281-0.82557 0.40419-0.55163
  -9   4  -2 2095.08  549.33   1-0.32068-0.51184 0.78948-0.53663 0.52332-0.67084
  -9   4  -2 1378.35  494.07   1-0.12208-0.71072 0.91552-0.66277-0.38329 0.23577
   9   4   2 1663.79  468.45   1 0.54852 0.28402-0.60382 0.85654 0.57836-0.43087
   9   4   3 1318.80  545.87   1 0.47567 0.36239-0.55880 0.81170 0.67931-0.45804
   9  -4   3 1372.17  580.51   1 0.10162 0.73630-0.54949 0.29666 0.82929-0.60814
  -9  -4  -3 1158.17  503.75   1-0.75004-0.08781 0.53853-0.79128 0.38394-0.60510
  -9   4  -3  826.00  387.35   1-0.39063-0.44737 0.76502-0.51221 0.51199-0.73314
  -9   4  -3 1160.45  583.85   1-0.11006-0.72859 0.91989-0.66715-0.37640 0.15512
   9   4   3 1411.62  597.54   1 0.52575 0.31264-0.63033 0.88305 0.57119-0.34996
   9   5  -4  928.51  434.86   1 0.82276-0.02585-0.44800 0.76393 0.34979-0.64477
   9  -5  -4 1084.19  629.57   1 0.53468 0.26286-0.55087 0.23475 0.64081-0.93583
  -9  -5   4   93.66  388.47   1-0.60794-0.18872 0.65354-0.96955 0.45087-0.15600
  -9   5   4 -113.74  451.60   1 0.01728-0.81484 0.84159-0.52546 0.53983-0.24476
   9   5  -3  945.64  497.50   1 0.78834 0.01443-0.46897 0.78490 0.39820-0.61944
   9  -5  -3  744.39  615.64   1 0.46312 0.34021-0.56010 0.24397 0.68687-0.90814
  -9  -5   3  359.11  394.10   1-0.62427-0.17819 0.64234-0.95829 0.44460-0.22344
  -9   5   3  680.28  475.31   1-0.01450-0.78892 0.84092-0.52479 0.54095-0.31965
   9   5  -3  772.63  444.30   1 0.75749 0.04650-0.24495 0.56099 0.60514-0.82650
   9   5  -2  857.90  357.27   1 0.75131 0.05760-0.48786 0.80390 0.44441-0.59196
   9  -5  -2 1289.73  482.72   1 0.39154 0.41773-0.56486 0.24873 0.72637-0.87386
  -9  -5   2  697.31  577.81   1-0.64508-0.16328 0.62747-0.94342 0.43605-0.28861
  -9   5   2  -27.29  383.10   1-0.05340-0.75589 0.83895-0.52282 0.54157-0.39404
   9   5  -2  349.97  358.30   1 0.72071 0.08915-0.33274 0.64879 0.60815-0.75572
   9   5  -1 9676.04 1028.97   1 0.71197 0.10282-0.50462 0.82066 0.48830-0.56208
   9  -5  -110128.27 1052.49   1 0.32132 0.49378-0.56608 0.24995 0.75913-0.83288
  -9  -5   111183.12 1254.89   1-0.66953-0.14472 0.60895-0.92489 0.42532-0.35160
  -9   5   1 9449.83 1004.65   1-0.09943-0.71573 0.83495-0.51883 0.54125-0.46748
   9   5  -110485.39 1195.68   1 0.68383 0.13110-0.40455 0.72050 0.60721-0.68094
   9   5   0 3766.15  782.06   1 0.67110 0.14957-0.51912 0.83516 0.52927-0.52927
   9  -5   0 4678.73  958.52   1 0.25409 0.56685-0.56416 0.24802 0.78559-0.78559
  -9  -5   0 4973.15 1011.15   1-0.69694-0.12321 0.58671-0.90265 0.41235-0.41235
  -9   5   0 4146.72  867.78   1-0.15246-0.66833 0.82787-0.51180 0.53979-0.53979
  -9   5   0 3401.29  761.60   1-0.11858-0.70252 0.91681-0.60088-0.38129 0.38129
   9   5   0 3558.50  726.35   1 0.64960 0.17115-0.46347 0.77942 0.60266-0.60266
   9   5   1 1986.45  557.77   1 0.62954 0.19700-0.53132 0.84736 0.56689-0.49312
   9  -5   1 1628.99  775.57   1 0.19115 0.63562-0.55979 0.24365 0.80628-0.73253
  -9  -5  -1 1802.10  642.18   1-0.72661-0.09944 0.56069-0.87663 0.39705-0.47077
  -9   5  -1  650.60  381.84   1-0.21242-0.61424 0.81716-0.50109 0.53583-0.60959
  -9   5  -1  378.31  347.37   1-0.09057-0.73638 0.92655-0.61062-0.36508 0.29132
   9   5   1 -465.51  423.21   1 0.61893 0.20765-0.51067 0.82662 0.59676-0.52303
   9   5   2 8458.51 1106.88   1 0.58807 0.24420-0.54081 0.85694 0.60140-0.45388
   9  -5   2 7480.04 1080.87   1 0.13323 0.69890-0.55365 0.23761 0.82201-0.67458
  -9  -5  -2 9446.53 1454.61   1-0.75784-0.07411 0.53081-0.84675 0.37935-0.52679
  -9   5  -2 9283.45 1201.41   1-0.27878-0.55375 0.80151-0.48545 0.52901-0.67653
  -9   5  -2 6068.97 1492.67   1-0.07295-0.75984 0.93212-0.61619-0.35470 0.20718
   9   5   2 9519.38 1335.12   1 0.59254 0.23986-0.54783 0.86378 0.59056-0.44309
   9   5   3 5182.95  771.72   1 0.54812 0.28994-0.54861 0.86474 0.63133-0.41006
   9  -5   3 6976.04 1018.22   1 0.08164 0.75629-0.54657 0.23053 0.83341-0.61227
  -9  -5  -3 8164.32 1149.63   1-0.78990-0.04794 0.49701-0.81296 0.35918-0.58034
   9   5   310078.82 1475.29   1 0.57078 0.26743-0.57640 0.89235 0.58477-0.36357
   9   6  -3 2158.84  553.62   1 0.82656-0.02378-0.44544 0.82455 0.34404-0.56528
   9  -6  -3 2295.71  637.25   1 0.44817 0.35516-0.56147 0.18212 0.69562-0.91689
  -9  -6   3 2912.79  660.67   1-0.68731-0.11515 0.59471-0.97384 0.41703-0.19587
  -9   6   3 1318.32  510.74   1 0.02424-0.82767 0.84162-0.46227 0.53951-0.31821
   9   6  -3 1596.72  475.10   1 0.77675 0.02724-0.18969 0.56894 0.60056-0.82192
   9   6  -2 9826.91 1282.88   1 0.79549 0.01316-0.46492 0.84403 0.38863-0.53612
   9  -6  -211293.56 1427.44   1 0.37574 0.43353-0.56544 0.18608 0.73422-0.88171
  -9  -6   210251.01 1395.34   1-0.70424-0.10411 0.58050-0.95963 0.40871-0.26127
  -9   6   210243.94 1408.63   1-0.01421-0.79508 0.84093-0.46158 0.54094-0.39341
   9   6  -2 8296.08 1064.48   1 0.74612 0.06374-0.27414 0.65340 0.60674-0.75431
   9   6  -1 4845.58  731.35   1 0.76257 0.05222-0.48247 0.86172 0.43091-0.50468
   9  -6  -1 8248.38 1134.26   1 0.30509 0.51001-0.56589 0.18653 0.76595-0.83969
  -9  -6   1 6612.25 1140.17   1-0.72460-0.08965 0.56252-0.94165 0.39813-0.32442
  -9   6   1 3794.20 1018.30   1-0.05997-0.75519 0.83849-0.45914 0.54160-0.46783
   9   6  -1 5588.44  885.78   1 0.71486 0.10088-0.34518 0.72444 0.60812-0.68191
   9   6   0 1199.79  490.79   1 0.72814 0.09253-0.49810 0.87734 0.47084-0.47084
   9  -6   0 1426.10  545.16   1 0.23784 0.58310-0.56326 0.18390 0.79130-0.79130
  -9  -6   0 2195.32  761.37   1-0.74770-0.07245 0.54081-0.91994 0.38529-0.38529
  -9   6   0 1818.79  599.86   1-0.11307-0.70795 0.83342-0.45407 0.54093-0.54093
  -9   6   0  894.21  430.36   1-0.06686-0.75425 0.93395-0.55484-0.35108 0.35108
   9   6   1 6683.32  912.53   1 0.69302 0.13353-0.51168 0.89093 0.50783-0.43406
   9  -6   1 5391.60  919.13   1 0.17521 0.65157-0.55830 0.17894 0.81092-0.73717
  -9  -6  -1 3595.96 1035.26   1-0.77289-0.05316 0.51537-0.89450 0.37016-0.44388
  -9   6  -1 7034.17 1137.38   1-0.17341-0.65325 0.82449-0.44521 0.53864-0.61240
  -9   6  -1 3890.48 1379.84   1-0.04237-0.78458 0.94077-0.56166-0.33635 0.26260
   9   6   1 7685.87 1195.84   1 0.65682 0.16975-0.45163 0.83077 0.60382-0.53008
  10   0  -3  205.86  387.99   1 0.61736 0.27686-0.53446 0.53446 0.57723-0.79855
 -10   0   3  277.64  472.28   1-0.34608-0.54831 0.78135-0.78135 0.51933-0.29805
  10   0  -2 7597.63 1045.45   1 0.56380 0.33650-0.54575 0.54575 0.61989-0.76740
 -10   0   2 7997.16 1093.18   1-0.37804-0.52222 0.77017-0.77017 0.51372-0.36620
  10   0  -1 4287.15  665.69   1 0.50959 0.39650-0.55463 0.55463 0.65779-0.73155
 -10   0   1 7052.59 1168.01   1-0.41448-0.49104 0.75566-0.75566 0.50712-0.43341
  10   0  -1 5006.49  778.16   1 0.50194 0.40427-0.65642 0.65642 0.56317-0.63691
  10   0   020503.48 2488.14   1 0.45594 0.45594-0.56078 0.56078 0.69111-0.69111
 -10   0   015726.56 1956.88   1-0.45571-0.45571 0.73795-0.73795 0.49774-0.49774
  10   0   020207.38 2409.85   1 0.45603 0.45603-0.70253 0.70253 0.54633-0.54633
  10   0   116601.82 2104.07   1 0.40394 0.51372-0.56449 0.56449 0.71983-0.64608
 -10   0  -116829.16 2027.88   1-0.50068-0.41665 0.71631-0.71631 0.48601-0.55973
  10   0   119811.77 2349.05   1 0.41920 0.49870-0.73594 0.73594 0.53165-0.45790
  10   1  -2 6570.56  947.08   1 0.59933 0.30097-0.53830 0.60153 0.59246-0.73998
  10  -1  -2 5281.38  965.93   1 0.53113 0.36917-0.55144 0.48822 0.64327-0.79078
 -10  -1   2 4918.87  848.21   1-0.43422-0.46540 0.74742-0.81063 0.50279-0.35535
 -10   1   2 6444.12 1051.37   1-0.32337-0.57689 0.78865-0.72544 0.52292-0.37540
  10   1  -1 3354.00  964.82   1 0.54794 0.35815-0.54865 0.61187 0.63146-0.70521
  10  -1  -1 1259.88  535.17   1 0.47460 0.43149-0.55892 0.49569 0.67996-0.75372
 -10  -1   1 2671.64  917.84   1-0.46880-0.43673 0.73191-0.79511 0.49449-0.42077
 -10   1   1 1190.76  549.83   1-0.36209-0.54404 0.77588-0.71267 0.51661-0.44284
  10   1  -1 2295.06  695.31   1 0.54753 0.35868-0.60501 0.66819 0.57806-0.65181
  10  -1  -1 2196.00  707.72   1 0.45355 0.45266-0.70488 0.64170 0.54537-0.61911
  10   1   0 1312.42  612.86   1 0.49670 0.41517-0.55633 0.61956 0.66615-0.66615
  10  -1   0  633.43  466.79   1 0.41905 0.49283-0.56363 0.50040 0.71183-0.71183
 -10  -1   0 2047.10  801.72   1-0.50734-0.40409 0.71288-0.77609 0.48413-0.48413
 -10   1   0 1926.68  489.56   1-0.40525-0.50618 0.75936-0.69615 0.50905-0.50905
  10   1   0 1014.35  443.22   1 0.50357 0.40849-0.65468 0.71786 0.56373-0.56373
  10   1   1 3418.38  629.15   1 0.44669 0.47098-0.56159 0.62482 0.69646-0.62271
  10  -1   1  947.34  453.85   1 0.36560 0.55204-0.56572 0.50256 0.73911-0.66533
 -10   1  -1 3072.31  701.66   1-0.45293-0.46440 0.73921-0.67600 0.49841-0.57213
  10   1   1 3682.69  711.01   1 0.46745 0.45046-0.69155 0.75473 0.55067-0.47693
  10   2  -210346.86 1327.35   1 0.63719 0.26292-0.52925 0.65566 0.56024-0.70779
  10  -2  -210579.47 1511.13   1 0.50169 0.39861-0.55569 0.42924 0.66295-0.81046
 -10  -2   210162.75 1437.70   1-0.49199-0.40762 0.72069-0.84709 0.48840-0.34097
 -10   2   210030.16 1332.98   1-0.27143-0.62883 0.80344-0.67702 0.52989-0.38237
  10   2  -1  684.59  485.05   1 0.58919 0.31690-0.54057 0.66702 0.60052-0.67427
  10  -2  -1 2159.42  635.30   1 0.44331 0.46278-0.56188 0.43543 0.69840-0.77215
 -10  -2   1 1030.39  415.42   1-0.52386-0.38166 0.70414-0.83055 0.47931-0.40560
 -10   2   1 1043.40  466.13   1-0.31165-0.59448 0.79222-0.66579 0.52464-0.45088
  10   2  -1 1370.20  477.26   1 0.58980 0.31633-0.55153 0.67791 0.58986-0.66360
  10   2   0 1359.46  552.88   1 0.54095 0.37093-0.54984 0.67629 0.63642-0.63642
  10  -2   0 1798.03  668.09   1 0.38651 0.52565-0.56507 0.43861 0.72890-0.72890
 -10  -2   0 3474.39  742.99   1-0.55935-0.35207 0.68407-0.81048 0.46814-0.46814
 -10   2   0  266.34  397.26   1-0.35695-0.55504 0.77766-0.65124 0.51750-0.51750
  10   2   0 1033.70  509.13   1 0.54845 0.36361-0.60391 0.73027 0.57834-0.57834
;
_shelx_hkl_checksum              29203
loop_
_space_group_symop_operation_xyz
'x, y, z'
'-x, y+1/2, -z'
loop_
_atom_site_label
_atom_site_type_symbol
_atom_site_fract_x
_atom_site_fract_y
_atom_site_fract_z
_atom_site_U_iso_or_equiv
_atom_site_adp_type
_atom_site_occupancy
_atom_site_site_symmetry_order
_atom_site_calc_flag
_atom_site_refinement_flags_posn
Br1 Br 0.64740(5) 0.12020(4) 0.64957(4) 0.03605(12) Uani 1 1 d .
S1 S 0.94686(12) 0.43451(8) 0.53460(10) 0.0246(2) Uani 1 1 d .
O1 O 0.4673(3) 0.3696(3) 0.5792(3) 0.0325(6) Uani 1 1 d .
O2 O 0.6530(3) 0.4970(3) 0.6742(3) 0.0324(6) Uani 1 1 d .
O3 O 0.9321(4) 0.5601(2) 0.5184(3) 0.0367(7) Uani 1 1 d .
O4 O 1.0444(3) 0.3677(3) 0.4432(3) 0.0317(6) Uani 1 1 d .
N1 N 0.7479(3) 0.3748(3) 0.5096(3) 0.0210(6) Uani 1 1 d .
C1 C 0.7257(4) 0.2680(3) 0.4200(4) 0.0210(7) Uani 1 1 d .
H1 H 0.8308 0.2203 0.4320 0.025 Uiso 1 1 calc R
C2 C 0.5786(5) 0.1954(3) 0.4702(4) 0.0281(8) Uani 1 1 d .
H2 H 0.5480 0.1331 0.4017 0.034 Uiso 1 1 calc R
C3 C 0.4264(5) 0.2733(4) 0.4826(4) 0.0338(9) Uani 1 1 d .
H3A H 0.3892 0.3058 0.3920 0.041 Uiso 1 1 calc R
H3B H 0.3330 0.2266 0.5147 0.041 Uiso 1 1 calc R
C4 C 0.6238(5) 0.4181(3) 0.5921(4) 0.0244(7) Uani 1 1 d .
C5 C 0.6902(4) 0.2967(3) 0.2662(4) 0.0233(7) Uani 1 1 d .
C6 C 0.6760(5) 0.4118(3) 0.2160(4) 0.0290(8) Uani 1 1 d .
H6 H 0.6889 0.4757 0.2772 0.035 Uiso 1 1 calc R
C7 C 0.6423(5) 0.4322(4) 0.0736(4) 0.0379(10) Uani 1 1 d .
H7 H 0.6326 0.5098 0.0405 0.045 Uiso 1 1 calc R
C8 C 0.6235(6) 0.3391(4) -0.0177(4) 0.0434(11) Uani 1 1 d .
H8 H 0.5993 0.3533 -0.1122 0.052 Uiso 1 1 calc R
C9 C 0.6407(6) 0.2237(4) 0.0312(5) 0.0432(11) Uani 1 1 d .
H9 H 0.6304 0.1602 -0.0307 0.052 Uiso 1 1 calc R
C10 C 0.6731(5) 0.2027(4) 0.1727(4) 0.0335(9) Uani 1 1 d .
H10 H 0.6835 0.1250 0.2053 0.040 Uiso 1 1 calc R
C11 C 1.0157(4) 0.3992(3) 0.7076(4) 0.0245(8) Uani 1 1 d .
C12 C 1.0709(4) 0.2843(3) 0.7374(4) 0.0287(8) Uani 1 1 d .
H12 H 1.0709 0.2272 0.6676 0.034 Uiso 1 1 calc R
C13 C 1.1261(5) 0.2563(4) 0.8733(4) 0.0350(9) Uani 1 1 d .
H13 H 1.1638 0.1795 0.8943 0.042 Uiso 1 1 calc R
C14 C 1.1268(5) 0.3398(4) 0.9792(4) 0.0342(9) Uani 1 1 d .
C15 C 1.0705(5) 0.4537(4) 0.9457(4) 0.0385(10) Uani 1 1 d .
H15 H 1.0706 0.5109 1.0154 0.046 Uiso 1 1 calc R
C16 C 1.0136(5) 0.4846(4) 0.8101(4) 0.0341(9) Uani 1 1 d .
H16 H 0.9749 0.5612 0.7891 0.041 Uiso 1 1 calc R
C17 C 1.1866(6) 0.3101(5) 1.1263(4) 0.0489(11) Uani 1 1 d .
H17A H 1.0953 0.3240 1.1852 0.073 Uiso 1 1 calc GR
H17B H 1.2831 0.3592 1.1560 0.073 Uiso 1 1 calc GR
H17C H 1.2199 0.2280 1.1320 0.073 Uiso 1 1 calc GR
loop_
_atom_site_aniso_label
_atom_site_aniso_U_11
_atom_site_aniso_U_22
_atom_site_aniso_U_33
_atom_site_aniso_U_23
_atom_site_aniso_U_13
_atom_site_aniso_U_12
Br1 0.0485(2) 0.03129(19) 0.0286(2) 0.0081(2) 0.00457(15) -0.00445(19)
S1 0.0249(4) 0.0244(5) 0.0243(5) 0.0013(4) 0.0000(4) -0.0051(3)
O1 0.0217(13) 0.0449(16) 0.0313(15) 0.0007(13) 0.0042(11) 0.0045(12)
O2 0.0407(15) 0.0304(15) 0.0258(14) -0.0032(12) 0.0000(12) 0.0115(12)
O3 0.0429(17) 0.0265(15) 0.0398(17) 0.0071(13) -0.0035(13) -0.0076(12)
O4 0.0221(13) 0.0444(17) 0.0293(15) -0.0014(13) 0.0058(11) -0.0064(12)
N1 0.0201(13) 0.0217(14) 0.0209(15) -0.0020(12) 0.0005(11) -0.0006(11)
C1 0.0212(16) 0.0196(16) 0.0223(18) -0.0003(14) 0.0021(13) -0.0003(13)
C2 0.0297(19) 0.034(2) 0.0203(19) 0.0013(16) 0.0005(15) -0.0116(15)
C3 0.0233(18) 0.050(3) 0.028(2) 0.0020(18) 0.0019(16) -0.0069(17)
C4 0.0252(18) 0.028(2) 0.0193(17) 0.0049(16) -0.0002(14) 0.0073(14)
C5 0.0189(15) 0.0303(19) 0.0209(18) -0.0028(16) 0.0032(13) 0.0004(14)
C6 0.031(2) 0.027(2) 0.029(2) 0.0024(16) 0.0030(16) -0.0009(15)
C7 0.041(2) 0.043(2) 0.030(2) 0.014(2) 0.0010(18) -0.0035(19)
C8 0.048(3) 0.063(3) 0.019(2) 0.005(2) -0.0004(18) -0.009(2)
C9 0.056(3) 0.048(3) 0.026(2) -0.010(2) 0.0053(19) -0.007(2)
C10 0.038(2) 0.033(2) 0.030(2) -0.0037(17) 0.0069(18) -0.0009(16)
C11 0.0206(17) 0.029(2) 0.0241(19) -0.0023(15) 0.0000(14) -0.0039(13)
C12 0.0278(18) 0.031(2) 0.027(2) -0.0030(16) -0.0004(15) 0.0001(15)
C13 0.032(2) 0.037(2) 0.035(2) 0.0079(19) -0.0029(17) 0.0032(17)
C14 0.0233(18) 0.052(3) 0.027(2) 0.0006(19) 0.0010(15) -0.0034(16)
C15 0.035(2) 0.047(3) 0.033(2) -0.015(2) -0.0023(17) -0.0013(18)
C16 0.038(2) 0.029(2) 0.034(2) -0.0070(19) -0.0064(17) 0.0011(17)
C17 0.045(2) 0.072(3) 0.029(2) 0.003(2) -0.0027(18) -0.004(2)
loop_
_atom_type_symbol
_atom_type_description
_atom_type_scat_dispersion_real
_atom_type_scat_dispersion_imag
_atom_type_scat_source
C C 0.0033 0.0016 'International Tables Vol C Tables 4.2.6.8 and 6.1.1.4'
H H 0.0000 0.0000 'International Tables Vol C Tables 4.2.6.8 and 6.1.1.4'
Br Br -0.2901 2.4595 'International Tables Vol C Tables 4.2.6.8 and 6.1.1.4'
N N 0.0061 0.0033 'International Tables Vol C Tables 4.2.6.8 and 6.1.1.4'
O O 0.0106 0.0060 'International Tables Vol C Tables 4.2.6.8 and 6.1.1.4'
S S 0.1246 0.1234 'International Tables Vol C Tables 4.2.6.8 and 6.1.1.4'
loop_
_geom_angle_atom_site_label_1
_geom_angle_atom_site_label_2
_geom_angle_atom_site_label_3
_geom_angle
O3 S1 N1 108.16(16)
O3 S1 C11 110.12(18)
O4 S1 O3 119.86(19)
O4 S1 N1 103.52(16)
O4 S1 C11 109.22(17)
N1 S1 C11 104.74(15)
C4 O1 C3 121.3(3)
C1 N1 S1 117.9(2)
C4 N1 S1 117.0(2)
C4 N1 C1 124.2(3)
N1 C1 C2 107.8(3)
N1 C1 C5 113.6(3)
C2 C1 C5 109.9(3)
C1 C2 Br1 110.5(2)
C3 C2 Br1 110.4(3)
C3 C2 C1 109.8(3)
O1 C3 C2 110.7(3)
O1 C4 N1 118.6(3)
O2 C4 O1 119.2(3)
O2 C4 N1 122.2(3)
C6 C5 C1 122.9(3)
C6 C5 C10 119.0(4)
C10 C5 C1 118.1(3)
C5 C6 C7 120.1(4)
C8 C7 C6 120.6(4)
C7 C8 C9 119.8(4)
C8 C9 C10 119.9(4)
C9 C10 C5 120.6(4)
C12 C11 S1 118.3(3)
C16 C11 S1 120.2(3)
C16 C11 C12 121.5(4)
C13 C12 C11 118.5(4)
C12 C13 C14 121.8(4)
C13 C14 C17 121.9(4)
C15 C14 C13 118.2(4)
C15 C14 C17 119.9(4)
C14 C15 C16 121.5(4)
C11 C16 C15 118.6(4)
loop_
_geom_bond_atom_site_label_1
_geom_bond_atom_site_label_2
_geom_bond_distance
Br1 C2 1.961(4)
S1 O3 1.425(3)
S1 O4 1.424(3)
S1 N1 1.694(3)
S1 C11 1.757(4)
O1 C3 1.447(5)
O1 C4 1.337(4)
O2 C4 1.199(5)
N1 C1 1.482(4)
N1 C4 1.390(4)
C1 C2 1.520(5)
C1 C5 1.522(5)
C2 C3 1.490(6)
C5 C6 1.383(5)
C5 C10 1.389(5)
C6 C7 1.396(6)
C7 C8 1.368(6)
C8 C9 1.384(7)
C9 C10 1.388(6)
C11 C12 1.386(5)
C11 C16 1.379(5)
C12 C13 1.383(5)
C13 C14 1.387(6)
C14 C15 1.384(6)
C14 C17 1.495(5)
C15 C16 1.391(6)
loop_
_geom_torsion_atom_site_label_1
_geom_torsion_atom_site_label_2
_geom_torsion_atom_site_label_3
_geom_torsion_atom_site_label_4
_geom_torsion
Br1 C2 C3 O1 62.9(3)
S1 N1 C1 C2 150.7(2)
S1 N1 C1 C5 -87.3(3)
S1 N1 C4 O1 -177.2(3)
S1 N1 C4 O2 2.5(4)
S1 C11 C12 C13 179.6(3)
S1 C11 C16 C15 -179.4(3)
O3 S1 N1 C1 134.6(3)
O3 S1 N1 C4 -55.4(3)
O3 S1 C11 C12 -167.1(3)
O3 S1 C11 C16 13.2(4)
O4 S1 N1 C1 6.4(3)
O4 S1 N1 C4 176.5(3)
O4 S1 C11 C12 -33.5(3)
O4 S1 C11 C16 146.7(3)
N1 S1 C11 C12 76.9(3)
N1 S1 C11 C16 -102.9(3)
N1 C1 C2 Br1 -71.5(3)
N1 C1 C2 C3 50.5(4)
N1 C1 C5 C6 -1.5(5)
N1 C1 C5 C10 177.9(3)
C1 N1 C4 O1 -7.9(5)
C1 N1 C4 O2 171.8(3)
C1 C2 C3 O1 -59.2(4)
C1 C5 C6 C7 -179.6(3)
C1 C5 C10 C9 180.0(4)
C2 C1 C5 C6 119.4(4)
C2 C1 C5 C10 -61.2(4)
C3 O1 C4 O2 -179.3(3)
C3 O1 C4 N1 0.4(5)
C4 O1 C3 C2 33.4(5)
C4 N1 C1 C2 -18.5(4)
C4 N1 C1 C5 103.5(4)
C5 C1 C2 Br1 164.2(2)
C5 C1 C2 C3 -73.8(4)
C5 C6 C7 C8 -0.2(6)
C6 C5 C10 C9 -0.6(6)
C6 C7 C8 C9 -1.0(7)
C7 C8 C9 C10 1.4(7)
C8 C9 C10 C5 -0.6(7)
C10 C5 C6 C7 1.0(6)
C11 S1 N1 C1 -108.0(3)
C11 S1 N1 C4 62.0(3)
C11 C12 C13 C14 0.2(6)
C12 C11 C16 C15 0.8(6)
C12 C13 C14 C15 -0.1(6)
C12 C13 C14 C17 -179.9(4)
C13 C14 C15 C16 0.3(6)
C14 C15 C16 C11 -0.7(6)
C16 C11 C12 C13 -0.6(5)
C17 C14 C15 C16 -179.9(4)
