#------------------------------------------------------------------------------
#$Date: 2016-03-04 10:54:50 +0200 (Fri, 04 Mar 2016) $
#$Revision: 177374 $
#$URL: svn://www.crystallography.net/cod/cif/1/54/27/1542724.cif $
#------------------------------------------------------------------------------
#
# This file is available in the Crystallography Open Database (COD),
# http://www.crystallography.net/
#
# All data on this site have been placed in the public domain by the
# contributors.
#
data_1542724
loop_
_publ_author_name
'Pan, Hongjie'
'Huang, Hu'
'Liu, Weigang'
'Tian, Hua'
'Shi, Yian'
_publ_section_title
;
 Phosphine Oxide-Sc(OTf)3 Catalyzed Highly Regio- and Enantioselective
 Bromoaminocyclization of (E)-Cinnamyl Tosylcarbamates. An Approach to a
 Class of Synthetically Versatile Functionalized Molecules.
;
_journal_issue                   5
_journal_name_full               'Organic letters'
_journal_page_first              896
_journal_paper_doi               10.1021/acs.orglett.5b03459
_journal_volume                  18
_journal_year                    2016
_chemical_absolute_configuration ad
_chemical_formula_moiety         'C16 H18 N4 O3 S'
_chemical_formula_sum            'C16 H18 N4 O3 S'
_chemical_formula_weight         346.40
_chemical_name_systematic
;
 ?
;
_space_group_crystal_system      orthorhombic
_space_group_IT_number           19
_space_group_name_Hall           'P 2ac 2ab'
_space_group_name_H-M_alt        'P 21 21 21'
_symmetry_space_group_name_Hall  'P 2ac 2ab'
_symmetry_space_group_name_H-M   'P 21 21 21'
_atom_sites_solution_hydrogens   geom
_audit_creation_date             2015-10-30
_audit_creation_method
;
Olex2 1.2
(compiled 2015.09.30 svn.r3233 for OlexSys, GUI svn.r5103)
;
_cell_angle_alpha                90
_cell_angle_beta                 90
_cell_angle_gamma                90
_cell_formula_units_Z            4
_cell_length_a                   5.4849(14)
_cell_length_b                   12.639(3)
_cell_length_c                   24.563(7)
_cell_measurement_reflns_used    5109
_cell_measurement_temperature    223.1500
_cell_measurement_theta_max      27.4721
_cell_measurement_theta_min      1.6581
_cell_volume                     1702.8(8)
_computing_cell_refinement       'CrystalClear (Rigaku Inc., 2007)'
_computing_data_collection       'CrystalClear (Rigaku Inc., 2007)'
_computing_data_reduction        'CrystalClear (Rigaku Inc., 2007)'
_computing_molecular_graphics    'Olex2 (Dolomanov et al., 2009)'
_computing_publication_material  'CIFTAB (Sheldrick, 2013)'
_computing_structure_refinement  'SHELXL (Sheldrick, 2014)'
_computing_structure_solution
;
'SHELXT (Sheldrick, 2014)'
;
_diffrn_ambient_temperature      223.1500
_diffrn_detector_area_resol_mean 28.5714
_diffrn_measured_fraction_theta_full 0.985
_diffrn_measured_fraction_theta_max 0.987
_diffrn_measurement_details
;
scan:
    Number of images: 360
               Slice: -110.0000 - 70.0000
         Image width: 0.5000
            Exp time: 10.0000
       Rotation axis: Omega
               Omega: 0.0000
                 Chi: 45.0000
                 Phi: 0.0000
                 XTD: 45.0652
              2theta: -21.3379
scan:
    Number of images: 360
               Slice: -110.0000 - 70.0000
         Image width: 0.5000
            Exp time: 10.0000
       Rotation axis: Omega
               Omega: 0.0000
                 Chi: 45.0000
                 Phi: 180.0000
                 XTD: 45.0652
              2theta: -21.3379
;
_diffrn_measurement_device
;
Saturn724+ (2x2 bin mode)
;
_diffrn_measurement_device_details
;
AFC10: Fixed Chi 2 circle
;
_diffrn_measurement_device_type  'Saturn724+ CCD'
_diffrn_measurement_method       '\w scans at fixed \c = 45\%'
_diffrn_orient_matrix_type       d*Trek
_diffrn_orient_matrix_UB_11      -0.0185
_diffrn_orient_matrix_UB_12      0.0252
_diffrn_orient_matrix_UB_13      -0.1796
_diffrn_orient_matrix_UB_21      -0.0309
_diffrn_orient_matrix_UB_22      -0.0725
_diffrn_orient_matrix_UB_23      -0.0070
_diffrn_orient_matrix_UB_31      -0.0373
_diffrn_orient_matrix_UB_32      0.0153
_diffrn_orient_matrix_UB_33      0.0060
_diffrn_radiation_detector       CCD
_diffrn_radiation_monochromator  'Graphite Monochromator'
_diffrn_radiation_type           MoK\a
_diffrn_radiation_wavelength     0.71073
_diffrn_reflns_av_R_equivalents  0.0382
_diffrn_reflns_av_unetI/netI     0.0310
_diffrn_reflns_laue_measured_fraction_full 0.985
_diffrn_reflns_laue_measured_fraction_max 0.987
_diffrn_reflns_limit_h_max       6
_diffrn_reflns_limit_h_min       -7
_diffrn_reflns_limit_k_max       16
_diffrn_reflns_limit_k_min       -16
_diffrn_reflns_limit_l_max       31
_diffrn_reflns_limit_l_min       -31
_diffrn_reflns_number            13102
_diffrn_reflns_point_group_measured_fraction_full 0.982
_diffrn_reflns_point_group_measured_fraction_max 0.984
_diffrn_reflns_theta_full        26.000
_diffrn_reflns_theta_max         27.486
_diffrn_reflns_theta_min         2.964
_diffrn_source                   'Sealed Tube'
_diffrn_source_current           30.0000
_diffrn_source_power             1.5000
_diffrn_source_voltage           50.0000
_exptl_absorpt_coefficient_mu    0.212
_exptl_absorpt_correction_T_max  1.0000
_exptl_absorpt_correction_T_min  0.7765
_exptl_absorpt_correction_type   multi-scan
_exptl_absorpt_process_details   'CrystalClear (Rigaku Inc., 2007)'
_exptl_crystal_colour            Colorless
_exptl_crystal_density_diffrn    1.351
_exptl_crystal_description       plate
_exptl_crystal_F_000             728
_exptl_crystal_size_max          0.46
_exptl_crystal_size_mid          0.16
_exptl_crystal_size_min          0.06
_refine_diff_density_max         0.325
_refine_diff_density_min         -0.312
_refine_diff_density_rms         0.039
_refine_ls_abs_structure_details
;
 Flack x determined using 1377 quotients [(I+)-(I-)]/[(I+)+(I-)]
 (Parsons and Flack (2004), Acta Cryst. A60, s61).
;
_refine_ls_abs_structure_Flack   0.04(3)
_refine_ls_extinction_method     none
_refine_ls_goodness_of_fit_ref   1.141
_refine_ls_hydrogen_treatment    constr
_refine_ls_matrix_type           full
_refine_ls_number_parameters     219
_refine_ls_number_reflns         3837
_refine_ls_number_restraints     0
_refine_ls_restrained_S_all      1.141
_refine_ls_R_factor_all          0.0493
_refine_ls_R_factor_gt           0.0474
_refine_ls_shift/su_max          0.001
_refine_ls_shift/su_mean         0.000
_refine_ls_structure_factor_coef Fsqd
_refine_ls_weighting_details
'w=1/[\s^2^(Fo^2^)+(0.0324P)^2^+0.6645P] where P=(Fo^2^+2Fc^2^)/3'
_refine_ls_weighting_scheme      calc
_refine_ls_wR_factor_gt          0.0993
_refine_ls_wR_factor_ref         0.1003
_reflns_Friedel_coverage         0.708
_reflns_friedel_fraction_full    0.979
_reflns_friedel_fraction_max     0.979
_reflns_number_gt                3715
_reflns_number_total             3837
_reflns_threshold_expression     'I > 2\s(I)'
_cod_data_source_file            ol5b03459_si_008.cif
_cod_data_source_block           sa4406
_cod_database_code               1542724
_shelxl_version_number           2013-4
_shelx_space_group_comment
;
The symmetry employed for this shelxl refinement is uniquely defined
by the following loop, which should always be used as a source of
symmetry information in preference to the above space-group names.
They are only intended as comments.
;
_diffrn_number_total             2282
_olex2_refinement_description
;
1. Fixed Uiso
 At 1.2 times of:
  All C(H) groups, All C(H,H) groups, All N(H) groups
 At 1.5 times of:
  All C(H,H,H) groups, All O(H) groups
2.a Ternary CH refined with riding coordinates:
 C1(H1A), C2(H2)
2.b Secondary CH2 refined with riding coordinates:
 C3(H3A,H3B)
2.c Aromatic/amide H refined with riding coordinates:
 N4(H4), C5(H5), C6(H6), C7(H7), C8(H8), C9(H9), C11(H11), C12(H12), C14(H14),
 C15(H15)
2.d Idealised Me refined as rotating group:
 C16(H16A,H16B,H16C)
2.e Idealised tetrahedral OH refined as rotating group:
 O1(H1)
;
_shelx_res_file
;
TITL sa4406_a.res in P2(1)2(1)2(1)
CELL 0.71073 5.4849 12.6385 24.5633 90 90 90
ZERR 4 0.0014 0.0034 0.0066 0 0 0
LATT -1
SYMM 0.5-X,-Y,0.5+Z
SYMM -X,0.5+Y,0.5-Z
SYMM 0.5+X,0.5-Y,-Z
SFAC C H N O S
UNIT 64 72 16 12 4
EQIV $1 2-X,-0.5+Y,1.5-Z
EQIV $2 -1+X,+Y,+Z

L.S. 4
PLAN  20
HTAB O1 O3_$1
HTAB N4 O1_$2
BOND $H
LIST 6
fmap 2
MORE -1
ACTA 52
CONF
HTAB
OMIT 4 2 5
OMIT 0 1 1
OMIT -3 4 9
OMIT 4 3 4
OMIT 1 1 2
OMIT 1 0 4
OMIT 1 0 5
OMIT 0 0 2
REM <olex2.extras>
REM <HklSrc "%.\\sa4406.hkl">
REM </olex2.extras>

WGHT    0.032400    0.664500
FVAR       0.71200
S1    5    0.467180    0.611478    0.730214    11.00000    0.02245    0.02732 =
         0.04504    0.00439    0.00067   -0.00136
O1    4    1.095842    0.381605    0.782320    11.00000    0.03167    0.03017 =
         0.07373   -0.00378    0.00231    0.00764
AFIX 147
H1    2    1.130926    0.319638    0.776280    11.00000   -1.50000
AFIX   0
O2    4    0.209740    0.629463    0.729873    11.00000    0.02358    0.03873 =
         0.05631    0.00442   -0.00005    0.00296
O3    4    0.629007    0.699780    0.735491    11.00000    0.03151    0.02867 =
         0.06756    0.00757   -0.00040   -0.00440
N1    3    0.787991    0.620986    0.876196    11.00000    0.06000    0.03847 =
         0.04995   -0.01203    0.01058   -0.01179
N2    3    0.931432    0.685952    0.857351    11.00000    0.07483    0.03851 =
         0.04616   -0.01188    0.00021   -0.00736
N3    3    1.050067    0.753139    0.843277    11.00000    0.12853    0.04725 =
         0.09570   -0.01352    0.02666   -0.04000
N4    3    0.520338    0.531978    0.780356    11.00000    0.02158    0.03175 =
         0.03647    0.00235    0.00342   -0.00035
AFIX  43
H4    2    0.401933    0.505790    0.798936    11.00000   -1.20000
AFIX   0
C1    1    0.818847    0.510707    0.855679    11.00000    0.02946    0.03329 =
         0.03804   -0.00330   -0.00037   -0.00220
AFIX  13
H1A   2    0.988413    0.489873    0.862252    11.00000   -1.20000
AFIX   0
C2    1    0.773512    0.505158    0.793702    11.00000    0.02286    0.02731 =
         0.03695   -0.00074    0.00216   -0.00129
AFIX  13
H2    2    0.877629    0.558739    0.776638    11.00000   -1.20000
AFIX   0
C3    1    0.845068    0.398810    0.769886    11.00000    0.03091    0.02765 =
         0.04183   -0.00170    0.00131    0.00267
AFIX  23
H3A   2    0.745884    0.343059    0.785573    11.00000   -1.20000
H3B   2    0.820718    0.398898    0.730772    11.00000   -1.20000
AFIX   0
C4    1    0.658611    0.439168    0.889092    11.00000    0.03397    0.04859 =
         0.03293    0.00295   -0.00697   -0.00713
C5    1    0.449039    0.474587    0.914640    11.00000    0.03770    0.06575 =
         0.03817   -0.00133   -0.00253   -0.00470
AFIX  43
H5    2    0.402830    0.545154    0.911694    11.00000   -1.20000
AFIX   0
C6    1    0.306674    0.403868    0.944953    11.00000    0.03907    0.10563 =
         0.04182    0.00182    0.00379   -0.01501
AFIX  43
H6    2    0.167865    0.428219    0.962723    11.00000   -1.20000
AFIX   0
C7    1    0.369279    0.299983    0.948674    11.00000    0.06454    0.08625 =
         0.04184    0.01479   -0.00551   -0.03057
AFIX  43
H7    2    0.271321    0.253423    0.968196    11.00000   -1.20000
AFIX   0
C8    1    0.576308    0.263913    0.923712    11.00000    0.06912    0.06034 =
         0.04642    0.01396   -0.01087   -0.02014
AFIX  43
H8    2    0.619817    0.193008    0.926565    11.00000   -1.20000
AFIX   0
C9    1    0.720147    0.332618    0.894379    11.00000    0.04608    0.04941 =
         0.04198    0.00721   -0.00548   -0.00876
AFIX  43
H9    2    0.861073    0.307474    0.877770    11.00000   -1.20000
AFIX   0
C10   1    0.542887    0.544577    0.669235    11.00000    0.02767    0.03985 =
         0.03821    0.01029   -0.00149   -0.00004
C11   1    0.750398    0.570403    0.640382    11.00000    0.03574    0.05435 =
         0.05245    0.01030    0.00863   -0.00610
AFIX  43
H11   2    0.852623    0.624208    0.652467    11.00000   -1.20000
AFIX   0
C12   1    0.804390    0.515312    0.593308    11.00000    0.04910    0.07350 =
         0.05003    0.01324    0.01951    0.00355
AFIX  43
H12   2    0.942513    0.533641    0.573477    11.00000   -1.20000
AFIX   0
C13   1    0.658311    0.433659    0.574953    11.00000    0.06395    0.06821 =
         0.03879    0.00340    0.00603    0.00420
C14   1    0.452707    0.409199    0.604672    11.00000    0.06629    0.06974 =
         0.05106   -0.01338    0.00901   -0.01985
AFIX  43
H14   2    0.351138    0.355026    0.592750    11.00000   -1.20000
AFIX   0
C15   1    0.394263    0.463079    0.651570    11.00000    0.04375    0.05776 =
         0.05140   -0.00735    0.00748   -0.01681
AFIX  43
H15   2    0.255709    0.444819    0.671268    11.00000   -1.20000
AFIX   0
C16   1    0.724694    0.371209    0.524894    11.00000    0.11257    0.10551 =
         0.05576   -0.01448    0.02506   -0.00348
AFIX 137
H16A  2    0.833649    0.412034    0.502661    11.00000   -1.50000
H16B  2    0.579656    0.355279    0.504611    11.00000   -1.50000
H16C  2    0.803099    0.306499    0.535496    11.00000   -1.50000
AFIX   0
HKLF 4

REM  sa4406_a.res in P2(1)2(1)2(1)
REM R1 =  0.0474 for    3715 Fo > 4sig(Fo)  and  0.0493 for all    3837 data
REM    219 parameters refined using      0 restraints

END

WGHT      0.0324      0.6646

REM Instructions for potential hydrogen bonds
HTAB O1 O3_$1
HTAB N4 O1_$2
EQIV $3 x+1, y, z
HTAB C2 O2_$3
HTAB C2 O3
HTAB C3 N3_$1

REM Highest difference peak  0.325,  deepest hole -0.312,  1-sigma level  0.039
Q1    1   0.4045  0.4737  0.7778  11.00000  0.05    0.33
Q2    1   0.4476  0.5266  0.6545  11.00000  0.05    0.16
Q3    1   0.4852  0.3186  0.9345  11.00000  0.05    0.16
Q4    1   0.5151  0.4898  0.6760  11.00000  0.05    0.15
Q5    1   1.0703  0.7425  0.8875  11.00000  0.05    0.15
Q6    1   0.8030  0.4530  0.7819  11.00000  0.05    0.14
Q7    1   0.9273  0.3467  0.5272  11.00000  0.05    0.14
Q8    1   0.5162  0.5805  0.6904  11.00000  0.05    0.13
Q9    1   0.7215  0.4730  0.8720  11.00000  0.05    0.13
Q10   1   0.0558  0.3251  0.9724  11.00000  0.05    0.13
Q11   1   0.6727  0.4179  0.4961  11.00000  0.05    0.13
Q12   1   0.6355  0.5428  0.6583  11.00000  0.05    0.12
Q13   1   0.3122  0.6467  0.9604  11.00000  0.05    0.12
Q14   1   0.1806  0.6768  0.7725  11.00000  0.05    0.12
Q15   1   1.0766  0.4540  0.5979  11.00000  0.05    0.12
Q16   1   0.6943  0.3966  0.8977  11.00000  0.05    0.11
Q17   1   0.5732  0.4427  0.8871  11.00000  0.05    0.11
Q18   1   0.2743  0.4776  0.5942  11.00000  0.05    0.11
Q19   1   0.9016  0.2730  0.8498  11.00000  0.05    0.11
Q20   1   0.2508  0.5194  0.7807  11.00000  0.05    0.11
;
_shelx_res_checksum              25292
_shelx_hkl_file
;
   0   0  -1   -0.12    0.07
   0   0  -2   -0.14    0.19
   0   0   2    1.03    0.22
   0   0   2    0.28    0.24
   0   0  -2   -0.09    0.22
   0   0  -3   -0.36    0.37
   0   0   3    4.34    0.51
   0   0   3    0.68    0.34
   0   0  -3    5.75    0.82
   0   0  -4  214.42    2.93
   0   0   4  217.27    3.06
   0   0  -4  215.55    3.06
   0   0  -5   -0.15    0.91
   0   0   5    0.97    0.60
   0   0  -5    1.23    0.64
   0   0  -6 8703.23  124.63
   0   0  -7    1.64    1.37
   0   0  -8 2777.37   30.91
   0   0   8 2761.21   30.70
   0   0   8 2760.44   31.23
   0   0  -9    1.15    1.91
   0   0   9    1.90    1.51
   0   0 -10  839.32   10.30
   0   0  10  843.78   10.29
   0   0  10  824.87   10.64
   0   0 -10  811.60   10.28
   0   0  11    1.28    1.21
   0   0  11    2.84    1.20
   0   0 -11    3.20    0.96
   0   0 -12   29.10    2.04
   0   0  12   28.55    1.55
   0   0  12   29.26    3.07
   0   0 -12   21.23    1.32
   0   0 -13    0.32    1.30
   0   0  13   -0.68    1.54
   0   0 -14 1182.44   25.18
   0   0 -14 1335.88   28.57
   0   0  14 1336.03   29.44
   0   0 -15    2.16    0.60
   0   0 -16 1742.98   39.32
   0   0  16 1800.29   51.20
   0   0 -17   10.77    1.86
   0   0 -18  472.12   14.12
   0   0  18  494.31   15.15
   0   0 -19    6.19    2.26
   0   0  19    7.44    1.63
   0   0 -20  169.14    6.38
   0   0  20  180.80    6.67
   0   0 -21    5.03    2.00
   0   0  21    4.59    1.85
   0   0 -22  210.57    7.45
   0   0  22  241.17    8.85
   0   0 -23    8.84    2.40
   0   0  23    4.27    1.66
   0   0 -24  301.01   11.09
   0   0  24  301.52   23.83
   0   0 -25    2.44    1.31
   0   0  25    2.72    1.48
   0   0 -26   78.11    4.44
   0   0  26   84.60   10.61
   0   0 -27    2.43    1.19
   0   0  27    2.01    1.21
   0   0 -28   12.05    2.46
   0   0  28   11.26    3.91
   0   0  29    4.18    1.82
   0   0  30    4.46    2.25
   0   0  31    6.37    2.38
   0  -1   0    0.09    0.23
   0  -1   0    0.08    0.20
   0  -1  -1   -0.05    0.22
   0   1  -1    1.66    0.54
   0  -1   1   -0.20    0.29
   0  -1   1    0.89    0.41
   0  -1  -1   -0.04    0.25
   0   1   1    0.12    0.22
   0   1   3    2.67    0.38
   0  -1  -3    3.77    0.63
   0   1  -3    2.09    0.98
   0  -1  -3    2.49    0.47
   0   1  -3    3.31    0.64
   0  -1  -4    4.10    0.64
   0   1  -4    3.12    1.35
   0   1   4    2.82    0.75
   0  -1  -4    3.24    0.87
   0  -1   4    2.17    0.92
   0   1  -4    1.88    0.88
   0   1   5  606.29    7.14
   0   1  -5  625.04    7.58
   0  -1  -5  588.62    7.12
   0   1  -5  591.00    7.30
   0   1   6   34.57    1.40
   0  -1  -6   34.37    3.18
   0   1  -6   39.68    2.28
   0  -1   6   32.12    1.38
   0  -1   6   38.89    1.67
   0   1  -6   32.42    1.43
   0   1  -7 9999.00  143.26
   0  -1  -8  548.12    7.00
   0   1  -8  538.36    8.53
   0  -1   8  540.48    7.02
   0  -1  -8  545.35    7.01
   0   1   8  547.98    7.45
   0  -1  -8  518.90    6.74
   0   1  -8  501.00    6.84
   0  -1  -9 1576.43   17.96
   0   1  -9 1582.69   18.77
   0  -1   9 1652.10   19.01
   0  -1  -9 1594.01   18.22
   0   1   9 1638.06   19.66
   0  -1  -9 1575.66   18.45
   0  -1 -10  474.03    6.11
   0   1 -10  454.85    6.11
   0  -1  10  507.85    6.76
   0  -1 -10  511.63    6.88
   0   1  10  494.25    8.91
   0  -1 -10  513.07    6.95
   0  -1  10  511.96    7.31
   0  -1 -11 1177.44   17.65
   0   1 -11 1214.14   18.34
   0  -1 -11 1189.70   17.87
   0  -1  11 1192.67   17.95
   0   1  11 1228.35   18.75
   0  -1  11 1225.18   18.87
   0  -1 -11 1186.54   18.25
   0   1 -11 1147.18   17.59
   0  -1 -12   14.97    2.20
   0   1 -12   10.12    3.30
   0  -1 -12   22.74    2.16
   0  -1  12   16.32    1.26
   0  -1  12   18.60    2.91
   0  -1 -12   16.09    2.02
   0  -1 -13  645.58   10.19
   0   1 -13  677.01   11.27
   0  -1 -13  676.29   10.93
   0  -1  13  672.76   10.75
   0   1  13  634.76   11.02
   0  -1  13  715.17   11.97
   0  -1 -14 1758.60   37.08
   0   1 -14 1889.26   40.01
   0  -1 -14 1999.24   44.80
   0  -1  14 1846.73   39.01
   0   1  14 1935.92   43.97
   0  -1  14 1894.85   44.63
   0  -1 -15  611.06   13.46
   0   1 -15  700.35   15.72
   0  -1 -15  688.15   15.32
   0   1  15  627.78   14.56
   0  -1  15  694.23   16.55
   0  -1 -16  180.02    4.82
   0   1 -16  205.07    6.50
   0  -1 -16  202.47    5.76
   0   1  16  197.75    6.42
   0  -1  16  218.51   16.79
   0   1 -17  897.75   25.93
   0  -1 -17  849.06   24.28
   0   1  17  917.44   27.03
   0  -1  17  874.61   26.76
   0   1 -18  290.32    9.42
   0  -1 -18  279.94    8.93
   0  -1  18  274.44    9.22
   0   1 -19   36.02    2.84
   0  -1 -19   34.14    2.85
   0   1  19   29.23    4.29
   0  -1  19   42.53    4.89
   0   1 -20  197.95    6.93
   0  -1 -20  193.96    6.82
   0   1  20  186.99   16.14
   0  -1  20  196.88   15.82
   0   1 -21   93.43    4.50
   0  -1 -21   97.92    4.42
   0   1  21  100.97    9.02
   0  -1  21   98.75   12.07
   0   1 -22   39.08    3.83
   0  -1 -22   37.43    3.82
   0   1  22   31.75    3.58
   0  -1  22   46.24    5.74
   0   1 -23   11.64    2.86
   0  -1 -23    2.88    1.56
   0   1  23    6.39    2.09
   0  -1  23    8.53    2.65
   0   1 -24   47.74    3.34
   0  -1 -24   50.91    3.53
   0   1  24   51.03    8.13
   0  -1  24   42.05    6.70
   0   1 -25    0.98    1.22
   0  -1 -25    4.64    2.03
   0   1  25    2.63    2.50
   0  -1  25    2.95    1.29
   0   1 -26    2.24    1.90
   0  -1 -26    1.77    1.01
   0   1  26    1.73    1.64
   0  -1  26    3.38    1.74
   0   1 -27    7.26    2.41
   0  -1 -27    0.56    0.92
   0   1  27    2.75    1.46
   0  -1  27    3.69    1.64
   0   1 -28    4.98    1.37
   0   1  28    5.71    2.37
   0  -1  28   10.87    2.69
   0   1  29    5.04    2.25
   0  -1  29    6.16    2.33
   0   1  30    6.68    1.83
   0  -1  30    9.62    3.65
   0   1  31    2.84    1.08
   0  -1  31    2.26    1.10
   0  -2  -1 1306.61   14.73
   0   2  -1 1212.85   13.83
   0  -2   1 1195.81   13.61
   0  -2   1 1322.74   15.00
   0  -2  -1 1309.56   14.75
   0  -2  -2  681.21    8.03
   0   2  -2  694.49    8.36
   0  -2   2  689.41    8.37
   0  -2  -2  687.65    8.16
   0   2   2  689.38    8.15
   0   2  -3 7208.40   78.73
   0  -2  -3 7544.88   82.18
   0   2  -4  810.53    9.87
   0   2  -4  785.75    9.56
   0  -2  -4  789.89    9.39
   0   2   5  824.52    9.67
   0   2  -5  822.94   10.20
   0  -2   5  833.26   10.27
   0   2  -5  821.75    9.99
   0  -2  -5  839.13   10.05
   0   2   6   76.21    1.75
   0  -2  -6   77.70    1.70
   0   2  -6   75.68    2.14
   0  -2   6   74.69    2.01
   0  -2  -6   72.01    5.56
   0   2  -6   75.79    2.24
   0   2   7  953.77   11.21
   0  -2  -7  931.03   10.94
   0  -2   7  932.72   11.17
   0   2   7  994.05   11.96
   0  -2  -7  944.72   11.48
   0   2  -7  937.98   11.51
   0   2   8   18.68    2.00
   0  -2  -8   15.88    2.37
   0   2  -8   19.61    2.14
   0  -2   8   17.75    1.16
   0   2   8   20.78    2.81
   0  -2  -8   18.24    1.64
   0  -2   8   17.68    1.45
   0   2  -8   17.07    1.25
   0   2   9 1875.92   21.30
   0  -2  -9 1756.58   20.00
   0   2  -9 1851.37   21.55
   0  -2   9 1762.48   20.30
   0   2   9 1904.14   22.11
   0  -2  -9 1713.56   19.99
   0   2  10  826.42   12.71
   0  -2 -10  796.50   12.24
   0   2 -10  808.06   12.87
   0  -2  10  791.55   12.39
   0   2  10  824.62   13.10
   0  -2 -10  778.20   12.84
   0  -2 -11  575.13    9.19
   0   2 -11  576.56   11.33
   0  -2  11  582.08    9.53
   0  -2 -11  604.73    9.89
   0   2  11  603.74   10.03
   0  -2 -11  577.89    9.51
   0  -2  11  585.66    9.95
   0  -2 -12    6.62    0.90
   0  -2  12    8.39    1.12
   0  -2 -12    8.37    1.29
   0   2  12    7.90    1.29
   0  -2 -12    7.77    1.47
   0  -2  12   11.54    1.37
   0  -2 -13  114.76    6.02
   0   2 -13  117.49    6.40
   0  -2 -13  118.10    6.38
   0   2  13  133.17    7.25
   0  -2  13  113.66    8.83
   0  -2 -14  193.44    4.89
   0   2 -14  222.46    5.81
   0  -2 -14  218.47    5.71
   0   2  14  233.67    6.19
   0  -2  14  221.56    6.07
   0  -2 -15   41.83    5.83
   0   2 -15   41.98    2.33
   0  -2 -15   58.97    2.69
   0   2  15   54.61    2.36
   0  -2  15   66.27    7.34
   0   2 -16  315.20    8.33
   0  -2 -16  331.64    8.47
   0   2  16  352.12    9.31
   0  -2  16  339.33    9.34
   0   2 -17   43.69    3.06
   0  -2 -17   40.23    2.65
   0   2  17   51.61    8.01
   0  -2  17   47.37    5.73
   0   2 -18    7.25    1.86
   0  -2 -18    7.08    1.45
   0   2  18   10.09    2.31
   0  -2  18    6.61    1.36
   0   2 -19   33.75    3.20
   0  -2 -19   31.56    2.61
   0   2  19   29.59    4.45
   0  -2  19   37.13    5.01
   0   2 -20    5.53    1.69
   0  -2 -20    6.14    1.84
   0   2  20    3.83    1.09
   0  -2  20    2.78    1.50
   0   2 -21  437.46   13.89
   0  -2 -21  422.09   13.21
   0   2  21  454.93   16.17
   0  -2  21  447.98   15.11
   0   2 -22   11.78    2.43
   0  -2 -22    8.06    1.88
   0   2  22   10.11    2.62
   0  -2  22   22.07    5.41
   0   2 -23  101.02    4.84
   0  -2 -23  102.09    4.71
   0   2  23   98.71   10.33
   0  -2  23  105.92   12.65
   0   2 -24    0.30    1.32
   0  -2 -24    0.81    1.09
   0   2  24    1.83    0.90
   0  -2  24    3.53    1.47
   0   2 -25   16.96    2.78
   0  -2 -25   10.00    2.02
   0   2  25   15.94    3.86
   0  -2  25   11.18    3.35
   0   2 -26    6.10    1.60
   0  -2 -26    5.14    1.34
   0   2  26   11.02    2.33
   0  -2  26   10.01    2.53
   0   2 -27   61.83    5.58
   0   2  27   47.91    8.32
   0  -2  27   55.42    8.87
   0   2 -28    4.11    1.71
   0   2  28    3.78    1.36
   0  -2  28    2.24    0.97
   0   2  29   31.68    6.60
   0  -2  29   31.64    7.23
   0   2  30    3.21    1.37
   0  -2  30    4.84    2.28
   0   2  31   10.64    3.04
   0  -2  31   12.20    4.15
   0   3   0    3.41    1.85
   0  -3   0    4.87    2.00
   0  -3   0    9.65    2.27
   0  -3  -1   28.75    1.34
   0  -3   1   28.55    1.45
   0  -3   1   30.51    1.76
   0  -3  -1   39.13    2.46
   0   3   1   32.93    2.11
   0   3   2  710.10    8.65
   0  -3  -2  711.28    8.60
   0   3  -2  714.12    9.02
   0  -3   2  718.83    8.85
   0  -3   2  745.37    9.23
   0  -3  -2  746.84    9.51
   0  -3  -3 2452.30   27.37
   0   3  -3 2534.10   28.47
   0  -3   3 2627.62   29.57
   0  -3  -3 2554.97   28.58
   0   3   4  721.93    8.85
   0   3  -4  729.95    9.26
   0  -3   4  664.65    8.81
   0  -3  -4  726.04    9.05
   0   3   4  717.73    8.78
   0   3   5 1513.96   17.33
   0  -3  -5 1508.73   17.25
   0   3  -5 1545.39   17.96
   0  -3   5 1477.63   17.10
   0   3  -5 1515.50   17.66
   0   3   5 1537.42   17.61
   0   3   6 2748.16   31.03
   0  -3  -6 2665.48   29.76
   0   3  -6 2736.14   30.88
   0  -3  -6 2722.04   30.48
   0   3  -6 2662.52   30.14
   0   3   7   90.44    2.28
   0  -3  -7   88.94    2.08
   0   3  -7   84.83    2.48
   0  -3   7   94.68    2.34
   0  -3  -7   93.40    2.17
   0  -3   7   90.79    3.09
   0   3  -7   92.01    2.89
   0  -3  -7   89.47    2.75
   0   3   8 1331.61   15.54
   0  -3  -8 1287.57   14.98
   0  -3   8 1307.85   15.55
   0  -3  -8 1311.53   15.43
   0  -3  -8 1303.39   15.50
   0   3   9  208.78    4.12
   0  -3  -9  206.44    3.93
   0   3  -9  216.26    4.86
   0  -3   9  194.14    3.98
   0  -3  -9  185.87    5.76
   0  -3   9  223.77    5.04
   0  -3  -9  216.76    4.67
   0   3  10 1200.17   18.13
   0  -3 -10 1147.01   17.25
   0   3 -10 1190.96   18.51
   0  -3  10 1147.78   17.58
   0  -3 -10 1179.83   17.91
   0  -3 -10 1263.29   19.27
   0   3  11 1306.83   19.63
   0  -3 -11 1263.34   19.10
   0   3 -11 1322.82   20.53
   0   3  11 1326.57   20.27
   0  -3 -11 1147.32   17.53
   0   3  12  191.29    4.80
   0  -3 -12  176.24    3.71
   0   3 -12  176.12    5.51
   0   3  12  182.69    4.46
   0  -3  12  187.67    4.58
   0   3  13  600.42   13.28
   0  -3 -13  548.20   12.10
   0   3 -13  569.13   13.18
   0   3  13  630.17   14.38
   0  -3  13  579.57   13.42
   0  -3 -14  552.64   12.35
   0   3 -14  538.53   12.35
   0  -3 -14  594.97   13.32
   0   3  14  613.92   14.04
   0  -3  14  581.57   14.70
   0  -3 -15  568.88   13.30
   0   3 -15  598.71   14.80
   0  -3 -15  634.15   14.95
   0   3  15  630.13   16.31
   0  -3  15  623.92   15.41
   0   3 -16    2.77    1.97
   0  -3 -16   18.26    1.70
   0   3  16   15.75    1.88
   0  -3  16   25.73    3.47
   0   3 -17  194.23    6.82
   0  -3 -17  190.22    6.35
   0   3  17  199.20    6.89
   0  -3  17  176.54    7.22
   0   3 -18   83.17    3.87
   0  -3 -18   85.57    3.50
   0   3  18   84.61    8.27
   0  -3  18   93.13    9.42
   0   3 -19    2.01    2.27
   0  -3 -19    2.19    1.22
   0   3  19   -2.09    1.57
   0  -3  19    1.93    1.15
   0   3 -20   61.58    3.62
   0  -3 -20   60.55    3.40
   0   3  20   57.70    7.64
   0  -3  20   59.75    7.03
   0   3 -21  131.86    5.76
   0  -3 -21  132.32    5.03
   0   3  21  123.57   11.13
   0  -3  21  131.34   11.11
   0   3 -22    2.48    1.50
   0  -3 -22    0.45    1.04
   0   3  22    1.75    1.75
   0  -3  22    2.34    1.36
   0   3 -23    6.17    2.48
   0  -3 -23    2.64    1.37
   0   3  23    6.41    2.32
   0  -3  23    1.53    1.41
   0   3 -24   26.53    3.99
   0  -3 -24   23.53    3.32
   0   3  24   17.97    3.36
   0  -3  24   17.79    3.69
   0   3 -25   19.65    3.40
   0  -3 -25   20.13    2.91
   0   3  25   16.12    3.73
   0  -3  25   16.44    3.78
   0   3 -26    2.79    1.46
   0  -3 -26   -1.12    0.79
   0   3  26    3.84    1.65
   0  -3  26    6.86    2.75
   0   3 -27    2.99    1.86
   0   3  27    0.78    1.26
   0  -3  27    2.01    1.59
   0   3 -28    5.10    2.40
   0   3  28    7.98    2.39
   0  -3  28    3.53    1.77
   0   3 -29    3.64    1.77
   0   3  29   10.85    3.07
   0  -3  29    6.99    2.18
   0   3  30    1.79    1.20
   0  -3  30    2.58    1.23
   0   3  31    8.63    2.09
   0  -3  31    6.59    1.98
   0  -4   0  774.26    9.58
   0  -4   0  791.02    9.97
   0  -4  -1   47.74    1.76
   0  -4   1   48.48    1.65
   0  -4   1   46.93    1.86
   0  -4  -1   48.99    2.37
   0   4  -1   48.29    1.83
   0  -4  -2 1054.50   12.55
   0   4  -2 1101.48   13.47
   0  -4   2 1063.84   12.75
   0  -4   2 1098.59   13.34
   0  -4  -2 1112.51   13.39
   0   4   2 1076.77   12.88
   0   4  -3   82.20    3.12
   0  -4   3   82.82    2.70
   0   4  -3   81.54    2.31
   0  -4  -3   78.19    2.70
   0   4   3   80.99    2.44
   0   4   4 4160.08   46.19
   0   4  -4 4142.73   46.16
   0  -4   4 4121.27   45.87
   0  -4   4 4169.84   46.61
   0   4   4 4078.07   45.17
   0   4   5   34.41    1.86
   0  -4  -5   25.97    1.40
   0   4  -5   34.66    2.53
   0  -4   5   33.05    2.49
   0   4  -5   27.37    2.12
   0  -4  -5   31.51    2.34
   0   4   5   31.62    1.67
   0   4   7  403.26    5.84
   0  -4  -7  386.40    5.49
   0   4  -7  398.59    6.32
   0  -4   7  375.66    5.73
   0  -4  -7  392.76    5.89
   0   4   7  400.14    5.71
   0   4   8 2017.09   29.77
   0  -4  -8 1948.55   28.73
   0  -4  -8 1967.16   29.16
   0  -4   8 1986.84   29.79
   0  -4  -8 1986.47   29.42
   0   4   9   41.00    5.44
   0  -4  -9   33.38    1.52
   0  -4  -9   27.08    3.45
   0  -4  -9   34.94    2.43
   0   4  10    4.35    1.71
   0   4 -10    3.48    1.61
   0  -4 -10    0.62    0.43
   0  -4 -10    1.04    1.59
   0   4  11  161.57    8.47
   0  -4 -11  155.51    8.08
   0   4 -11  166.82    9.05
   0  -4  11  165.41    9.00
   0  -4 -11  153.98    8.31
   0   4  12  592.16   13.16
   0  -4 -12  550.68   12.20
   0   4 -12  557.08   13.05
   0  -4  12  566.78   13.27
   0  -4 -12  593.84   13.45
   0   4  13   15.18    1.85
   0  -4 -13   13.63    1.25
   0   4 -13   11.59    2.09
   0  -4  13   18.57    2.37
   0  -4 -13   20.52    2.53
   0   4  14  152.10    4.62
   0   4 -14  145.62    5.33
   0  -4  14  140.30    5.04
   0  -4 -14  135.96    4.87
   0   4  15    3.02    1.06
   0   4 -15    3.47    1.88
   0  -4  15    1.97    1.45
   0  -4 -15    2.11    1.97
   0   4 -16   13.71    1.76
   0  -4  16   19.88    3.15
   0  -4 -16   13.00    2.16
   0   4 -17   82.51    3.67
   0  -4 -17   82.12    3.91
   0  -4  17   87.38    8.57
   0  -4 -17   84.20    4.67
   0   4 -18  482.63   14.35
   0  -4 -18  449.80   13.08
   0  -4  18  484.91   14.71
   0  -4 -18  478.64   14.31
   0   4 -19   26.89    3.41
   0  -4 -19   27.35    2.62
   0  -4  19   24.52    3.23
   0  -4 -19   21.79    4.13
   0   4 -20  375.21   12.43
   0  -4 -20  356.45   11.34
   0  -4  20  352.57   16.27
   0  -4 -20  388.09   12.87
   0   4 -21   15.44    2.61
   0  -4 -21   17.69    2.78
   0  -4  21   19.55    4.30
   0  -4 -21   15.65    3.26
   0   4 -22  119.89    5.74
   0  -4 -22  115.03    5.04
   0  -4  22  116.04   11.75
   0  -4 -22  121.60    5.62
   0   4 -23    6.87    2.37
   0  -4 -23    3.41    1.14
   0  -4  23    6.19    1.69
   0  -4 -23    2.08    1.65
   0   4 -24  274.05    9.89
   0  -4 -24  252.84    8.86
   0  -4  24  248.59   18.53
   0  -4 -24  264.02    9.79
   0   4 -25   35.47    3.32
   0  -4 -25   32.76    2.72
   0  -4  25   31.51    4.81
   0  -4 -25   29.67    2.91
   0   4 -26   69.31    6.05
   0  -4  26   58.96   11.35
   0  -4 -26   69.17    6.06
   0   4 -27    9.49    2.54
   0  -4  27    4.88    1.39
   0  -4 -27    8.36    2.31
   0   4 -28   60.60    4.05
   0  -4  28   45.06    7.91
   0  -4 -28   73.78    4.38
   0   4 -29    2.85    1.75
   0  -4  29    4.88    2.17
   0  -4 -29    5.41    1.71
   0  -4  30   36.14    7.79
   0  -4 -30   55.09    7.12
   0  -5   0    1.87    1.73
   0   5   1  168.76    3.55
   0   5  -1  168.79    3.65
   0  -5  -1  159.30    3.15
   0  -5   1  149.04    2.95
   0  -5   1  168.55    4.11
   0  -5  -1  168.15    4.17
   0   5   1  157.52    3.44
   0  -5   2 1086.60   13.51
   0   5  -2 1053.69   12.93
   0   5   2 1047.63   12.79
   0   5   3  577.14    7.78
   0  -5  -3  566.63    7.51
   0   5  -3  580.20    8.11
   0  -5   3  600.29    8.33
   0   5   3  597.10    8.02
   0   5   4   98.96    3.09
   0  -5  -4   88.21    2.30
   0   5  -4  104.77    3.22
   0  -5   4  102.16    3.61
   0  -5  -4   94.98    2.97
   0   5   4   84.72    2.48
   0   5  -5 1353.79   20.76
   0   5   5 1312.56   19.74
   0   5   6   53.99    2.43
   0  -5  -6   40.18    1.50
   0   5  -6   41.66    1.95
   0  -5   6   50.29    2.36
   0  -5  -6   43.44    2.36
   0   5   6   47.74    2.01
   0   5   7  925.98   14.55
   0   5  -7  947.49   15.16
   0  -5   7  914.02   14.73
   0  -5  -7  911.74   14.35
   0   5   7  902.22   14.05
   0   5   8   54.65    5.74
   0  -5  -8   45.57    1.65
   0   5  -8   41.77    2.52
   0  -5  -8   52.34    2.73
   0   5   8   48.92    2.41
   0   5   9  398.78    8.63
   0  -5  -9  389.35    6.75
   0  -5   9  436.73    8.37
   0  -5  -9  415.57    7.44
   0   5  10  244.51    6.33
   0  -5 -10  235.02    5.82
   0   5 -10  231.59    6.30
   0  -5  10  254.67    6.95
   0  -5 -10  242.61    6.30
   0   5  11  568.26   13.22
   0   5 -11  588.20   13.83
   0  -5 -11  539.87   12.43
   0   5  12  355.60    8.51
   0   5 -12  356.40    9.14
   0  -5 -12  348.67    8.77
   0   5  13  673.29   15.87
   0   5 -13  689.05   17.03
   0  -5  13  640.62   15.75
   0  -5 -13  670.05   16.15
   0   5  14  129.92    9.53
   0   5 -14  116.93    5.01
   0  -5  14  135.50    5.25
   0  -5 -14  121.55    4.79
   0   5  15  194.20   12.71
   0   5 -15  184.78    6.64
   0  -5  15  184.29    6.75
   0  -5 -15  190.24    6.89
   0   5  16   52.36    5.28
   0   5 -16   55.90    3.45
   0  -5  16   63.81    5.75
   0  -5 -16   53.38    3.00
   0   5  17   11.88    1.59
   0   5 -17    9.92    2.39
   0  -5  17   10.95    2.03
   0  -5 -17    6.44    1.62
   0   5 -18    2.48    2.05
   0  -5  18    6.37    2.26
   0  -5 -18    6.10    1.89
   0   5 -19   61.01    5.67
   0  -5 -19   56.43    4.92
   0  -5  19   54.62    7.07
   0  -5 -19   51.35    4.90
   0   5 -20   45.99    5.84
   0  -5 -20   46.94    5.86
   0  -5  20   53.35    6.86
   0  -5 -20   55.54    3.88
   0   5 -21   13.00    2.84
   0  -5 -21    7.60    1.94
   0  -5  21    5.94    2.50
   0  -5 -21    7.73    1.86
   0   5 -22   40.47    3.56
   0  -5 -22   33.63    4.31
   0  -5  22   41.76    6.29
   0  -5 -22   41.21    3.80
   0   5 -23   23.09    3.48
   0  -5 -23   18.83    2.75
   0  -5  23   21.94    3.75
   0  -5 -23   15.55    2.60
   0   5 -24    1.26    1.57
   0  -5 -24    1.75    0.92
   0  -5  24    4.97    2.30
   0  -5 -24   -0.14    1.48
   0   5 -25    5.37    2.36
   0  -5 -25    6.32    1.75
   0  -5  25    3.52    2.69
   0  -5 -25   10.07    2.67
   0   5 -26   50.72    4.97
   0  -5  26   42.86    5.59
   0  -5 -26   62.80    6.05
   0   5 -27   27.02    2.80
   0  -5  27   26.79    3.99
   0   5 -28    4.75    1.78
   0  -5  28    4.80    2.26
   0  -5 -28    5.20    2.59
   0   5 -29    8.83    2.51
   0  -5  29    1.87    1.13
   0  -5 -29    7.32    2.51
   0  -5  30   15.39    3.19
   0  -5 -30   23.57    4.16
   0   6   0  147.28    3.78
   0  -6   0  141.80    3.84
   0   6   1    5.20    1.68
   0   6  -1    5.08    1.37
   0  -6   1    3.85    2.25
   0  -6   2    5.70    1.67
   0  -6  -2    1.80    1.59
   0   6   3  325.64    6.22
   0  -6   3  312.87    6.22
   0  -6  -3  324.70    6.76
   0   6   4   62.20    2.47
   0   6  -4   57.03    2.54
   0  -6   4   52.36    3.04
   0  -6  -4   68.81    3.23
   0   6   5   39.63    2.41
   0   6  -5   40.80    2.20
   0  -6   5   43.24    3.07
   0  -6  -5   39.94    3.31
   0   6   6  106.43    3.37
   0   6  -6  103.77    3.28
   0  -6   6  117.09    3.90
   0  -6  -6  118.66    3.87
   0   6   7  322.75    7.99
   0   6  -7  314.10    8.25
   0  -6   7  342.00    8.68
   0  -6  -7  328.75    8.27
   0   6   8    1.16    1.26
   0   6  -8    3.08    1.91
   0  -6   8    7.90    2.75
   0  -6  -8    4.24    2.33
   0   6   9    4.92    1.62
   0   6  -9    2.59    1.87
   0  -6   9    6.10    2.01
   0  -6  -9    3.23    1.70
   0   6  10   89.51    9.98
   0   6 -10   76.80    5.06
   0  -6  10   76.74    4.87
   0  -6 -10   76.11    4.57
   0   6  11   67.55    8.02
   0   6 -11   62.48    3.19
   0  -6  11   65.82    3.64
   0  -6 -11   66.39    3.44
   0   6  12   55.82    4.83
   0   6 -12   58.52    3.22
   0  -6 -12   62.75    3.59
   0   6  13    3.01    1.47
   0   6 -13    3.11    2.14
   0  -6  13    1.69    1.67
   0  -6 -13    1.41    1.89
   0   6  14    1.19    0.84
   0   6 -14    7.26    2.94
   0  -6  14    9.90    2.37
   0  -6 -14    8.80    3.21
   0   6  15   76.22    8.42
   0   6 -15   88.78    4.24
   0  -6  15   96.45    4.78
   0  -6 -15   97.15    4.49
   0   6  16   17.03    2.74
   0   6 -16   16.49    2.55
   0  -6  16   20.08    2.27
   0  -6 -16   16.82    2.46
   0   6  17    5.96    1.63
   0   6 -17    2.51    2.29
   0  -6  17    6.37    2.46
   0  -6 -17    5.35    1.78
   0   6  18  143.68   12.22
   0   6 -18  158.34    6.93
   0  -6  18  142.70    6.13
   0  -6 -18  139.08    5.83
   0   6  19   48.71    4.91
   0   6 -19   47.50    5.22
   0  -6  19   55.19    5.39
   0  -6 -19   44.81    5.60
   0   6 -20  146.18    7.14
   0  -6  20  151.22   11.73
   0  -6 -20  137.76    6.20
   0   6 -21   16.37    3.11
   0  -6 -21   23.54    3.43
   0  -6  21   25.39    4.18
   0  -6 -21   16.24    2.74
   0   6 -22    2.50    1.67
   0  -6 -22    3.45    1.58
   0  -6  22    2.27    1.37
   0  -6 -22    3.01    1.97
   0   6 -23    2.29    1.74
   0  -6 -23    8.18    1.87
   0  -6  23    1.95    1.88
   0   6 -24   23.54    2.93
   0  -6 -24   23.48    2.40
   0  -6  24   20.55    3.97
   0  -6 -24   29.91    2.92
   0   6 -25   72.15    6.52
   0  -6  25   70.62   11.28
   0  -6 -25   61.86    5.36
   0   6 -26   76.79    4.95
   0  -6  26   50.85    7.97
   0  -6 -26   64.42    4.11
   0   6 -27  169.92   10.53
   0  -6  27  169.61   16.51
   0  -6 -27  179.22   34.04
   0   6 -28    7.96    2.59
   0  -6  28   12.05    3.26
   0  -6 -28    7.14    2.27
   0   6 -29    6.42    2.03
   0  -6  29    4.82    2.72
   0  -6 -29    8.34    2.32
   0  -7   0   -0.54    1.74
   0   7   1   54.62    3.98
   0  -7   1   52.57    4.18
   0  -7  -1   57.89    4.12
   0   7   2  264.64    7.07
   0   7  -2  263.84    7.36
   0  -7   2  252.02    7.02
   0  -7  -2  261.45    7.28
   0   7   3  192.90    5.69
   0   7  -3  184.97    5.72
   0  -7   3  164.89    8.95
   0  -7  -3  170.09    9.42
   0   7   4  400.68    9.68
   0   7  -4  346.72    8.86
   0  -7   4  392.66   10.13
   0  -7  -4  364.64    9.27
   0   7   5 1621.01   34.75
   0   7  -5 1637.94   35.30
   0  -7   5 1568.10   33.91
   0  -7  -5 1518.75   32.74
   0   7   6   63.07    4.23
   0   7  -6   74.54    5.26
   0  -7   6   64.92    4.42
   0  -7  -6   68.16    5.12
   0   7   7 1103.95   24.12
   0   7  -7 1109.25   24.61
   0  -7   7 1110.42   24.60
   0  -7  -7 1077.45   23.70
   0   7   8    7.16    2.20
   0   7  -8    6.51    1.31
   0  -7   8    7.07    1.84
   0  -7  -8   -0.48    2.03
   0   7   9  360.81    9.39
   0   7  -9  339.21    9.22
   0  -7   9  312.28    8.74
   0  -7  -9  363.39    9.94
   0   7  10    2.78    1.73
   0   7 -10    5.78    3.19
   0  -7  10    1.04    1.96
   0  -7 -10    4.85    2.02
   0   7  11 1771.47   47.98
   0   7 -11 1716.50   48.65
   0  -7  11 1718.88   48.83
   0  -7 -11 1741.84   47.23
   0   7  12    5.01    1.06
   0   7 -12   11.50    6.25
   0  -7  12    5.89    1.95
   0  -7 -12    7.46    3.02
   0   7  13 1310.99   38.18
   0   7 -13 1323.71   38.42
   0  -7 -13 1241.19   34.02
   0   7  14   18.64    2.70
   0   7 -14   13.63    4.00
   0  -7 -14   16.00    2.23
   0   7  15    6.71    1.53
   0   7 -15   10.92    4.28
   0  -7  15    9.06    2.68
   0  -7 -15   13.65    3.32
   0   7  16  167.15    6.38
   0   7 -16  172.58    7.47
   0  -7  16  157.21    6.29
   0  -7 -16  164.35    6.73
   0   7  17    2.06    0.87
   0   7 -17    2.92    2.43
   0  -7  17    3.96    1.76
   0  -7 -17    2.68    1.75
   0   7  18   24.01    4.41
   0   7 -18   23.74    3.85
   0  -7  18   25.22    3.64
   0  -7 -18   21.57    3.28
   0   7  19   71.92    9.92
   0   7 -19   95.09    5.63
   0  -7  19   91.76    4.87
   0  -7 -19   92.20    4.92
   0   7  20    1.04    0.91
   0   7 -20    4.90    2.15
   0  -7  20    5.70    2.11
   0  -7 -20    6.58    2.25
   0   7  21   35.41    2.51
   0   7 -21   42.93    3.66
   0  -7  21   54.49    7.85
   0  -7 -21   48.05    3.71
   0   7 -22   22.71    3.77
   0  -7 -22   20.44    3.12
   0  -7  22   20.58    3.28
   0  -7 -22   29.83    4.37
   0   7 -23    2.53    1.76
   0  -7 -23    2.80    1.30
   0  -7  23    4.97    1.77
   0  -7 -23    6.71    2.49
   0   7 -24    8.65    2.89
   0  -7  24    8.44    3.56
   0  -7 -24    3.65    1.37
   0   7 -25   27.78    2.94
   0  -7  25   24.64    4.30
   0  -7 -25   24.91    2.87
   0   7 -26    4.43    1.98
   0  -7  26    3.29    1.55
   0  -7 -26    2.33    1.38
   0   7 -27   63.76    8.41
   0  -7  27   47.41   12.49
   0  -7 -27   60.74    7.86
   0   7 -28    6.05    2.44
   0  -7  28   12.29    3.55
   0  -7 -28    7.01    2.15
   0   8   0  783.03   18.70
   0  -8   0  777.88   18.74
   0   8   1   14.35    2.40
   0  -8   1   11.77    2.39
   0  -8  -1   13.21    2.83
   0   8   2  779.11   18.61
   0   8  -2  789.26   19.09
   0  -8   2  753.65   18.24
   0  -8  -2  792.55   18.95
   0   8   3   40.98    3.04
   0   8  -3   45.48    3.00
   0  -8   3   41.24    2.78
   0  -8  -3   38.35    2.77
   0   8   4  687.14   16.62
   0   8  -4  677.01   16.46
   0  -8   4  657.50   16.13
   0  -8  -4  685.53   16.81
   0   8   5    6.72    2.47
   0   8  -5    8.52    1.92
   0  -8   5   10.18    2.59
   0  -8  -5   12.94    3.24
   0   8   6  122.26    4.35
   0   8  -6  126.09    5.36
   0  -8   6  120.50    4.55
   0  -8  -6  117.32    4.90
   0   8   7  127.64    4.86
   0   8  -7  117.03    4.85
   0  -8   7  116.04    4.80
   0  -8  -7  106.86    4.58
   0   8   8   46.92    2.89
   0   8  -8   52.40    4.16
   0  -8   8   41.32    2.86
   0  -8  -8   44.27    3.42
   0   8   9   82.38    4.16
   0   8  -9   70.06    3.68
   0  -8   9   78.75    4.00
   0  -8  -9   74.72    3.82
   0   8  10    7.68    1.73
   0   8 -10   11.93    2.82
   0  -8  10   13.01    2.13
   0  -8 -10   11.66    3.00
   0   8  11    1.08    1.12
   0   8 -11    4.16    2.35
   0  -8  11    2.53    1.95
   0  -8 -11    0.73    2.04
   0   8  12   20.57    2.41
   0   8 -12   23.77    3.34
   0  -8  12   24.35    2.58
   0  -8 -12   19.63    2.46
   0   8  13   39.37    4.28
   0   8 -13   44.40    3.50
   0  -8  13   53.22    3.36
   0  -8 -13   35.70    3.01
   0   8  14  138.24   11.90
   0   8 -14  141.33    6.73
   0  -8  14  126.17    5.84
   0  -8 -14  119.12    5.35
   0   8 -15    0.30    2.42
   0  -8 -15    4.64    2.63
   0   8  16  141.98   13.49
   0   8 -16  142.61    7.54
   0  -8  16  142.15    6.99
   0  -8 -16  137.04    6.62
   0   8  17    3.97    1.34
   0   8 -17    0.67    2.06
   0  -8  17    5.93    2.42
   0  -8 -17   10.88    3.21
   0   8  18    2.30    0.90
   0   8 -18   12.98    3.41
   0  -8  18    2.52    1.73
   0  -8 -18    6.77    1.57
   0   8  19   10.61    2.68
   0   8 -19   16.58    3.70
   0  -8  19    9.51    2.11
   0  -8 -19   14.80    3.01
   0   8  20   75.87   10.24
   0   8 -20  118.20    6.09
   0  -8  20   95.00    4.87
   0  -8 -20  101.72    5.07
   0   8  21   11.05    2.23
   0   8 -21    9.13    2.98
   0  -8  21   12.73    3.16
   0  -8 -21    9.74    2.36
   0   8  22   29.20    2.99
   0   8 -22   30.66    3.44
   0  -8  22   20.43    2.93
   0  -8 -22   21.09    2.39
   0   8 -23    3.53    1.85
   0  -8 -23    1.68    0.98
   0  -8  23    4.61    2.19
   0  -8 -23    3.09    1.94
   0   8 -24    4.69    2.46
   0  -8  24    5.54    2.07
   0  -8 -24    4.28    1.90
   0   8 -25   25.85    3.17
   0  -8  25   25.89    5.76
   0  -8 -25   43.56    4.12
   0   8 -26   11.59    3.28
   0  -8  26   13.88    3.07
   0  -8 -26    9.21    2.63
   0   8 -27   22.04    3.70
   0  -8  27   18.44    5.59
   0   9   0    3.93    2.74
   0  -9   0    1.11    1.97
   0   9   1    5.32    2.10
   0   9  -1    3.43    1.94
   0  -9   1    5.96    2.02
   0  -9  -1    7.04    1.99
   0   9   2   40.03    2.92
   0  -9   2   49.81    4.19
   0  -9  -2   46.40    3.15
   0   9   3   39.57    2.66
   0   9  -3   36.34    3.50
   0  -9   3   37.57    3.68
   0  -9  -3   30.73    3.31
   0   9   4    7.59    2.48
   0   9  -4    7.07    2.57
   0  -9   4    3.61    2.09
   0  -9  -4   -2.32    1.95
   0   9   5  116.55    4.79
   0   9  -5  101.26    4.96
   0  -9   5  130.95    5.49
   0  -9  -5  135.17    6.14
   0   9   6    6.72    2.45
   0   9  -6    0.07    2.00
   0  -9   6    6.63    3.00
   0  -9  -6    7.80    2.27
   0   9   7   58.44    3.46
   0   9  -7   66.41    4.63
   0  -9   7   64.46    3.78
   0  -9  -7   58.43    3.86
   0   9   8  273.93    8.96
   0   9  -8  288.41    9.54
   0  -9   8  281.14    9.29
   0  -9  -8  281.40    9.68
   0   9   9    4.02    2.35
   0   9  -9   12.22    3.53
   0  -9   9    4.29    2.36
   0  -9  -9    2.30    2.32
   0   9  10  284.77    9.67
   0   9 -10  281.63   10.04
   0  -9  10  313.31   10.96
   0  -9 -10  302.08   10.42
   0   9  11  298.29    9.98
   0   9 -11  299.46   10.42
   0  -9  11  311.97   10.66
   0  -9 -11  305.74   10.40
   0   9  12    2.08    1.70
   0   9 -12    2.04    2.37
   0  -9  12    0.61    1.95
   0  -9 -12    5.28    2.09
   0   9  13    3.28    1.79
   0   9 -13    4.88    3.29
   0  -9  13    8.85    2.74
   0  -9 -13    3.09    1.90
   0   9  14  255.61   11.18
   0   9 -14  268.21   11.77
   0  -9  14  240.52   10.74
   0  -9 -14  254.71   11.30
   0   9  15    7.14    1.66
   0   9 -15    6.51    2.68
   0  -9  15    5.64    2.16
   0  -9 -15    2.37    1.95
   0   9  16  347.49   14.64
   0   9 -16  366.91   14.09
   0  -9 -16  381.79   14.22
   0   9  17    7.11    2.25
   0   9 -17   10.45    3.72
   0  -9  17   10.44    2.23
   0  -9 -17    5.72    1.81
   0   9  18   28.39    5.04
   0   9 -18   33.31    3.17
   0  -9  18   30.85    4.25
   0  -9 -18   30.75    4.20
   0   9  19   11.32    3.33
   0   9 -19   12.88    3.25
   0  -9  19   14.67    2.82
   0  -9 -19   18.05    3.79
   0   9  20   29.16    4.53
   0   9 -20   35.54    4.12
   0  -9  20   41.35    4.52
   0  -9 -20   34.14    3.28
   0   9  21    2.46    0.88
   0   9 -21    8.99    3.69
   0  -9  21    1.71    1.69
   0  -9 -21    3.00    2.04
   0   9  22   42.45    7.56
   0   9 -22   64.44    6.14
   0  -9  22   54.35   10.21
   0  -9 -22   66.32    5.86
   0   9 -23   10.72    3.16
   0  -9  23   -0.06    1.62
   0  -9 -23    5.12    2.54
   0   9 -24   12.11    3.68
   0  -9  24    3.10    1.56
   0  -9 -24    9.01    2.86
   0   9 -25    7.59    2.86
   0  -9  25    5.07    2.11
   0  -9 -25    5.13    2.06
   0   9 -26    8.10    2.78
   0  -9  26    6.80    2.50
   0  10   0  454.55   14.11
   0 -10   0  426.39   13.40
   0  10   1  301.72    9.85
   0  10  -1  307.96   10.37
   0 -10   1  301.37    9.96
   0 -10  -1  310.24   10.47
   0  10   2  401.61   12.59
   0 -10   2  392.15   12.39
   0 -10  -2  374.30   11.97
   0  10   3   96.79    4.59
   0  10  -3   91.31    4.71
   0 -10   3   93.59    5.21
   0 -10  -3   99.16    5.35
   0  10   4  466.95   14.58
   0  10  -4  492.78   15.37
   0 -10   4  490.42   15.75
   0 -10  -4  473.17   14.94
   0  10   5  146.23    5.92
   0  10  -5  148.61    6.66
   0 -10   5  135.85    6.02
   0 -10  -5  138.57    6.00
   0  10   6  298.04   10.24
   0  10  -6  310.55   10.84
   0 -10   6  326.62   11.65
   0 -10  -6  306.69   10.89
   0  10   7  321.99   10.88
   0  10  -7  287.68   10.11
   0 -10   7  289.46   10.15
   0 -10  -7  297.49   10.63
   0  10   8  120.37    5.43
   0  10  -8  123.10    6.46
   0 -10   8  118.51    5.95
   0 -10  -8  129.27    6.40
   0  10   9   13.12    3.22
   0  10  -9    5.46    2.34
   0 -10   9   10.97    3.37
   0 -10  -9    2.92    3.21
   0  10  10   34.73    3.77
   0  10 -10   38.07    5.37
   0 -10  10   38.23    4.90
   0 -10 -10   37.88    4.69
   0  10  11   26.13    3.85
   0  10 -11   25.46    4.95
   0 -10  11   25.83    4.45
   0 -10 -11   17.01    3.52
   0  10  12   70.89    6.98
   0  10 -12   72.47    4.97
   0 -10  12   80.27    5.10
   0 -10 -12   60.88    3.95
   0  10  13    9.22    2.77
   0  10 -13   15.35    3.84
   0 -10  13   10.71    2.98
   0 -10 -13   11.83    2.44
   0  10  14   37.50    5.72
   0  10 -14   39.04    5.37
   0 -10  14   47.42    5.56
   0 -10 -14   31.47    3.73
   0  10  15   24.12    4.95
   0  10 -15   31.64    4.75
   0 -10  15   26.60    4.17
   0 -10 -15   40.97    3.75
   0  10  16    6.55    1.87
   0  10 -16    2.66    2.36
   0 -10  16    4.60    2.64
   0 -10 -16    8.34    3.09
   0  10  17   76.65    7.95
   0  10 -17   73.57    4.42
   0 -10 -17   73.09    4.30
   0  10  18   17.80    3.36
   0  10 -18   12.59    3.80
   0 -10 -18   12.93    2.72
   0  10  19   56.31   10.73
   0  10 -19   68.30    6.27
   0 -10  19   75.99    7.05
   0 -10 -19   71.90    6.26
   0  10  20    2.85    1.35
   0  10 -20    3.05    2.06
   0 -10  20    4.70    1.93
   0 -10 -20    0.83    1.36
   0  10  21    3.87    1.61
   0  10 -21   11.91    3.61
   0 -10  21   11.19    3.27
   0 -10 -21    7.53    2.52
   0  10 -22   71.89    6.23
   0 -10  22   69.21    5.90
   0 -10 -22   74.77    5.50
   0  10 -23   11.55    3.47
   0 -10  23    4.76    1.91
   0 -10 -23    5.69    1.89
   0  10 -24   67.95    8.71
   0 -10  24   51.39    8.75
   0 -10 -24   53.82    6.86
   0  10 -25   13.00    2.84
   0 -10  25   14.85    3.28
   0  11   0    4.59    2.06
   0 -11   0    2.32    2.21
   0  11   1    5.95    2.21
   0  11  -1    2.26    3.07
   0 -11   1    4.27    3.01
   0 -11  -1    2.69    2.43
   0  11   2   38.26    4.07
   0  11  -2   37.98    3.90
   0 -11   2   35.84    4.17
   0 -11  -2   30.98    3.97
   0  11   3   10.71    3.06
   0 -11   3    1.28    2.10
   0 -11  -3    0.27    2.35
   0  11   4   69.03    6.32
   0  11  -4   76.02    4.98
   0 -11   4   73.95    9.22
   0 -11  -4   78.28    4.97
   0  11   5  217.77    8.24
   0  11  -5  233.00    9.11
   0 -11   5  237.14    8.94
   0 -11  -5  248.53    9.81
   0  11   6   10.92    3.31
   0  11  -6    8.84    2.93
   0 -11   6   12.14    2.71
   0 -11  -6   13.20    3.82
   0  11   7  638.81   56.25
   0  11  -7  646.34   57.11
   0 -11   7  639.71   56.49
   0 -11  -7  627.64   25.45
   0  11   8  140.23    6.79
   0  11  -8  131.66    6.96
   0 -11   8  119.03    6.46
   0 -11  -8  134.00    7.40
   0  11   9   95.76    5.37
   0  11  -9   82.02    4.82
   0 -11   9   85.63    5.32
   0 -11  -9   93.86    5.52
   0  11  10    3.27    1.72
   0  11 -10    5.25    2.51
   0 -11  10    2.28    2.59
   0 -11 -10    3.90    2.26
   0  11  11  155.99   11.99
   0  11 -11  145.30    7.35
   0 -11  11  169.90    8.40
   0 -11 -11  151.90    7.62
   0  11  12   20.58    3.43
   0  11 -12   17.58    3.59
   0 -11  12   23.81    4.22
   0 -11 -12   15.14    2.75
   0  11  13  432.07   44.82
   0  11 -13  421.57   14.70
   0 -11  13  419.55   14.40
   0 -11 -13  434.94   45.30
   0  11  14    3.58    1.55
   0  11 -14    3.74    2.99
   0 -11  14    5.53    1.95
   0 -11 -14    8.17    3.26
   0  11  15  252.99   39.74
   0  11 -15  257.88   40.59
   0 -11  15  239.32   10.70
   0 -11 -15  237.44   10.35
   0  11  16    4.84    1.78
   0  11 -16    0.46    2.18
   0 -11  16    7.56    2.55
   0 -11 -16    3.52    1.93
   0  11  17  104.97   14.26
   0  11 -17  129.83   10.56
   0 -11  17  129.83   10.46
   0 -11 -17  123.60    9.95
   0  11  18    3.03    1.87
   0  11 -18    7.59    3.70
   0 -11  18    7.82    2.72
   0 -11 -18    5.59    2.33
   0  11  19   55.79   10.08
   0  11 -19   59.12    4.33
   0  11  20    1.69    1.14
   0  11 -20    0.66    2.05
   0 -11  20    6.40    2.26
   0 -11 -20    3.18    2.23
   0  11  21   20.24    4.31
   0  11 -21   26.00    3.84
   0 -11  21   26.53    3.56
   0 -11 -21   32.25    3.93
   0  11 -22    6.53    2.31
   0 -11  22    9.01    2.65
   0 -11 -22   14.80    2.84
   0  11 -23    6.74    2.87
   0 -11  23    8.97    3.05
   0 -11 -23   10.12    2.93
   0  12   0  202.37    8.94
   0 -12   0  205.51    8.98
   0  12   1  203.17    8.90
   0  12  -1  221.32    9.50
   0 -12   1  237.10    9.91
   0 -12  -1  223.36    9.57
   0  12   2  260.65   10.39
   0  12  -2  254.22   10.00
   0 -12   2  263.11   10.73
   0 -12  -2  243.19    9.73
   0  12   3   27.27    3.67
   0  12  -3   22.99    3.19
   0 -12   3   38.36    5.78
   0 -12  -3   27.44    4.27
   0  12   4  294.32   11.28
   0  12  -4  294.98   11.46
   0 -12   4  304.18   11.76
   0 -12  -4  299.56   11.70
   0  12   5   28.33    3.96
   0  12  -5   18.79    3.84
   0 -12   5   20.31    3.74
   0 -12  -5   27.22    4.23
   0  12   6   70.50    4.85
   0  12  -6   71.76    5.23
   0 -12   6   76.40    4.73
   0 -12  -6   75.88    4.55
   0  12   7   50.48    3.63
   0  12  -7   53.60    4.78
   0 -12   7   39.42    3.44
   0 -12  -7   55.81    4.33
   0  12   8   43.67    3.39
   0  12  -8   51.01    3.97
   0 -12   8   44.00    3.70
   0 -12  -8   48.28    4.24
   0  12   9    8.64    2.58
   0  12  -9    1.67    2.05
   0 -12   9    6.77    2.10
   0  12  10   46.80    3.49
   0  12 -10   26.62    4.64
   0 -12  10   40.74    3.97
   0 -12 -10   27.90    3.77
   0  12  11    4.10    1.30
   0  12 -11   13.30    3.38
   0 -12  11    7.93    2.72
   0 -12 -11    4.78    1.80
   0  12  12    0.99    1.63
   0  12 -12    6.04    2.21
   0 -12  12    7.09    2.76
   0 -12 -12    4.94    2.02
   0  12  13    3.43    1.51
   0  12 -13    4.02    2.12
   0 -12  13    1.82    1.81
   0 -12 -13    6.86    1.90
   0  12  14    8.55    2.71
   0  12 -14    0.28    2.02
   0 -12  14    6.05    2.60
   0 -12 -14    1.38    1.75
   0  12  15   27.10    4.84
   0  12 -15   29.06    4.03
   0 -12  15   28.44    3.67
   0 -12 -15   27.59    3.92
   0  12  16    3.99    2.00
   0  12 -16    7.31    2.99
   0 -12  16    7.80    2.56
   0 -12 -16    6.07    2.75
   0  12  17    6.09    2.36
   0  12 -17    4.42    2.22
   0 -12  17    6.47    3.14
   0  12  18   53.49   10.41
   0  12 -18   66.35    5.29
   0 -12  18   59.50    4.77
   0 -12 -18   62.65    5.18
   0  12  19    7.52    1.97
   0  12 -19   17.61    3.79
   0 -12  19   15.15    3.58
   0 -12 -19   10.70    3.25
   0  12  20   50.27    9.63
   0  12 -20   91.42   11.82
   0 -12 -20   78.89    9.95
   0  12 -21    5.93    2.45
   0 -12  21    8.47    3.00
   0 -12 -21    1.50    1.48
   0  13   0    5.77    2.80
   0 -13   0    6.18    2.00
   0  13   1    3.04    2.09
   0  13  -1    6.16    2.76
   0 -13   1    5.37    2.10
   0 -13  -1    3.94    2.64
   0  13   2    4.35    2.73
   0  13  -2    2.22    1.93
   0 -13   2    8.53    2.31
   0 -13  -2    2.49    1.97
   0  13   3   55.31    3.68
   0  13  -3   62.26    4.35
   0 -13   3   56.78    4.82
   0 -13  -3   53.02    3.68
   0  13   4   44.04    4.15
   0 -13   4   41.24    4.39
   0 -13  -4   48.68    4.09
   0  13   5   16.91    3.45
   0 -13   5   15.54    3.45
   0 -13  -5   16.48    3.09
   0  13   6   47.97    4.02
   0  13  -6   70.28    5.25
   0 -13   6   55.11    4.36
   0 -13  -6   65.30    4.54
   0  13   7   34.25    4.12
   0  13  -7   34.43    4.13
   0 -13   7   23.08    3.15
   0 -13  -7   32.91    2.99
   0  13   8   28.03    3.29
   0  13  -8   19.03    3.03
   0 -13   8   22.91    2.98
   0 -13  -8   26.73    3.50
   0  13   9    7.12    2.45
   0  13  -9    6.77    2.76
   0 -13   9    4.03    1.73
   0 -13  -9    4.97    2.45
   0  13  10   11.52    3.18
   0  13 -10   22.86    3.83
   0 -13  10   23.15    3.55
   0 -13 -10   11.39    3.14
   0  13  11   11.99    3.09
   0  13 -11    5.64    2.42
   0 -13  11   11.45    2.81
   0 -13 -11   18.90    3.90
   0  13  12   31.51    6.64
   0  13 -12   23.54    3.97
   0 -13  12   30.87    4.17
   0 -13 -12   27.33    3.55
   0  13  13    3.02    1.52
   0  13 -13    1.65    2.20
   0 -13  13    3.41    1.92
   0 -13 -13    2.83    1.60
   0  13  14   55.75    9.73
   0  13 -14   83.44    5.18
   0 -13  14   94.74    5.89
   0 -13 -14   96.54    5.71
   0  13  15    7.07    2.31
   0  13 -15    4.37    3.03
   0 -13  15    7.16    2.72
   0 -13 -15    7.00    2.79
   0  13  16   49.68    5.65
   0  13 -16   68.35    5.60
   0 -13  16   52.30    5.13
   0 -13 -16   51.22    4.51
   0  13  17    4.79    2.29
   0  13 -17    1.64    2.15
   0 -13  17    3.33    1.80
   0 -13 -17    3.99    1.61
   0  13  18   12.36    4.29
   0  13 -18   22.43    4.37
   0 -13  18   18.45    3.61
   0 -13 -18   23.34    3.77
   0  13  19   15.04    3.24
   0  13 -19    4.06    2.08
   0 -13  19    9.09    2.43
   0 -13 -19   21.58    4.30
   0  14   0  243.40   36.09
   0 -14   0  241.12   18.67
   0  14   1   80.64    7.20
   0  14  -1   87.32    7.84
   0 -14   1   78.65    7.53
   0 -14  -1   81.56    7.27
   0  14   2  150.73   12.12
   0  14  -2  140.46   11.37
   0 -14   2  163.85   13.07
   0 -14  -2  139.97   11.09
   0  14   3   12.86    3.33
   0  14  -3   11.91    3.26
   0 -14   3   13.72    3.10
   0 -14  -3   12.44    3.34
   0  14   4   46.96    4.90
   0  14  -4   42.69    5.52
   0 -14   4   56.48    6.26
   0 -14  -4   37.04    4.37
   0  14   5   22.83    3.32
   0 -14   5   13.85    3.39
   0 -14  -5   25.34    3.85
   0  14   6   33.43    4.28
   0  14  -6   29.91    3.65
   0 -14   6   27.99    3.88
   0 -14  -6   24.87    3.57
   0  14   7   58.56    5.89
   0  14  -7   56.00    5.39
   0 -14   7   60.72    6.27
   0 -14  -7   40.58    4.80
   0  14   8   33.35    4.12
   0  14  -8   29.33    3.69
   0 -14   8   29.81    3.56
   0 -14  -8   32.08    3.72
   0  14   9   20.99    2.55
   0  14  -9   15.16    4.10
   0 -14   9   35.94    4.15
   0 -14  -9   21.37    2.84
   0  14  10    9.60    2.83
   0  14 -10   14.28    3.92
   0 -14  10    2.80    1.77
   0 -14 -10    9.22    2.94
   0  14  11   23.53    4.89
   0  14 -11   25.33    3.22
   0 -14  11   34.23    3.55
   0 -14 -11   27.49    3.33
   0  14 -12    1.66    2.68
   0 -14  12    7.90    3.05
   0 -14 -12    1.47    1.50
   0  14  13   15.14    4.40
   0  14 -13   10.28    3.17
   0 -14  13   22.34    3.62
   0 -14 -13   15.01    2.89
   0  14  14    8.71    2.30
   0  14 -14    6.29    2.56
   0 -14  14    6.39    2.74
   0 -14 -14    8.34    2.65
   0  14  15    6.75    2.22
   0  14 -15    1.92    2.10
   0 -14  15   10.09    2.81
   0 -14 -15    4.53    1.75
   0  14  16   39.56    7.95
   0  14 -16   40.47    6.89
   0 -14  16   46.50    7.53
   0 -14 -16   46.66    7.62
   0  15   0    5.46    3.30
   0 -15   0    5.15    2.68
   0  15   1   -0.32    1.66
   0  15  -1    4.55    2.99
   0 -15   1    1.48    1.72
   0 -15  -1    3.47    2.35
   0  15   2    2.37    1.74
   0  15  -2    6.16    2.38
   0 -15   2    6.82    2.81
   0 -15  -2    5.78    1.98
   0  15   3   16.28    2.80
   0  15  -3   12.99    3.80
   0 -15   3   17.53    2.74
   0 -15  -3   22.73    3.07
   0  15   4    9.54    3.12
   0  15  -4   14.03    3.65
   0 -15   4   17.78    2.94
   0 -15  -4    9.52    3.05
   0  15   5   78.97    6.21
   0 -15   5   87.40    6.76
   0 -15  -5   78.35    5.83
   0  15   6   13.13    3.70
   0  15  -6    6.72    2.64
   0 -15   6    5.40    2.10
   0 -15  -6    7.00    2.66
   0  15   7  118.21   14.64
   0  15  -7  131.30   24.97
   0 -15   7  116.56   14.42
   0 -15  -7  122.71   23.19
   0  15   8   22.66    4.23
   0  15  -8   27.23    5.20
   0 -15   8   41.72    6.03
   0 -15  -8   26.48    4.54
   0  15   9   84.40   10.83
   0  15  -9   85.82   10.97
   0 -15   9   82.01   10.56
   0 -15  -9   77.19    9.96
   0  15  10    4.08    2.53
   0  15 -10    4.22    2.38
   0 -15  10    9.37    2.98
   0 -15 -10    4.59    1.87
   0  15  11   26.16    6.60
   0  15 -11   45.38    6.25
   0 -15  11   35.75    5.61
   0 -15 -11   41.97    5.88
   0  15  12    3.25    1.73
   0  15 -12    9.62    3.07
   0 -15  12    8.80    2.55
   0 -15 -12    8.03    2.36
   0  16   0   63.63    8.20
   0 -16   0   59.94    7.60
   0  16   1    5.65    2.92
   0  16  -1    2.48    1.97
   0 -16   1    2.15    1.68
   0 -16  -1    4.43    2.31
   0  16   2   12.19    3.34
   0  16  -2   10.85    2.91
   0 -16   2   15.95    3.07
   0 -16  -2   20.71    3.46
   0  16   3    7.21    2.36
   0 -16   3    8.70    2.91
   0 -16  -3    9.42    2.85
   0  16   4    4.03    1.95
   0  16  -4    5.01    2.13
   0 -16   4    9.35    3.19
   0 -16  -4    6.01    2.34
   0  16   5   11.96    3.16
   0  16  -5    9.43    2.99
   0 -16  -5    5.95    2.13
   0  16   6    6.06    1.96
   0 -16   6    5.86    2.03
   0 -16  -6    2.92    1.46
   0  16   7    3.58    1.71
   0  16  -7    1.43    2.11
   0 -16   7    3.80    1.69
   0 -16  -7    6.08    2.47
   1   0   0   -0.93    0.63
  -1   0   0    1.44    0.57
   1   0   1 3041.37   33.55
   1   0  -1 3137.43   34.39
  -1   0   1 3113.67   34.29
  -1   0  -2  514.80    6.43
  -1   0   2  494.31    5.75
  -1   0  -2  523.78    6.74
  -1   0   2  519.89    6.45
   1   0  -2  495.74    6.13
   1   0   2  487.02    5.64
  -1   0   4   -2.03    0.46
  -1   0   5   -1.73    0.49
  -1   0  -8 1308.73   15.44
   1   0  -8 1388.04   15.40
  -1   0  -8 1402.07   16.73
   1   0  -8 1368.80   16.34
   1   0   8 1378.69   16.07
  -1   0  -8 1374.44   15.69
  -1   0 -10 1128.50   17.23
   1   0 -11  170.72    3.08
  -1   0 -11  183.18    4.98
  -1   0  11  164.16    2.93
  -1   0  11  150.78    4.42
   1   0  11  173.21    3.67
  -1   0 -11  162.18    3.41
   1   0 -12    0.49    0.57
  -1   0 -12    4.29    2.44
  -1   0  12    5.01    1.03
  -1   0  12    1.37    0.70
   1   0  12    2.34    1.07
  -1   0 -12    3.38    1.24
   1   0 -13  352.21    7.86
  -1   0 -13  356.55    9.15
  -1   0  13  342.84    7.59
  -1   0  13  364.68    9.13
   1   0  13  357.72    8.50
  -1   0 -13  335.29    7.78
   1   0 -14    1.67    0.70
  -1   0 -14    2.72    1.87
  -1   0  14    4.48    1.32
   1   0  14   -0.15    0.93
  -1   0 -14    3.40    0.66
   1   0 -15    3.15    0.49
   1   0 -15    3.02    0.99
  -1   0 -15    2.91    1.87
  -1   0  15    1.61    1.17
   1   0  15    3.73    1.59
   1   0 -16   59.97    2.03
   1   0 -16   64.64    2.20
  -1   0 -16   84.04    4.22
  -1   0  16   71.39    8.87
   1   0  16   76.23    8.00
   1   0 -17  129.14    4.69
   1   0 -17  146.83    4.98
  -1   0 -17  137.66    5.80
  -1   0  17  147.36   10.70
   1   0  17  140.78    7.64
   1   0 -18    7.56    1.81
  -1   0 -18    7.08    1.45
  -1   0  18    8.02    1.74
   1   0  18    9.37    1.79
   1   0 -19  230.28    6.68
   1   0 -19  275.06    8.08
  -1   0 -19  266.26    8.76
  -1   0  19  285.84    9.52
   1   0  19  258.17    9.91
   1   0 -20    9.94    2.00
   1   0 -20   22.90    1.93
  -1   0 -20   23.28    3.39
  -1   0  20   22.70    5.82
   1   0  20   15.67    2.44
   1   0 -21   70.13    5.63
  -1   0 -21   57.89    5.52
  -1   0  21   64.61    9.23
   1   0  21   63.37    8.74
   1   0 -22   11.17    1.88
  -1   0 -22    9.34    2.59
  -1   0  22   12.32    3.15
   1   0  22    7.51    2.14
   1   0 -23   18.61    2.20
  -1   0 -23   17.56    3.09
  -1   0  23   22.92    5.14
   1   0  23   16.14    2.61
   1   0 -24   54.84    3.14
  -1   0 -24   45.71    3.66
  -1   0  24   57.53    8.41
   1   0  24   50.12    6.88
  -1   0 -25   35.20    3.03
  -1   0  25   33.68    5.17
   1   0  25   33.47    6.03
  -1   0 -26   17.83    2.75
  -1   0  26   25.37    4.24
   1   0  26   20.89    4.23
  -1   0 -27   61.34    5.52
  -1   0  27   52.03    9.87
   1   0  27   50.79    8.56
  -1   0 -28   12.56    3.08
  -1   0  28    5.78    2.50
   1   0  28    7.86    2.51
  -1   0 -29    4.52    1.68
  -1   0  29    3.20    2.39
   1   0  29    1.26    0.96
  -1   0 -30    8.95    2.57
  -1   0  30   16.54    4.27
   1   0  30    3.71    1.38
  -1   0  31   10.89    3.53
   1   0  31    2.65    1.04
   1   1   0 4469.36   49.00
   1  -1   0 4335.52   47.44
   1   1   0 4391.35   47.93
   1  -1   0 4475.92   49.03
  -1   1   0 4384.81   48.03
   1  -1   1  149.99    3.70
   1   1   2   -0.95    0.21
   1   1   3 1935.68   21.89
  -1  -1   3 2108.52   23.32
  -1   1   3 2175.66   23.81
   1  -1   3 2090.89   24.04
   1  -1  -3 2183.60   23.89
  -1   1   3 2163.51   24.34
  -1  -1   3 2062.75   24.56
   1   1  -3 2029.93   23.40
   1  -1   3 2107.71   23.44
  -1  -1  -4 2083.36   23.71
   1   1  -4 2092.38   23.16
  -1  -1   4 2033.43   22.51
  -1   1   4 2071.53   22.55
  -1   1  -4 1986.02   22.54
   1  -1   4 2043.73   23.47
   1  -1  -4 2092.68   22.78
  -1   1   4 2123.34   24.14
  -1  -1   4 1961.81   22.29
   1  -1   4 2021.77   22.55
   1   1   5 1122.99   13.48
  -1  -1  -5 1109.98   13.12
   1   1  -5 1114.75   12.64
  -1  -1   5 1114.27   12.60
  -1   1  -5 1087.80   13.34
   1   1   5 1159.70   12.81
  -1  -1   5 1053.16   12.58
  -1  -1  -5 1132.40   12.51
   1  -1   5 1087.01   12.53
  -1   1  -5 1086.99   12.53
  -1  -1  -6   37.44    3.96
   1   1  -6   36.71    1.04
  -1  -1   6   35.89    1.17
  -1   1  -6   23.64    2.49
   1  -1   6   39.84    1.83
   1  -1  -6   37.78    4.35
   1   1   6   35.02    0.89
  -1  -1   6   40.80    4.80
  -1  -1  -6   38.26    1.00
   1  -1   6   34.93    1.44
  -1   1  -6   31.80    1.40
   1   1   7  351.09    5.27
  -1  -1  -7  348.64    5.23
   1   1  -7  353.40    4.57
  -1  -1   7  350.56    4.47
  -1   1  -7  359.64    5.68
   1  -1  -7  346.82    5.20
   1   1   7  348.59    4.36
  -1  -1   7  371.09    5.60
  -1  -1  -7  355.27    4.47
   1  -1   7  334.73    4.65
  -1   1  -7  348.14    4.84
   1   1  -8  853.38    9.95
   1  -1  -8  889.69    9.82
  -1  -1   8  852.58    9.87
  -1   1  -8  876.99   11.49
  -1  -1  -8  864.89   10.94
  -1   1   8  896.30   12.07
   1  -1  -8  834.96   10.58
   1   1   8  869.75   10.47
  -1  -1   8  815.19   11.26
  -1  -1  -8  834.02    9.72
   1  -1   8  839.36   10.17
  -1   1  -8  846.78   10.24
  -1  -1  -9  215.74    3.73
   1  -1  -9  190.49    2.48
   1   1  -9  205.85    3.07
   1  -1  -9  217.58    2.76
  -1  -1   9  205.28    3.15
  -1   1  -9  220.54    4.46
   1  -1   9  214.91    4.05
  -1  -1  -9  225.10    4.28
   1  -1  -9  167.27   11.47
   1   1  -9  196.36    4.20
   1  -1   9  212.75    3.60
  -1  -1  -9  189.68    2.85
  -1   1  -9  202.60    3.56
  -1  -1 -10  268.04    5.06
   1  -1 -10  252.21    3.94
   1   1 -10  275.50    4.61
   1  -1 -10  254.73    4.02
  -1  -1  10  269.35    4.58
  -1   1 -10  285.39    6.58
  -1   1  10  287.06    6.52
   1   1  10  260.59    4.58
  -1  -1  10  283.61    5.84
   1  -1  10  269.35    5.04
  -1  -1 -10  260.56    4.44
  -1   1 -10  268.77    4.88
   1  -1 -11  714.09   10.55
   1   1 -11  727.51   11.14
   1  -1 -11  738.47   10.94
  -1  -1  11  750.30   11.38
  -1  -1 -11  765.03   12.52
  -1   1  11  760.71   15.43
   1   1  11  715.51   11.18
   1  -1  11  732.41   11.59
  -1  -1 -11  718.86   11.07
  -1   1 -11  729.28   11.50
   1  -1 -12  773.74   11.48
   1   1 -12  816.68   12.45
   1  -1 -12  793.31   11.80
  -1   1 -12  834.57   14.72
  -1  -1  12  809.89   12.31
  -1  -1 -12  850.48   13.77
   1   1  12  815.81   13.24
   1  -1  12  851.48   13.50
  -1  -1 -12  787.05   12.15
  -1   1 -12  787.76   12.41
   1  -1 -13  788.07   16.64
   1   1 -13  824.63   17.76
   1  -1 -13  844.06   17.86
  -1   1 -13  827.38   18.74
  -1  -1  13  860.28   18.36
  -1  -1 -13  843.35   18.82
  -1   1  13  828.98   19.80
   1   1  13  850.48   18.45
   1  -1  13  818.19   18.79
  -1  -1 -13  798.89   17.24
  -1   1 -13  809.40   17.62
   1  -1 -14  127.89    6.59
   1   1 -14  141.92    7.53
   1  -1 -14  127.61    6.57
  -1   1 -14  137.13    8.19
  -1  -1 -14  144.09    8.10
  -1  -1  14  132.15    6.91
  -1   1  14  103.82    6.40
   1   1  14  151.25    7.99
  -1  -1  14  140.66   13.47
   1  -1  14  142.02    7.80
  -1  -1 -14  131.23    6.86
   1  -1 -15  208.22    5.14
   1   1 -15  248.00    6.33
   1  -1 -15  231.73    5.74
  -1   1 -15  240.22    7.48
  -1  -1 -15  223.97    6.54
  -1  -1  15  229.29    5.74
  -1   1  15  239.26    7.75
   1   1  15  236.64    6.35
  -1  -1  15  222.21   18.11
   1  -1  15  229.98    6.45
  -1  -1 -15  223.54    5.77
   1  -1 -16   70.96    3.39
   1   1 -16   70.26    2.63
   1  -1 -16   74.77    2.54
  -1   1 -16   75.61    4.22
  -1  -1 -16   77.82    4.00
  -1  -1  16   68.87    2.36
  -1   1  16   73.62    7.03
   1   1  16   78.84    6.23
  -1  -1  16   76.98   11.43
   1  -1  16   70.58    8.08
   1  -1 -17  109.10    5.06
   1   1 -17  120.12    4.14
   1  -1 -17  117.63    4.02
  -1   1 -17  117.32    5.49
  -1  -1 -17  106.62    4.75
  -1  -1  17  107.30    3.75
  -1   1  17  122.32    9.45
   1   1  17  133.87   10.35
  -1  -1  17  121.92    5.24
   1  -1  17  119.69    8.21
   1  -1 -18  172.83    5.26
   1   1 -18  210.81    6.55
   1  -1 -18  198.40    6.07
  -1   1 -18  207.00    7.55
  -1  -1 -18  217.94    7.71
  -1  -1  18  196.44    6.02
  -1   1  18  203.95    7.21
   1   1  18  203.73   14.57
  -1  -1  18  213.83    8.00
   1  -1  18  215.45    7.51
   1  -1 -19   83.63    2.91
   1   1 -19  105.52    3.95
   1  -1 -19   94.88    3.50
  -1   1 -19   99.84    4.99
  -1  -1 -19  101.10    4.73
  -1  -1  19   87.69    3.26
  -1   1  19   98.01    9.19
   1   1  19  103.96    8.14
  -1  -1  19  112.35    9.77
   1  -1  19   99.38   11.79
   1  -1 -20   52.21    3.79
   1   1 -20   72.05    3.23
   1  -1 -20   66.19    2.85
  -1   1 -20   76.62    4.63
  -1  -1 -20   59.43    3.43
  -1   1  20   67.78    9.84
   1   1  20   66.61    8.94
  -1  -1  20   76.35    6.77
   1  -1  20   71.01    3.61
   1   1 -21   15.22    1.85
  -1   1 -21   13.83    2.34
  -1  -1 -21   18.75    3.12
  -1   1  21   21.76    4.46
   1   1  21   24.42    3.51
  -1  -1  21   22.88    3.65
   1  -1  21   14.69    2.48
   1   1 -22   62.23    3.41
   1  -1 -22   58.57    2.95
  -1   1 -22   51.95    3.53
  -1  -1 -22   56.39    3.85
  -1   1  22   54.93    7.53
   1   1  22   51.97    5.65
  -1  -1  22   64.43    7.26
   1  -1  22   53.51    6.38
   1   1 -23   55.92    5.52
   1  -1 -23   60.66    3.00
  -1   1 -23   58.94    7.11
  -1  -1 -23   73.73    4.77
  -1   1  23   50.19    7.74
   1   1  23   41.90    7.02
  -1  -1  23   59.05    9.57
   1  -1  23   53.13   10.28
   1   1 -24    7.24    1.55
  -1   1 -24    7.17    2.32
  -1  -1 -24    9.29    2.38
  -1   1  24   -0.76    1.78
   1   1  24    5.52    1.68
  -1  -1  24   10.26    3.25
   1  -1  24   12.26    2.57
  -1   1 -25   71.82    4.16
  -1  -1 -25   82.09    4.47
  -1   1  25   75.58   12.68
   1   1  25   73.76    7.42
  -1  -1  25   83.96    9.00
   1  -1  25   75.76    8.72
  -1   1 -26   10.06    2.48
  -1  -1 -26    7.72    2.28
   1   1  26   10.17    2.42
  -1   1  26   16.22    3.96
  -1  -1  26    8.98    2.72
   1  -1  26    5.96    2.35
  -1   1 -27    6.16    2.38
  -1  -1 -27    1.82    1.92
  -1   1  27    5.85    2.75
   1   1  27    1.70    1.04
  -1  -1  27    7.07    2.66
   1  -1  27    1.91    1.52
  -1   1 -28   25.76    3.27
  -1  -1 -28   38.14    4.50
  -1   1  28   31.03    5.17
   1   1  28   24.57    4.61
  -1  -1  28   34.88    5.64
   1  -1  28   21.88    4.97
  -1   1 -29    8.68    2.50
   1   1  29    5.82    2.49
  -1   1  29    5.22    2.42
  -1  -1  29    3.77    1.91
   1  -1  29    5.94    2.17
  -1   1 -30   -0.79    1.35
  -1  -1 -30    3.01    1.75
  -1   1  30    7.54    2.90
   1   1  30    1.73    1.02
  -1  -1  30    4.74    1.98
   1  -1  30    1.93    1.25
  -1   1  31   16.56    3.96
  -1  -1  31   10.46    2.74
   1  -1  31   10.34    3.33
   1   2   0  259.36    4.05
   1  -2   0  273.19    3.92
   1   2   0  259.16    3.44
  -1   2   0  262.66    4.09
   1   2   1 2313.26   26.03
   1   2  -1 2287.26   25.62
  -1  -2  -1 2266.52   25.43
  -1  -2   1 2238.20   25.04
  -1   2   1 2256.52   25.13
  -1   2  -1 2342.89   26.26
   1  -2   1 2292.96   25.68
  -1  -2  -1 2302.66   25.35
   1   2  -1 2232.12   24.84
   1   2   1 2279.56   25.10
  -1   2  -1 2221.78   24.99
  -1   2   1 2209.29   24.82
   1   2   2 6638.38   72.89
   1   2  -2 6603.15   72.25
   1  -2  -2 6435.30   70.15
   1  -2   2 6444.08   70.59
  -1   2  -2 6466.27   70.78
  -1   2   2 6574.97   72.01
  -1  -2  -4 7764.59  111.41
  -1  -2   4 7881.32  112.84
   1  -2   4 7751.68  111.24
   1  -2  -4 7530.20   82.55
  -1  -2   4 7930.58  113.84
   1   2  -4 7657.94   83.89
   1  -2  -4 7267.64   79.77
  -1  -2  -5 2202.67   25.05
   1   2  -5 2259.81   25.29
  -1   2   5 2186.67   23.98
  -1  -2   5 2197.98   24.56
   1  -2  -5 2184.72   23.97
   1  -2  -5 2289.74   26.03
  -1  -2  -5 2271.34   24.87
  -1  -2   5 2278.75   26.01
   1  -2   5 2191.77   24.73
  -1  -2  -5 2249.62   24.62
   1  -2  -5 2271.99   25.90
   1   2   6  611.43    8.13
  -1  -2  -6  581.55    7.63
  -1   2   6  573.95    6.55
   1   2  -6  600.77    7.49
  -1  -2   6  603.39    7.46
   1  -2  -6  593.70    6.78
  -1   2  -6  610.02    8.44
   1  -2  -6  605.10    7.97
  -1  -2  -6  600.19    6.94
  -1  -2   6  602.04    8.10
   1  -2   6  589.16    7.68
  -1   2  -6  594.26    7.76
  -1  -2  -6  570.25    6.59
  -1  -2  -7  579.05    7.64
  -1   2   7  561.95    6.41
   1   2  -7  586.00    7.35
   1  -2  -7  567.73    6.48
  -1  -2   7  593.19    7.36
  -1   2  -7  579.88    8.02
   1  -2  -7  565.42    7.69
  -1  -2  -7  568.10    6.69
  -1  -2   7  589.17    8.15
   1  -2   7  585.08    7.65
  -1   2  -7  581.52    7.51
  -1  -2  -7  594.34    7.01
  -1   2   8  229.08    2.91
   1  -2  -8  210.65    2.66
   1   2  -8  237.47    3.62
  -1  -2   8  216.79    3.42
  -1   2  -8  219.14    4.19
   1  -2   8  231.67    4.26
   1   2   8  235.32    3.92
   1  -2  -8  211.35    3.79
  -1  -2  -8  228.47    3.21
  -1  -2   8  221.56    4.26
   1  -2   8  236.46    4.19
  -1   2  -8  215.90    3.77
   1   2   9    1.78    0.81
  -1  -2  -9    2.05    0.76
   1  -2  -9    0.41    0.30
   1   2  -9   -0.34    0.99
  -1  -2   9    3.33    1.36
  -1   2  -9    1.56    1.94
  -1   2   9    2.31    0.94
   1   2   9    1.16    0.51
   1  -2  -9    2.42    1.06
  -1  -2  -9    1.06    0.45
  -1  -2   9    2.86    0.99
   1  -2   9    0.56    1.23
  -1   2  -9    1.29    1.04
   1   2  10  736.30   11.92
  -1  -2 -10  681.85   11.04
   1  -2 -10  727.34   10.70
   1   2 -10  721.76   11.17
  -1  -2  10  724.32   11.20
  -1   2 -10  744.77   12.27
   1  -2 -10  725.26   10.72
   1   2  10  778.55   11.87
  -1  -2 -10  738.48   11.52
   1  -2  10  716.83   11.53
  -1   2 -10  740.87   11.74
   1  -2 -11  731.52   10.83
   1   2 -11  727.41   11.30
  -1  -2  11  735.99   11.43
   1  -2 -11  740.18   10.98
   1   2  11  798.80   12.98
  -1  -2 -11  735.19   11.33
   1  -2  11  734.97   11.83
  -1   2 -11  705.01   11.30
   1  -2 -12   87.00    4.50
   1   2 -12   84.47    4.68
  -1  -2  12   95.94    5.09
  -1   2 -12   80.58    5.06
   1  -2 -12   94.04    4.91
  -1  -2 -12   93.91    5.66
  -1   2  12   97.22    7.52
   1   2  12   94.77    5.10
  -1  -2  12  107.70    9.52
  -1  -2 -12   89.75    6.87
   1  -2  12   93.94    5.42
   1  -2 -13   53.17    2.87
   1   2 -13   51.99    3.26
  -1   2 -13   51.17    4.64
  -1  -2  13   48.42    2.90
   1  -2 -13   56.44    3.12
  -1  -2 -13   56.02    3.85
  -1   2  13   52.60    8.03
   1   2  13   57.22    5.90
  -1  -2 -13   47.44    4.23
   1  -2  13   53.08    3.63
   1  -2 -14   50.62    2.75
   1   2 -14   55.92    3.46
  -1   2 -14   61.74    4.84
   1  -2 -14   57.49    3.21
  -1  -2  14   53.15    3.21
  -1  -2 -14   49.07    3.48
  -1   2  14   54.28    6.34
   1   2  14   56.97    5.53
  -1  -2 -14   53.96    3.11
   1  -2  14   60.59    6.92
   1  -2 -15  216.96    5.24
   1   2 -15  232.93    6.34
  -1   2 -15  232.94    6.95
   1  -2 -15  226.17    5.59
  -1  -2  15  222.56    5.73
  -1  -2 -15  238.41    6.84
  -1   2  15  238.60   15.93
   1   2  15  237.46    6.17
  -1  -2  15  240.01    7.11
   1  -2  15  233.02    6.75
  -1  -2 -15  201.70    5.74
   1  -2 -16  167.64    4.57
   1   2 -16  189.47    5.45
  -1   2 -16  187.64    6.33
   1  -2 -16  185.34    4.79
  -1  -2  16  172.35    4.80
  -1  -2 -16  201.37    6.46
  -1   2  16  196.21    5.99
   1   2  16  189.84    5.30
  -1  -2  16  204.09   14.81
   1  -2  16  196.47    5.97
   1  -2 -17  157.44    4.83
   1   2 -17  178.23    5.91
  -1   2 -17  181.56    6.78
   1  -2 -17  171.24    5.41
  -1  -2  17  156.27    5.14
  -1  -2 -17  169.38    6.31
  -1   2  17  170.93    6.23
   1   2  17  167.04    6.80
  -1  -2  17  173.00   12.30
   1  -2  17  167.29   13.42
   1  -2 -18  166.97    7.69
   1   2 -18  205.40    6.51
  -1   2 -18  179.50    6.84
   1  -2 -18  187.45    5.79
  -1  -2 -18  192.96    6.92
  -1   2  18  178.04    6.33
   1   2  18  186.77    6.09
  -1  -2  18  195.53    7.11
   1  -2  18  190.24    6.59
   1   2 -19   80.17    3.43
   1  -2 -19   75.42    3.11
  -1   2 -19   87.15    5.10
  -1  -2 -19   71.32    3.65
  -1   2  19   74.00    7.44
   1   2  19   79.88    7.31
  -1  -2  19   73.09    9.69
   1  -2  19   77.48    8.63
   1   2 -20  371.67   11.42
  -1   2 -20  372.98   12.60
  -1  -2 -20  346.99   11.48
  -1   2  20  363.51   12.05
   1   2  20  363.99   11.73
  -1  -2  20  363.70   23.70
   1  -2  20  360.91   11.80
   1   2 -21   22.08    2.58
   1  -2 -21   27.76    2.58
  -1   2 -21   24.71    3.04
  -1  -2 -21   27.08    3.48
  -1   2  21   23.21    3.06
   1   2  21   21.43    3.71
  -1  -2  21   29.20    4.47
   1  -2  21   36.91    5.38
   1   2 -22  177.19    7.64
   1  -2 -22  159.65    6.67
  -1   2 -22  167.36    8.17
  -1  -2 -22  157.35    7.56
  -1   2  22  169.79   11.81
   1   2  22  163.35    7.32
  -1  -2  22  169.56   13.99
   1  -2  22  167.01    7.80
   1   2 -23   22.38    2.84
   1  -2 -23   21.04    2.22
  -1   2 -23   25.36    3.88
  -1  -2 -23   21.94    3.25
  -1   2  23   24.28    6.05
   1   2  23   20.67    3.28
  -1  -2  23   21.56    3.71
   1  -2  23   25.91    4.41
   1   2 -24   38.23    2.67
  -1   2 -24   31.69    4.47
  -1  -2 -24   27.35    3.88
  -1   2  24   36.23    7.79
   1   2  24   30.57    6.94
  -1  -2  24   34.32    6.30
   1  -2  24   36.42    5.54
   1   2 -25    2.82    1.28
  -1   2 -25    2.45    1.43
  -1  -2 -25    2.64    1.53
   1   2  25    3.37    1.19
  -1   2  25    5.96    1.57
  -1  -2  25    3.54    1.42
   1  -2  25    1.17    1.13
  -1   2 -26   21.79    2.80
  -1  -2 -26   22.82    2.46
   1   2  26   18.90    5.83
  -1   2  26   27.00    5.53
  -1  -2  26   33.70    6.16
   1  -2  26   33.61    5.34
  -1   2 -27    8.55    2.68
  -1  -2 -27    9.72    2.56
   1   2  27    3.85    1.41
  -1   2  27    6.57    2.05
  -1  -2  27   12.22    2.98
   1  -2  27    5.27    1.84
  -1   2 -28   47.14    3.78
  -1  -2 -28   41.11    3.74
   1   2  28   30.17    7.32
  -1   2  28   28.66    4.83
  -1  -2  28   37.55    5.03
   1  -2  28   30.67    6.05
  -1   2 -29   25.43    3.01
  -1  -2 -29   20.91    2.70
   1   2  29   11.42    3.32
  -1   2  29   18.48    4.61
  -1  -2  29   25.70    5.56
   1  -2  29   21.49    3.69
  -1   2 -30   20.65    3.56
  -1   2  30   24.95    6.92
  -1  -2  30   19.38    5.57
   1  -2  30   19.60    5.89
  -1   2 -31    8.16    2.65
  -1   2  31    3.24    2.21
  -1  -2  31    4.60    1.65
   1  -2  31    1.36    1.08
   1   3   0  244.31    3.95
  -1  -3   0  246.77    3.60
   1   3   0  238.07    3.46
   1  -3   0  246.72    4.32
  -1   3   0  229.42    3.74
   1   3   1  129.72    2.89
   1   3  -1  116.46    2.63
  -1   3   1  124.91    2.64
  -1   3  -1  125.08    2.67
   1  -3  -1  122.10    2.46
   1  -3   1  119.84    2.45
  -1  -3  -1  122.99    2.16
   1   3  -1  129.06    2.53
   1   3   1  122.19    2.37
  -1   3  -1  116.63    3.09
  -1   3   1  113.29    2.82
   1   3  -2 1241.01   14.61
  -1   3   2 1257.97   14.48
   1  -3  -2 1181.67   13.60
   1  -3   2 1205.49   14.23
   1   3  -2 1230.17   14.32
  -1  -3  -2 1260.52   14.31
   1   3   2 1233.51   13.97
  -1   3  -2 1194.01   14.17
  -1   3   2 1191.22   14.07
  -1  -3  -3 1555.32   18.03
   1   3  -3 1568.40   18.12
  -1   3   3 1619.71   18.34
   1  -3  -3 1544.77   17.46
   1  -3   3 1550.67   17.97
  -1  -3   3 1599.71   18.50
   1   3  -3 1569.99   18.09
  -1  -3  -3 1599.14   17.88
   1  -3   3 1594.27   18.65
  -1   3  -3 1547.53   17.94
   1   3   3 1569.69   17.56
   1  -3  -3 1562.57   18.33
   1   3   4  161.57    3.25
  -1  -3  -4  161.27    3.07
  -1  -3   4  161.39    3.05
  -1   3   4  163.07    2.68
   1  -3  -4  163.01    2.56
   1  -3   4  161.95    3.48
  -1  -3   4  164.57    3.28
  -1  -3  -4  157.04    2.36
  -1   3  -4  154.45    3.27
   1   3   4  173.08    2.64
   1  -3  -4  166.59    3.50
  -1  -3  -5 1957.76   22.47
  -1   3   5 2019.52   22.49
  -1  -3   5 1992.91   22.63
   1  -3   5 2015.90   23.21
  -1  -3   5 2036.37   23.48
  -1  -3  -5 2103.64   23.31
   1  -3  -5 2079.61   24.02
   1   3   5 2072.09   22.92
   1   3   6  133.70    3.25
  -1  -3  -6  122.95    7.14
  -1   3   6  129.86    2.27
   1   3  -6  132.16    2.71
  -1  -3   6  133.82    2.63
   1  -3  -6  135.07    2.24
  -1   3  -6  151.85    4.19
  -1  -3  -6  131.14    2.10
   1  -3  -6  138.59    2.95
  -1  -3   6  136.92    3.26
   1   3  -6  129.21    2.84
   1  -3   6  132.14    3.07
  -1   3  -6  130.48    2.77
  -1  -3  -6  125.27    2.16
   1  -3  -6  146.10    3.50
  -1   3   7 1366.04   15.41
   1   3  -7 1401.60   16.48
   1  -3  -7 1367.34   15.40
  -1  -3   7 1339.73   15.65
  -1   3  -7 1457.83   17.90
   1  -3   7 1316.64   15.81
   1  -3  -7 1374.89   16.70
  -1  -3  -7 1379.90   15.59
  -1  -3   7 1392.89   16.85
   1  -3   7 1376.87   16.47
  -1   3  -7 1343.19   15.99
  -1  -3  -7 1358.51   15.37
   1  -3  -7 1422.82   17.22
   1   3   8  426.35    7.72
  -1   3   8  439.14    7.01
  -1  -3  -8  426.44    7.36
   1   3  -8  461.02    7.85
   1  -3  -8  421.13    6.52
  -1  -3   8  419.15    7.02
  -1   3  -8  431.54    9.79
  -1  -3  -8  437.35    6.82
  -1  -3   8  438.95    7.92
   1  -3   8  434.10    7.70
  -1   3  -8  394.52    7.09
  -1  -3  -8  432.10    6.80
   1  -3  -8  454.72    8.41
   1   3   9 2514.78  124.27
  -1   3   9 2430.82   35.13
   1  -3  -9 2387.16   34.46
   1   3  -9 2502.25  123.56
  -1  -3   9 2404.28   35.21
  -1   3  -9 2584.66  127.81
  -1  -3  -9 2371.14   34.41
  -1  -3   9 2579.32  127.53
   1  -3   9 2472.18  122.15
  -1   3  -9 2344.24   34.56
  -1  -3  -9 2437.94  120.26
   1  -3  -9 2561.12  126.61
   1   3  10   88.55    3.20
  -1   3  10   83.64    2.07
   1  -3 -10   75.72    1.75
   1   3 -10   79.38    2.70
  -1  -3  10   76.74    2.46
  -1   3 -10   79.95    3.81
  -1  -3 -10   76.35    1.96
  -1  -3  10   68.68    5.98
   1  -3  10   86.04    3.10
  -1  -3 -10   82.08    2.29
   1  -3 -10   83.34    3.66
   1   3  11  338.96    6.88
  -1   3  11  328.13    5.24
   1  -3 -11  328.14    5.25
   1   3 -11  345.77    6.32
  -1  -3  11  345.66    6.06
  -1   3 -11  341.16    6.74
  -1   3  11  336.08    6.55
  -1  -3 -11  327.97    5.54
  -1  -3  11  346.63    7.95
   1  -3  11  330.77    6.50
  -1  -3 -11  346.13    6.13
   1   3  12   76.66    6.83
   1  -3 -12   70.60    3.76
   1   3 -12   73.00    4.22
  -1  -3  12   67.52    3.89
  -1   3  12   77.72    4.75
  -1  -3 -12   69.55    3.77
  -1  -3  12   73.63    9.32
   1  -3  12   70.17    4.43
  -1  -3 -12   74.05    4.22
   1   3  13  484.23   11.39
   1  -3 -13  489.83   10.57
   1   3 -13  497.81   11.45
  -1   3 -13  487.42   11.76
  -1  -3  13  473.14   10.62
   1  -3 -13  494.20   10.72
  -1   3  13  523.37   12.35
  -1  -3 -13  472.88   10.47
  -1  -3  13  504.07   12.09
   1  -3  13  493.16   11.53
   1  -3 -14  167.98    4.21
   1   3 -14  180.10    5.07
  -1   3 -14  153.31    5.22
   1  -3 -14  166.18    4.31
   1   3  14  177.94    5.06
  -1   3  14  194.14    6.17
  -1  -3  14  173.72    5.63
  -1  -3 -14  170.13    4.82
   1  -3  14  174.25    5.49
   1  -3 -15  121.13    3.23
   1   3 -15  120.31    3.75
  -1   3 -15  124.10    5.13
   1  -3 -15  116.34    3.33
  -1  -3 -15  124.43    4.94
   1   3  15  136.59    4.35
  -1   3  15  107.90    7.12
  -1  -3 -15  111.64    3.42
   1  -3  15  118.76    4.29
   1  -3 -16  237.40    6.98
   1   3 -16  270.00    8.72
  -1   3 -16  248.14    8.62
   1  -3 -16  248.83    7.40
  -1  -3 -16  263.71    8.56
  -1   3  16  259.51   17.01
   1   3  16  265.44    8.22
  -1  -3  16  245.74    9.70
   1  -3  16  260.93    8.71
   1  -3 -17   11.49    1.02
   1   3 -17   10.70    1.63
  -1   3 -17    8.42    2.32
   1  -3 -17   10.19    1.02
  -1  -3 -17   12.32    2.27
  -1   3  17    2.98    1.52
   1   3  17   12.39    1.92
  -1  -3  17   10.53    1.79
   1  -3  17   12.54    2.02
   1  -3 -18  132.00    4.06
   1   3 -18  144.57    5.46
  -1   3 -18  161.97    6.62
   1  -3 -18  145.96    4.66
  -1  -3 -18  151.61    5.83
  -1   3  18  140.80    9.57
   1   3  18  145.11    5.30
  -1  -3  18  147.00    5.81
   1  -3  18  155.23   12.65
   1   3 -19  146.81    5.49
  -1   3 -19  141.52    6.38
   1  -3 -19  144.69    4.81
  -1  -3 -19  141.59    5.62
  -1   3  19  148.33   10.21
   1   3  19  146.45    5.63
  -1  -3  19  141.19    8.19
   1  -3  19  137.54    5.49
   1   3 -20   55.38    4.73
  -1   3 -20   69.07    6.58
  -1  -3 -20   55.38    5.15
   1   3  20   45.40    5.94
  -1   3  20   47.05    8.30
  -1  -3  20   59.52    7.48
   1  -3  20   53.15    5.90
   1   3 -21   36.21    4.67
  -1   3 -21   32.91    4.69
   1  -3 -21   35.55    4.24
  -1  -3 -21   37.03    5.15
  -1   3  21   28.06    4.16
   1   3  21   30.10    6.42
  -1  -3  21   31.83    5.41
   1  -3  21   38.30    5.98
   1   3 -22   18.61    2.48
  -1   3 -22   11.72    2.16
   1  -3 -22   25.57    2.71
  -1  -3 -22   18.89    3.06
   1   3  22   21.04    3.45
  -1   3  22   17.50    3.04
  -1  -3  22   22.87    3.69
   1  -3  22   21.46    4.42
   1   3 -23    8.90    1.90
  -1   3 -23    7.44    2.49
  -1  -3 -23    8.66    2.07
  -1   3  23   11.88    2.53
   1   3  23    3.64    1.02
  -1  -3  23    6.33    1.60
   1  -3  23   14.24    2.73
   1   3 -24    2.71    2.06
  -1   3 -24    1.49    1.54
  -1  -3 -24    1.45    1.44
  -1   3  24    7.82    2.23
   1   3  24    4.91    1.56
  -1  -3  24    3.29    1.74
   1  -3  24    2.87    1.50
   1   3 -25   83.42    4.48
  -1   3 -25   75.37    4.83
  -1  -3 -25   74.12    4.56
   1   3  25   40.66    6.04
  -1   3  25   83.34    5.05
  -1  -3  25   71.17   10.37
   1   3 -26   12.55    2.51
  -1   3 -26   19.87    4.17
  -1  -3 -26   16.48    3.19
   1   3  26   11.57    2.40
  -1   3  26   15.90    3.34
  -1  -3  26   13.69    3.76
   1  -3  26   12.31    3.11
  -1   3 -27   20.69    4.89
  -1  -3 -27   19.79    3.98
  -1   3  27   15.35    3.07
   1   3  27   16.37    3.16
  -1  -3  27   15.95    3.95
   1  -3  27   11.47    3.18
  -1   3 -28    3.24    2.23
  -1  -3 -28    2.42    1.29
  -1   3  28    3.90    1.64
   1   3  28    2.41    1.37
  -1  -3  28    0.19    1.80
   1  -3  28    2.47    1.31
  -1   3 -29    8.22    2.65
  -1  -3 -29   12.40    3.20
  -1   3  29   12.67    3.67
  -1  -3  29    5.16    2.43
   1  -3  29    9.76    2.89
  -1   3 -30    6.80    2.32
  -1   3  30    3.38    1.53
  -1  -3  30    6.90    3.27
  -1   3 -31    9.27    2.41
  -1   3  31    8.97    2.40
  -1  -3  31   10.66    3.34
   1  -3  31   10.37    2.62
   1   4   0   77.61    2.33
  -1  -4   0   75.14    2.30
  -1   4   0   72.39    2.17
   1  -4   0   73.37    2.23
  -1  -4   0   75.49    2.01
   1   4   0   75.90    2.16
  -1   4   0   68.67    2.14
   1   4   1   31.56    1.72
   1   4  -1   29.85    2.00
  -1   4   1   38.54    2.00
   1  -4  -1   29.16    1.35
  -1  -4   1   35.41    2.12
  -1  -4  -1   37.89    1.73
   1   4  -1   42.92    1.71
   1   4   1   35.56    1.71
   1  -4   1   40.44    2.21
   1  -4  -1   29.18    3.10
  -1   4  -1   32.87    1.71
  -1   4   1   31.44    1.60
  -1  -4  -2  370.41    5.43
   1   4  -2  385.79    5.93
  -1  -4   2  373.52    5.41
  -1   4   2  395.58    5.53
  -1   4  -2  380.67    5.95
   1  -4  -2  378.39    5.31
   1  -4   2  370.38    5.64
  -1  -4  -2  390.73    5.26
   1   4  -2  375.61    5.43
   1   4   2  373.12    5.07
  -1   4  -2  374.64    5.55
   1  -4  -2  383.88    6.02
   1   4   3  155.69    3.54
  -1  -4  -3  168.21    3.25
   1   4  -3  168.80    3.42
  -1   4   3  167.83    3.02
   1  -4  -3  151.50    2.72
   1  -4   3  162.09    3.17
   1   4  -3  158.51    3.21
  -1  -4  -3  169.49    2.97
  -1   4  -3  149.82    3.33
   1   4   3  150.77    2.68
   1  -4  -3  157.65    4.14
  -1  -4  -4  273.78    4.47
   1   4  -4  277.95    4.65
  -1   4   4  292.84    4.28
  -1  -4   4  292.43    4.51
   1  -4  -4  283.93    4.26
  -1   4  -4  283.34    5.14
   1  -4   4  269.98    4.44
  -1  -4   4  288.03    4.81
   1   4  -4  279.77    4.55
   1  -4   4  289.34    4.97
  -1  -4  -4  287.44    4.08
  -1   4  -4  281.97    4.64
   1   4   4  278.28    3.94
   1  -4  -4  288.43    4.97
   1   4   5  140.77    3.50
  -1  -4  -5  129.28    3.03
  -1   4   5  141.23    2.82
  -1  -4   5  128.31    2.81
   1  -4  -5  131.52    2.53
   1  -4   5  121.72    2.73
  -1  -4   5  137.11    3.27
   1   4  -5  129.76    3.12
  -1  -4  -5  131.28    2.60
  -1   4  -5  129.19    3.15
   1  -4  -5  133.07    3.35
   1   4   5  133.69    2.42
  -1   4   6  442.04    7.18
   1   4  -6  461.48    7.96
  -1  -4   6  436.75    7.47
   1  -4  -6  454.27    7.27
  -1   4  -6  403.45    7.44
  -1  -4   6  455.61    8.14
  -1  -4  -6  459.01    7.40
   1  -4  -6  464.28    8.43
   1   4   6  449.64    7.12
  -1   4   7  728.67   11.17
   1   4  -7  732.14   11.77
   1  -4  -7  727.21   11.07
  -1  -4   7  714.50   11.32
  -1   4  -7  745.24   12.34
  -1  -4   7  747.08   12.20
   1  -4   7  708.05   11.66
  -1  -4  -7  719.94   11.04
   1  -4  -7  755.99   12.45
   1   4   7  783.11   11.85
   1   4   8  909.36   14.47
  -1   4   8  900.69   13.60
   1   4  -8  921.66   14.54
   1  -4  -8  866.97   13.06
  -1  -4   8  842.91   13.16
  -1   4  -8  907.60   14.90
  -1  -4  -8  887.33   13.39
  -1  -4   8  880.18   14.21
   1  -4   8  905.39   14.64
  -1  -4  -8  877.90   13.28
   1  -4  -8  898.48   14.51
   1   4   9  367.41    7.58
  -1   4   9  362.03    5.95
   1  -4  -9  362.66    5.91
   1   4  -9  369.49    6.80
  -1  -4   9  351.72    6.40
  -1   4  -9  349.06    7.14
  -1  -4  -9  358.75    5.95
  -1  -4   9  362.38    7.59
   1  -4   9  378.29    7.31
  -1  -4  -9  353.06    5.91
   1  -4  -9  362.66    7.07
   1   4  10  236.32    6.43
  -1   4  10  227.70    5.25
   1  -4 -10  231.99    5.33
   1   4 -10  243.64    6.20
  -1  -4 -10  221.43    5.17
  -1  -4  10  245.47    7.02
   1  -4  10  229.56    6.12
  -1  -4 -10  235.09    5.65
   1   4  11   21.01    3.69
  -1   4  11   22.73    2.98
   1  -4 -11   18.05    1.28
   1   4 -11   20.82    2.15
  -1   4 -11   17.63    2.66
  -1  -4 -11   17.62    2.35
  -1  -4  11   20.25    2.55
   1  -4  11   20.19    2.47
  -1  -4 -11   23.03    2.05
   1  -4 -11   20.47    2.43
   1   4  12   74.13    8.49
  -1   4  12   70.35    4.11
   1  -4 -12   62.74    3.39
   1   4 -12   74.01    4.31
  -1   4 -12   74.05    5.16
  -1  -4 -12   64.00    3.51
  -1  -4  12   80.65    8.74
   1  -4  12   68.27    4.55
  -1  -4 -12   74.06    4.27
   1  -4 -12   72.14    4.79
   1   4  13   85.19    7.64
  -1   4  13   81.64    5.66
   1  -4 -13   77.82    2.29
   1   4 -13   78.11    3.09
  -1   4 -13   73.92    3.54
  -1  -4 -13   75.59    4.46
  -1  -4  13   80.28    5.08
   1  -4  13   87.08    3.90
  -1  -4 -13   84.16    3.10
   1  -4 -13   90.76    4.37
   1   4  14  254.42    7.11
  -1   4  14  244.73    5.94
   1  -4 -14  240.64    5.85
   1   4 -14  247.18    6.76
  -1   4 -14  265.07    7.57
  -1  -4 -14  226.75    5.74
  -1  -4  14  258.28    7.66
   1  -4  14  248.80    7.10
  -1  -4 -14  249.06    6.50
   1  -4 -14  271.80    8.00
   1   4  15   35.39    2.37
   1  -4 -15   39.43    1.69
   1   4 -15   39.41    2.99
  -1   4 -15   38.05    4.95
  -1  -4 -15   27.87    4.06
  -1  -4  15   45.29    6.62
   1  -4  15   46.79    3.22
  -1  -4 -15   42.70    2.66
   1  -4 -15   47.98    4.15
   1   4  16  543.23   16.12
   1  -4 -16  509.20   14.52
   1   4 -16  569.81   16.92
  -1   4 -16  513.67   15.62
   1  -4 -16  508.01   14.55
   1  -4  16  534.68   16.16
  -1  -4 -16  544.84   15.91
   1  -4 -16  554.95   17.09
   1  -4 -17   29.53    1.45
   1   4 -17   29.19    2.65
  -1   4 -17   22.01    2.78
   1  -4 -17   30.82    1.89
  -1  -4 -17   37.60    3.22
  -1  -4  17   35.37    4.73
   1  -4  17   36.64    2.89
  -1  -4 -17   42.35    2.92
   1  -4 -17   30.94    4.23
   1  -4 -18  165.60    5.20
   1   4 -18  194.74    7.03
  -1   4 -18  184.64    7.49
   1  -4 -18  174.87    5.67
  -1  -4 -18  180.50    6.93
  -1  -4  18  192.79   15.10
   1  -4  18  207.91    7.82
  -1  -4 -18  183.47    6.52
   1  -4 -18  190.98    8.20
   1  -4 -19    3.41    0.69
   1   4 -19    4.17    1.68
  -1   4 -19    8.98    3.84
   1  -4 -19    9.23    1.40
  -1  -4 -19    7.62    1.97
  -1  -4  19   17.72    3.38
   1  -4  19   15.07    3.25
  -1  -4 -19    5.98    1.89
   1  -4 -19    4.01    2.92
   1   4 -20  103.98    4.59
  -1   4 -20  103.66    5.84
   1  -4 -20   93.46    3.51
  -1  -4 -20   97.74    4.95
  -1  -4  20   93.10   11.52
   1  -4  20   98.74    9.13
  -1  -4 -20   90.18    4.11
   1  -4 -20   97.31    5.80
   1   4 -21   26.98    3.93
  -1   4 -21   26.47    4.88
   1  -4 -21   17.67    2.36
  -1  -4 -21   26.24    4.36
  -1  -4  21   16.58    3.06
   1  -4  21   21.91    4.39
  -1  -4 -21   15.24    2.48
   1  -4 -21   15.51    2.60
   1   4 -22   65.22    3.69
  -1   4 -22   56.08    6.31
   1  -4 -22   55.97    5.26
  -1  -4 -22   51.35    5.44
  -1  -4  22   53.68    8.66
   1  -4  22   53.89    8.61
  -1  -4 -22   61.40    3.46
   1  -4 -22   54.19    5.80
   1   4 -23  106.94    5.58
  -1   4 -23  104.34    5.86
  -1  -4 -23   97.68    5.18
  -1  -4  23   92.01    8.32
   1  -4  23   81.21   10.24
  -1  -4 -23   97.00    4.97
   1  -4 -23   97.50    5.95
   1   4 -24   10.75    2.77
  -1   4 -24    6.04    2.30
  -1  -4 -24    2.00    1.91
  -1  -4  24    6.06    2.27
   1  -4  24    4.73    2.45
  -1  -4 -24    2.03    1.68
   1  -4 -24   -0.16    1.95
   1   4 -25   59.85    3.65
  -1   4 -25   66.77    4.48
  -1  -4 -25   60.19    3.76
  -1  -4  25   65.02    9.00
   1  -4  25   48.07    7.87
  -1  -4 -25   56.26    3.45
   1  -4 -25   88.49    5.56
   1   4 -26   18.72    3.48
  -1   4 -26   16.45    3.54
  -1  -4 -26   17.95    3.43
  -1  -4  26   17.55    4.85
   1  -4  26   14.84    3.81
  -1  -4 -26   22.42    2.85
   1  -4 -26   18.70    4.14
  -1   4 -27    7.65    3.06
  -1  -4 -27    5.85    2.12
  -1  -4  27    7.27    3.46
   1  -4  27   10.94    3.23
  -1  -4 -27    6.63    1.93
   1  -4 -27   13.84    3.67
  -1   4 -28    6.85    2.67
  -1  -4 -28    4.06    1.39
  -1  -4  28   10.24    3.13
   1  -4  28    3.91    1.54
   1  -4 -28    5.62    2.37
  -1   4 -29   24.89    3.87
  -1  -4  29   25.57    6.41
   1  -4  29   24.15    4.64
   1  -4 -29   39.98    5.91
  -1   4 -30   23.44    3.99
  -1  -4  30   16.47    5.89
   1  -4  30   13.50    3.89
   1  -4 -30   28.04    4.45
   1   5   0  899.66   14.40
  -1   5   0  883.78   13.98
   1  -5   0  856.52   13.42
  -1  -5   0  885.01   13.76
   1   5   0  850.57   13.16
   1  -5   0  768.82   12.67
   1   5   1  444.53    8.09
   1   5  -1  516.11    8.81
  -1   5   1  522.46    8.80
   1  -5  -1  501.62    8.33
  -1  -5   1  511.25    8.56
  -1  -5  -1  499.31    8.26
   1   5  -1  513.85    8.52
   1   5   1  505.71    8.25
   1  -5  -1  509.21    8.91
   1   5  -2  978.17   15.42
  -1   5   2 1023.96   15.79
   1  -5  -2  987.98   15.18
  -1  -5   2  986.49   15.36
  -1  -5  -2  988.68   15.11
   1   5  -2  966.81   14.98
   1   5   2  950.46   14.51
   1  -5  -2  996.39   15.75
   1   5   3  144.24    3.95
   1   5  -3  139.16    3.46
  -1   5   3  140.39    3.48
  -1   5  -3  148.98    4.24
   1  -5  -3  143.61    3.14
  -1  -5   3  147.93    3.69
   1   5  -3  125.09    3.20
  -1  -5  -3  144.09    3.49
   1  -5   3  133.31    3.70
   1   5   3  141.98    3.28
   1  -5  -3  148.27    4.23
   1   5  -4  251.34    5.08
  -1   5   4  249.33    4.92
   1  -5  -4  241.85    4.51
  -1  -5  -4  252.15    4.75
   1  -5  -4  263.25    5.68
   1   5   4  242.94    4.64
   1   5   5  125.75    3.75
  -1   5   5  113.09    2.94
   1  -5  -5  111.54    2.78
  -1  -5   5  116.96    3.23
   1  -5   5  119.92    3.95
  -1  -5  -5  111.58    2.94
   1  -5  -5  114.93    3.99
   1   5   5  108.23    2.49
  -1   5   6  275.28    5.13
   1  -5  -6  258.32    4.89
  -1  -5   6  265.26    5.69
   1  -5   6  284.98    6.36
  -1  -5  -6  274.68    5.18
   1  -5  -6  269.45    5.88
   1   5   6  256.80    4.67
   1   5   7 2221.76   33.36
  -1   5   7 2234.63   32.84
   1   5  -7 2265.25   33.82
   1  -5  -7 2115.29   31.07
  -1   5  -7 2234.81   33.66
  -1  -5  -7 2266.96   33.24
   1  -5  -7 2113.41   31.85
   1   5   7 2199.42   32.14
   1   5   8   74.70    2.82
  -1   5   8   71.20    2.39
   1   5  -8   69.97    2.90
   1  -5  -8   65.54    2.02
  -1   5  -8   75.78    4.64
  -1  -5   8   74.33    3.43
   1  -5   8   81.32    3.53
  -1  -5  -8   77.07    2.56
   1  -5  -8   74.35    3.89
   1   5   8   74.79    2.25
   1   5   9 1089.33   23.85
  -1   5   9 1101.09   23.48
   1   5  -9 1102.93   23.96
   1  -5  -9 1064.57   22.64
  -1   5  -9 1109.94   24.66
  -1  -5  -9 1029.91   21.99
  -1  -5   9 1063.48   23.40
   1  -5   9 1113.14   24.32
  -1  -5  -9 1083.95   23.15
   1  -5  -9 1110.14   24.36
   1   5  10  301.78    8.75
  -1   5  10  309.06    7.20
   1   5 -10  298.66    7.44
   1  -5 -10  300.30    6.93
  -1   5 -10  296.85    8.04
  -1  -5 -10  293.74    6.80
  -1  -5  10  295.47    7.74
   1  -5  10  309.91    8.01
  -1  -5 -10  312.10    7.48
   1  -5 -10  311.13    8.13
   1   5  11   68.14    9.50
  -1   5  11   66.80    3.75
   1  -5 -11   63.96    3.54
   1   5 -11   64.35    4.34
  -1   5 -11   67.13    4.79
  -1  -5 -11   58.91    3.33
  -1  -5  11   72.78    4.80
   1  -5  11   64.95    4.17
  -1  -5 -11   62.73    3.88
   1  -5 -11   63.92    4.54
   1   5  12   80.65    6.86
  -1   5  12   79.18    2.49
   1  -5 -12   84.87    2.70
   1   5 -12   81.10    3.43
  -1   5 -12   73.74    3.67
  -1  -5 -12   64.08    4.64
  -1  -5  12   84.84    3.54
   1  -5  12   86.67    3.74
  -1  -5 -12   77.61    2.98
   1  -5 -12   88.07    4.30
   1   5  13  198.77    7.49
  -1   5  13  187.62    5.88
   1  -5 -13  183.59    4.76
   1   5 -13  183.38    5.61
  -1   5 -13  194.21    6.20
  -1  -5 -13  171.38    4.54
  -1  -5  13  177.17    5.78
   1  -5  13  195.75    6.14
  -1  -5 -13  194.39    5.48
   1  -5 -13  207.99    6.95
   1   5  14   34.97    3.02
  -1   5  14   26.26    3.60
   1  -5 -14   28.95    1.66
   1   5 -14   31.80    2.50
  -1  -5 -14   18.16    2.57
  -1  -5  14   30.67    3.67
   1  -5  14   37.64    3.08
  -1  -5 -14   29.41    2.26
   1  -5 -14   29.17    2.87
   1   5  15  330.96   10.87
  -1   5  15  333.22    9.79
   1  -5 -15  309.70    9.13
   1   5 -15  323.05   10.29
  -1   5 -15  320.76   10.65
  -1  -5  15  327.44   10.73
   1  -5  15  331.37   10.85
  -1  -5 -15  326.04   10.01
   1  -5 -15  353.30   11.79
  -1   5  16   75.80    5.75
   1   5  16   89.94    7.66
   1  -5 -16   79.18    2.93
   1   5 -16   82.25    3.67
  -1   5 -16   74.41    4.64
  -1  -5  16   79.04    6.66
   1  -5  16   81.58    4.28
  -1  -5 -16   78.23    4.08
   1  -5 -16   80.02    4.60
   1   5  17  186.84    6.76
   1  -5 -17  161.34    5.23
   1   5 -17  185.50    6.58
  -1   5 -17  180.01    6.95
   1  -5  17  185.77    7.03
  -1  -5 -17  179.57    6.40
   1  -5 -17  203.42    8.60
   1   5  18    5.52    2.07
   1   5 -18    6.19    2.40
  -1   5 -18    5.73    3.57
   1  -5 -18    5.75    1.20
  -1  -5  18    8.38    2.04
   1  -5  18    9.22    2.43
  -1  -5 -18    3.96    1.24
   1  -5 -18    7.73    2.93
   1   5 -19   35.22    3.56
  -1   5 -19   33.06    4.04
  -1  -5 -19   31.35    3.99
  -1  -5  19   30.59    4.36
   1  -5  19   35.18    5.05
  -1  -5 -19   30.14    3.24
   1  -5 -19   30.70    4.90
   1   5 -20   61.10    3.85
  -1   5 -20   54.90    4.01
   1  -5 -20   53.20    2.77
  -1  -5 -20   54.73    3.79
  -1  -5  20   53.66    7.59
   1  -5  20   57.95    7.70
  -1  -5 -20   58.34    3.75
   1  -5 -20   56.79    4.94
   1   5 -21    2.23    1.43
  -1   5 -21    1.83    2.87
   1  -5 -21    3.06    0.92
  -1  -5 -21    4.36    1.70
  -1  -5  21    4.93    2.25
   1  -5  21    4.69    2.31
  -1  -5 -21    3.99    1.61
   1  -5 -21    9.63    3.76
   1   5 -22   32.82    4.73
  -1   5 -22   40.25    4.14
  -1  -5 -22   39.12    3.48
  -1  -5  22   29.28    6.00
   1  -5  22   35.12    5.68
  -1  -5 -22   33.87    4.32
   1  -5 -22   35.92    4.15
   1   5 -23   72.68    4.34
  -1   5 -23   78.35    4.82
  -1  -5 -23   70.44    4.07
  -1  -5  23   67.12   10.03
   1  -5  23   64.23    8.21
  -1  -5 -23   68.26    3.45
   1  -5 -23   77.87    5.21
   1   5 -24   12.72    2.74
  -1   5 -24    4.67    1.73
  -1  -5 -24   14.48    2.64
  -1  -5  24   12.33    3.08
   1  -5  24   13.11    3.30
  -1  -5 -24    5.31    1.62
   1  -5 -24   10.81    2.58
   1   5 -25    2.38    1.86
  -1   5 -25    4.45    2.37
  -1  -5 -25    2.84    1.78
  -1  -5  25    0.85    1.17
   1  -5  25    1.13    1.74
  -1  -5 -25    5.65    1.77
   1  -5 -25    6.24    2.60
   1   5 -26   22.32    2.71
  -1   5 -26   16.16    3.90
  -1  -5 -26   12.99    2.79
  -1  -5  26   25.88    5.59
   1  -5  26   22.19    3.23
  -1  -5 -26    9.74    2.11
   1  -5 -26   13.21    2.87
  -1   5 -27    4.70    2.41
  -1  -5 -27   14.18    3.57
  -1  -5  27   10.49    3.39
   1  -5  27    3.78    2.17
   1  -5 -27    3.50    2.29
  -1   5 -28   -1.11    1.58
  -1  -5 -28    3.60    1.65
  -1  -5  28    2.57    1.25
   1  -5  28    8.39    2.59
   1  -5 -28    2.06    1.62
  -1   5 -29   22.86    4.00
  -1  -5  29   22.56    3.84
   1  -5  29   22.48    5.73
   1  -5 -29   26.99    4.31
  -1   5 -30    4.23    1.79
  -1  -5  30    6.55    2.92
   1  -5  30    4.33    1.70
   1  -5 -30    7.22    2.60
   1   6   0  689.07   11.58
  -1   6   0  719.36   11.96
  -1  -6   0  754.18   12.33
   1   6   0  702.77   11.42
   1  -6   0  700.94   11.94
   1   6  -1  364.79    7.00
  -1   6   1  384.26    7.33
  -1   6  -1  374.15    7.25
  -1  -6   1  390.10    7.36
   1  -6   1  363.90    7.16
   1  -6  -1  376.47    7.78
   1   6   1  347.90    6.27
   1   6  -2  374.83    7.23
  -1   6   2  409.31    7.55
  -1  -6   2  400.83    7.55
  -1  -6  -2  385.62    7.08
   1  -6   2  416.56    7.99
   1   6   2  365.06    6.39
   1  -6  -2  357.77    7.41
   1   6  -3  461.56    8.37
  -1   6   3  472.19    8.30
  -1   6  -3  427.58    7.86
  -1  -6   3  474.63    8.58
  -1  -6  -3  460.68    7.90
   1  -6  -3  453.27    9.13
   1   6   3  437.11    7.35
  -1   6   4  131.86    3.45
   1  -6  -4  107.31    2.93
  -1  -6   4  115.23    3.61
   1  -6   4  128.89    4.27
  -1  -6  -4  130.78    3.26
   1  -6  -4  123.82    4.61
   1   6   4  117.70    3.10
   1   6   5   33.20    2.55
  -1   6   5   32.19    2.43
   1   6  -5   32.62    2.58
   1  -6  -5   34.17    2.37
  -1   6  -5   30.63    2.99
   1  -6   5   30.95    2.63
  -1  -6  -5   35.85    2.83
   1   6   5   29.70    2.12
   1   6   6  332.62   10.76
  -1   6   6  354.72    8.39
   1   6  -6  359.96    8.86
   1  -6  -6  323.80    7.65
  -1   6  -6  352.31    9.07
  -1  -6   6  355.23    8.93
  -1  -6  -6  360.95    8.42
   1  -6  -6  340.89    8.97
   1   6   6  322.13    7.55
   1   6   7  107.27    6.09
  -1   6   7  105.46    5.94
   1   6  -7  100.47    5.77
   1  -6  -7   94.22    5.15
  -1   6  -7   85.06    5.29
  -1  -6   7  108.90    6.47
   1  -6   7  101.45    5.94
  -1  -6  -7  106.37    5.82
   1  -6  -7  102.38    6.37
   1   6   7   97.62    5.30
   1   6   8  205.29   14.46
  -1   6   8  199.86    5.38
   1   6  -8  191.53    5.61
   1  -6  -8  178.90    4.52
  -1   6  -8  202.93    6.44
  -1  -6   8  192.09    5.67
   1  -6   8  181.11    5.44
  -1  -6  -8  189.66    5.24
   1  -6  -8  195.13    5.84
   1   6   8  178.21    4.57
   1   6   9  562.15   13.07
  -1   6   9  560.36   12.50
   1   6  -9  560.12   12.99
   1  -6  -9  505.94   11.24
  -1   6  -9  564.34   13.49
  -1  -6   9  548.66   12.98
   1  -6   9  560.15   13.42
  -1  -6  -9  566.70   12.69
   1  -6  -9  557.98   13.44
   1   6   9  567.24   12.59
   1   6  10   38.64    3.43
  -1   6  10   35.83    2.03
   1   6 -10   44.70    3.19
   1  -6 -10   27.78    1.50
  -1   6 -10   41.00    4.19
  -1  -6 -10   32.64    1.57
  -1  -6  10   35.49    2.49
   1  -6  10   47.40    3.28
  -1  -6 -10   40.38    2.27
   1  -6 -10   40.09    2.83
   1   6  11  202.39    9.12
  -1   6  11  199.90    5.72
   1   6 -11  206.24    6.08
   1  -6 -11  183.81    4.83
  -1   6 -11  213.01    6.76
  -1  -6 -11  181.79    5.30
  -1  -6  11  206.44    6.35
   1  -6  11  211.39    6.60
  -1  -6 -11  199.20    5.66
   1  -6 -11  213.08    6.65
   1   6  12   79.88    8.90
  -1   6  12   82.08    3.70
   1  -6 -12   72.28    2.87
   1   6 -12   84.88    3.94
  -1   6 -12   83.20    4.20
  -1  -6 -12   65.19    5.46
  -1  -6  12   82.08    3.98
   1  -6  12   75.11    3.99
  -1  -6 -12   79.44    3.64
   1  -6 -12   86.63    4.93
   1   6  13   20.20    3.43
  -1   6  13   22.99    2.94
   1  -6 -13   18.03    1.27
   1   6 -13   23.66    2.16
  -1   6 -13   18.92    3.71
  -1  -6  13   10.13    1.78
   1  -6  13   24.17    2.52
  -1  -6 -13   20.55    2.00
   1  -6 -13   23.45    3.04
   1   6  14  234.53    7.79
  -1   6  14  244.83    7.49
   1  -6 -14  197.26    5.88
   1   6 -14  228.77    7.50
  -1   6 -14  225.15    8.20
  -1  -6  14  222.21    7.79
   1  -6  14  250.60    8.63
  -1  -6 -14  231.39    7.33
   1  -6 -14  241.91    8.69
   1   6  15  141.57   15.42
  -1   6  15  127.55    8.17
   1  -6 -15  110.81    3.69
   1   6 -15  115.95    4.93
  -1   6 -15  110.10    5.28
  -1  -6  15  121.97    9.77
   1  -6  15  139.14    6.09
  -1  -6 -15  129.28    5.00
   1  -6 -15  135.21    6.43
   1   6  16  192.07   16.02
  -1   6  16  210.94    7.31
   1  -6 -16  173.28    5.56
   1   6 -16  221.30    7.92
  -1   6 -16  221.28    8.59
  -1  -6  16  196.87   10.79
   1  -6  16  216.58    8.00
  -1  -6 -16  198.76    6.80
   1  -6 -16  207.01    8.13
  -1   6  17  101.58    6.87
   1   6  17   99.67   12.42
   1   6 -17  108.28    4.97
  -1   6 -17   81.96    4.20
  -1  -6  17  106.65   12.41
   1  -6  17  110.55    5.08
  -1  -6 -17   97.04    4.23
   1  -6 -17  109.68    6.03
   1   6  18   54.21    8.41
  -1   6  18   49.99    5.61
   1   6 -18   58.72    5.29
  -1   6 -18   50.06    5.38
  -1  -6  18   55.37    7.02
   1  -6  18   65.30    5.82
  -1  -6 -18   60.84    5.43
   1  -6 -18   46.83    5.89
   1   6  19   18.89    3.11
   1   6 -19   12.18    2.43
  -1   6 -19   18.50    3.66
   1  -6  19   30.91    4.59
  -1  -6 -19   27.96    3.89
   1  -6 -19   37.04    5.84
   1   6  20    7.03    2.11
   1   6 -20    9.71    2.09
  -1   6 -20    9.82    3.08
   1  -6 -20   11.01    1.60
  -1  -6  20    6.68    1.63
   1  -6  20    9.19    2.11
  -1  -6 -20   11.14    2.03
   1  -6 -20    9.60    2.39
   1   6 -21    5.13    1.69
  -1   6 -21    6.81    3.11
   1  -6 -21    6.02    1.16
  -1  -6 -21    6.96    2.28
  -1  -6  21    6.18    2.50
   1  -6  21    4.46    1.70
  -1  -6 -21    4.21    1.27
   1  -6 -21    7.13    3.30
   1   6 -22   95.75    4.88
  -1   6 -22   61.33    4.98
  -1  -6 -22   64.93    3.99
  -1  -6  22   65.27   10.76
   1  -6  22   50.08    6.66
  -1  -6 -22   62.47    3.54
   1  -6 -22   66.77    4.11
   1   6 -23   25.20    2.82
  -1   6 -23   34.66    3.98
  -1  -6 -23   23.04    2.53
  -1  -6  23   26.54    4.74
   1  -6  23   29.32    4.86
  -1  -6 -23   16.59    2.59
   1  -6 -23   18.34    3.41
  -1   6 -24   72.66    6.97
  -1  -6 -24   66.84    5.76
  -1  -6  24   79.21   12.88
   1  -6  24   50.63   10.65
  -1  -6 -24   63.30    5.37
   1  -6 -24   71.72    6.55
   1   6 -25   17.39    3.37
  -1   6 -25   24.81    3.96
  -1  -6 -25   18.57    3.94
  -1  -6  25   15.66    4.10
   1  -6  25   18.80    3.98
   1  -6 -25   14.06    3.49
   1   6 -26   74.84    4.42
  -1   6 -26   74.11    5.29
  -1  -6 -26   70.99    4.38
   1  -6  26   77.77   13.22
   1  -6 -26   78.55    5.61
  -1   6 -27    5.22    2.70
  -1  -6 -27    2.29    1.16
  -1  -6  27    1.03    1.09
   1  -6  27    5.45    2.50
   1  -6 -27   10.73    3.11
  -1   6 -28    9.99    2.96
  -1  -6  28   19.44    3.79
   1  -6  28   12.56    4.47
   1  -6 -28   20.44    3.64
  -1   6 -29    2.28    1.64
  -1  -6  29    8.25    2.47
   1  -6  29    3.96    1.71
   1  -6 -29    2.37    1.37
   1   7   0   19.10    2.22
  -1   7   0   13.88    1.64
  -1  -7   0   22.34    2.47
   1  -7   0   19.54    2.52
   1   7   1  417.80   10.18
   1   7  -1  439.99   10.67
  -1   7   1  418.90   10.17
  -1   7  -1  435.90   10.58
  -1  -7   1  417.05    9.95
  -1  -7  -1  413.76    9.80
   1  -7   1  404.46   10.33
   1  -7  -1  435.07   10.73
   1   7   2  254.91    6.91
   1   7  -2  242.36    6.60
  -1   7   2  261.60    6.99
  -1   7  -2  260.90    7.22
  -1  -7   2  254.50    6.71
  -1  -7  -2  246.79    6.46
   1  -7   2  248.65    7.13
   1  -7  -2  253.33    7.10
   1   7  -3  381.85    9.52
  -1   7   3  352.26    8.63
  -1   7  -3  381.98    9.40
  -1  -7   3  384.11    9.38
  -1  -7  -3  383.68    9.36
   1  -7   3  351.77    9.11
   1  -7  -3  398.04   10.27
   1   7   4  173.79    5.56
   1   7  -4  180.96    5.56
  -1   7   4  169.94    9.06
  -1  -7   4  181.78    5.64
   1  -7   4  169.99    9.68
  -1  -7  -4  166.75    8.93
   1  -7  -4  169.51    9.41
   1   7   5   78.91    4.94
   1   7  -5   86.56    5.18
  -1   7   5   88.86    5.11
  -1   7  -5   95.95    6.46
  -1  -7   5   85.31    5.09
   1  -7   5   84.44    5.82
  -1  -7  -5   87.56    5.05
   1  -7  -5   76.27    5.04
   1   7   6  333.07    9.04
  -1   7   6  314.11    8.16
   1   7  -6  311.87    8.58
  -1   7  -6  332.61    9.42
  -1  -7   6  323.43    8.84
   1  -7   6  313.21    8.76
  -1  -7  -6  310.26    7.99
   1  -7  -6  316.48    8.90
   1   7   7    5.14    1.68
  -1   7   7    5.42    1.95
   1   7  -7    8.60    2.40
  -1   7  -7   11.26    3.10
  -1  -7   7    3.40    1.54
  -1  -7  -7    3.92    1.83
   1  -7  -7    4.39    2.25
   1   7   7    2.18    1.01
   1   7   8  159.61   13.46
  -1   7   8  162.79    4.84
   1   7  -8  154.55    5.25
  -1   7  -8  156.34    5.44
  -1  -7   8  155.07    5.35
  -1  -7  -8  161.31    5.24
   1  -7  -8  160.25    5.87
   1   7   9  104.38    7.98
  -1   7   9   98.20    3.53
   1   7  -9   98.52    4.12
  -1   7  -9  109.99    4.92
  -1  -7   9   97.12    3.87
   1  -7   9  100.58    4.20
  -1  -7  -9  115.31    4.14
   1  -7  -9   97.88    4.09
   1   7  10  138.00   11.49
   1   7 -10  126.61    5.31
  -1   7 -10  127.98    5.87
  -1  -7  10  121.79    5.23
   1  -7  10  127.81    5.19
  -1  -7 -10  135.17    5.32
   1  -7 -10  145.18    6.34
   1   7  11  230.28    7.93
  -1   7  11  249.85    7.93
   1   7 -11  241.85    8.13
  -1   7 -11  234.86    8.42
  -1  -7  11  251.54    9.29
   1  -7  11  236.84    8.63
  -1  -7 -11  248.39    8.13
   1  -7 -11  239.88    8.88
   1   7  12  319.54   10.08
  -1   7  12  321.11    9.47
   1   7 -12  311.96   10.07
  -1   7 -12  339.31   10.88
  -1  -7  12  338.48   10.72
   1  -7  12  330.82   10.95
  -1  -7 -12  319.23    9.64
   1  -7 -12  354.41   11.49
   1   7  13   14.26    2.68
  -1   7  13   14.18    1.96
   1   7 -13   14.33    2.38
  -1   7 -13   11.09    2.24
  -1  -7  13   13.57    2.51
   1  -7  13   18.81    2.67
  -1  -7 -13   10.48    2.20
   1  -7 -13    6.29    2.75
   1   7  14  102.15    4.59
  -1   7  14  105.21    9.12
   1   7 -14  108.96    5.13
  -1   7 -14   90.16    4.85
  -1  -7  14   94.87    4.57
   1  -7  14  106.89    5.43
  -1  -7 -14   92.32    4.12
   1  -7 -14  102.38    5.72
   1   7  15  210.84    7.50
  -1   7  15  195.05    7.42
   1   7 -15  215.84    8.17
  -1   7 -15  212.91    8.62
  -1  -7  15  234.98   21.70
   1  -7  15  213.31    8.11
  -1  -7 -15  201.63    6.85
   1  -7 -15  213.40    8.74
   1   7  16   28.40    4.52
  -1   7  16   25.78    4.46
   1   7 -16   26.02    3.63
  -1   7 -16   25.19    3.88
  -1  -7  16   32.47    4.93
   1  -7  16   25.75    3.49
  -1  -7 -16   24.49    2.78
   1  -7 -16   29.09    3.83
   1   7  17    2.41    1.28
  -1   7  17    7.82    1.44
   1   7 -17    8.64    2.73
  -1   7 -17    7.86    3.24
  -1  -7  17    6.60    2.42
   1  -7  17    8.02    2.71
  -1  -7 -17    4.18    1.27
   1  -7 -17    8.84    3.75
   1   7  18   37.43    6.05
  -1   7  18   39.36    6.11
   1   7 -18   53.10    4.02
  -1   7 -18   43.27    5.71
  -1  -7  18   57.06    6.85
   1  -7  18   50.54    3.61
  -1  -7 -18   45.15    5.67
   1  -7 -18   50.41    5.18
  -1   7  19   12.34    1.85
   1   7  19    8.91    2.24
   1   7 -19   16.55    2.79
  -1   7 -19   14.54    2.69
  -1  -7  19   11.43    2.42
   1  -7  19   12.46    2.65
  -1  -7 -19    9.81    1.79
   1  -7 -19    8.96    2.59
  -1   7  20   49.48    2.60
   1   7  20   45.99    5.89
   1   7 -20   59.38    4.44
  -1   7 -20   64.02    5.06
   1  -7  20   59.07    3.85
  -1  -7 -20   59.04    3.73
   1  -7 -20   65.04    4.86
   1   7  21   41.08    2.98
   1   7 -21   47.43    3.46
  -1   7 -21   42.91    3.63
  -1  -7  21   38.89    4.92
   1  -7  21   35.48    3.21
  -1  -7 -21   45.43    3.16
   1  -7 -21   44.06    3.99
   1   7 -22    2.75    1.56
  -1   7 -22    9.73    3.04
  -1  -7 -22    6.57    2.14
  -1  -7  22    2.95    2.59
   1  -7  22    9.55    2.62
  -1  -7 -22    3.40    1.36
   1  -7 -22    5.19    2.93
   1   7 -23   37.35    3.72
  -1   7 -23   42.39    4.93
  -1  -7 -23   49.45    5.10
  -1  -7  23   39.92    8.61
   1  -7  23   36.03    6.72
  -1  -7 -23   29.38    2.84
   1  -7 -23   39.57    4.73
   1   7 -24   17.93    3.63
  -1   7 -24   16.99    3.60
  -1  -7 -24   17.29    3.40
  -1  -7  24   24.08    3.98
   1  -7  24    6.53    1.83
   1  -7 -24   17.94    4.12
   1   7 -25    5.95    1.93
  -1   7 -25    9.76    3.21
  -1  -7 -25    7.60    2.40
  -1  -7  25   11.11    3.81
   1  -7  25    3.08    1.83
   1  -7 -25    8.82    2.95
   1   7 -26   44.14    3.92
  -1   7 -26   44.25    4.52
  -1  -7 -26   42.51    4.07
  -1  -7  26   25.37    6.81
   1  -7  26   34.79    6.45
   1  -7 -26   38.03    3.61
   1   7 -27    5.39    1.74
  -1   7 -27    4.63    2.71
  -1  -7  27   12.45    3.94
   1  -7  27    8.89    2.62
   1  -7 -27    7.42    2.48
  -1   7 -28   21.43    4.00
  -1  -7  28   18.44    3.84
   1  -7  28   11.58    3.94
   1  -7 -28   16.13    3.01
   1   8   0  174.52    5.59
  -1   8   0  175.08    5.58
  -1  -8   0  171.49    5.53
   1  -8   0  163.12    5.75
   1   8   1   95.05    4.45
   1   8  -1   89.73    3.98
  -1   8   1   95.14    4.11
  -1   8  -1  102.33    4.19
  -1  -8   1   96.20    4.06
  -1  -8  -1   91.78    3.80
   1  -8   1   94.46    4.30
   1  -8  -1   91.10    5.13
   1   8  -2  353.13    9.55
  -1   8   2  342.41    9.23
  -1   8  -2  328.69    9.13
  -1  -8   2  325.93    8.66
  -1  -8  -2  332.42    8.80
   1  -8   2  338.57    9.47
   1  -8  -2  354.13   10.03
   1   8   3   30.92    2.43
   1   8  -3   38.18    2.96
  -1   8   3   34.04    2.43
  -1   8  -3   35.99    3.22
  -1  -8   3   34.62    2.88
  -1  -8  -3   35.51    2.28
   1  -8   3   34.82    3.00
   1  -8  -3   31.30    2.90
   1   8   4  205.20    6.36
   1   8  -4  212.33    6.61
  -1   8   4  191.42    5.62
  -1   8  -4  203.24    6.69
  -1  -8   4  201.35    6.36
   1  -8   4  191.84    6.22
  -1  -8  -4  207.98    6.14
   1  -8  -4  207.24    6.84
   1   8   5  119.11    4.85
  -1   8   5  124.38    4.53
   1   8  -5  118.85    4.39
  -1  -8   5  111.44    4.29
   1  -8   5  124.53    5.07
  -1  -8  -5  107.10    3.92
   1  -8  -5  122.08    5.72
   1   8   6  172.10    6.55
  -1   8   6  166.29    5.81
   1   8  -6  177.70    6.79
  -1   8  -6  168.56    6.40
  -1  -8   6  170.79    6.24
   1  -8   6  164.28    6.47
  -1  -8  -6  164.92    5.83
   1  -8  -6  177.39    7.52
   1   8   7   45.09    3.36
  -1   8   7   47.96    2.85
   1   8  -7   48.07    3.08
  -1   8  -7   49.27    4.29
  -1  -8   7   44.17    3.50
   1  -8   7   46.71    3.57
  -1  -8  -7   39.77    3.04
   1  -8  -7   48.25    3.91
   1   8   8  208.58    7.36
  -1   8   8  210.46    7.15
   1   8  -8  215.47    7.52
  -1   8  -8  203.29    7.42
  -1  -8   8  207.12    7.25
  -1  -8  -8  191.73    6.54
   1  -8  -8  208.56    7.95
   1   8   9   30.06    3.11
  -1   8   9   33.75    2.66
   1   8  -9   25.12    2.53
  -1   8  -9   24.97    3.43
  -1  -8   9   26.71    2.50
  -1  -8  -9   30.41    2.81
   1  -8  -9   19.84    2.63
   1   8  10  104.96   11.66
  -1   8  10  118.99    4.80
   1   8 -10  123.74    5.60
  -1   8 -10  114.91    5.26
  -1  -8  10  111.22    5.28
   1  -8  10  105.84    5.17
  -1  -8 -10  110.43    4.70
   1  -8 -10  122.41    5.82
   1   8  11   29.95    4.89
  -1   8  11   39.27    2.83
   1   8 -11   33.56    3.32
  -1   8 -11   29.88    4.11
  -1  -8  11   31.52    3.49
   1  -8  11   32.40    3.18
  -1  -8 -11   41.42    3.14
   1  -8 -11   30.15    4.26
   1   8  12  364.56   14.99
  -1   8  12  386.19   12.14
   1   8 -12  375.15   12.36
  -1   8 -12  384.66   12.93
  -1  -8  12  403.97   13.41
   1  -8  12  400.48   13.38
  -1  -8 -12  382.91   11.93
   1  -8 -12  376.79   12.84
   1   8  13   34.27    5.37
  -1   8  13   30.81    3.53
   1   8 -13   30.98    2.80
  -1   8 -13   37.71    4.48
  -1  -8  13   28.46    2.70
   1  -8  13   28.65    3.40
  -1  -8 -13   31.44    2.58
   1  -8 -13   26.13    3.21
   1   8  14   11.16    2.18
  -1   8  14    6.93    1.26
   1   8 -14    7.64    2.99
  -1   8 -14   17.40    4.10
  -1  -8  14    4.62    2.69
   1  -8  14    8.00    2.14
  -1  -8 -14    4.32    1.33
   1  -8 -14    9.66    2.98
   1   8  15    7.16    2.13
  -1   8  15    6.03    1.24
   1   8 -15    6.29    2.88
  -1   8 -15   19.10    4.40
  -1  -8  15    9.08    2.10
   1  -8  15   13.34    2.75
  -1  -8 -15    7.06    1.60
   1  -8 -15   13.82    2.89
   1   8  16   28.01    5.40
  -1   8  16   26.38    4.37
   1   8 -16   23.00    3.98
  -1   8 -16   30.44    4.66
  -1  -8  16   21.07    3.44
   1  -8  16   22.41    3.43
  -1  -8 -16   27.52    3.70
   1  -8 -16   23.63    3.67
   1   8  17   28.39    3.96
  -1   8  17   22.11    3.50
   1   8 -17   26.24    3.43
  -1   8 -17   24.63    3.90
  -1  -8  17   38.23    5.02
   1  -8  17   26.09    3.71
  -1  -8 -17   29.18    3.61
   1  -8 -17   31.78    4.89
   1   8  18   62.83    8.56
  -1   8  18   55.35    6.00
   1   8 -18   72.68    4.81
  -1   8 -18   70.35    5.37
  -1  -8  18   87.34    8.54
   1  -8  18   61.92    4.35
  -1  -8 -18   69.37    3.93
   1  -8 -18   79.54    5.92
  -1   8  19   32.86    5.46
   1   8  19   37.32    5.72
   1   8 -19   48.65    3.30
  -1   8 -19   41.97    3.86
  -1  -8  19   39.27    5.06
   1  -8  19   57.05    4.08
  -1  -8 -19   49.29    3.67
   1  -8 -19   40.28    3.52
  -1   8  20   35.24    6.45
   1   8  20   46.50    7.66
   1   8 -20   50.02    3.84
  -1   8 -20   55.67    4.91
   1  -8  20   61.57    3.99
  -1  -8 -20   59.92    3.19
   1  -8 -20   54.20    5.03
   1   8  21   39.58    6.91
   1   8 -21   35.90    3.16
  -1   8 -21   54.36    4.62
   1  -8  21   55.67    4.02
  -1  -8 -21   36.15    2.67
   1  -8 -21   46.15    4.14
   1   8  22   43.58    4.29
   1   8 -22   51.71    5.35
  -1   8 -22   46.96    4.94
  -1  -8  22   49.07    7.20
   1  -8  22   38.67    4.46
  -1  -8 -22   50.58    4.42
   1  -8 -22   42.97    4.83
   1   8 -23   35.26    4.23
  -1   8 -23   22.94    3.69
  -1  -8  23   30.99    4.98
   1  -8  23   27.46    3.64
   1  -8 -23   35.04    4.22
   1   8 -24   24.07    2.51
  -1   8 -24   30.38    3.59
  -1  -8 -24   20.73    2.81
  -1  -8  24   25.36    4.30
   1  -8  24   31.78    4.31
   1  -8 -24   24.80    2.75
   1   8 -25    9.24    2.57
  -1   8 -25   16.61    2.75
  -1  -8 -25   17.67    2.73
  -1  -8  25   29.30    4.55
   1  -8  25   23.36    5.04
   1  -8 -25   17.71    3.01
   1   8 -26   56.41    7.69
  -1   8 -26   55.24    7.66
  -1  -8 -26   33.96    4.92
  -1  -8  26   28.16    9.20
   1  -8  26   32.89    6.18
   1  -8 -26   46.64    6.39
   1   8 -27    8.71    2.81
  -1   8 -27    9.26    3.04
  -1  -8  27    6.92    2.06
   1  -8  27   13.05    3.88
   1  -8 -27   10.86    2.91
   1   9   0   22.19    2.95
  -1   9   0   21.09    2.42
  -1  -9   0   20.27    2.09
   1  -9   0   21.80    3.63
   1   9   1   13.92    2.13
   1   9  -1    8.49    2.01
  -1   9   1    7.15    1.65
  -1   9  -1    8.13    1.93
  -1  -9   1   10.54    2.45
  -1  -9  -1   10.41    1.66
   1  -9   1    7.39    2.43
   1  -9  -1    7.60    2.49
   1   9  -2    7.74    1.74
  -1   9   2    5.60    1.93
  -1   9  -2    6.56    3.11
  -1  -9   2    6.62    1.76
  -1  -9  -2    4.15    2.24
   1  -9   2    2.78    2.38
   1  -9  -2    7.53    3.62
   1   9   3  110.91    4.76
   1   9  -3   98.07    4.37
  -1   9   3  105.46    4.97
  -1   9  -3  111.94    5.54
  -1  -9   3  102.19    4.62
  -1  -9  -3  104.24    4.41
   1  -9   3  108.64    5.75
   1  -9  -3  104.96    5.06
   1   9   4   61.35    3.89
   1   9  -4   64.95    4.02
  -1   9   4   68.04    3.73
  -1   9  -4   61.34    4.15
  -1  -9   4   51.25    3.14
  -1  -9  -4   71.41    3.83
   1  -9   4   68.68    4.56
   1  -9  -4   66.47    5.14
   1   9   5  271.28    9.27
   1   9  -5  255.89    8.79
  -1   9   5  262.77    8.45
  -1  -9   5  247.35    8.43
   1  -9   5  242.20    8.29
  -1  -9  -5  253.00    8.30
   1  -9  -5  246.44    9.09
   1   9   6  131.51    5.54
  -1   9   6  137.05    5.28
   1   9  -6  137.98    5.91
  -1   9  -6  145.37    5.85
  -1  -9   6  126.17    5.62
   1  -9   6  146.31    6.61
  -1  -9  -6  137.85    5.42
   1  -9  -6  138.90    6.07
   1   9   7  259.24    8.65
  -1   9   7  269.92    8.52
   1   9  -7  272.42    9.50
  -1   9  -7  259.22    9.03
  -1  -9   7  236.33    8.15
   1  -9   7  258.42    9.00
  -1  -9  -7  249.50    8.23
   1  -9  -7  259.80    9.43
   1   9   8   13.26    2.38
  -1   9   8   17.20    2.23
   1   9  -8   15.77    2.96
  -1   9  -8    9.76    2.40
  -1  -9   8   13.13    2.73
   1  -9   8   15.62    2.22
  -1  -9  -8   15.15    2.14
   1  -9  -8   17.22    3.23
   1   9   9  903.60   66.22
  -1   9   9  900.83   65.67
   1   9  -9  884.71   26.37
  -1   9  -9  828.74   24.83
  -1  -9   9  870.89   25.99
   1  -9   9  912.13   66.72
  -1  -9  -9  893.91   65.16
   1  -9  -9  895.96   65.71
   1   9  10  181.23   13.80
  -1   9  10  183.68    6.65
   1   9 -10  204.77    8.48
  -1   9 -10  201.90    8.21
  -1  -9  10  183.95    7.59
  -1  -9 -10  206.04    7.66
   1  -9 -10  194.50    7.95
   1   9  11  386.23   12.91
  -1   9  11  389.89   12.53
   1   9 -11  374.40   12.65
  -1   9 -11  390.79   13.91
  -1  -9  11  396.24   13.71
   1  -9  11  397.04   13.33
  -1  -9 -11  384.59   12.37
   1  -9 -11  402.45   13.81
   1   9  12   70.04   11.38
  -1   9  12   70.38    6.09
   1   9 -12   73.42    9.32
  -1   9 -12   68.04    6.31
  -1  -9  12   79.43    4.54
   1  -9  12   73.60    8.96
  -1  -9 -12   65.55    5.45
   1  -9 -12   74.31    9.46
   1   9  13   72.46    6.92
  -1   9  13   76.24   10.37
   1   9 -13   61.31    4.56
  -1   9 -13   67.77    5.05
  -1  -9  13   68.05    4.78
   1  -9  13   74.64    4.86
  -1  -9 -13   92.29    5.12
   1  -9 -13   73.69    5.12
   1   9  14    8.18    2.22
  -1   9  14   11.15    2.40
   1   9 -14   14.66    3.41
  -1   9 -14   12.05    3.25
  -1  -9  14    9.54    1.99
   1  -9  14   11.35    2.92
  -1  -9 -14    9.77    2.17
   1  -9 -14    9.60    3.71
   1   9  15  168.06   11.83
  -1   9  15  177.49    6.95
   1   9 -15  163.03    7.11
  -1   9 -15  178.83    7.92
  -1  -9  15  156.17    6.89
   1  -9  15  177.06    8.01
  -1  -9 -15  164.72    6.68
   1  -9 -15  171.64    7.90
   1   9  16    3.33    1.34
  -1   9  16    1.85    0.66
   1   9 -16    2.94    2.10
  -1   9 -16   -1.08    2.72
  -1  -9  16    4.40    2.03
   1  -9  16    2.11    1.85
  -1  -9 -16    3.62    1.84
   1  -9 -16    9.45    3.72
   1   9  17   87.63   11.96
  -1   9  17   71.48    6.65
   1   9 -17   90.78    5.51
  -1   9 -17   99.31    6.57
  -1  -9  17   78.59    7.51
   1  -9  17   77.82    5.39
  -1  -9 -17   93.02    4.97
   1  -9 -17   89.62    5.86
   1   9  18   51.96    5.86
  -1   9  18   48.24    7.81
   1   9 -18   59.79    3.65
  -1   9 -18   55.44    4.19
  -1  -9  18   50.19    3.51
   1  -9  18   53.49    4.21
  -1  -9 -18   54.45    3.50
   1  -9 -18   65.82    4.23
   1   9  19   18.14    3.02
  -1   9  19   11.82    2.45
   1   9 -19   17.91    3.61
  -1   9 -19   20.61    3.08
  -1  -9  19   20.65    3.11
   1  -9  19   14.08    2.75
  -1  -9 -19   15.92    2.80
   1  -9 -19    9.00    2.35
   1   9  20    3.82    1.66
   1   9 -20    9.18    2.96
  -1   9 -20    5.57    3.08
  -1  -9  20    8.90    2.00
   1  -9  20    7.23    2.62
  -1  -9 -20    5.32    1.83
   1  -9 -20    3.72    2.24
   1   9  21   12.04    3.56
   1   9 -21   18.49    3.61
  -1   9 -21   18.59    4.20
  -1  -9  21   23.34    3.34
   1  -9  21   16.53    4.12
  -1  -9 -21    9.88    2.10
   1  -9 -21   12.99    3.45
   1   9  22    7.10    2.20
   1   9 -22   11.94    3.27
  -1   9 -22    9.59    3.49
  -1  -9  22    7.65    2.35
   1  -9  22    2.91    2.62
   1  -9 -22    4.45    2.09
   1   9  23   17.40    2.16
   1   9 -23   27.24    3.50
  -1   9 -23   26.84    3.32
   1  -9  23   22.07    2.97
   1  -9 -23   16.99    4.18
   1   9 -24   37.85    5.63
  -1   9 -24   30.95    5.04
  -1  -9  24   31.29    6.47
   1  -9  24   17.73    3.24
   1  -9 -24   29.23    4.51
   1   9 -25    7.40    2.54
  -1   9 -25    2.49    1.96
  -1  -9 -25    6.47    2.45
  -1  -9  25    4.02    2.18
   1  -9  25    5.99    2.32
   1  -9 -25    5.73    2.07
   1   9 -26   12.55    2.83
  -1   9 -26   22.85    5.03
  -1  -9  26   11.67    3.01
   1  -9  26   11.83    4.68
   1  -9 -26   15.69    3.09
   1  10   0  291.28   10.02
  -1  10   0  283.12    9.96
  -1 -10   0  291.43    9.92
   1 -10   0  289.31   10.58
   1  10  -1   79.38    4.30
  -1  10   1   83.32    4.52
  -1  10  -1   60.66    4.41
  -1 -10   1   56.46    3.42
  -1 -10  -1   61.65    4.00
   1 -10   1   74.52    4.65
   1 -10  -1   67.70    4.90
   1  10  -2  334.58   11.43
  -1  10   2  372.56   12.27
  -1  10  -2  318.11   10.68
  -1 -10   2  353.05   11.66
  -1 -10  -2  358.01   11.67
   1 -10   2  350.05   11.73
   1 -10  -2  384.88   13.03
   1  10   3  241.16    8.61
   1  10  -3  230.81    8.47
  -1  10   3  255.54    9.05
  -1  10  -3  230.71    8.57
  -1 -10   3  253.67    9.20
  -1 -10  -3  250.72    8.73
   1 -10   3  240.79    9.64
   1 -10  -3  239.53    9.26
   1  10   4  215.80    7.99
   1  10  -4  217.56    8.42
  -1  10   4  205.74    7.58
  -1  10  -4  211.95    7.87
  -1 -10   4  211.59    7.97
  -1 -10  -4  224.83    8.01
   1 -10   4  229.31    9.15
   1 -10  -4  224.98    9.44
   1  10   5  194.19    7.27
  -1  10   5  204.46    7.34
   1  10  -5  195.00    7.94
  -1  10  -5  199.07    7.51
  -1 -10   5  192.87    7.42
   1 -10   5  190.50    8.12
  -1 -10  -5  207.47    7.38
   1 -10  -5  201.70    8.17
   1  10   6   42.41    4.20
  -1  10   6   31.46    2.48
   1  10  -6   44.68    4.01
  -1 -10   6   30.54    2.71
   1 -10   6   41.68    4.51
  -1 -10  -6   35.35    2.55
   1 -10  -6   36.83    3.82
   1  10   7   46.37    5.04
  -1  10   7   46.11    4.31
   1  10  -7   43.11    4.39
  -1  10  -7   43.63    4.25
  -1 -10   7   46.08    4.70
   1 -10   7   41.33    4.40
  -1 -10  -7   51.50    4.82
   1 -10  -7   56.37    6.28
   1  10   8   67.85    8.00
  -1  10   8   78.45    4.51
   1  10  -8   82.62    5.20
  -1  10  -8   64.28    6.82
  -1 -10   8   58.06    5.57
   1 -10   8   59.73    5.61
  -1 -10  -8   66.75    5.78
   1 -10  -8   71.50    6.73
   1  10   9  290.16   10.29
  -1  10   9  291.03   10.08
   1  10  -9  263.62    9.41
  -1  10  -9  256.70    9.98
  -1 -10   9  278.41   10.06
   1 -10   9  286.78   10.62
  -1 -10  -9  293.44   10.24
   1 -10  -9  265.56   10.24
   1  10  10   11.45    2.74
  -1  10  10   14.38    2.54
   1  10 -10   10.20    2.89
  -1  10 -10    5.74    3.00
  -1 -10  10    9.89    2.31
   1 -10  10    8.99    2.44
  -1 -10 -10    8.39    2.01
   1 -10 -10    7.63    4.00
   1  10  11  106.96   12.43
  -1  10  11  110.72    5.52
   1  10 -11  105.91    6.07
  -1  10 -11  103.73    6.02
  -1 -10  11  100.11    5.41
  -1 -10 -11  108.12    5.67
   1 -10 -11  100.10    6.56
   1  10  12   15.42    3.32
  -1  10  12   18.82    2.75
   1  10 -12   21.77    3.04
  -1  10 -12   29.45    4.89
  -1 -10  12   20.18    3.24
   1 -10  12   18.55    2.96
  -1 -10 -12   24.16    3.79
   1 -10 -12   25.23    3.83
   1  10  13    5.43    1.59
  -1  10  13    3.35    1.38
   1  10 -13    4.50    2.13
  -1  10 -13   -2.44    2.60
  -1 -10  13    6.96    3.26
   1 -10  13    4.20    1.80
  -1 -10 -13    1.42    1.41
   1 -10 -13    3.29    2.42
   1  10  14   11.11    2.80
  -1  10  14    8.23    1.69
   1  10 -14   10.78    3.14
  -1  10 -14   17.15    4.13
  -1 -10  14    5.89    1.97
   1 -10  14    8.76    2.29
  -1 -10 -14    9.58    2.21
   1 -10 -14   13.03    3.58
   1  10  15   18.20    3.61
  -1  10  15   19.18    3.74
   1  10 -15   15.59    3.51
  -1  10 -15   22.88    4.09
  -1 -10  15   22.08    3.31
   1 -10  15   20.49    3.10
  -1 -10 -15   20.05    3.11
   1 -10 -15   30.53    4.44
   1  10  16   58.70    6.60
  -1  10  16   52.99    7.45
   1  10 -16   61.41    4.29
  -1  10 -16   62.90    5.40
  -1 -10  16   76.55    4.67
   1 -10  16   79.66    4.91
  -1 -10 -16   68.90    3.88
   1 -10 -16   63.16    4.23
   1  10  17   17.41    2.88
  -1  10  17   17.25    3.83
   1  10 -17   19.27    3.52
  -1  10 -17   17.27    3.50
  -1 -10  17   20.88    2.57
   1 -10  17   21.50    2.78
  -1 -10 -17   21.87    2.31
   1 -10 -17   18.31    3.12
   1  10  18   60.64    8.64
  -1  10  18   57.46    5.82
   1  10 -18   63.74    6.01
  -1  10 -18   62.67    6.29
  -1 -10  18   75.51    6.89
   1 -10  18   74.18    6.71
  -1 -10 -18   73.59    4.21
   1 -10 -18   64.68    5.89
   1  10  19   13.03    3.36
   1  10 -19   15.47    3.62
  -1  10 -19   10.89    2.83
  -1 -10  19    7.11    2.52
   1 -10  19   12.75    3.22
  -1 -10 -19    6.38    1.52
   1 -10 -19   12.62    3.57
   1  10  20   17.32    4.23
   1  10 -20   16.62    3.91
  -1  10 -20   14.24    3.54
  -1 -10  20   24.33    4.18
   1 -10  20   15.57    3.09
   1 -10 -20   22.21    3.73
   1  10  21    3.62    2.09
   1  10 -21    7.64    2.99
  -1  10 -21    5.82    2.88
  -1 -10  21    4.52    2.33
   1 -10  21    6.90    2.66
   1 -10 -21    5.54    2.20
   1  10  22   14.38    4.31
   1  10 -22   24.25    3.41
  -1  10 -22   18.56    3.08
  -1 -10  22   14.02    4.78
   1 -10  22   16.53    2.39
   1 -10 -22   12.58    3.56
   1  10  23   15.53    3.77
   1  10 -23   28.35    4.34
  -1  10 -23   37.18    6.12
  -1 -10  23   27.47    5.50
   1 -10  23   27.73    4.24
   1 -10 -23   28.48    4.85
   1  10  24    5.76    1.72
   1  10 -24   13.61    3.32
  -1  10 -24   18.19    3.32
  -1 -10  24   17.05    3.58
   1 -10  24   22.19    3.95
   1 -10 -24   20.27    3.60
   1  11   0  121.20    6.09
  -1  11   0  120.76    5.93
  -1 -11   0  114.89    5.44
   1 -11   0  112.39    5.86
   1  11  -1  105.77    5.35
  -1  11   1  120.17    5.64
  -1  11  -1  102.29    5.83
  -1 -11   1  103.00    4.81
  -1 -11  -1   99.92    4.69
   1 -11   1  101.23    6.59
   1 -11  -1   97.83    5.24
   1  11   2  123.54    6.10
   1  11  -2  139.57    6.15
  -1  11   2  136.17    6.07
  -1  11  -2  158.11    6.68
  -1 -11   2  139.79    6.01
  -1 -11  -2  140.60    6.18
   1 -11   2  139.91    6.66
   1 -11  -2  144.54    6.89
   1  11   3  127.36    6.08
   1  11  -3  117.50    6.14
  -1  11   3  109.28    5.18
  -1  11  -3  109.85    5.71
  -1 -11   3  107.88    5.26
  -1 -11  -3  120.52    5.48
   1 -11   3  106.35    5.88
   1 -11  -3  114.98    6.71
   1  11   4   13.89    3.14
   1  11  -4   14.75    3.71
  -1  11   4   17.66    3.72
  -1  11  -4   12.84    2.98
  -1 -11   4   11.32    2.32
  -1 -11  -4   16.83    2.99
   1 -11   4    9.78    2.54
   1 -11  -4   12.42    3.64
   1  11   5    5.31    2.14
   1  11  -5   10.36    3.37
  -1  11   5    9.89    2.87
  -1  11  -5    6.38    2.38
  -1 -11   5    8.69    2.60
   1 -11   5    3.21    2.32
  -1 -11  -5    2.48    1.63
   1 -11  -5    9.70    3.53
   1  11   6   48.47    5.67
  -1  11   6   32.11    4.48
   1  11  -6   30.21    4.37
  -1  11  -6   43.02    5.58
  -1 -11   6   44.38    6.23
   1 -11   6   44.75    6.65
  -1 -11  -6   45.31    5.88
   1 -11  -6   31.21    4.65
   1  11   7   41.26    5.56
  -1  11   7   44.95    5.76
   1  11  -7   48.92    4.19
  -1 -11   7   31.70    4.70
   1 -11   7   33.61    4.83
  -1 -11  -7   44.83    6.16
   1 -11  -7   29.65    4.98
   1  11   8   48.70    5.31
  -1  11   8   50.95    5.38
   1  11  -8   42.64    4.81
  -1  11  -8   46.98    6.07
  -1 -11   8   43.42    4.72
   1 -11   8   35.60    4.86
  -1 -11  -8   52.00    5.53
   1 -11  -8   62.82    5.00
   1  11   9   84.06    7.95
  -1  11   9   83.96    4.43
   1  11  -9   79.76    5.03
  -1  11  -9   83.42    5.93
  -1 -11   9   79.66    4.88
   1 -11   9   91.75    5.55
  -1 -11  -9   80.22    4.16
   1 -11  -9   80.27    5.65
   1  11  10   27.61    5.01
  -1  11  10   33.81    4.41
   1  11 -10   23.93    3.81
  -1  11 -10   27.64    5.20
  -1 -11  10   29.87    4.23
   1 -11  10   28.30    4.27
  -1 -11 -10   31.67    4.26
   1 -11 -10   34.53    5.68
   1  11  11   55.22    7.71
  -1  11  11   41.65    3.32
   1  11 -11   44.96    3.70
  -1  11 -11   50.21    4.13
  -1 -11  11   45.86    3.85
   1 -11  11   54.82    4.81
  -1 -11 -11   48.69    3.56
   1 -11 -11   45.73    5.20
   1  11  12   93.40   11.08
  -1  11  12   90.28    4.69
   1  11 -12   92.31    5.42
  -1  11 -12   89.71    5.73
  -1 -11  12   97.24    5.82
  -1 -11 -12   97.04    5.46
   1 -11 -12   88.80    6.14
   1  11  13   26.43    4.80
  -1  11  13   24.68    5.10
   1  11 -13   29.74    5.09
  -1  11 -13   29.80    5.01
  -1 -11  13   22.70    3.76
  -1 -11 -13   24.82    3.82
   1 -11 -13   17.76    3.24
   1  11  14   73.89    7.40
  -1  11  14   65.64    7.79
   1  11 -14   70.67    4.48
  -1  11 -14   68.78    4.67
  -1 -11  14   71.04    4.57
   1 -11  14   86.29    5.66
  -1 -11 -14   71.54    4.08
   1 -11 -14   80.44    5.43
   1  11  15    1.13    1.71
  -1  11  15    1.81    1.60
   1  11 -15    4.25    2.65
  -1  11 -15    2.26    2.14
  -1 -11  15    3.29    1.64
   1 -11  15    1.17    1.76
  -1 -11 -15    0.70    1.29
   1 -11 -15    8.71    3.30
   1  11  16   49.50    8.06
  -1  11  16   51.86    7.82
   1  11 -16   56.78    5.20
  -1  11 -16   63.28    6.56
  -1 -11  16   71.21    6.50
   1 -11  16   69.23    6.51
  -1 -11 -16   52.93    4.79
   1 -11 -16   49.66    5.21
   1  11  17    2.96    1.64
  -1  11  17    2.14    1.05
   1  11 -17    5.88    2.11
  -1  11 -17    0.35    2.26
  -1 -11  17    6.91    2.72
   1 -11  17    7.17    2.58
  -1 -11 -17    7.82    2.44
   1 -11 -17    1.99    2.20
   1  11  18   49.00    7.09
   1  11 -18   70.32    6.55
  -1  11 -18   64.57    6.46
   1 -11  18   55.57    5.56
   1 -11 -18   50.65    5.17
   1  11  19    5.23    1.95
   1  11 -19    9.93    3.30
  -1  11 -19    1.94    3.19
  -1 -11  19    7.60    2.78
   1 -11  19    8.47    3.00
   1 -11 -19    6.61    3.14
   1  11  20   54.84    8.25
   1  11 -20   69.30    5.59
  -1  11 -20   69.60    5.76
  -1 -11  20   56.79    9.44
   1 -11  20   67.19    5.73
   1 -11 -20   64.23    5.52
   1  11  21   18.00    3.66
   1  11 -21   21.98    3.91
  -1  11 -21   30.84    5.43
  -1 -11  21   19.58    4.71
   1 -11  21   31.57    5.33
   1 -11 -21   16.16    3.20
   1  11  22   15.57    3.88
   1  11 -22   30.87    5.03
  -1  11 -22   20.55    3.83
  -1 -11  22   17.07    5.29
   1 -11  22   21.98    3.86
   1 -11 -22   22.81    3.99
   1  11  23    6.87    2.45
   1  11 -23    8.98    2.97
  -1  11 -23    7.96    3.09
  -1 -11  23   11.75    3.78
   1 -11  23   11.60    2.74
   1 -11 -23   14.35    3.53
  -1  12   0  170.59    7.89
  -1 -12   0  162.15    7.50
   1 -12   0  157.93    7.83
   1  12   1  176.45    7.94
   1  12  -1  193.24    8.39
  -1  12   1  181.17    7.64
  -1  12  -1  186.66    8.03
  -1 -12   1  195.06    8.51
  -1 -12  -1  190.81    8.05
   1 -12   1  192.26    9.07
   1 -12  -1  191.68    8.34
   1  12   2  257.58   10.59
   1  12  -2  221.31    9.41
  -1  12   2  257.74   10.58
  -1  12  -2  238.03   10.02
  -1 -12   2  227.62    9.17
  -1 -12  -2  242.06    9.53
   1 -12   2  235.17   10.35
   1 -12  -2  242.05    9.93
   1  12   3   86.60    4.98
   1  12  -3   75.08    4.68
  -1  12   3   71.95    4.10
  -1  12  -3   81.93    5.32
  -1 -12   3   89.49    5.28
  -1 -12  -3   82.97    4.95
   1 -12   3   86.27    5.76
   1 -12  -3   80.63    5.96
   1  12   4  337.86   35.58
  -1  12   4  326.32   34.21
   1  12  -4  333.38   35.09
  -1  12  -4  314.79   13.35
  -1 -12   4  323.90   13.75
  -1 -12  -4  316.39   13.17
   1 -12   4  314.29   13.75
   1 -12  -4  310.49   13.47
   1  12   5    8.67    4.02
  -1  12   5   10.56    2.91
   1  12  -5   12.42    4.30
  -1  12  -5   13.86    3.22
  -1 -12   5    4.36    1.96
   1 -12   5    8.66    2.65
  -1 -12  -5    5.05    1.72
   1 -12  -5   17.60    4.07
   1  12   6  226.73   10.27
  -1  12   6  241.11   10.66
   1  12  -6  223.02   10.05
  -1  12  -6  233.12   10.68
  -1 -12   6  197.22    8.91
   1 -12   6  228.99   10.66
  -1 -12  -6  229.34    9.88
   1 -12  -6  216.86   10.31
   1  12   7   12.87    2.92
  -1  12   7   13.12    2.86
   1  12  -7    9.07    2.54
  -1 -12   7   15.04    3.31
   1 -12   7    7.28    2.42
  -1 -12  -7   19.34    3.26
   1 -12  -7   21.42    3.84
   1  12   8   30.74    4.07
  -1  12   8   41.27    3.47
   1  12  -8   27.34    4.16
  -1  12  -8   37.73    3.53
  -1 -12   8   30.51    4.26
   1 -12   8   21.66    3.55
  -1 -12  -8   34.61    3.06
   1 -12  -8   29.38    4.37
   1  12   9   52.83    8.01
  -1  12   9   53.45    3.61
   1  12  -9   68.87    4.97
  -1  12  -9   53.18    3.92
  -1 -12   9   67.54    4.31
   1 -12   9   45.14    3.74
  -1 -12  -9   54.12    3.54
   1 -12  -9   46.28    3.78
   1  12  10    6.98    1.90
  -1  12  10    3.87    1.66
   1  12 -10    7.08    3.11
  -1  12 -10    6.34    2.25
  -1 -12  10    6.00    2.36
   1 -12  10    3.18    1.84
  -1 -12 -10    2.82    1.43
   1 -12 -10    4.27    2.43
   1  12  11   52.73    7.61
  -1  12  11   57.44    4.19
   1  12 -11   55.06    4.25
  -1  12 -11   64.97    4.97
  -1 -12  11   55.22    4.06
   1 -12  11   50.92    4.20
  -1 -12 -11   56.37    3.84
   1 -12 -11   63.52    5.03
   1  12  12   20.49    2.78
  -1  12  12   17.39    3.07
   1  12 -12   20.71    2.76
  -1  12 -12   22.83    3.13
  -1 -12  12   14.22    2.64
   1 -12  12   20.29    3.03
  -1 -12 -12   19.43    2.92
   1 -12 -12   18.68    3.46
   1  12  13    6.83    2.89
  -1  12  13    8.20    2.05
   1  12 -13    1.57    1.83
  -1  12 -13    5.91    2.43
  -1 -12  13    8.84    2.44
   1 -12  13    5.04    2.69
  -1 -12 -13   12.53    3.01
   1 -12 -13    3.47    2.33
   1  12  14    6.25    2.41
  -1  12  14    8.42    2.28
   1  12 -14   13.20    3.58
  -1  12 -14   13.08    3.29
  -1 -12  14    7.69    2.10
  -1 -12 -14   10.57    2.30
   1 -12 -14   10.56    3.55
   1  12  15   17.30    4.01
  -1  12  15   15.87    4.02
   1  12 -15   23.12    3.56
  -1  12 -15   25.29    3.67
  -1 -12  15   23.95    3.68
   1 -12  15   23.40    3.41
  -1 -12 -15   26.53    3.30
   1 -12 -15   34.45    4.47
   1  12  16   12.81    3.63
  -1  12  16   13.39    3.41
   1  12 -16   17.51    2.39
  -1  12 -16   11.30    3.55
  -1 -12  16   31.40    3.71
   1 -12  16   20.34    3.09
  -1 -12 -16   14.27    3.27
   1 -12 -16   13.68    3.87
   1  12  17   16.40    4.10
  -1  12  17   11.22    4.43
   1  12 -17   16.07    4.35
  -1  12 -17   21.29    3.38
  -1 -12  17   13.68    3.55
   1 -12  17   12.02    3.50
   1 -12 -17   10.98    3.13
   1  12  18   56.19    8.07
   1  12 -18   64.33    5.09
  -1  12 -18   68.46    5.54
  -1 -12  18   71.15    5.90
   1 -12  18   60.05    4.93
   1 -12 -18   59.38    4.87
   1  12  19   15.83    2.87
   1  12 -19   14.60    3.36
  -1  12 -19   10.13    2.98
  -1 -12  19    8.61    2.73
   1 -12  19    8.04    2.89
   1 -12 -19   11.63    3.55
   1  12  20   60.20   11.32
   1  12 -20   76.63   11.52
  -1  12 -20   83.53   12.91
  -1 -12  20   74.71   11.35
   1 -12  20   78.74   12.15
   1 -12 -20   71.94    8.95
   1  12  21    5.49    2.59
   1  12 -21    3.00    1.88
  -1  12 -21    8.19    3.20
  -1 -12  21    6.12    2.38
   1 -12  21    4.18    1.64
   1 -12 -21    6.23    2.51
  -1  13   0   43.39    3.40
  -1 -13   0   38.45    3.28
   1 -13   0   45.86    4.43
   1  13   1   19.11    3.49
   1  13  -1   17.28    3.58
  -1  13   1   15.74    3.31
  -1  13  -1   13.70    2.72
  -1 -13   1   15.91    3.07
  -1 -13  -1   20.90    3.75
   1 -13   1   12.35    3.36
   1 -13  -1   14.83    3.73
   1  13   2   11.37    2.63
   1  13  -2   16.54    3.77
  -1  13   2   22.59    4.01
  -1  13  -2   18.87    3.92
  -1 -13   2   22.33    3.85
  -1 -13  -2   16.98    2.88
   1 -13   2   14.18    4.00
   1 -13  -2   16.12    3.83
   1  13   3   81.64    5.32
   1  13  -3   75.10    4.54
  -1  13   3   81.01    4.65
  -1  13  -3   85.50    5.28
  -1 -13   3   81.39    4.64
  -1 -13  -3   82.44    4.44
   1 -13   3   90.39    6.13
   1 -13  -3   70.59    4.36
   1  13   4    4.34    2.96
   1  13  -4   12.00    3.58
  -1  13   4    1.00    1.74
  -1  13  -4    4.79    2.17
  -1 -13   4    4.69    1.80
  -1 -13  -4    4.52    2.12
   1 -13  -4    2.17    2.18
   1  13   5   49.92    4.48
   1  13  -5   49.51    3.92
  -1  13   5   53.88    3.93
  -1  13  -5   62.89    5.22
  -1 -13   5   56.42    4.47
   1 -13   5   57.24    4.25
  -1 -13  -5   52.64    3.62
   1 -13  -5   42.11    3.66
   1  13   6    8.19    2.80
  -1  13   6   11.83    3.27
   1  13  -6   10.20    3.46
  -1  13  -6   -0.57    2.09
  -1 -13   6   -0.28    1.47
   1 -13   6   18.14    3.91
  -1 -13  -6    1.99    1.29
   1 -13  -6    5.56    2.88
   1  13   7   21.74    2.70
  -1  13   7   24.98    3.33
   1  13  -7   24.47    3.10
  -1  13  -7   26.20    3.31
  -1 -13   7   26.11    2.63
   1 -13   7   32.85    4.17
  -1 -13  -7   25.86    2.73
   1 -13  -7   16.09    2.96
   1  13   8    6.31    2.21
  -1  13   8    9.12    2.78
   1  13  -8   11.35    2.84
  -1 -13   8    4.35    1.83
   1 -13   8    7.06    2.27
  -1 -13  -8    9.11    2.29
   1 -13  -8    4.52    2.24
   1  13   9   38.15    7.21
  -1  13   9   56.41    5.41
   1  13  -9   46.10    4.64
  -1  13  -9   50.79    4.96
  -1 -13   9   55.86    5.43
   1 -13   9   37.94    4.13
  -1 -13  -9   38.37    3.97
   1 -13  -9   48.71    4.94
   1  13  10    3.15    1.87
  -1  13  10    7.14    2.59
   1  13 -10    7.23    3.16
  -1  13 -10    7.48    3.01
  -1 -13  10    3.38    1.70
   1 -13  10    1.79    1.91
  -1 -13 -10    0.34    1.20
   1 -13 -10   10.50    4.11
   1  13  11   89.77   10.37
  -1  13  11  101.30    8.29
   1  13 -11   83.91    7.16
  -1  13 -11   77.82    7.01
  -1 -13  11   67.06    5.97
   1 -13  11   90.79    8.14
  -1 -13 -11   92.07    7.52
   1 -13 -11   97.19    8.34
   1  13  12   18.94    3.84
  -1  13  12   26.47    3.32
   1  13 -12   22.32    3.18
  -1  13 -12   20.28    3.91
  -1 -13  12   15.34    3.35
   1 -13  12   25.38    3.88
  -1 -13 -12   25.77    3.17
   1 -13 -12   25.44    4.09
   1  13  13  101.89   17.03
  -1  13  13   97.37   15.15
   1  13 -13  103.62    6.04
  -1  13 -13  117.17    7.30
  -1 -13  13  106.63    6.43
   1 -13  13  129.67    7.16
  -1 -13 -13  119.95    6.04
   1 -13 -13  109.26    6.10
   1  13  14   29.19    5.01
  -1  13  14   20.45    5.28
   1  13 -14   36.56    3.63
  -1  13 -14   31.63    3.71
  -1 -13  14   29.16    3.55
   1 -13  14   37.00    3.44
  -1 -13 -14   34.42    3.04
   1 -13 -14   28.37    3.88
   1  13  15   72.05   12.79
  -1  13  15   58.75    9.25
   1  13 -15   89.04    6.31
  -1  13 -15   92.35    7.26
  -1 -13  15   69.02    5.55
   1 -13 -15   63.41    5.45
   1  13  16   17.41    3.96
  -1  13  16   23.73    4.70
   1  13 -16   39.44    6.04
  -1  13 -16   22.28    4.33
  -1 -13  16   29.93    5.13
   1 -13  16   39.17    6.07
   1 -13 -16   23.69    4.01
   1  13  17   29.24    7.96
   1  13 -17   47.34    6.43
  -1  13 -17   46.87    7.03
  -1 -13  17   34.27    4.92
   1 -13  17   38.03    5.34
   1 -13 -17   44.36    6.07
   1  13  18    3.65    1.90
   1  13 -18    7.59    3.10
  -1  13 -18    9.76    3.50
  -1 -13  18    3.82    1.80
   1 -13  18    4.00    2.34
   1 -13 -18    2.01    1.91
   1  14   0   43.85    4.64
  -1  14   0   55.52    5.79
  -1 -14   0   52.08    5.21
   1 -14   0   46.28    5.49
   1  14   1   75.50    6.73
  -1  14   1   67.94    6.03
  -1  14  -1   74.43    6.90
  -1 -14   1   78.17    7.03
  -1 -14  -1   78.09    6.88
   1 -14   1   73.14    6.55
   1  14   2   29.54    3.55
   1  14  -2   27.39    4.16
  -1  14   2   23.67    3.33
  -1  14  -2   29.46    3.96
  -1 -14   2   38.22    5.33
  -1 -14  -2   34.39    4.38
   1 -14   2   20.92    5.81
   1 -14  -2   37.11    4.97
   1  14   3   76.46    7.12
   1  14  -3   59.52    5.56
  -1  14   3   55.59    5.14
  -1  14  -3   65.81    6.00
  -1 -14   3   62.74    5.83
  -1 -14  -3   74.38    6.90
   1 -14   3   64.19    6.07
   1 -14  -3   66.14    6.28
   1  14   4   19.99    4.05
  -1  14   4   18.55    3.51
   1  14  -4   20.59    5.16
  -1  14  -4   22.64    3.65
  -1 -14   4   20.45    4.04
   1 -14   4   23.94    3.84
  -1 -14  -4   17.59    3.46
   1 -14  -4   14.45    3.36
   1  14   5   54.85    5.31
  -1  14   5   37.35    3.98
   1  14  -5   45.02    4.76
  -1  14  -5   30.94    3.74
  -1 -14   5   40.18    4.21
   1 -14   5   31.64    3.85
  -1 -14  -5   54.81    5.11
   1 -14  -5   45.51    4.72
   1  14   6   29.34    4.11
  -1  14   6   25.60    3.30
  -1  14  -6   30.16    4.60
  -1 -14   6   41.46    4.22
   1 -14   6   37.32    4.94
  -1 -14  -6   35.82    3.98
   1 -14  -6   22.34    3.78
   1  14   7    8.21    2.80
  -1  14   7   22.90    3.08
   1  14  -7   14.93    4.08
  -1  14  -7   23.95    3.26
  -1 -14   7   11.65    3.14
   1 -14   7    9.94    3.21
  -1 -14  -7   22.97    2.78
   1 -14  -7   15.65    4.39
   1  14   8    2.14    1.82
  -1  14   8   -0.02    1.51
   1  14  -8    0.52    1.86
  -1 -14   8    5.57    2.73
   1 -14   8    8.37    3.12
  -1 -14  -8    0.78    1.26
   1 -14  -8    0.42    1.84
   1  14   9    4.18    1.74
  -1  14   9    8.51    2.88
   1  14  -9   15.29    4.02
  -1  14  -9   12.32    3.41
  -1 -14   9   11.95    3.23
   1 -14   9   21.96    3.01
  -1 -14  -9   11.66    3.15
   1 -14  -9    9.57    3.21
   1  14  10    6.95    3.31
  -1  14  10    4.20    1.76
   1  14 -10    7.44    3.73
  -1  14 -10    2.18    2.03
  -1 -14  10    5.19    2.74
   1 -14  10    3.07    1.96
  -1 -14 -10    7.27    2.31
   1 -14 -10    9.11    3.17
   1  14  11    7.11    3.13
  -1  14  11    3.94    2.26
   1  14 -11    8.11    3.18
  -1  14 -11    7.75    3.40
  -1 -14  11    9.68    3.29
   1 -14  11    9.18    3.75
  -1 -14 -11    6.48    2.22
   1 -14 -11    8.92    2.74
   1  14  12   12.69    3.75
  -1  14  12   16.13    3.12
   1  14 -12   18.20    4.02
  -1  14 -12   20.31    4.55
  -1 -14  12   16.29    3.10
   1 -14  12   12.93    3.46
  -1 -14 -12   17.25    3.14
   1 -14 -12   11.02    2.90
   1  14  13    5.51    2.61
  -1  14  13    0.60    1.13
   1  14 -13   12.63    4.04
  -1  14 -13    1.62    2.20
  -1 -14  13   -0.36    1.51
   1 -14  13    3.97    2.52
  -1 -14 -13    7.50    2.24
   1 -14 -13   13.36    3.73
   1  14  14   14.27    3.46
  -1  14  14    7.50    2.73
   1  14 -14   12.92    3.85
  -1  14 -14    9.32    3.36
  -1 -14  14    6.78    2.46
   1 -14  14    4.26    2.75
   1 -14 -14    4.94    2.21
   1  14  15   14.34    3.36
   1  14 -15   26.72    4.29
  -1  14 -15   19.31    4.08
  -1 -14  15   29.99    4.80
   1 -14  15   13.94    3.32
   1 -14 -15   14.41    3.09
   1  14  16    3.88    1.92
   1  14 -16   12.09    3.24
  -1  14 -16    6.48    2.37
  -1 -14  16    6.06    1.97
   1 -14 -16    8.69    2.73
   1  15   0   21.55    3.86
  -1  15   0   22.04    3.11
  -1 -15   0   13.55    3.74
   1 -15   0   13.51    3.79
   1  15   1   13.53    3.90
   1  15  -1   11.78    3.57
  -1  15   1    3.35    1.89
  -1  15  -1    8.85    3.03
  -1 -15   1    9.90    2.92
  -1 -15  -1    6.15    2.45
   1 -15   1    9.74    3.24
   1 -15  -1    7.37    2.48
   1  15   2   32.58    4.01
   1  15  -2   27.94    4.60
  -1  15   2   16.47    2.89
  -1  15  -2   24.56    3.48
  -1 -15   2   14.41    4.05
  -1 -15  -2   10.27    2.79
   1 -15   2    8.97    2.57
   1 -15  -2   26.89    3.20
   1  15   3   15.02    3.65
   1  15  -3    1.36    1.89
  -1  15   3    3.67    1.91
  -1  15  -3    4.06    1.97
  -1 -15   3    6.72    2.12
  -1 -15  -3    1.62    1.43
   1 -15   3    1.55    1.81
   1 -15  -3    0.09    1.70
   1  15   4   21.42    3.78
  -1  15   4   16.53    3.23
   1  15  -4   19.95    3.28
  -1  15  -4   20.46    4.06
  -1 -15   4   20.33    2.68
  -1 -15  -4   20.80    2.70
   1 -15   4   14.85    2.98
   1 -15  -4   22.45    3.33
   1  15   5    6.47    2.68
   1  15  -5    3.03    2.93
  -1  15   5    3.37    1.75
  -1  15  -5    8.55    2.67
  -1 -15   5   10.29    2.90
   1 -15   5    5.16    2.24
  -1 -15  -5    2.25    1.38
   1 -15  -5    7.20    3.57
   1  15   6    8.86    2.83
  -1  15   6    8.08    2.70
   1  15  -6   11.44    3.69
  -1  15  -6    5.68    2.23
  -1 -15   6    4.09    1.72
   1 -15   6    8.33    3.00
  -1 -15  -6    5.86    2.05
   1 -15  -6    5.98    2.75
   1  15   7    5.54    2.09
  -1  15   7    4.26    2.35
   1  15  -7   11.53    3.89
  -1  15  -7    2.30    1.88
  -1 -15   7    8.60    2.72
   1 -15   7    6.39    2.67
  -1 -15  -7    6.19    2.37
   1 -15  -7    3.66    1.98
   1  15   8   10.14    3.17
  -1  15   8   10.78    3.03
   1  15  -8   11.39    3.43
  -1  15  -8    5.85    3.31
  -1 -15   8    6.34    2.26
   1 -15   8   11.64    3.48
  -1 -15  -8    3.49    1.82
   1 -15  -8   10.03    3.14
   1  15   9    5.68    2.35
  -1  15   9    4.00    2.36
   1  15  -9    6.75    2.27
  -1 -15   9    4.81    2.15
   1 -15   9    5.83    2.64
  -1 -15  -9    5.77    2.37
   1 -15  -9    4.30    1.99
   1  15  10   11.70    3.55
  -1  15  10   15.10    2.99
   1  15 -10   12.88    3.52
  -1  15 -10   13.41    3.71
  -1 -15  10   22.65    3.75
   1 -15  10   14.29    3.09
  -1 -15 -10    9.64    2.50
   1 -15 -10    8.23    2.48
   1  15  11    4.05    1.68
  -1  15  11    4.74    2.15
   1  15 -11    6.45    2.47
  -1  15 -11    4.55    2.40
  -1 -15  11    9.97    2.95
   1 -15  11   11.09    3.24
  -1 -15 -11    5.96    1.74
   1 -15 -11    3.14    1.78
   1  15  12   25.09    6.43
  -1  15  12   19.70    3.78
   1  15 -12   18.13    4.16
  -1  15 -12   22.21    4.82
  -1 -15  12   13.95    3.11
   1 -15  12   25.64    5.02
   1 -15 -12   25.52    5.04
   1  16   0   68.21    9.07
  -1  16   0   69.87    8.71
  -1 -16   0   75.74   11.52
   1 -16   0   80.85   12.62
   1  16   1   19.44    3.88
   1  16  -1   10.12    3.01
  -1  16   1   19.33    4.08
  -1  16  -1   19.82    4.14
  -1 -16   1   16.19    3.06
  -1 -16  -1   17.47    3.23
   1 -16  -1   12.58    3.20
   1 -16   1   30.65    5.55
   1  16   2   69.32    9.00
  -1  16   2   60.67    7.83
  -1  16  -2   80.72   12.52
  -1 -16   2   50.09    6.46
  -1 -16  -2   68.58    8.62
   1 -16   2   59.21    8.19
   1 -16  -2   57.99    7.45
   1  16   3    8.26    2.88
   1  16  -3    5.21    2.37
  -1  16   3    3.50    2.31
  -1  16  -3    1.50    1.98
  -1 -16   3    5.62    1.83
  -1 -16  -3   10.64    2.88
   1 -16   3    2.88    1.78
   1 -16  -3    7.69    3.32
   1  16   4   22.90    4.42
  -1  16   4   28.46    5.02
   1  16  -4   35.16    6.14
  -1  16  -4   33.76    6.02
  -1 -16   4   34.89    5.99
   1 -16   4   32.14    5.71
  -1 -16  -4   40.37    6.50
   1 -16  -4   39.92    6.78
   1  16   5   17.45    4.13
  -1  16   5   14.55    3.45
   1  16  -5    9.30    3.46
  -1  16  -5    6.63    2.08
  -1 -16   5   12.60    2.85
   1 -16   5   13.31    3.46
  -1 -16  -5    4.49    1.89
   1 -16  -5   14.46    3.38
  -2   0   0   46.65    2.98
  -2   0   0   46.49    2.16
   2   0   0   46.28    1.54
   2   0   0   45.95    1.70
  -2   0  -1   74.05    5.05
  -2   0   1   75.83    1.82
  -2   0  -1   74.52    2.28
   2   0   1   79.86    3.40
   2   0  -1   79.25    2.07
   2   0   1   73.26    1.74
   2   0  -2 1357.54   15.64
  -2   0  -2 1332.68   15.70
  -2   0   2 1348.42   15.50
  -2   0   2 1315.83   15.42
   2   0   2 1372.44   15.59
   2   0  -2 1332.79   15.82
   2   0   2 1340.37   15.31
   2   0  -3  148.26    2.73
  -2   0   3  131.97    2.33
  -2   0  -3  134.79    3.10
   2   0  -3  132.38    5.71
   2   0   3  136.98    2.49
   2   0  -4  303.73    4.15
  -2   0  -4  296.90    4.70
  -2   0   4  294.04    3.97
  -2   0  -4  304.73    5.55
   2   0  -4  288.34    4.63
   2   0   4  293.53    3.97
  -2   0  -4  289.57    3.82
   2   0  -5   97.65    2.04
  -2   0   5   97.10    1.72
  -2   0   5   97.54    2.71
   2   0  -5   82.21    5.80
   2   0   5   95.98    1.79
  -2   0  -5   90.46    1.75
   2   0  -6   19.70    1.90
  -2   0   6   17.22    0.72
  -2   0  -6   13.57    2.31
  -2   0   6   22.11    2.70
   2   0  -6   14.50    1.54
   2   0   6   15.89    0.91
  -2   0  -6   13.68    0.91
   2   0  -7    0.15    0.19
  -2   0   7   -0.65    0.27
  -2   0  -7    3.89    1.72
  -2   0   7   -1.02    1.10
   2   0   7    2.78    0.90
  -2   0  -7    2.07    1.08
   2   0  -8   66.38    1.41
  -2   0  -8   67.87    3.07
  -2   0   8   77.99    5.45
   2   0   8   69.17    1.78
  -2   0  -8   65.18    1.72
  -2   0   9  356.69    5.32
  -2   0  -9  382.08    7.37
  -2   0   9  353.55    6.97
   2   0   9  360.51    5.80
  -2   0  -9  351.20    5.71
  -2   0  10   34.30    1.79
  -2   0 -10   29.34    2.54
  -2   0  10   30.37    5.47
   2   0  10   31.97    1.93
  -2   0 -10   33.39    2.04
  -2   0 -11  285.51    7.96
  -2   0  11  296.81    6.22
  -2   0  11  304.10    7.92
   2   0  11  301.44    6.81
  -2   0 -11  298.13    6.75
  -2   0 -12  514.29   12.35
  -2   0  12  512.20   12.48
   2   0  12  509.56   11.19
  -2   0 -12  483.37   10.60
  -2   0 -13   34.57    3.02
   2   0  13   30.29    3.18
  -2   0 -14   52.36    4.08
  -2   0  14   61.54    5.92
   2   0  14   67.36    5.97
  -2   0 -14   61.10    2.26
  -2   0 -15  114.08    5.19
  -2   0  15  121.81    9.72
   2   0  15  117.87    4.37
  -2   0 -15  104.34    3.69
   2   0 -16  148.70    4.21
  -2   0 -16  194.16    7.98
  -2   0  16  169.37   13.20
   2   0  16  195.30    6.78
  -2   0 -16  170.93    5.44
   2   0 -17   45.01    1.62
   2   0 -17   53.94    1.64
  -2   0 -17   52.24    4.50
   2   0  17   47.00    6.06
   2   0 -18  112.11    3.29
   2   0 -18  133.71    3.94
  -2   0 -18  138.32    6.03
   2   0  18  153.88    5.86
   2   0 -19  125.18    3.83
  -2   0 -19  135.45    6.73
  -2   0  19  122.16   11.64
   2   0  19  133.54    4.98
  -2   0 -20  142.37    6.59
  -2   0  20  137.69   12.47
   2   0  20  144.44    5.71
  -2   0 -21   26.62    4.18
  -2   0  21   33.88    6.03
   2   0  21   29.09    4.97
  -2   0 -22   59.32    7.57
  -2   0  22   58.06   10.83
   2   0  22   54.47   10.18
  -2   0 -23   11.48    2.75
  -2   0  23   17.34    4.01
   2   0  23    9.62    2.11
  -2   0 -24    6.23    1.94
  -2   0  24    2.50    1.28
   2   0  24    0.95    0.84
  -2   0 -25    2.68    1.59
  -2   0  25    3.61    1.74
   2   0  25    2.21    0.99
  -2   0 -26   36.95    4.31
  -2   0  26   35.53    7.39
   2   0  26   24.32    5.03
  -2   0 -27   45.11    3.87
  -2   0  27   34.20    7.02
  -2   0 -28    5.92    2.58
  -2   0  28    5.42    2.88
  -2   0 -29    2.96    1.75
  -2   0  29    3.08    2.86
  -2   0 -30    6.01    2.42
  -2   0  30    7.49    3.12
  -2   1   0    3.26    1.14
   2   1   0    2.55    1.46
  -2  -1   0    1.01    0.92
  -2   1   0    0.68    1.40
   2  -1   0    1.18    1.06
  -2  -1   0    1.21    0.76
   2   1   0    1.97    0.90
   2  -1   0    1.00    1.46
  -2   1  -1  333.09    4.81
  -2   1   1  347.62    4.82
   2   1  -1  352.42    5.09
  -2  -1  -1  337.15    4.91
  -2  -1   1  326.01    4.64
  -2   1   1  339.50    4.90
  -2   1  -1  347.48    5.25
  -2  -1  -1  334.36    4.41
   2  -1  -1  350.42    5.16
  -2  -1   1  337.22    5.56
   2   1   1  339.97    4.50
   2   1  -1  329.47    4.60
   2  -1   1  339.34    5.03
   2  -1  -1  329.72    5.05
  -2   1  -1  327.60    4.57
   2   1   2  209.62    5.90
  -2   1   2  244.96    7.76
   2   1  -2  223.09    3.62
  -2  -1  -2  224.75    3.88
  -2  -1   2  205.78    3.31
  -2   1  -2  198.54    4.09
  -2   1   2  220.14    3.62
   2  -1  -2  198.37    3.41
  -2  -1   2  213.69    3.87
   2   1   2  213.34    2.95
   2   1  -2  213.73    3.44
   2  -1   2  222.12    3.56
  -2   1  -2  209.76    3.30
   2  -1  -2  213.24    4.10
   2   1   2  212.35    3.03
   2   1   5  240.24    4.38
  -2   1   5  216.10    2.93
   2   1  -5  221.64    3.29
  -2  -1   5  242.57    3.56
  -2   1   5  230.22    3.19
   2  -1   5  217.70    4.14
  -2   1   5  219.56    4.31
   2   1   5  223.49    2.71
   2   1  -5  212.25    3.80
   2   1   5  226.69    2.75
   2  -1   5  215.07    3.47
  -2   1  -5  224.06    3.47
   2   1   6    8.89    1.54
   2   1  -6   13.03    1.50
  -2   1  -6    8.51    2.17
  -2   1   6   13.77    2.70
  -2  -1   6   14.69    2.11
   2   1  -6    8.48    1.45
   2  -1   6   11.79    1.32
  -2   1  -6   11.60    1.14
   2   1  -7  210.10    3.76
  -2   1   7  221.49    3.38
  -2  -1   7  207.82    3.64
  -2   1   7  208.22    3.21
  -2  -1  -7  187.15    4.53
  -2   1   7  211.71    4.70
  -2  -1   7  217.23    4.77
   2   1   7  208.31    3.19
   2  -1   7  202.31    3.72
  -2   1  -7  193.24    3.61
  -2  -1  -7  195.16    2.99
   2   1  -8    8.27    1.55
  -2  -1   8    7.52    0.67
  -2   1  -8   10.30    2.68
  -2  -1  -8    9.17    2.48
  -2   1   8    6.90    1.25
  -2  -1   8   11.87    1.85
   2   1   8    8.73    0.92
   2  -1   8    9.88    1.13
  -2   1  -8    7.70    0.89
  -2  -1  -8    6.67    0.49
   2   1  -9  152.25    3.00
  -2  -1   9  145.67    2.64
  -2   1  -9  149.52    4.39
  -2  -1  -9  154.51    4.35
  -2   1   9  187.64    9.89
  -2  -1   9  139.69    3.72
   2   1   9  146.29    2.75
   2  -1   9  149.61    3.19
  -2   1  -9  133.88    2.90
  -2  -1  -9  143.96    2.50
   2   1 -10  405.69    8.79
  -2  -1  10  386.03    8.35
  -2   1 -10  429.15   10.77
  -2  -1 -10  404.48   10.24
  -2   1  10  438.95   10.72
  -2  -1  10  393.18    9.67
   2   1  10  396.62    8.55
   2  -1  10  407.45    9.16
  -2  -1 -10  399.83    8.61
  -2   1 -10  369.33    8.33
   2   1 -11  105.04    5.41
  -2  -1  11   71.99    3.74
  -2   1 -11   94.53    5.81
  -2  -1 -11  101.49    6.05
  -2   1  11   95.56    5.80
  -2  -1  11  100.49    7.61
   2   1  11   97.20    5.20
   2  -1  11  109.49    5.87
  -2  -1 -11  104.13    5.34
  -2   1 -11   91.47    4.95
   2   1 -12    8.81    0.77
  -2   1 -12    9.56    2.32
  -2  -1 -12    6.69    2.02
  -2   1  12   10.45    1.94
  -2  -1  12    3.49    1.33
   2   1  12    8.80    1.38
   2  -1  12   10.80    1.24
  -2  -1 -12   10.01    0.89
  -2   1 -12    8.75    1.14
  -2   1 -13   57.18    4.11
  -2  -1 -13   47.36    3.68
  -2   1  13   57.81    6.74
  -2  -1  13   56.60    5.64
  -2  -1  14  157.81   11.24
  -2  -1 -15   35.30    3.70
  -2   1  15   42.32    6.81
  -2  -1  15   41.38    6.55
   2   1  15   33.82    3.91
   2  -1  15   36.59    5.10
   2   1 -17   25.22    1.25
  -2   1 -17   27.88    3.13
  -2  -1 -17   25.86    3.31
   2   1  17   23.09    3.31
  -2  -1  17   17.75    2.61
   2  -1  17   27.77    3.81
  -2  -1 -17   22.11    1.33
   2   1 -18   59.20    2.25
  -2   1 -18   72.68    5.78
  -2  -1 -18   61.24    4.35
  -2   1  18   62.07    9.22
   2   1  18   51.65    6.22
  -2  -1  18   69.84   10.70
   2  -1  18   54.97    6.06
  -2  -1 -18   46.14    2.06
   2   1 -19  311.56    9.38
  -2   1 -19  305.24   11.34
  -2  -1 -19  341.90   12.37
  -2   1  19  340.37   21.48
   2   1  19  306.37    9.72
   2  -1  19  302.35    9.78
   2   1 -20   97.14    3.31
  -2   1 -20   95.22    5.26
  -2  -1 -20   90.16    4.82
  -2   1  20   96.32    8.65
  -2  -1  20  104.89   10.12
   2   1  20   89.05    6.85
   2  -1  20  100.56    9.67
  -2   1 -21   22.58    3.69
  -2  -1 -21   25.54    4.08
  -2   1  21   22.44    3.91
  -2  -1  21   31.30    5.56
   2   1  21   21.62    4.52
   2  -1  21   24.20    4.68
  -2   1 -22   70.02    5.58
  -2  -1 -22   59.27    7.26
  -2   1  22   53.83    7.56
   2   1  22   57.34    9.22
  -2  -1  22   62.68   10.93
   2  -1  22   54.07    8.63
  -2   1 -23  115.14    6.59
  -2  -1 -23  114.85    6.95
  -2   1  23  101.14   11.02
   2   1  23   92.35    9.14
  -2  -1  23  101.21    9.33
   2  -1  23  111.11    5.44
  -2   1 -24   29.75    5.07
  -2  -1 -24   31.72    4.68
  -2   1  24   28.73    4.96
   2   1  24   23.78    4.02
  -2  -1  24   29.30    6.76
   2  -1  24   28.95    5.33
  -2   1 -25    5.95    1.89
  -2  -1 -25   20.65    2.75
  -2   1  25   15.18    3.99
   2   1  25    9.36    2.89
  -2  -1  25   22.83    4.58
   2  -1  25   18.06    4.07
  -2   1 -26    8.29    2.19
  -2  -1 -26    5.58    2.21
  -2   1  26   12.17    3.70
  -2  -1  26   12.82    3.23
   2  -1  26   10.15    2.73
  -2   1 -27   14.98    3.93
  -2  -1 -27   17.14    2.85
  -2   1  27   18.74    4.64
   2  -1  27   11.55    3.33
  -2   1 -28   30.42    3.80
  -2  -1 -28   17.47    2.61
  -2   1  28   24.04    5.39
  -2  -1  28   23.71    3.82
  -2   1 -29   15.73    3.15
  -2  -1 -29   10.47    2.91
  -2   1  29   17.80    4.51
  -2  -1  29   11.00    3.56
  -2   1 -30    3.25    1.79
  -2  -1 -30    4.84    2.32
  -2   1  30    4.72    2.10
  -2  -1  30    3.79    1.71
  -2  -2   0   84.89    5.27
  -2   2   0   92.04    2.33
   2  -2   0   92.77    2.24
  -2  -2   0   93.26    1.92
   2   2   0   92.13    1.82
   2  -2   0   93.10    2.85
  -2   2   0   89.51    2.39
   2   2   1  240.24    5.97
   2   2  -1  250.76    4.46
  -2  -2  -1  240.20    4.18
  -2  -2   1  234.26    3.87
  -2   2   1  252.13    3.98
  -2   2  -1  255.44    4.33
   2  -2  -1  242.67    3.77
   2  -2   1  235.29    3.69
  -2  -2  -1  243.33    3.56
  -2  -2   1  251.22    3.83
   2   2  -1  242.14    5.93
   2   2   1  233.44    3.25
   2  -2   1  244.17    4.34
   2  -2  -1  243.06    4.58
  -2   2  -1  240.93    3.84
  -2   2   1  239.53    3.95
   2   2   2  495.85    7.03
   2   2  -2  494.02    6.71
  -2  -2   2  477.55    6.40
  -2   2   2  497.83    6.48
  -2   2  -2  492.98    6.96
   2  -2   2  467.48    6.38
   2  -2  -2  482.38    6.26
   2  -2  -2  459.29    6.37
  -2  -2  -2  466.13    5.60
  -2  -2   2  501.84    7.45
   2   2  -2  469.39    6.35
   2   2   2  480.14    5.74
   2  -2   2  467.67    6.49
  -2   2  -2  468.32    6.31
   2  -2  -2  475.78    6.75
   2   2   4 1014.21   12.74
   2   2  -4  996.39   15.20
  -2  -2   4  978.59   11.70
  -2   2   4 1000.97   11.65
   2  -2   4  945.78   11.78
   2  -2  -4  990.07   11.46
  -2  -2   4 1011.21   13.33
   2   2  -4  913.94   14.10
   2   2   4  984.28   10.80
   2  -2   4  989.22   12.02
  -2   2  -4  960.17   11.56
   2   2   4  975.13   10.70
   2   2   5  951.80   14.99
   2   2  -5  937.62   14.48
  -2  -2   5  900.53   13.68
  -2   2   5  916.52   13.54
  -2   2  -5  888.00   14.16
   2  -2  -5  920.30   13.59
  -2  -2   5  930.16   14.63
   2   2  -5  890.45   13.88
   2  -2   5  926.16   14.23
  -2   2  -5  903.42   13.80
   2  -2  -5  913.95   14.52
   2   2   6  518.80    9.00
   2   2  -6  494.19    7.96
  -2  -2   6  482.05    7.75
  -2   2   6  484.74    7.31
   2  -2   6  493.71    8.12
  -2   2  -6  484.28    7.97
   2   2  -7   70.26    2.09
  -2  -2   7   62.66    1.81
  -2   2   7   63.86    1.26
  -2   2  -7   49.57    3.26
  -2  -2   7   60.74    4.21
   2  -2   7   61.21    2.01
  -2   2  -7   56.27    2.18
   2  -2  -7   66.02    3.54
   2   2   8   85.96    7.13
   2   2  -8   75.75    2.08
  -2  -2   8   76.21    1.98
  -2   2  -8   70.25    3.35
  -2   2   8   81.40    3.32
  -2  -2   8   76.96    2.64
   2  -2   8   75.58    2.42
  -2   2  -8   72.40    2.14
   2   2   9  235.06    5.38
   2   2  -9  234.85    4.25
  -2  -2   9  233.12    4.18
  -2   2  -9  219.27    5.52
  -2   2   9  242.04    5.39
   2  -2   9  227.77    4.49
  -2   2  -9  227.22    4.42
   2   2 -10  299.67    6.84
  -2  -2  10  287.83    6.56
  -2   2 -10  290.42    7.83
  -2   2  10  263.22    7.29
  -2  -2  10  295.68   10.82
   2  -2  10  290.56    6.93
  -2  -2 -10  291.11    6.19
  -2   2 -10  279.40    6.62
  -2  -2 -10  288.76    6.14
   2   2 -11  241.88    5.67
  -2  -2  11  235.65    5.54
  -2   2 -11  242.05    6.99
  -2  -2 -11  244.72    7.27
   2   2  11  253.59    5.53
  -2   2  11  233.90    8.04
  -2  -2  11  273.08   16.70
   2  -2  11  251.01    6.29
  -2  -2 -11  242.45    5.29
  -2   2 -11  231.40    5.78
   2   2 -12   62.95    3.58
  -2  -2  12   62.29    3.48
  -2   2 -12   71.63    3.83
  -2  -2 -12   64.75    5.00
  -2   2  12   83.80    8.37
   2   2  12   64.32    3.45
  -2  -2  12   71.15    6.21
   2  -2  12   69.37    2.65
  -2  -2 -12   65.48    3.42
  -2   2 -12   60.05    3.53
   2   2 -13   78.24    2.40
  -2  -2  13   76.04    2.49
  -2   2 -13   81.33    5.04
  -2  -2 -13   78.49    4.19
   2   2  13   82.71    2.35
  -2   2  13   90.17    9.49
  -2  -2  13   88.01    7.36
   2  -2  13   77.76    2.95
  -2  -2 -13   76.54    2.15
   2   2 -14  112.18    3.22
  -2  -2  14  112.97    3.25
  -2   2 -14  116.14    5.00
  -2  -2 -14  108.58    4.87
  -2   2  14  133.89   11.24
   2   2  14  122.60    3.28
  -2  -2  14  120.88    9.65
   2  -2  14  108.00    3.80
  -2  -2 -14  114.92    3.07
   2   2 -15  108.64    3.70
  -2  -2  15   91.66    3.23
  -2   2 -15   99.99    6.09
  -2  -2 -15   98.36    4.52
   2   2  15  107.75    3.58
  -2  -2  15  100.22    8.38
   2  -2  15  105.80    4.10
  -2  -2 -15  105.00    3.48
   2   2 -16   37.38    1.84
  -2   2 -16   38.65    3.49
  -2  -2  16   28.84    1.60
  -2  -2 -16   40.16    4.09
  -2   2  16   40.49    5.34
   2   2  16   31.31    2.74
  -2  -2  16   35.10    4.06
   2  -2  16   37.84    2.41
  -2  -2 -16   29.74    1.33
   2   2 -17  135.11    4.28
  -2   2 -17  135.73    6.53
  -2  -2  17  125.04    4.06
  -2  -2 -17  137.69    6.25
  -2   2  17  148.69    9.15
   2   2  17  132.57    7.44
  -2  -2  17  141.42   15.72
   2  -2  17  143.85    5.20
  -2  -2 -17  128.70    4.08
   2   2 -18  162.16    5.28
  -2   2 -18  173.92    8.19
  -2  -2  18  142.80    4.65
  -2  -2 -18  185.19    8.00
  -2   2  18  189.56   15.14
   2   2  18  163.45    5.32
  -2  -2  18  174.34   12.54
   2  -2  18  169.34    6.26
  -2  -2 -18  153.26    4.97
  -2   2 -19  123.42    6.69
  -2  -2 -19  112.04    6.18
  -2   2  19  109.05   13.90
   2   2  19  108.97    7.42
  -2  -2  19  122.94   14.75
   2  -2  19  118.18    5.22
   2   2 -20   89.45    3.98
  -2   2 -20   79.92    5.48
  -2  -2 -20   85.61    5.03
  -2   2  20   85.38    8.06
   2   2  20   80.66    7.59
   2  -2  20   84.58   10.51
   2   2 -21   64.57    2.78
  -2   2 -21   56.28    6.39
  -2  -2 -21   67.30    4.80
  -2   2  21   66.93    8.31
   2   2  21   49.82    6.77
  -2  -2  21   68.14    9.71
   2  -2  21   56.26    8.63
  -2   2 -22   20.90    3.94
  -2  -2 -22   15.96    3.44
  -2   2  22    9.11    2.57
   2   2  22   15.59    2.59
  -2  -2  22   23.62    4.03
   2  -2  22   18.23    4.09
  -2   2 -23   56.70    5.24
  -2  -2 -23   68.48    4.82
   2   2  23   47.03    5.75
  -2   2  23   59.40    7.66
  -2  -2  23   70.15    6.91
   2  -2  23   54.10    7.41
  -2   2 -24    5.70    2.52
  -2  -2 -24    4.30    1.68
   2   2  24    0.55    0.83
  -2   2  24    5.87    1.97
  -2  -2  24    4.36    1.97
   2  -2  24    3.91    1.28
  -2   2 -25   62.73    4.76
  -2  -2 -25   60.55    4.57
  -2   2  25   49.63    8.37
  -2  -2  25   57.72   10.73
   2  -2  25   40.76    6.63
  -2   2 -26    9.24    2.37
  -2  -2 -26   12.21    3.28
  -2   2  26    8.39    3.44
  -2  -2  26   15.38    3.89
   2  -2  26    4.62    1.64
  -2   2 -27    9.37    3.06
  -2  -2 -27    8.32    2.35
  -2   2  27    5.94    1.99
  -2  -2  27    9.77    3.00
   2  -2  27    7.49    2.19
  -2   2 -28    1.42    1.87
  -2  -2 -28    6.12    2.69
  -2   2  28    2.68    1.70
  -2  -2  28    6.88    2.31
   2  -2  28    2.27    1.11
  -2   2 -29    6.47    2.19
  -2  -2 -29   16.93    3.21
  -2   2  29   14.61    2.60
  -2  -2  29   18.21    5.18
  -2   2 -30    6.94    2.46
  -2  -2 -30    9.67    3.08
  -2   2  30    6.68    2.62
  -2  -2  30    9.39    2.70
   2   3   0  408.47    7.23
  -2  -3   0  376.35    6.49
  -2   3   0  432.43    7.36
   2  -3   0  409.79    7.05
  -2  -3   0  411.15    6.72
   2   3   0  411.33    6.63
   2  -3   0  425.33    7.58
  -2   3   0  395.20    6.87
   2   3   1  373.60    7.15
  -2  -3  -1  326.39    5.80
  -2  -3   1  352.31    6.20
  -2   3   1  366.40    6.30
  -2   3  -1  378.20    6.74
   2  -3   1  366.24    6.47
   2  -3  -1  358.81    6.17
  -2  -3   1  359.75    6.22
  -2  -3  -1  373.90    6.07
   2   3  -1  369.75    6.19
   2   3   1  373.99    6.01
   2  -3   1  368.37    6.92
   2  -3  -1  367.41    7.06
  -2   3  -1  357.12    6.42
   2   3   2  162.42    4.12
   2   3  -2  156.95    3.75
  -2  -3   2  142.86    3.30
  -2   3   2  156.47    3.31
  -2   3  -2  158.43    3.73
   2  -3  -2  140.27    2.91
   2  -3   2  149.82    3.40
  -2  -3  -2  159.98    2.94
  -2  -3   2  151.58    3.19
   2   3  -2  149.94    3.27
   2   3   2  161.19    2.90
   2  -3   2  151.18    3.99
  -2   3  -2  153.38    3.57
   2   3   5  382.48    7.17
   2   3  -5  390.84    6.75
  -2  -3   5  368.23    6.42
  -2   3   5  379.87    6.11
  -2   3  -5  374.26    7.20
   2  -3  -5  370.66    5.93
  -2  -3   5  369.59    9.00
   2   3  -5  367.05    6.52
   2  -3   5  381.96    7.03
  -2   3  -5  359.68    6.52
   2   3   6  161.63    4.34
   2   3  -6  165.78    3.65
  -2  -3   6  149.18    3.27
  -2   3   6  161.71    3.00
   2  -3  -6  157.90    2.94
  -2  -3   6  157.83    3.84
   2  -3   6  162.99    3.97
  -2   3  -6  153.44    3.52
   2  -3  -6  150.18    4.33
   2   3   7  144.21    4.09
   2   3  -7  145.40    3.39
  -2  -3   7  124.65    2.92
  -2   3   7  136.63    2.50
   2  -3  -7  129.30    2.45
   2  -3   7  138.76    3.78
  -2   3  -7  130.15    3.54
   2  -3  -7  135.29    4.69
   2   3   8  917.75   15.00
   2   3  -8  894.37   13.90
  -2   3   8  851.30   12.46
  -2  -3   8  847.43   13.06
  -2   3  -8  935.52   15.58
   2  -3  -8  861.14   12.61
   2  -3   8  878.46   13.90
   2  -3  -8  896.94   15.02
   2   3  -9   13.80    1.61
  -2  -3   9   15.30    1.43
  -2   3  -9    9.85    4.92
   2  -3  -9   14.13    0.83
  -2  -3   9   16.57    3.07
   2  -3   9   10.33    1.55
  -2   3  -9   11.46    1.29
   2  -3  -9   12.20    2.78
   2   3  10   32.94    5.46
   2   3 -10   31.90    2.31
  -2  -3  10   29.37    1.92
  -2   3 -10   32.04    3.42
  -2  -3  10   38.04    4.37
   2  -3  10   28.20    2.34
   2  -3 -10   28.64    2.91
   2   3  11   19.45    2.70
   2   3 -11   12.95    1.32
  -2  -3  11   12.00    1.29
  -2   3 -11    9.59    1.52
  -2  -3  11   16.20    3.08
   2  -3  11   11.81    1.46
  -2  -3 -11   12.32    0.78
  -2  -3 -11   11.43    0.80
   2  -3 -11    7.57    1.71
   2   3  12   61.78    3.06
   2   3 -12   63.40    2.52
  -2  -3  12   65.23    2.44
  -2   3 -12   61.82    3.46
  -2  -3  12   72.54    7.70
   2  -3  12   64.17    2.82
  -2  -3 -12   60.81    1.80
   2  -3 -12   74.44    4.54
   2   3  13  144.95    5.35
   2   3 -13  154.71    4.42
  -2  -3  13  136.61    3.96
  -2   3 -13  142.44    5.31
  -2  -3  13  148.72   11.79
   2  -3  13  146.44    4.87
  -2  -3 -13  150.03    3.70
  -2  -3 -13  141.99    3.61
   2   3 -14   51.57    2.39
  -2  -3  14   45.32    2.22
  -2   3 -14   46.33    3.64
  -2  -3 -14   53.83    4.12
  -2  -3  14   47.00    6.56
   2  -3  14   46.73    2.78
  -2  -3 -14   46.96    1.74
  -2  -3 -14   48.67    1.94
   2   3 -15  298.92    9.07
  -2  -3  15  267.66    8.06
  -2   3 -15  296.98   10.14
  -2  -3 -15  280.95    9.54
  -2   3  15  284.26    9.89
  -2  -3  15  331.28   10.91
   2  -3  15  301.38    9.75
  -2  -3 -15  275.76    8.04
   2   3 -16  117.34    4.08
  -2  -3  16  102.69    3.55
  -2   3 -16  114.31    5.33
  -2  -3 -16  143.27    6.91
  -2   3  16  121.43    5.85
  -2  -3  16  129.37   13.67
   2  -3  16  122.55    4.62
  -2  -3 -16  111.22    3.47
  -2  -3 -16  126.51    4.15
   2   3 -17   28.97    2.11
  -2   3 -17   22.90    3.30
  -2  -3  17   19.76    1.37
  -2  -3 -17   24.25    3.57
  -2   3  17   23.24    3.04
  -2  -3  17   23.81    2.56
   2  -3  17   31.41    2.68
  -2  -3 -17   24.76    1.83
   2   3 -18   37.07    3.23
  -2   3 -18   35.83    4.04
  -2  -3 -18   47.73    5.74
  -2   3  18   27.98    3.59
  -2  -3  18   43.01    4.80
   2  -3  18   31.73    3.17
  -2  -3 -18   26.68    2.31
  -2  -3 -18   39.55    3.54
   2   3 -19  150.16    5.17
  -2   3 -19  144.33    6.50
  -2  -3 -19  166.05    7.39
  -2   3  19  142.29    6.15
  -2  -3  19  162.36   13.99
   2  -3  19  139.35   14.52
   2   3 -20   18.20    2.38
  -2   3 -20   11.63    2.83
  -2  -3 -20   13.81    2.83
  -2   3  20   17.60    3.06
  -2  -3  20   26.11    5.67
   2  -3  20   23.67    3.67
   2   3 -21    7.62    1.22
  -2   3 -21    3.41    2.16
  -2  -3 -21    9.94    2.47
  -2   3  21   16.57    3.15
   2  -3  21    9.18    2.21
   2   3 -22    7.17    1.32
  -2   3 -22    5.01    2.18
  -2  -3 -22    5.22    2.62
  -2   3  22    6.07    2.01
  -2  -3  22    4.08    2.34
   2  -3  22    6.72    1.65
  -2   3 -23    9.42    3.04
  -2  -3 -23    2.20    1.62
  -2   3  23    0.03    1.68
  -2  -3  23    3.92    1.48
   2  -3  23    5.22    1.65
  -2   3 -24    8.87    2.85
  -2  -3 -24    6.85    1.83
  -2   3  24   18.54    3.50
  -2  -3  24   13.61    3.54
   2  -3  24   11.36    2.57
  -2   3 -25   17.65    3.95
  -2  -3 -25   26.08    4.02
  -2   3  25   17.60    3.77
  -2  -3  25   14.69    4.00
   2  -3  25   18.43    4.61
  -2   3 -26    6.96    2.14
  -2  -3 -26    6.16    2.13
  -2   3  26    7.18    2.91
  -2  -3  26    8.90    2.70
   2  -3  26    4.46    1.62
  -2   3 -27    2.11    1.86
  -2  -3 -27    4.80    2.47
  -2   3  27   10.34    3.13
  -2  -3  27    9.00    2.97
   2  -3  27    4.64    1.43
  -2   3 -28   13.44    3.69
  -2  -3 -28   26.62    3.37
  -2   3  28   20.65    3.14
  -2  -3  28   14.62    4.67
   2  -3  28   14.66    3.53
  -2   3 -29   10.81    3.81
  -2  -3 -29    5.03    2.48
  -2   3  29    1.91    1.65
  -2  -3  29    3.91    2.35
   2  -3  29    3.73    1.73
  -2   3 -30   10.98    2.96
  -2  -3 -30   11.55    2.95
   2   4   0  205.10    4.67
  -2   4   0  194.23    4.26
   2  -4   0  188.69    4.03
  -2  -4   0  196.07    3.97
   2   4   0  199.24    3.89
   2   4   1   88.28    2.86
  -2   4   1   91.04    2.97
  -2   4  -1   91.04    3.03
   2  -4  -1   91.02    2.49
   2  -4   1   79.73    2.34
  -2  -4   1   92.39    3.80
  -2  -4  -1   84.36    2.21
   2   4  -1   94.48    2.70
   2   4   1   89.90    2.16
   2  -4   1   91.64    3.53
   2   4   2  284.99    7.89
   2   4  -2  305.76    6.02
  -2   4   2  318.20    5.91
  -2   4  -2  312.67    6.08
   2  -4  -2  302.77    5.75
  -2  -4   2  305.07    5.64
  -2  -4  -2  298.83    5.00
   2   4  -2  303.34    5.38
   2   4   2  293.06    4.95
   2  -4   2  312.34    6.29
   2  -4  -2  307.91    6.36
   2   4   3  776.62   12.73
   2   4  -3  765.62   12.29
  -2   4   3  778.05   12.14
  -2   4  -3  778.18   12.72
   2  -4  -3  754.14   11.79
  -2  -4  -3  772.89   11.63
   2   4  -3  756.89   12.07
   2   4   3  757.94   11.37
   2  -4   3  766.37   12.71
   2   4   4  208.66    5.84
   2   4  -4  214.77    4.48
  -2   4   4  219.33    4.21
  -2   4  -4  215.71    5.43
   2  -4  -4  218.76    4.23
  -2  -4   4  219.44    4.67
  -2  -4  -4  216.93    3.69
   2   4  -4  219.74    4.40
   2  -4   4  229.98    5.58
   2   4   6  225.60    5.16
   2   4  -6  209.41    4.44
  -2   4   6  218.41    3.99
   2  -4  -6  207.82    3.72
  -2  -4   6  224.68    5.09
  -2  -4  -6  216.37    3.45
   2  -4   6  229.47    5.24
   2  -4  -6  240.14    5.74
   2   4   7  171.39   11.83
   2   4  -7  156.32    8.24
  -2   4   7  161.66    8.24
  -2   4  -7  155.64    9.12
   2  -4  -7  148.36    7.57
  -2  -4   7  143.80    8.80
  -2  -4  -7  161.78    8.05
   2  -4   7  158.35    8.58
   2  -4  -7  155.24    8.68
   2   4  -8  324.46    7.74
  -2   4   8  317.20    7.03
  -2   4  -8  326.98    9.12
   2  -4  -8  335.07    7.39
  -2  -4  -8  336.12    7.11
  -2  -4   8  335.59    8.63
  -2  -4  -8  320.87    6.78
   2  -4   8  329.82    8.28
   2  -4  -8  308.18    8.44
   2   4   9  160.11   13.40
  -2   4   9  133.50    6.80
   2   4  -9  148.74    7.95
  -2   4  -9  138.00    7.96
   2  -4  -9  118.37    6.01
  -2  -4   9  135.12    7.51
  -2  -4  -9  139.64    6.96
  -2  -4  -9  139.99    6.98
   2  -4   9  131.91    7.34
   2  -4  -9  132.98    7.90
   2   4  10   79.71    9.77
  -2   4  10   66.98    1.88
   2   4 -10   73.22    2.67
  -2   4 -10   59.13    3.30
   2  -4 -10   67.24    1.86
  -2  -4  10   82.68    6.37
  -2  -4 -10   70.06    1.81
   2  -4  10   73.94    3.40
  -2  -4 -10   69.03    1.78
   2  -4 -10   75.94    4.14
   2   4  11   83.73    9.66
  -2   4  11   77.20    2.51
   2   4 -11   85.65    2.96
  -2   4 -11   78.96    3.91
   2  -4 -11   82.34    2.15
  -2  -4  11   90.91    7.69
  -2  -4 -11   80.12    2.05
   2  -4  11   86.53    3.58
  -2  -4 -11   79.68    2.12
   2  -4 -11   98.89    4.98
   2   4  12  272.82   10.21
  -2   4  12  221.49    5.03
   2   4 -12  273.86    7.19
  -2   4 -12  262.37    7.95
   2  -4 -12  261.22    5.94
  -2  -4  12  271.29    7.86
  -2  -4 -12  260.22    6.06
   2  -4  12  254.80    7.12
  -2  -4 -12  261.65    6.11
   2  -4 -12  269.29    8.20
   2   4  13    5.84    1.49
   2   4 -13    4.38    1.12
  -2   4 -13    1.11    2.55
  -2  -4  13    4.64    1.53
  -2  -4 -13    3.15    0.51
   2  -4  13    5.69    2.19
  -2  -4 -13    3.74    0.85
   2  -4 -13    2.08    2.51
   2   4  14  131.38    5.40
   2   4 -14  130.57    4.70
  -2   4 -14  134.18    5.92
  -2  -4  14  137.88   15.78
  -2  -4 -14  128.65    3.94
   2  -4  14  128.46    4.98
  -2  -4 -14  123.63    3.88
   2  -4 -14  143.92    6.57
   2   4  15   13.65    1.69
   2   4 -15   13.66    1.67
  -2   4 -15   15.10    4.06
  -2  -4  15   17.69    3.21
  -2  -4 -15   12.87    0.87
   2  -4  15   14.65    1.88
  -2  -4 -15   15.01    1.32
   2  -4 -15   13.40    2.99
   2   4 -16   26.60    2.07
  -2   4 -16   31.58    3.86
  -2  -4  16   18.32    3.83
  -2  -4 -16   23.91    1.23
   2  -4  16   25.69    2.15
  -2  -4 -16   23.33    1.44
   2  -4 -16   34.11    5.09
   2   4 -17   23.36    1.79
  -2   4 -17   21.59    3.53
  -2  -4 -17   26.53    4.16
  -2  -4  17   25.27    4.90
   2  -4  17   32.76    2.83
  -2  -4 -17   22.20    1.14
  -2  -4 -17   24.71    1.54
   2  -4 -17   26.08    3.64
  -2   4 -18   83.62    4.99
  -2  -4 -18   80.05    5.11
  -2  -4  18   73.01   10.88
   2  -4  18   82.53    4.22
  -2  -4 -18   75.84    3.10
   2  -4 -18   62.14    6.33
   2   4 -19  220.64    9.18
  -2   4 -19  230.40   10.89
  -2  -4 -19  227.49   10.75
  -2  -4  19  261.56   17.60
   2  -4  19  237.41   10.40
  -2  -4 -19  224.69    9.16
   2  -4 -19  239.85   10.93
   2   4 -20   94.10    4.08
  -2   4 -20   91.78    5.70
  -2  -4 -20  104.18    5.89
  -2  -4  20  114.90    9.83
   2  -4  20  107.90    5.06
  -2  -4 -20   96.23    3.99
   2  -4 -20   87.54    5.21
   2   4 -21   34.66    4.01
  -2   4 -21   38.83    4.15
  -2  -4 -21   38.35    3.40
  -2  -4  21   49.44    5.07
   2  -4  21   36.11    4.87
  -2  -4 -21   37.90    2.38
   2  -4 -21   34.97    4.91
   2   4 -22   37.04    2.45
  -2   4 -22   24.13    3.93
  -2  -4 -22   23.51    3.51
   2  -4  22   12.22    2.81
   2  -4 -22   24.27    4.68
  -2   4 -23    6.66    2.24
  -2  -4 -23    6.21    2.02
   2  -4  23    2.93    1.54
   2  -4 -23   11.02    3.22
  -2   4 -24   23.89    3.19
  -2  -4 -24   24.16    3.04
  -2  -4  24   35.52    6.87
   2  -4  24   26.85    3.67
   2  -4 -24   30.48    3.44
  -2   4 -25    4.32    2.03
  -2  -4 -25    7.35    2.19
  -2  -4  25    6.79    3.28
   2  -4  25    4.03    1.65
   2  -4 -25    5.14    2.77
  -2   4 -26    9.76    3.20
  -2  -4 -26   11.00    3.20
  -2  -4  26    3.07    1.91
   2  -4  26    5.04    1.80
   2  -4 -26    4.02    2.01
  -2   4 -27   15.82    3.02
  -2  -4 -27   11.17    3.38
  -2  -4  27   11.28    3.84
   2  -4  27    7.59    2.71
   2  -4 -27   21.76    3.75
  -2   4 -28    1.73    1.79
  -2  -4 -28    2.12    1.56
  -2  -4  28    2.78    1.47
   2  -4  28    1.42    0.79
   2  -4 -28    1.00    1.84
  -2   4 -29    8.14    2.88
  -2  -4 -29    9.85    2.89
  -2  -4  29    5.44    2.65
   2  -4  29    3.48    1.31
   2  -4 -29   10.93    3.26
  -2   5   0  109.06    3.36
  -2  -5   0  117.36    2.96
   2   5   0  104.02    2.51
   2  -5   0  102.49    3.44
   2   5   1   26.06    4.45
   2   5  -1   20.45    1.66
  -2   5   1   20.58    1.92
  -2   5  -1   16.76    1.72
   2  -5  -1   18.61    1.29
  -2  -5   1   23.15    1.66
  -2  -5  -1   25.08    1.37
   2   5  -1   21.92    1.22
   2   5   1   24.21    1.27
   2  -5   1   22.79    2.48
   2  -5  -1   21.16    2.55
   2   5   2  396.96    7.73
  -2   5   2  376.26    8.82
  -2   5  -2  373.23    9.02
   2  -5  -2  364.17    6.63
  -2  -5   2  390.46    9.18
  -2  -5  -2  386.94    8.72
   2   5  -2  369.46    8.52
   2   5   2  375.81    8.46
   2  -5   2  413.74   10.27
   2   5   3  620.99   15.05
   2   5  -3  602.35   13.78
  -2   5   3  664.18   14.64
  -2   5  -3  604.65   13.90
   2  -5  -3  617.15   13.57
  -2  -5   3  656.99   14.61
  -2  -5  -3  658.41   14.21
   2  -5   3  649.97   14.96
   2   5   3  633.55   13.65
   2  -5  -3  645.03   14.83
   2   5   4   90.81    9.90
   2   5  -4   79.09    4.74
  -2   5   4   82.25    4.63
  -2   5  -4   97.21    5.92
   2  -5  -4   89.78    4.96
  -2  -5   4   88.33    5.09
  -2  -5  -4   84.86    4.48
   2  -5   4   78.76    4.75
   2   5   4   83.08    4.42
   2  -5  -4   87.68    5.55
   2   5   5  431.98   10.44
   2   5  -5  414.49    9.82
  -2   5   5  418.97    9.54
  -2   5  -5  405.32    9.82
   2  -5  -5  407.62    9.24
  -2  -5   5  412.49    9.79
  -2  -5  -5  420.89    9.18
   2  -5   5  427.53   10.43
   2   5   5  413.06    8.99
   2  -5  -5  438.27   11.13
   2   5   6  284.40    7.52
   2   5  -6  273.66    7.03
  -2   5   6  280.04    6.66
  -2   5  -6  284.83    7.69
   2  -5  -6  271.97    6.38
  -2  -5   6  264.74    7.18
  -2  -5  -6  269.21    6.03
   2  -5   6  277.70    7.47
   2  -5  -6  266.07    7.45
   2   5  -8  434.70   10.34
  -2   5   8  447.83    9.93
  -2   5  -8  465.81   12.11
   2  -5  -8  452.35   10.04
  -2  -5  -8  433.03    9.28
  -2  -5   8  447.27   10.83
  -2  -5  -8  452.90    9.74
   2  -5   8  477.04   11.58
   2  -5  -8  461.82   11.50
   2   5   9  169.75   11.08
  -2   5   9  173.98    4.53
   2   5  -9  164.13    5.06
  -2   5  -9  166.35    6.44
   2  -5  -9  165.25    4.29
  -2  -5  -9  160.28    3.87
  -2  -5   9  161.91    5.47
   2  -5   9  175.28    5.92
  -2  -5  -9  167.65    4.11
   2  -5  -9  162.10    5.86
   2   5  10  181.05   12.96
  -2   5  10  172.96    4.46
   2   5 -10  168.02    5.17
  -2   5 -10  160.59    6.07
   2  -5 -10  166.50    4.37
  -2  -5 -10  161.03    3.89
  -2  -5  10  178.09   13.08
   2  -5  10  159.50    5.24
  -2  -5 -10  171.23    4.24
   2  -5 -10  178.82    6.13
   2   5  11  263.73    8.84
  -2   5  11  246.26    7.22
   2   5 -11  257.70    8.29
  -2   5 -11  241.47    8.42
   2  -5 -11  246.44    7.25
  -2  -5 -11  240.53    6.94
  -2  -5  11  252.59    8.46
   2  -5  11  251.92    8.36
  -2  -5 -11  253.91    7.36
   2  -5 -11  261.77    9.01
   2   5  12  143.85    5.61
  -2   5  12  147.75    4.49
   2   5 -12  154.53    5.66
   2  -5 -12  139.34    4.25
  -2   5 -12  134.62    5.93
  -2  -5 -12  136.06    4.16
  -2  -5  12  140.88    6.99
   2  -5  12  167.76    6.40
  -2  -5 -12  157.73    4.79
   2  -5 -12  151.16    6.11
   2   5  13   86.56    7.87
  -2   5  13   85.84    3.86
   2   5 -13   96.22    4.35
   2  -5 -13   79.29    2.46
  -2   5 -13   64.07    3.71
  -2  -5  13   92.39    7.96
  -2  -5 -13   77.68    2.50
   2  -5  13   91.53    4.04
  -2  -5 -13   93.03    3.08
   2  -5 -13   89.97    5.60
   2   5  14  135.98    5.37
  -2   5  14  118.40    3.57
   2   5 -14  132.53    4.86
   2  -5 -14  121.78    3.56
  -2   5 -14  120.16    5.95
  -2  -5  14  141.09   10.42
  -2  -5 -14  118.78    5.46
   2  -5  14  138.53    5.43
  -2  -5 -14  129.08    4.06
   2  -5 -14  134.50    5.88
   2   5  15  100.66    9.22
   2   5 -15   96.29    4.07
   2  -5 -15   76.15    2.38
  -2   5 -15   80.16    5.01
  -2  -5  15   91.00   13.11
  -2  -5 -15   85.43    2.90
   2  -5  15   93.29    4.43
  -2  -5 -15   98.23    3.50
   2  -5 -15   85.66    6.64
   2   5  16  270.05    9.25
   2   5 -16  262.29    8.66
  -2   5 -16  263.52   10.00
   2  -5 -16  251.49    7.20
   2  -5 -16  234.23    6.72
  -2  -5  16  274.84   15.98
  -2  -5 -16  223.46    6.74
   2  -5  16  280.16    9.40
  -2  -5 -16  245.62    7.45
   2  -5 -16  253.34    9.43
   2   5  17   11.65    2.57
   2   5 -17    7.20    1.53
  -2   5 -17    5.83    2.81
  -2  -5  17   10.49    2.30
   2  -5  17   11.82    2.45
  -2  -5 -17    5.87    1.04
   2  -5 -17   10.02    2.91
   2   5 -18  120.23    5.65
  -2   5 -18  128.49    7.32
  -2  -5  18  126.63   17.13
   2  -5  18  124.07    6.16
  -2  -5 -18  120.84    5.15
   2  -5 -18  119.33    7.76
   2   5 -19  100.40    4.85
  -2   5 -19  113.98    6.33
  -2  -5 -19  124.19    7.04
  -2  -5  19  107.29   11.46
   2  -5  19  114.20    5.82
  -2  -5 -19  108.25    4.75
   2  -5 -19  114.18    6.68
   2   5 -20   48.46    4.87
  -2   5 -20   47.10    5.65
  -2  -5 -20   55.30    6.45
  -2  -5  20   61.94    8.21
   2  -5  20   48.24    5.08
  -2  -5 -20   43.26    4.16
   2  -5 -20   43.00    5.73
   2   5 -21   25.29    3.51
  -2   5 -21   21.72    3.95
  -2  -5 -21   21.60    3.74
  -2  -5  21   21.39    5.22
   2  -5  21   16.41    3.92
   2  -5 -21   29.18    4.51
   2   5 -22    8.41    1.66
  -2   5 -22   10.15    2.60
  -2  -5 -22   14.16    3.50
   2  -5  22    6.53    1.94
   2  -5 -22    5.29    2.30
   2   5 -23    3.38    1.39
  -2   5 -23    5.85    2.11
  -2  -5 -23    2.92    1.70
  -2  -5  23   11.45    2.68
   2  -5  23    8.59    1.87
   2  -5 -23    6.89    2.83
  -2   5 -24    0.73    2.06
  -2  -5 -24    2.23    1.85
   2  -5  24    5.86    1.84
   2  -5 -24   -0.63    2.01
  -2   5 -25   27.36    3.53
  -2  -5 -25   37.17    4.25
  -2  -5  25   26.83    4.47
   2  -5  25   28.37    4.34
   2  -5 -25   35.99    4.46
  -2   5 -26    8.18    3.08
  -2  -5 -26    8.72    2.87
  -2  -5  26    8.27    3.19
   2  -5  26    8.30    2.62
   2  -5 -26   10.07    2.99
  -2   5 -27   21.11    3.73
  -2  -5 -27   14.22    2.87
  -2  -5  27   19.34    5.37
   2  -5  27   11.70    3.79
   2  -5 -27   21.86    4.07
  -2   5 -28   17.70    3.52
  -2  -5 -28   25.80    4.50
  -2  -5  28   15.93    3.42
   2  -5  28   11.22    3.45
   2  -5 -28   18.74    3.32
  -2   5 -29   32.83    5.94
  -2  -5 -29   25.66    4.67
  -2  -5  29   28.56    6.68
   2  -5  29   20.81    5.96
   2  -5 -29   46.92    7.91
   2   6   0  371.00    9.33
  -2   6   0  342.73    8.52
  -2  -6   0  369.09    8.65
   2   6   0  348.51    8.10
   2   6   1   71.75    5.01
   2   6  -1   61.13    3.94
  -2   6   1   58.12    3.89
  -2   6  -1   64.18    4.24
  -2  -6   1   67.96    4.19
  -2  -6  -1   60.79    3.76
   2   6   1   65.29    3.80
   2  -6   1   55.11    4.81
   2   6   2  216.13    7.70
   2   6  -2  218.42    6.26
  -2   6   2  220.04    5.79
  -2   6  -2  213.72    6.10
  -2  -6   2  197.80    5.46
  -2  -6  -2  230.95    5.72
   2   6   2  211.10    5.27
   2  -6   2  211.03    6.52
   2  -6  -2  206.90    6.71
   2   6   3  175.98   12.34
   2   6  -3  157.82    8.71
  -2   6   3  166.00    8.84
  -2   6  -3  169.03    9.10
  -2  -6   3  174.06    5.18
  -2  -6  -3  164.35    8.49
   2  -6   3  156.15    8.65
   2   6   3  160.20    8.25
   2  -6  -3  175.03    5.98
   2   6   4  136.55    9.41
   2   6  -4  162.43    8.85
  -2   6   4  154.24    8.22
  -2   6  -4  150.13    8.26
  -2  -6   4  144.80    7.78
  -2  -6  -4  157.21    8.12
   2  -6   4  152.95    8.74
   2   6   4  146.73    7.58
   2  -6  -4  159.88    9.33
   2   6   5  203.69   15.33
   2   6  -5  183.11    5.74
  -2   6   5  195.26    5.59
  -2   6  -5  187.30    6.30
   2  -6  -5  179.96    4.84
  -2  -6   5  203.50    5.85
  -2  -6  -5  194.70    5.04
   2  -6   5  209.79    6.38
   2   6   5  183.14    4.70
   2  -6  -5  174.23    6.32
   2   6   6  104.39   10.48
   2   6  -6   98.61    3.79
  -2   6   6   90.67    3.17
  -2   6  -6   93.79    4.01
   2  -6  -6   95.03    3.12
  -2  -6   6  108.43    4.09
  -2  -6  -6   97.20    2.84
   2  -6   6   96.36    3.85
   2  -6  -6   93.19    4.86
   2   6   6   98.76    2.91
   2   6  -7   31.08    2.32
  -2   6   7   32.08    1.90
  -2   6  -7   32.59    3.70
   2  -6  -7   26.81    1.61
  -2  -6   7   25.54    2.55
  -2  -6  -7   30.60    1.51
   2  -6   7   35.34    3.15
   2  -6  -7   32.67    3.68
   2   6   7   29.77    1.51
   2   6   8   78.27    6.30
   2   6  -8   70.89    3.32
  -2   6   8   70.38    2.71
   2  -6  -8   63.57    2.31
  -2  -6   8   80.73    6.71
  -2  -6  -8   72.77    2.38
   2  -6   8   77.60    3.92
   2  -6  -8   78.60    4.62
   2   6   8   76.12    2.36
   2   6   9   33.68    5.50
  -2   6   9   31.85    1.95
   2   6  -9   26.66    1.96
  -2   6  -9   33.82    4.05
   2  -6  -9   27.59    1.67
  -2  -6  -9   29.20    1.40
  -2  -6   9   33.48    3.88
   2  -6   9   26.97    2.51
  -2  -6  -9   32.30    1.71
   2  -6  -9   26.83    2.60
   2   6  10  100.04   14.18
  -2   6  10   97.10    3.62
   2   6 -10  105.72    4.26
   2  -6 -10   80.43    2.94
  -2   6 -10  111.11    6.47
  -2  -6 -10   84.22    4.20
  -2  -6  10   99.26    8.22
   2  -6  10   95.05    4.39
  -2  -6 -10  103.93    3.56
   2  -6 -10   98.35    4.88
   2   6  11  109.64    9.88
  -2   6  11  105.55    3.61
   2   6 -11  109.28    4.49
   2  -6 -11  102.42    3.50
  -2   6 -11  103.36    5.02
  -2  -6 -11  102.43    3.26
  -2  -6  11  126.11    9.88
   2  -6  11  122.32    5.40
   2  -6 -11  128.26    6.33
   2   6  12   79.78   10.00
  -2   6  12   75.75    4.80
   2   6 -12   76.12    3.71
   2  -6 -12   72.12    2.63
  -2   6 -12   75.54    4.09
  -2  -6 -12   65.03    2.59
  -2  -6  12   77.77    6.09
   2  -6  12   76.60    4.32
  -2  -6 -12   79.85    2.85
   2  -6 -12   87.06    5.93
   2   6  13   46.00    6.14
  -2   6  13   44.75    2.86
   2   6 -13   41.65    2.72
  -2   6 -13   25.96    2.86
   2  -6 -13   35.49    1.66
  -2  -6 -13   26.15    3.50
  -2  -6  13   40.86    4.68
   2  -6  13   44.11    3.41
  -2  -6 -13   37.91    1.82
   2  -6 -13   46.37    4.00
   2   6  14  166.73    6.39
  -2   6  14  142.49    4.50
   2   6 -14  154.30    5.84
   2  -6 -14  157.05    5.01
  -2   6 -14  153.02    6.58
  -2  -6 -14  130.51    4.11
  -2  -6  14  155.50   12.69
   2  -6  14  149.83    6.10
  -2  -6 -14  161.08    5.23
   2  -6 -14  147.40    7.27
   2   6  15   35.19    4.47
  -2   6  15   21.30    2.67
   2   6 -15   25.80    2.71
  -2   6 -15   14.18    3.06
  -2  -6  15   25.51    4.46
   2  -6  15   26.60    3.52
  -2  -6 -15   28.23    2.66
   2  -6 -15   21.30    3.43
  -2   6  16  102.28    4.44
   2   6  16  107.75    9.23
   2   6 -16  107.81    4.36
  -2   6 -16  116.18    6.02
  -2  -6  16  112.57    8.82
   2  -6  16  111.21    4.88
  -2  -6 -16  110.57    3.96
   2  -6 -16  120.37    5.87
   2   6  17   21.14    4.03
   2   6 -17   18.68    2.92
  -2   6 -17    4.31    2.47
  -2  -6  17    6.96    2.31
   2  -6  17   14.94    2.82
  -2  -6 -17   15.58    2.00
   2  -6 -17   23.15    3.82
   2   6  18   45.81    5.16
   2   6 -18   39.02    4.13
  -2   6 -18   44.74    5.62
  -2  -6  18   43.03    6.37
   2  -6  18   41.31    4.35
  -2  -6 -18   46.91    4.59
   2  -6 -18   37.42    4.59
   2   6  19   24.71    3.65
   2   6 -19   23.32    3.18
  -2   6 -19   32.25    5.36
  -2  -6  19   28.65    5.41
   2  -6  19   26.49    3.97
  -2  -6 -19   17.54    2.27
   2  -6 -19   18.22    3.78
   2   6 -20   13.11    2.22
  -2   6 -20   18.56    4.04
  -2  -6  20   24.95    6.03
   2  -6  20   14.96    2.64
   2  -6 -20    9.86    2.98
   2   6 -21    7.79    1.80
  -2   6 -21   11.74    3.09
  -2  -6 -21    9.71    2.54
  -2  -6  21   10.86    2.32
   2  -6  21   12.20    2.60
   2  -6 -21   14.62    3.80
   2   6 -22   67.47    4.01
  -2   6 -22   58.53    5.08
  -2  -6 -22   50.27    3.94
  -2  -6  22   69.80    7.28
   2  -6  22   57.47    3.99
   2  -6 -22   59.43    5.08
   2   6 -23   49.06    4.48
  -2   6 -23   44.47    4.69
  -2  -6 -23   42.22    4.68
  -2  -6  23   37.72    6.59
   2  -6  23   41.67    5.76
   2  -6 -23   37.05    4.89
  -2   6 -24   35.21    4.83
  -2  -6 -24   25.87    3.09
  -2  -6  24   37.18    5.64
   2  -6  24   35.36    5.81
   2  -6 -24   28.58    4.24
  -2   6 -25   19.99    3.25
  -2  -6 -25   29.21    3.17
   2  -6  25   24.89    3.63
   2  -6 -25   25.46    3.58
  -2   6 -26   13.82    4.17
  -2  -6 -26    7.97    2.84
  -2  -6  26    8.47    2.76
   2  -6  26    4.32    1.81
  -2   6 -27    7.33    2.95
  -2  -6 -27   13.20    3.03
  -2  -6  27   19.47    5.16
   2  -6  27    9.70    2.88
   2  -6 -27   23.11    4.55
  -2   6 -28    3.58    1.92
  -2  -6 -28    5.82    2.20
  -2  -6  28    1.29    1.20
   2  -6  28    5.02    1.60
   2  -6 -28    3.20    1.87
   2   7   0  146.85    5.15
  -2   7   0  135.12    4.90
  -2  -7   0  141.10    4.58
   2  -7   0  138.65    5.26
   2   7   1   85.07    3.61
   2   7  -1   86.18    3.89
  -2   7   1   88.46    3.86
  -2   7  -1   88.10    3.62
  -2  -7   1   74.32    2.93
  -2  -7  -1   85.83    3.11
   2  -7  -1   84.84    4.67
   2   7   2  177.31    5.82
   2   7  -2  173.59    5.52
  -2   7   2  161.50    5.45
  -2   7  -2  158.64    5.14
  -2  -7   2  176.07    5.20
  -2  -7  -2  166.25    4.88
   2   7   2  146.56    4.20
   2  -7  -2  167.81    6.00
   2   7   3   87.15    8.45
   2   7  -3   83.43    3.57
  -2   7   3   79.85    3.11
  -2   7  -3   79.33    3.91
  -2  -7   3   78.27    3.15
  -2  -7  -3   84.77    3.11
   2  -7   3   72.24    4.28
   2   7   3   71.82    2.77
   2  -7  -3   87.06    5.44
   2   7   4  223.43    6.70
   2   7  -4  214.36    6.39
  -2   7   4  197.33    5.77
  -2   7  -4  215.93    6.63
  -2  -7   4  223.47    6.62
  -2  -7  -4  217.22    5.85
   2  -7   4  204.50    7.31
   2   7   4  195.76    5.20
   2  -7  -4  201.25    6.85
   2   7   5   51.47    4.86
   2   7  -5   51.89    3.00
  -2   7   5   55.88    2.91
  -2   7  -5   46.89    3.24
  -2  -7   5   48.27    2.78
  -2  -7  -5   51.98    2.40
   2  -7   5   42.37    3.53
   2  -7  -5   51.32    3.88
   2   7   5   41.84    1.87
   2   7   6   73.42    7.52
   2   7  -6   70.81    3.84
  -2   7   6   73.70    3.59
  -2   7  -6   78.28    5.25
  -2  -7   6   64.93    3.39
  -2  -7  -6   65.09    2.69
   2  -7   6   92.85    5.46
   2  -7  -6   66.57    4.87
   2   7   6   70.21    2.83
   2   7  -7  226.85    7.85
  -2   7  -7  235.40    8.32
  -2  -7   7  224.15    7.62
  -2  -7  -7  215.74    6.66
   2  -7   7  230.30    8.46
   2  -7  -7  218.80    7.93
   2   7   7  199.23    6.16
   2   7   8   19.26    2.71
   2   7  -8   25.49    2.23
  -2   7   8   20.64    2.03
  -2  -7   8   18.11    2.29
  -2  -7  -8   19.77    1.62
   2  -7   8   15.63    2.84
   2  -7  -8   21.01    3.04
   2   7   8   16.59    1.21
   2   7   9  703.38   21.34
  -2   7   9  720.94   19.88
   2   7  -9  735.16   20.77
  -2   7  -9  758.84   21.98
  -2  -7   9  729.01   20.89
   2  -7   9  719.32   20.55
  -2  -7  -9  724.04   19.76
   2  -7  -9  751.51   21.95
   2   7   9  709.26   19.29
   2   7  10    5.72    2.16
  -2   7  10    6.23    1.66
   2   7 -10    2.99    1.75
  -2   7 -10    0.59    2.86
   2  -7 -10    3.79    1.30
  -2  -7 -10    3.46    0.65
  -2  -7  10    5.07    1.84
   2  -7  10    6.23    2.87
  -2  -7 -10    8.55    1.40
   2  -7 -10   11.49    2.96
   2   7  11  403.42   12.95
  -2   7  11  375.76   11.23
   2   7 -11  391.81   12.31
  -2   7 -11  397.87   12.94
  -2  -7 -11  323.11    9.49
  -2  -7  11  388.36   12.70
   2  -7  11  407.67   13.18
  -2  -7 -11  383.74   11.38
   2  -7 -11  370.43   12.42
   2   7  12   35.86    4.34
  -2   7  12   33.49    2.05
   2   7 -12   33.37    2.80
  -2   7 -12   23.79    2.58
   2  -7 -12   28.94    1.65
  -2  -7  12   28.40    4.79
   2  -7  12   31.36    3.48
  -2  -7 -12   30.17    1.84
   2  -7 -12   38.47    4.87
   2   7  13   70.66    7.66
  -2   7  13   64.43    5.99
   2   7 -13   67.00    3.61
   2  -7 -13   54.12    2.33
  -2   7 -13   76.17    5.60
  -2  -7 -13   45.64    2.99
  -2  -7  13   78.15    8.90
   2  -7  13   75.92    4.64
  -2  -7 -13   65.46    2.76
   2  -7 -13   66.89    4.69
   2   7  14   74.96   10.43
  -2   7  14   63.59    5.35
   2   7 -14   74.73    3.93
  -2   7 -14   71.21    6.49
  -2  -7  14   64.86    7.82
   2  -7  14   77.26    4.38
   2  -7 -14   80.82    5.82
   2   7  15   40.10    4.27
  -2   7  15   36.80    4.63
   2   7 -15   34.43    3.43
  -2   7 -15   35.44    4.27
  -2  -7  15   40.16    4.90
   2  -7  15   39.64    4.10
  -2  -7 -15   40.14    3.31
   2  -7 -15   44.05    5.56
   2   7  16  103.79    7.96
  -2   7  16   79.56    4.16
   2   7 -16   84.76    4.67
  -2   7 -16   97.72    6.13
  -2  -7  16   89.75   10.08
   2  -7  16   95.46    5.77
  -2  -7 -16   93.89    4.24
   2  -7 -16   83.02    6.64
   2   7  17   71.65    7.74
   2   7 -17   71.26    3.58
  -2   7 -17   69.81    4.87
  -2  -7  17   91.34    7.68
   2  -7  17   79.53    4.49
  -2  -7 -17   76.95    3.30
   2  -7 -17   74.87    5.24
   2   7  18    5.20    1.49
   2   7 -18   12.10    2.22
  -2   7 -18    3.05    2.49
  -2  -7  18   11.54    2.74
   2  -7  18   11.79    2.32
   2  -7 -18    9.40    3.93
   2   7  19   38.04    5.20
   2   7 -19   35.61    2.60
  -2   7 -19   36.67    4.28
  -2  -7  19   36.62    5.60
   2  -7  19   31.64    4.22
   2  -7 -19   36.82    3.69
   2   7  20   46.71    3.54
   2   7 -20   63.75    3.36
  -2   7 -20   49.35    4.96
  -2  -7  20   53.03    5.26
   2  -7  20   55.92    3.40
   2  -7 -20   45.36    3.97
   2   7 -21    6.76    2.05
  -2   7 -21    8.74    3.19
  -2  -7  21    4.08    1.34
   2  -7  21    3.90    1.59
   2  -7 -21    5.84    3.04
   2   7 -22    6.71    2.14
  -2   7 -22    5.35    2.31
  -2  -7 -22    5.70    1.97
  -2  -7  22    9.81    2.43
   2  -7  22    9.37    2.92
   2  -7 -22   10.86    4.09
   2   7 -23    8.58    2.07
  -2   7 -23    9.01    2.57
  -2  -7 -23   10.23    3.00
  -2  -7  23    9.92    2.71
   2  -7  23   10.20    2.44
   2  -7 -23    8.85    2.53
   2   7 -24   18.29    2.11
  -2   7 -24   14.14    3.48
  -2  -7 -24   10.88    3.24
  -2  -7  24   16.70    5.04
   2  -7  24   28.25    3.63
   2  -7 -24   21.92    3.12
  -2   7 -25    7.26    2.58
  -2  -7 -25   15.50    2.60
  -2  -7  25   12.11    3.70
   2  -7  25   11.80    3.82
   2  -7 -25    5.81    2.12
  -2   7 -26    5.84    2.25
  -2  -7 -26   13.34    3.61
   2  -7  26    4.47    1.70
   2  -7 -26    9.16    3.04
  -2   7 -27    3.95    1.92
  -2  -7 -27    7.51    1.95
  -2  -7  27   10.09    3.20
   2  -7  27   10.99    3.16
   2  -7 -27   11.92    3.17
   2   8   0    7.81    2.84
  -2   8   0    5.71    2.86
  -2  -8   0    4.95    1.71
   2  -8   0    1.23    2.39
   2   8   1   28.00    2.81
   2   8  -1   42.70    2.98
  -2   8   1   33.74    2.97
  -2   8  -1   29.98    2.43
  -2  -8   1   29.90    2.58
  -2  -8  -1   34.94    2.36
   2  -8   1   35.45    3.62
   2  -8  -1   32.38    3.93
   2   8   2   51.68    3.87
   2   8  -2   49.73    3.39
  -2   8   2   43.48    3.07
  -2   8  -2   51.95    3.29
  -2  -8   2   49.89    2.82
  -2  -8  -2   45.94    2.60
   2  -8  -2   39.80    2.88
   2   8   3   98.85    5.26
   2   8  -3  120.98    5.26
  -2   8   3  105.24    4.17
  -2   8  -3  112.72    5.24
  -2  -8   3  107.94    4.38
  -2  -8  -3  122.82    4.71
   2  -8  -3  122.15    6.11
   2   8   4   63.51    9.67
   2   8  -4   57.99    3.34
  -2   8   4   54.44    3.06
  -2   8  -4   68.69    4.46
  -2  -8   4   64.90    3.10
  -2  -8  -4   59.74    2.92
   2  -8   4   53.33    3.59
   2  -8  -4   54.70    4.11
   2   8   5  205.41   15.88
   2   8  -5  204.14    7.00
  -2   8   5  204.36    6.64
  -2   8  -5  204.89    7.88
  -2  -8   5  208.17    7.06
  -2  -8  -5  215.49    6.73
   2  -8   5  228.16    8.58
   2  -8  -5  200.65    7.78
   2   8  -6  124.95    5.34
  -2   8   6  110.31    4.25
  -2   8  -6  124.16    5.90
  -2  -8   6  122.57    5.06
  -2  -8  -6  122.83    4.39
   2  -8   6  117.08    5.70
   2  -8  -6  122.31    6.25
   2   8   7  173.79   13.49
   2   8  -7  182.03    6.84
  -2   8   7  177.07    5.86
  -2   8  -7  160.99    6.84
  -2  -8   7  172.02    6.43
  -2  -8  -7  175.57    5.76
   2  -8   7  177.25    7.57
   2  -8  -7  175.58    7.59
   2   8   7  147.93    4.73
   2   8   8   59.27    8.85
   2   8  -8   69.19    4.03
  -2   8   8   72.48    3.45
  -2   8  -8   65.58    5.15
  -2  -8   8   59.52    3.61
   2  -8   8   72.46    5.04
  -2  -8  -8   62.48    2.57
   2  -8  -8   74.19    5.63
   2   8   8   58.18    2.36
   2   8   9    8.22    1.84
  -2   8   9   12.58    1.68
   2   8  -9   17.17    2.30
  -2   8  -9   11.73    2.88
  -2  -8   9   11.61    2.18
   2  -8   9   16.76    2.80
  -2  -8  -9   10.46    1.15
   2  -8  -9   11.11    3.17
   2   8   9    9.55    1.16
   2   8  10   11.74    2.28
  -2   8  10   16.91    1.62
   2   8 -10   14.50    1.99
  -2   8 -10    8.84    2.34
  -2  -8  10   16.83    2.65
   2  -8  10    8.90    2.51
  -2  -8 -10   13.78    1.62
   2  -8 -10   12.10    3.35
   2   8  10   11.02    1.04
   2   8  11   70.05    7.89
  -2   8  11   74.02    8.57
   2   8 -11   75.79    4.71
  -2   8 -11   70.30    6.33
  -2  -8 -11   52.15    4.25
  -2  -8  11   83.52    4.73
   2  -8  11   75.84    5.12
  -2  -8 -11   71.58    5.75
   2  -8 -11   74.71    6.01
   2   8  12   98.19   14.13
  -2   8  12  105.95    4.26
   2   8 -12  114.93    5.60
  -2   8 -12   89.72    5.01
  -2  -8  12  100.36   11.62
   2  -8  12  106.91    5.66
   2  -8 -12  103.17    6.11
   2   8  13  180.42   19.37
  -2   8  13  171.70    5.84
   2   8 -13  164.67    6.64
  -2   8 -13  171.76    7.53
  -2  -8  13  176.42   17.48
   2  -8  13  167.81    7.04
  -2  -8 -13  177.40    5.94
   2  -8 -13  160.58    7.08
   2   8  14    4.64    1.93
  -2   8  14    2.39    1.10
   2   8 -14    5.79    2.49
  -2   8 -14    1.96    3.04
  -2  -8  14    5.06    2.40
   2  -8  14    9.10    2.71
  -2  -8 -14    4.13    1.33
   2  -8 -14    6.32    2.82
   2   8  15   20.76    4.04
  -2   8  15   14.27    2.74
   2   8 -15   15.86    2.55
  -2   8 -15   19.28    3.60
  -2  -8  15   14.78    3.34
   2  -8  15   19.57    3.22
  -2  -8 -15   21.95    2.49
   2  -8 -15   14.76    3.08
   2   8  16   17.85    3.29
  -2   8  16   12.90    2.67
   2   8 -16   14.41    2.81
  -2   8 -16   15.34    4.12
  -2  -8  16   21.35    3.93
   2  -8  16   23.51    3.63
  -2  -8 -16   19.47    2.47
   2  -8 -16   12.45    2.95
   2   8  17    8.86    2.66
   2   8 -17   11.09    2.25
  -2   8 -17    9.59    3.77
  -2  -8  17    6.16    1.56
   2  -8  17    2.99    1.71
   2  -8 -17    7.49    2.86
   2   8  18   35.34    4.75
   2   8 -18   40.17    3.18
  -2   8 -18   44.69    4.71
  -2  -8  18   33.86    4.19
   2  -8  18   48.13    3.81
   2  -8 -18   37.06    4.93
   2   8  19   15.51    2.49
   2   8 -19   15.68    2.47
  -2   8 -19   25.53    4.11
  -2  -8  19   29.52    5.09
   2  -8  19   18.87    2.94
   2  -8 -19   12.94    2.91
   2   8  20   15.36    3.55
   2   8 -20   15.76    3.19
  -2   8 -20    9.97    2.87
  -2  -8  20    6.09    2.13
   2  -8  20    7.22    2.37
   2  -8 -20    7.18    2.11
   2   8  21   27.38    3.83
   2   8 -21   23.12    3.18
  -2  -8  21   19.30    4.21
   2  -8  21   26.03    3.33
   2  -8 -21   26.32    4.27
   2   8  22   23.40    3.24
   2   8 -22   38.33    4.10
  -2   8 -22   35.89    4.71
  -2  -8  22   20.15    5.64
   2  -8  22   25.35    3.36
   2  -8 -22   24.92    3.53
   2   8 -23   47.16    3.59
  -2   8 -23   32.73    4.48
  -2  -8 -23   35.52    3.86
  -2  -8  23   38.90    7.05
   2  -8  23   32.95    3.10
   2  -8 -23   27.47    3.88
   2   8 -24   23.57    2.84
  -2   8 -24   20.36    3.49
  -2  -8 -24   10.65    3.01
  -2  -8  24   22.61    5.09
   2  -8  24   16.57    2.69
   2  -8 -24   29.21    4.01
  -2   8 -25    3.64    2.83
  -2  -8 -25    7.42    2.63
  -2  -8  25    8.28    2.43
   2  -8  25    4.86    2.28
   2  -8 -25    2.69    1.89
  -2   8 -26   28.71    5.36
  -2  -8 -26   27.56    4.72
  -2  -8  26   41.19    8.97
   2  -8  26   23.69    5.35
   2  -8 -26   45.50    7.64
   2   9   0   26.09    3.38
  -2   9   0   22.67    2.30
  -2  -9   0   28.09    2.32
   2  -9   0   21.44    2.95
   2   9   1  149.90    6.38
   2   9  -1  145.57    5.88
  -2   9   1  137.25    5.68
  -2   9  -1  144.02    6.09
  -2  -9   1  144.21    5.50
  -2  -9  -1  153.96    5.53
   2  -9   1  141.03    6.17
   2  -9  -1  135.31    6.01
   2   9   2   37.56    2.89
   2   9  -2   52.06    4.16
  -2   9   2   56.41    3.94
  -2   9  -2   45.44    3.28
  -2  -9   2   53.25    3.39
  -2  -9  -2   58.85    2.98
   2  -9   2   45.66    3.73
   2  -9  -2   53.72    5.06
   2   9   3   27.81    2.99
   2   9  -3   22.24    2.53
  -2   9   3   19.54    2.34
  -2   9  -3   26.68    3.30
  -2  -9   3   32.99    2.99
  -2  -9  -3   30.59    2.44
   2  -9  -3   32.52    3.51
   2   9   4  214.29    7.83
   2   9  -4  215.35    7.92
  -2   9   4  212.29    7.49
  -2   9  -4  198.65    7.84
  -2  -9   4  199.61    7.27
  -2  -9  -4  212.00    7.08
   2  -9  -4  224.07    9.42
   2   9   5   76.00    6.02
   2   9  -5   82.15    4.99
  -2   9   5   79.29    4.02
  -2   9  -5   82.97    5.48
  -2  -9   5   82.24    4.28
  -2  -9  -5   68.32    3.08
   2  -9   5   74.30    4.51
   2  -9  -5   77.41    4.84
   2   9  -6  153.42    6.78
  -2   9   6  143.47    5.33
  -2   9  -6  141.83    6.31
  -2  -9   6  156.45    6.32
  -2  -9  -6  132.34    4.94
   2  -9   6  135.74    6.48
   2  -9  -6  141.58    6.46
   2   9   7   87.40   13.91
   2   9  -7  102.65    4.88
  -2   9   7   95.26    4.00
  -2   9  -7  109.36    5.92
  -2  -9   7   98.03    4.98
  -2  -9  -7  103.32    4.22
   2  -9   7   99.13    6.01
   2  -9  -7   93.15    5.96
   2   9   8   55.35    9.33
   2   9  -8   65.73    6.00
  -2   9   8   66.94    5.73
  -2   9  -8   66.26    6.65
  -2  -9   8   71.16    6.43
  -2  -9  -8   66.12    5.41
   2  -9   8   72.44    6.57
   2  -9  -8   56.50    6.64
   2   9   9   18.55    3.57
   2   9  -9   12.84    2.56
  -2   9   9   18.23    2.49
  -2  -9   9   22.85    3.65
   2  -9   9   19.05    3.07
  -2  -9  -9   19.20    2.13
   2  -9  -9   14.23    3.30
   2   9  10  274.92    9.70
  -2   9  10  272.07    9.08
   2   9 -10  273.68    9.79
  -2   9 -10  272.86   10.18
  -2  -9  10  280.06   10.02
   2  -9  10  260.92    9.81
  -2  -9 -10  266.41    8.57
   2  -9 -10  265.02   10.09
   2   9  11   11.13    3.22
  -2   9  11    3.33    1.45
   2   9 -11    2.36    2.01
  -2   9 -11    3.77    3.16
  -2  -9  11    3.45    1.71
   2  -9  11    5.59    2.20
  -2  -9 -11    3.21    1.25
   2  -9 -11   11.57    3.15
   2   9  12  261.03   11.95
  -2   9  12  273.90   11.29
   2   9 -12  256.06   11.33
  -2   9 -12  298.22   13.66
  -2  -9  12  268.81   11.97
   2  -9  12  274.61   12.05
  -2  -9 -12  275.38   11.19
   2  -9 -12  252.72   11.41
   2   9  13   12.30    2.54
  -2   9  13   11.06    1.60
   2   9 -13   17.07    3.18
  -2   9 -13   12.94    3.20
  -2  -9  13   19.27    3.06
   2  -9  13    7.88    2.17
  -2  -9 -13   16.35    2.08
   2  -9 -13   13.47    4.05
   2   9  14   25.23    6.55
  -2   9  14   23.68    3.75
   2   9 -14   20.62    3.07
  -2   9 -14   22.02    3.87
  -2  -9  14   26.03    5.39
   2  -9  14   19.92    3.23
  -2  -9 -14   23.60    3.00
   2  -9 -14   25.34    4.69
   2   9  15   33.81    6.22
  -2   9  15   23.47    4.11
   2   9 -15   27.47    4.09
  -2   9 -15   24.71    4.70
  -2  -9  15   26.84    5.27
   2  -9  15   23.03    3.40
   2  -9 -15   19.13    3.71
   2   9  16   14.39    3.32
  -2   9  16    4.25    1.18
   2   9 -16    3.66    1.61
  -2   9 -16    7.65    2.58
  -2  -9  16   13.33    3.63
   2  -9  16    7.06    2.70
   2  -9 -16   15.61    3.89
   2   9  17   16.40    3.93
   2   9 -17   15.62    2.68
  -2   9 -17   15.69    3.58
  -2  -9  17   20.47    3.46
   2  -9  17   20.16    2.92
   2  -9 -17   11.22    2.87
   2   9  18   37.21    4.97
   2   9 -18   32.56    2.63
  -2   9 -18   33.70    3.89
  -2  -9  18   19.50    4.64
   2  -9  18   31.52    3.57
   2  -9 -18   44.38    4.63
   2   9  19   13.88    3.39
   2   9 -19   23.06    3.31
  -2   9 -19   16.47    4.30
  -2  -9  19   16.75    3.90
   2  -9  19   15.77    3.33
   2  -9 -19    8.71    2.81
   2   9  20   28.52    5.62
   2   9 -20   38.11    4.31
  -2   9 -20   33.44    4.69
  -2  -9  20   30.39    5.48
   2  -9  20   31.75    3.74
   2  -9 -20   23.67    3.55
   2   9  21   -0.37    1.43
  -2   9 -21    6.07    2.49
  -2  -9  21    3.76    2.28
   2  -9  21    5.09    1.80
   2  -9 -21    5.65    3.08
   2   9 -22   17.10    2.99
  -2   9 -22    7.55    3.44
  -2  -9  22    7.17    3.07
   2  -9  22   13.03    3.31
   2  -9 -22    6.88    3.04
   2   9  23   10.29    3.20
   2   9 -23    6.03    2.16
  -2   9 -23    9.97    2.93
  -2  -9  23    5.67    2.67
   2  -9  23    8.84    2.51
   2  -9 -23   15.58    3.33
   2   9 -24    2.63    1.53
  -2   9 -24    3.41    2.69
  -2  -9 -24    6.77    2.89
  -2  -9  24    5.92    2.55
   2  -9  24    1.35    1.46
   2  -9 -24    1.57    1.93
  -2   9 -25    9.70    2.80
  -2  -9 -25    7.06    2.41
  -2  -9  25   10.72    2.75
   2  -9  25   16.16    3.31
   2  -9 -25   17.64    4.30
   2  10   0    8.22    3.19
  -2  10   0    9.26    3.23
  -2 -10   0    3.71    1.04
   2 -10   0    4.08    2.80
   2  10   1   60.07    6.12
   2  10  -1   64.35    5.88
  -2  10   1   50.90    4.92
  -2  10  -1   58.23    5.76
  -2 -10   1   56.97    5.12
  -2 -10  -1   76.96    3.79
   2 -10   1   53.95    5.43
   2 -10  -1   54.64    5.71
   2  10   2    6.89    3.10
   2  10  -2   17.17    3.35
  -2  10   2   17.96    2.80
  -2  10  -2   16.30    2.37
  -2 -10   2   14.83    2.04
  -2 -10  -2   15.78    2.41
   2 -10   2   11.59    2.70
   2 -10  -2   10.28    3.15
   2  10   3  236.62    8.73
   2  10  -3  233.04    9.06
  -2  10   3  228.77    8.24
  -2  10  -3  228.83    8.88
  -2 -10   3  240.90    8.50
  -2 -10  -3  250.89    8.51
   2 -10   3  242.93    9.59
   2 -10  -3  230.00    9.50
   2  10   4   56.91    6.12
   2  10  -4   75.61    5.08
  -2  10   4   54.11    5.11
  -2  10  -4   66.07    6.55
  -2 -10   4   63.82    5.74
  -2 -10  -4   46.25    4.04
   2 -10   4   52.98    5.82
   2 -10  -4   45.45    5.95
   2  10  -5   60.42    6.05
  -2  10   5   58.03    5.31
  -2  10  -5   58.35    5.61
  -2 -10   5   52.21    4.77
  -2 -10  -5   61.91    5.29
   2 -10  -5   48.35    5.52
   2  10   6  123.11    9.93
   2  10  -6  109.89    6.18
  -2  10   6  106.33    5.54
  -2  10  -6  132.70    7.87
  -2 -10   6  108.27    5.49
  -2 -10  -6  117.84    5.60
   2 -10   6  119.55    6.36
   2 -10  -6  116.32    6.59
   2  10   7   16.17    3.07
   2  10  -7    8.58    2.28
  -2  10   7   12.80    2.48
  -2  10  -7   15.20    3.15
  -2 -10   7   18.33    3.44
  -2 -10  -7   19.39    2.77
   2 -10   7   16.57    3.50
   2 -10  -7   12.46    3.08
   2  10   8  117.63   12.17
   2  10  -8  108.78    5.98
  -2  10   8  118.31    5.91
  -2  10  -8   99.89    5.74
  -2 -10   8  109.77    5.94
  -2 -10  -8  111.44    5.22
   2 -10   8   95.60    5.32
   2 -10  -8   98.47    5.80
   2  10   9   21.35    3.71
  -2  10   9   41.57    5.11
   2  10  -9   25.50    3.54
  -2  10  -9   26.01    4.24
  -2 -10   9   18.89    3.18
  -2 -10  -9   25.70    2.76
   2 -10   9   34.71    4.68
   2 -10  -9   26.09    4.04
   2  10  10   14.18    3.68
  -2  10  10    3.20    1.42
   2  10 -10    7.37    2.82
  -2 -10  10   14.14    2.73
   2 -10  10    6.55    2.27
  -2 -10 -10   12.80    2.02
   2 -10 -10   16.35    4.11
   2  10  11   38.60    5.96
  -2  10  11   44.56    3.36
   2  10 -11   40.04    3.73
  -2  10 -11   56.26    5.62
  -2 -10  11   38.29    3.53
   2 -10  11   38.74    3.58
  -2 -10 -11   45.08    2.80
   2 -10 -11   53.85    5.63
   2  10  12   13.02    2.72
  -2  10  12   10.28    1.92
   2  10 -12   11.56    2.12
  -2  10 -12   14.26    3.79
  -2 -10  12   17.59    3.16
   2 -10  12   21.48    3.83
  -2 -10 -12   11.17    1.93
   2 -10 -12   16.92    4.33
   2  10  13    7.96    2.30
  -2  10  13    6.79    1.82
   2  10 -13    8.78    3.34
  -2  10 -13    3.18    2.24
  -2 -10  13    9.00    2.68
   2 -10  13    5.94    2.74
  -2 -10 -13    3.78    1.14
   2 -10 -13   17.23    4.47
   2  10  14   10.62    2.75
  -2  10  14    5.88    2.02
   2  10 -14    8.50    2.58
  -2  10 -14   13.70    3.05
  -2 -10  14   12.11    2.47
   2 -10  14   11.69    2.91
   2 -10 -14   12.61    3.63
   2  10  15    4.88    2.90
  -2  10  15    3.18    1.07
   2  10 -15    9.51    2.42
  -2  10 -15    7.98    3.43
  -2 -10  15    4.50    2.66
   2 -10  15    6.19    1.86
   2 -10 -15    4.03    2.29
   2  10  16   27.93    4.24
   2  10 -16   17.88    2.64
  -2  10 -16   15.36    3.42
  -2 -10  16   27.74    4.91
   2 -10  16   16.27    2.70
   2 -10 -16   24.99    3.07
   2  10  17    3.38    1.55
   2  10 -17    9.85    2.44
  -2  10 -17    8.26    3.46
  -2 -10  17   13.36    3.41
   2 -10  17   12.99    3.22
   2 -10 -17   10.87    4.40
   2  10  18    7.52    2.02
   2  10 -18    8.95    2.61
  -2  10 -18    9.03    3.57
  -2 -10  18    2.80    1.39
   2 -10  18    4.81    2.26
   2 -10 -18   17.39    4.21
   2  10  19   12.97    3.98
   2  10 -19   15.86    4.13
  -2  10 -19   12.22    4.08
  -2 -10  19   22.26    4.32
   2 -10  19   11.33    3.15
   2 -10 -19   14.17    4.12
   2  10  20   11.91    4.09
   2  10 -20   17.06    2.67
  -2  10 -20    9.24    3.05
  -2 -10  20   13.97    4.30
   2 -10  20   12.98    3.39
   2 -10 -20   10.90    3.75
   2  10  21   16.46    3.95
   2  10 -21   26.87    4.48
  -2  10 -21   26.23    4.54
  -2 -10  21   25.40    6.78
   2 -10  21   15.62    2.82
   2 -10 -21   10.65    2.91
   2  10  22   18.21    3.70
   2  10 -22   39.67    5.73
  -2  10 -22   23.98    4.70
  -2 -10  22   29.72    5.85
   2 -10  22   33.28    5.11
   2 -10 -22   24.01    3.99
   2  10  23   27.91    4.46
   2  10 -23   26.39    4.18
  -2  10 -23   14.83    3.33
  -2 -10  23   29.12    6.35
   2 -10  23   22.21    3.66
   2 -10 -23   25.73    4.61
   2  11   0    5.70    2.40
  -2  11   0    3.94    2.59
  -2 -11   0    1.22    1.28
   2 -11   0    4.63    2.67
   2  11   1  170.92    7.87
   2  11  -1  164.51    7.23
  -2  11   1  147.90    6.70
  -2  11  -1  147.55    6.66
  -2 -11   1  160.29    6.59
  -2 -11  -1  167.63    7.00
   2 -11   1  174.39    8.32
   2 -11  -1  174.20    7.98
   2  11   2   35.75    4.42
   2  11  -2   30.23    3.91
  -2  11   2   24.30    3.27
  -2  11  -2   30.35    4.47
  -2 -11   2   27.51    3.51
  -2 -11  -2   27.25    3.35
   2 -11   2   35.56    5.41
   2 -11  -2   33.69    4.54
   2  11   3  112.16    5.64
   2  11  -3   97.22    5.35
  -2  11   3   97.42    4.98
  -2  11  -3   97.56    5.60
  -2 -11   3   91.88    4.46
  -2 -11  -3   89.72    4.32
   2 -11   3  101.37    6.26
   2 -11  -3   96.30    5.89
   2  11  -4    4.38    2.27
  -2  11   4    1.01    1.58
  -2  11  -4    2.09    2.03
  -2 -11   4    6.42    2.08
  -2 -11  -4    1.35    1.06
   2 -11   4    0.21    2.47
   2 -11  -4    3.94    2.94
   2  11  -5   11.10    3.29
  -2  11   5    6.11    2.26
  -2  11  -5   14.66    3.35
  -2 -11   5    7.74    2.31
  -2 -11  -5    7.10    1.64
   2 -11   5    8.37    3.34
   2 -11  -5    7.29    2.87
   2  11   6  176.03   14.57
   2  11  -6  156.59    7.15
  -2  11   6  166.29    7.00
  -2  11  -6  160.87    7.49
  -2 -11   6  169.27    7.44
  -2 -11  -6  157.25    6.49
   2 -11  -6  173.53    8.27
   2  11   7    6.43    1.88
   2  11  -7    4.48    2.44
  -2  11   7    8.35    2.27
  -2  11  -7    3.54    2.61
  -2 -11   7    8.96    2.65
  -2 -11  -7    5.08    1.72
   2 -11   7    5.06    2.25
   2 -11  -7    7.17    2.89
   2  11   8  179.89   19.45
   2  11  -8  205.96    9.58
  -2  11   8  184.79    8.09
  -2  11  -8  173.84    8.42
  -2 -11   8  174.67    8.56
  -2 -11  -8  187.54    8.08
   2 -11   8  162.73    7.77
   2 -11  -8  179.22    9.38
   2  11   9   91.95    9.97
   2  11  -9   78.92    5.54
  -2  11   9   87.03    4.68
  -2  11  -9   83.50    5.29
  -2 -11   9   94.43    5.49
   2 -11   9   91.75    6.08
  -2 -11  -9   85.98    4.65
   2 -11  -9   80.10    6.45
   2  11  10   55.53    5.72
  -2  11  10   73.20    3.67
   2  11 -10   70.24    4.88
  -2 -11  10   62.22    4.15
   2 -11  10   59.96    4.21
  -2 -11 -10   64.62    3.38
   2 -11 -10   59.89    5.52
   2  11  11   87.97   10.93
  -2  11  11   85.44    4.11
   2  11 -11   97.59    5.34
  -2  11 -11   89.58    5.13
  -2 -11  11   96.39    5.30
   2 -11  11  101.29    6.21
  -2 -11 -11  113.34    4.61
   2 -11 -11   77.57    4.82
   2  11  12   19.67    3.44
  -2  11  12   22.82    2.57
   2  11 -12   15.72    2.79
  -2  11 -12   16.66    3.37
  -2 -11  12   23.91    3.75
   2 -11  12   19.76    4.02
  -2 -11 -12   19.31    2.60
   2 -11 -12   21.13    3.56
   2  11  13   39.24    5.48
  -2  11  13   45.16    3.18
   2  11 -13   28.08    3.19
  -2  11 -13   48.34    4.46
  -2 -11  13   29.82    3.19
   2 -11  13   47.70    4.50
   2 -11 -13   32.30    3.32
   2  11  14    6.39    1.98
  -2  11  14    6.05    2.29
   2  11 -14    8.37    2.16
  -2  11 -14    4.14    2.34
  -2 -11  14    2.56    1.57
   2 -11  14   11.09    2.74
   2 -11 -14   15.42    4.46
   2  11  15   32.51    5.30
   2  11 -15   33.01    3.94
  -2  11 -15   35.63    4.21
   2 -11  15   33.45    4.52
   2 -11 -15   44.78    5.84
   2  11  16    9.76    2.06
   2  11 -16    7.97    2.51
  -2  11 -16   10.27    3.69
  -2 -11  16   15.88    3.70
   2 -11  16   10.38    3.18
   2 -11 -16   14.71    3.95
   2  11  17   15.26    4.10
   2  11 -17   24.99    3.18
  -2  11 -17   13.83    4.27
  -2 -11  17   12.95    3.73
   2 -11  17   17.57    2.73
   2 -11 -17   16.66    4.45
   2  11  18   -0.78    1.54
   2  11 -18    7.41    3.10
  -2  11 -18    7.91    3.49
  -2 -11  18    7.22    2.44
   2 -11  18    9.19    3.20
   2 -11 -18    4.02    2.24
   2  11  19   14.19    4.41
   2  11 -19   11.31    3.38
  -2  11 -19   13.91    4.67
  -2 -11  19   11.38    4.10
   2 -11  19    5.72    2.28
   2 -11 -19    9.09    3.36
   2  11  20    2.77    1.65
   2  11 -20    6.31    2.02
  -2  11 -20    4.80    3.27
  -2 -11  20    6.42    2.56
   2 -11  20    0.69    1.36
   2 -11 -20   11.64    3.70
   2  11  21    3.16    1.22
   2  11 -21   14.96    3.16
  -2  11 -21    8.61    3.30
  -2 -11  21   12.95    3.63
   2 -11  21    8.68    2.74
   2 -11 -21    8.36    3.02
   2  12   0  140.22    6.88
  -2  12   0  134.49    6.33
  -2 -12   0  129.79    5.68
   2 -12   0  127.86    6.52
   2  12   1  116.98    6.27
   2  12  -1  131.42    6.33
  -2  12   1  135.38    6.14
  -2  12  -1  131.10    6.52
  -2 -12   1  134.75    5.83
  -2 -12  -1  119.31    5.14
   2 -12   1  134.38    6.63
   2 -12  -1  125.06    7.00
   2  12   2   78.34    4.72
   2  12  -2   71.53    4.45
  -2  12   2   77.43    4.52
  -2  12  -2   68.02    4.14
  -2 -12   2   65.52    3.89
  -2 -12  -2   63.24    3.42
   2 -12   2   52.38    4.68
   2 -12  -2   88.85    6.60
   2  12   3  146.42    6.59
   2  12  -3  147.13    7.22
  -2  12   3  136.49    6.17
  -2  12  -3  127.40    5.76
  -2 -12   3  142.76    6.11
  -2 -12  -3  145.48    5.93
   2 -12   3  134.97    6.96
   2 -12  -3  139.36    7.00
   2  12  -4   41.89    4.61
  -2  12   4   40.34    3.63
  -2  12  -4   34.53    3.41
  -2 -12   4   35.63    3.16
  -2 -12  -4   35.77    2.67
   2 -12   4   39.02    3.65
   2 -12  -4   34.18    3.84
   2  12   5   85.73   10.26
   2  12  -5   72.06    4.31
  -2  12   5   75.15    4.49
  -2  12  -5   80.69    5.30
  -2 -12   5   73.02    4.22
  -2 -12  -5   74.10    3.63
   2 -12   5   76.36    4.78
   2 -12  -5   62.98    4.53
   2  12   6   36.83    5.07
   2  12  -6   35.47    3.67
  -2  12   6   28.60    3.72
  -2  12  -6   36.02    4.71
  -2 -12   6   37.40    3.15
  -2 -12  -6   34.02    2.78
   2 -12  -6   36.58    3.70
   2  12   7   20.83    3.56
   2  12  -7   17.41    3.29
  -2  12   7   14.00    2.47
  -2  12  -7   12.48    3.48
  -2 -12   7   16.96    3.08
  -2 -12  -7   16.06    2.78
   2 -12  -7   21.14    3.82
   2  12   8   50.32    5.08
   2  12  -8   66.89    5.08
  -2  12   8   59.56    4.01
  -2  12  -8   66.66    5.59
  -2 -12   8   59.48    4.03
  -2 -12  -8   65.06    4.06
   2 -12   8   57.00    4.98
   2 -12  -8   53.76    4.28
   2  12   9   72.37    8.08
  -2  12   9   69.10    4.30
   2  12  -9   63.21    4.76
  -2  12  -9   57.76    5.18
  -2 -12   9   63.61    4.41
  -2 -12  -9   65.97    3.69
   2 -12   9   66.65    5.64
   2 -12  -9   64.43    4.72
   2  12  10   11.45    3.01
  -2  12  10    7.85    2.32
   2  12 -10    2.07    1.95
  -2  12 -10    7.13    3.60
  -2 -12  10    8.27    2.69
   2 -12  10    8.17    2.64
  -2 -12 -10    3.93    1.40
   2 -12 -10    3.67    2.49
   2  12  11   28.41    5.66
  -2  12  11   44.87    4.46
   2  12 -11   34.46    3.67
  -2 -12  11   35.95    3.72
   2 -12  11   35.92    4.34
   2 -12 -11   46.87    6.25
   2  12  12    1.69    2.38
  -2  12  12    2.79    1.32
   2  12 -12    3.23    1.95
  -2  12 -12    3.84    2.28
  -2 -12  12    9.20    2.68
   2 -12  12    6.40    2.21
   2 -12 -12    1.87    2.23
   2  12  13   25.19    4.52
  -2  12  13   23.72    2.72
   2  12 -13   16.78    3.61
  -2  12 -13   11.36    3.02
  -2 -12  13   16.73    3.61
   2 -12  13   16.83    3.25
   2 -12 -13   16.39    3.46
   2  12  14   23.24    4.76
   2  12 -14   20.77    2.95
  -2  12 -14   13.80    3.98
  -2 -12  14   15.71    4.25
   2 -12  14   17.31    3.13
   2 -12 -14   25.95    3.53
   2  12  15   19.04    3.50
   2  12 -15   31.44    3.91
  -2  12 -15   19.32    3.85
  -2 -12  15   22.00    2.87
   2 -12  15   35.29    4.28
   2 -12 -15   29.39    3.66
   2  12  16   55.20    9.47
   2  12 -16   56.76    4.75
  -2  12 -16   65.27    6.98
  -2 -12  16   46.94    8.16
   2 -12  16   66.08    5.25
   2 -12 -16   63.06    5.65
   2  12  17   18.66    3.75
   2  12 -17   13.70    3.64
  -2  12 -17   22.49    4.31
  -2 -12  17   16.22    3.74
   2 -12  17   13.09    3.37
   2 -12 -17   10.52    3.66
   2  12  18   16.63    3.94
   2  12 -18    9.79    2.57
  -2  12 -18   14.46    2.93
  -2 -12  18   20.41    5.70
   2 -12  18   15.61    3.12
   2 -12 -18   12.18    2.98
   2  12  19   19.06    4.19
   2  12 -19   34.07    5.38
  -2  12 -19   22.39    4.09
  -2 -12  19   22.54    7.23
   2 -12  19   24.75    4.00
   2 -12 -19   21.52    3.89
   2  13   0    2.86    1.88
  -2  13   0    5.63    2.46
  -2 -13   0    7.49    2.12
   2 -13   0    1.45    2.01
   2  13   1    9.03    2.27
   2  13  -1    9.05    2.31
  -2  13   1   12.57    2.79
  -2  13  -1   11.30    2.87
  -2 -13   1    6.90    1.78
  -2 -13  -1    6.97    1.73
   2 -13   1    9.68    3.37
   2 -13  -1   10.21    2.69
   2  13   2    7.22    2.78
   2  13  -2    9.88    3.62
  -2  13   2    8.43    2.80
  -2  13  -2    0.05    1.77
  -2 -13   2    5.02    1.53
  -2 -13  -2    0.83    1.13
   2 -13   2    5.08    2.99
   2 -13  -2    5.04    2.18
   2  13  -3   35.04    4.66
  -2  13   3   13.65    3.18
  -2  13  -3   20.42    3.55
  -2 -13   3   21.70    2.58
  -2 -13  -3   26.84    2.99
   2 -13   3   24.76    3.41
   2 -13  -3   33.84    4.63
   2  13   4    3.04    2.15
   2  13  -4    5.55    2.18
  -2  13   4    5.64    1.99
  -2  13  -4    3.68    2.05
  -2 -13   4    9.65    2.54
  -2 -13  -4    3.19    1.12
   2 -13   4   -0.23    1.96
   2 -13  -4   10.37    3.48
   2  13   5    7.24    2.42
   2  13  -5   14.03    3.15
  -2  13   5   10.48    2.93
  -2  13  -5   16.41    3.98
  -2 -13   5   14.54    3.20
   2 -13   5   12.23    3.44
   2 -13  -5   13.14    3.72
   2  13   6    4.77    1.50
   2  13  -6    6.79    2.95
  -2  13   6    7.50    2.48
  -2  13  -6    9.81    3.15
  -2 -13   6    3.66    1.61
  -2 -13  -6    3.28    1.41
   2 -13   6    4.16    2.08
   2 -13  -6    7.02    3.52
   2  13   7   19.24    3.77
   2  13  -7   10.76    3.09
  -2  13   7    9.78    2.61
  -2  13  -7    9.86    2.58
  -2 -13   7   11.47    2.62
  -2 -13  -7   15.35    2.87
   2 -13   7   14.23    3.28
   2 -13  -7   13.97    3.69
   2  13   8    1.61    1.10
   2  13  -8    1.68    1.93
  -2  13   8    3.63    1.97
  -2  13  -8    7.06    2.95
  -2 -13   8    1.26    1.58
  -2 -13  -8    4.16    1.31
   2 -13  -8    3.36    2.22
   2  13   9   15.33    5.01
   2  13  -9    7.82    2.37
  -2  13   9   10.02    2.61
  -2  13  -9   10.12    3.44
  -2 -13   9    6.88    1.91
  -2 -13  -9   12.41    2.48
   2 -13  -9    6.57    2.50
   2  13  10   18.16    3.07
  -2  13  10   15.46    3.94
   2  13 -10   13.11    3.56
  -2  13 -10   10.78    3.11
  -2 -13  10    9.50    2.77
   2 -13  10   14.22    3.90
   2 -13 -10   20.33    3.73
   2  13  11   22.83    4.46
  -2  13  11   14.41    3.32
   2  13 -11   22.19    3.24
  -2  13 -11   11.30    3.75
  -2 -13  11   20.85    2.78
   2 -13  11   13.87    4.12
   2 -13 -11   17.34    2.85
   2  13  12   24.51    4.18
  -2  13  12   33.29    3.28
   2  13 -12   40.01    4.18
  -2 -13  12   39.11    3.70
   2 -13  12   38.53    4.78
   2 -13 -12   20.70    3.52
   2  13  13   13.69    4.29
   2  13 -13   10.55    3.59
  -2  13 -13    6.16    2.67
  -2 -13  13   18.27    2.61
   2 -13  13   16.80    3.75
   2 -13 -13    6.38    2.61
   2  13  14   21.10    4.28
   2  13 -14   29.45    5.11
  -2  13 -14   14.65    3.81
  -2 -13  14   21.02    3.65
   2 -13  14   20.85    3.76
   2 -13 -14   22.32    4.53
   2  13  15    3.72    1.81
   2  13 -15    4.35    2.43
  -2  13 -15    1.26    2.56
  -2 -13  15    3.07    1.65
   2 -13  15    4.97    2.00
   2 -13 -15    9.70    3.55
   2  13  16   46.15    9.55
   2  13 -16   55.26    7.12
  -2  13 -16   64.29    9.18
  -2 -13  16   38.65    5.93
   2 -13  16   46.36    6.70
   2 -13 -16   40.96    6.42
   2  13  17    7.63    2.24
   2  13 -17    4.17    2.63
  -2  13 -17    3.42    3.22
  -2 -13  17    3.44    1.20
   2 -13  17    3.04    1.73
   2 -13 -17    3.09    3.09
   2  14   0  281.97   12.80
  -2  14   0  285.45   12.67
  -2 -14   0  305.61   62.02
   2 -14   0  283.03   13.09
   2  14  -1   10.95    3.82
   2  14   1   16.18    4.50
  -2  14   1   10.78    3.35
  -2  14  -1   11.48    3.80
  -2 -14  -1    7.90    2.61
  -2 -14   1    4.46    1.80
   2 -14   1    5.52    2.74
   2 -14  -1   16.58    4.78
   2  14   2  138.37    7.70
   2  14  -2  161.77    8.39
  -2  14   2  155.69    7.71
  -2  14  -2  167.36    8.32
  -2 -14   2  165.75    7.87
   2 -14   2  155.13    8.84
   2 -14  -2  152.60    8.53
   2  14  -3   11.54    4.03
  -2  14   3    6.41    2.72
  -2  14  -3    8.64    3.14
  -2 -14   3    3.18    1.58
  -2 -14  -3    7.30    2.13
   2 -14   3   10.86    3.74
   2 -14  -3   10.96    3.98
   2  14   4   46.67    4.43
   2  14  -4   46.02    3.98
  -2  14   4   46.23    3.91
  -2  14  -4   47.29    4.43
  -2 -14   4   46.99    3.84
  -2 -14  -4   42.22    3.20
   2 -14   4   41.65    4.40
   2 -14  -4   54.74    4.89
   2  14   5   17.66    3.69
   2  14  -5   14.94    3.86
  -2  14   5   15.74    3.95
  -2  14  -5   14.62    4.40
  -2 -14   5   13.72    3.50
  -2 -14  -5   11.31    2.91
   2 -14   5   12.19    3.70
   2 -14  -5    9.73    3.56
   2  14   6    9.50    3.65
   2  14  -6   11.02    3.61
  -2  14   6   10.00    2.98
  -2  14  -6   10.91    3.18
  -2 -14   6   10.25    2.89
   2 -14   6    9.04    3.28
   2 -14  -6   23.11    3.32
   2  14   7   26.22    5.33
   2  14  -7   13.33    3.91
  -2  14   7    9.94    2.76
  -2  14  -7   13.72    4.03
  -2 -14   7   14.13    3.71
  -2 -14  -7   13.16    3.08
   2 -14   7   12.03    3.76
   2 -14  -7   22.26    4.05
   2  14   8   21.17    3.75
   2  14  -8   22.41    2.96
  -2  14   8   14.74    3.71
  -2  14  -8   27.09    4.34
  -2 -14   8   24.77    2.79
   2 -14   8   11.18    3.15
   2 -14  -8   23.93    3.32
   2  14   9    3.26    1.20
   2  14  -9    6.44    2.74
  -2  14  -9    7.63    3.15
  -2 -14   9    1.06    1.44
   2 -14   9    0.70    1.84
   2 -14  -9   14.33    3.85
   2  14  10   21.58    4.56
  -2  14  10   23.62    3.79
   2  14 -10   24.75    4.13
  -2  14 -10   19.30    3.71
  -2 -14  10   19.26    3.26
   2 -14 -10   20.87    4.28
   2  14  11   30.67    5.76
  -2  14  11   19.40    3.46
   2  14 -11   26.91    4.89
  -2  14 -11   21.19    3.80
  -2 -14  11    6.70    2.12
   2 -14  11   21.27    3.65
   2 -14 -11   19.61    3.65
   2  14  12   11.03    3.43
   2  14 -12   10.98    3.30
  -2  14 -12    9.49    3.63
  -2 -14  12    2.93    1.54
   2 -14  12    4.91    2.03
   2 -14 -12   13.42    3.93
   2  14  13   25.39    6.77
   2  14 -13   24.16    3.94
  -2  14 -13   30.24    5.01
  -2 -14  13   25.26    3.84
   2 -14  13   41.49    6.30
   2 -14 -13   29.82    5.07
   2  14  14   35.99    6.95
   2  14 -14   44.45    7.46
  -2  14 -14   44.29    7.81
  -2 -14  14   41.00    6.77
   2 -14 -14   48.83    8.15
   2  15   0   25.44    4.96
  -2  15   0   13.54    3.53
  -2 -15   0   17.04    3.14
   2 -15   0   18.57    3.48
   2  15   1   19.48    4.01
   2  15  -1   22.66    4.55
  -2  15  -1   23.69    3.83
  -2 -15   1   28.02    4.42
  -2 -15  -1   18.49    2.98
   2 -15   1   33.59    5.68
   2 -15  -1   27.72    4.89
   2  15  -2    6.30    2.49
  -2  15   2    9.78    3.12
  -2  15  -2   11.25    3.31
  -2 -15   2    6.13    1.91
  -2 -15  -2    9.59    2.53
   2 -15   2    9.62    3.06
   2 -15  -2   11.92    3.80
   2  15   3   20.97    3.93
   2  15  -3   36.56    6.16
  -2  15   3   21.16    3.61
  -2  15  -3   23.07    4.12
  -2 -15   3   20.21    3.17
  -2 -15  -3   18.70    3.07
   2 -15   3   19.35    3.57
   2 -15  -3   16.60    3.84
   2  15   4   10.87    4.59
   2  15  -4   13.85    3.11
  -2  15   4    7.32    2.73
  -2  15  -4   11.69    4.03
  -2 -15   4   14.07    2.84
  -2 -15  -4    8.28    2.40
   2 -15   4   10.20    3.25
   2 -15  -4   12.84    3.85
   2  15   5   35.14    6.57
   2  15  -5   47.14    7.16
  -2  15   5   28.63    4.56
  -2  15  -5   30.33    4.76
  -2 -15   5   30.61    4.24
  -2 -15  -5   24.36    3.64
   2 -15   5   49.59    7.55
   2 -15  -5   30.39    4.73
   2  15   6   23.19    4.91
   2  15  -6   23.80    4.11
  -2  15   6   28.74    4.59
  -2  15  -6   30.13    4.70
  -2 -15   6   25.58    3.89
   2 -15  -6   14.87    3.67
   2  15   7   50.45    8.13
   2  15  -7   32.59    5.10
  -2  15   7   60.46    7.76
  -2  15  -7   53.31    7.22
  -2 -15   7   46.51    6.07
   2 -15   7   42.39    6.51
   2 -15  -7   44.68    6.17
   2  15   8   11.72    2.94
  -2  15   8   12.39    2.88
   2  15  -8    9.91    3.30
  -2  15  -8    4.90    2.11
  -2 -15   8    7.24    1.89
   2 -15   8    2.52    2.03
   2 -15  -8   10.54    2.86
   2  15   9   24.31    7.31
   2  15  -9   41.13    6.95
  -2  15   9   40.02    6.36
  -2  15  -9   25.09    4.81
  -2 -15   9   27.06    4.53
   2 -15   9   32.51    6.19
   2 -15  -9   37.93    6.42
  -3   0   0    0.16    2.64
   3   0   0    0.66    0.55
   3   0   0    1.90    1.19
  -3   0   1 1728.48   36.52
  -3   0   1 1885.45   39.87
  -3   0  -1 1921.46   43.22
   3   0   1 1775.43   37.37
   3   0  -1 1747.03   36.92
   3   0   1 1842.65   38.78
   3   0  -1 1871.62   39.50
  -3   0   2    1.65    0.64
  -3   0  -2    1.36    2.14
  -3   0   2    1.21    5.07
   3   0   2    2.43    0.82
   3   0  -2    2.17    1.01
   3   0   2   -0.16    1.10
   3   0  -2    7.58    2.19
  -3   0   3 1822.69   38.58
  -3   0  -3 1817.49   38.72
  -3   0   3 1905.82   42.61
   3   0   3 1869.41   39.21
   3   0   3 1892.71   42.18
  -3   0   4  194.22    4.73
  -3   0  -4  199.23    6.06
  -3   0   4  151.73    7.85
  -3   0   4  205.52    5.56
   3   0   4  191.08    4.64
   3   0   4  197.33    4.75
  -3   0   5  113.51    7.46
  -3   0  -5  122.31    7.00
  -3   0   5  109.85    5.80
  -3   0   5  117.88    6.55
   3   0   5  121.21    6.27
   3   0   5  118.87    6.21
  -3   0   6  157.00    8.02
  -3   0  -6  165.32    9.05
  -3   0   6  160.65    8.25
   3   0   6  162.22    8.22
  -3   0   6  174.32    5.30
   3   0   6  168.56    8.62
  -3   0   7  428.39    9.38
  -3   0  -7  429.27   10.64
  -3   0   7  415.35    9.19
  -3   0   7  430.91   10.52
   3   0   7  423.15    9.27
  -3   0  -7  424.34    9.23
  -3   0   8  181.56    4.50
  -3   0   8  175.15    4.41
  -3   0   8  182.63    5.88
   3   0   8  181.94    4.56
  -3   0  -8  166.10    4.11
  -3   0   9    9.61    0.61
  -3   0  -9   11.19    2.35
  -3   0   9   16.74    0.96
  -3   0   9   28.55    4.30
   3   0   9   17.96    1.03
  -3   0  -9   16.19    0.98
  -3   0 -10    3.52    2.06
  -3   0  10    5.33    0.73
  -3   0  10    9.64    2.07
   3   0  10    3.72    0.54
  -3   0 -10    5.08    0.70
  -3   0  11   35.33    1.26
  -3   0 -11   33.10    2.85
  -3   0  11   31.79    1.22
  -3   0  11   39.14    5.83
   3   0  11   32.98    1.46
  -3   0 -11   31.07    1.42
  -3   0 -12   67.36    4.72
  -3   0  12   76.95   10.79
   3   0  12   67.84    2.39
  -3   0 -12   64.60    2.32
  -3   0 -13   10.82    3.76
  -3   0  13   15.41    2.82
   3   0  13    8.38    1.36
  -3   0 -13    7.58    0.92
  -3   0 -14   38.41    3.21
  -3   0  14   49.33    8.09
   3   0  14   39.81    3.84
  -3   0 -14   38.31    1.77
  -3   0 -15  276.84   10.04
  -3   0  15  326.08   18.08
   3   0  15  276.84    8.28
  -3   0 -16   14.31    2.66
  -3   0  16    0.80    1.39
   3   0  16    9.75    2.02
  -3   0 -16   13.76    1.49
  -3   0 -17  136.50    7.19
  -3   0  17  136.38   11.99
   3   0  17  127.26    4.31
  -3   0 -18    5.04    3.48
  -3   0  18   -0.67    1.89
   3   0  18    4.18    0.92
  -3   0 -19   72.91    5.93
  -3   0  19   59.33   12.00
   3   0  19   57.58    6.72
  -3   0 -20   68.41    4.88
  -3   0  20   63.67    7.69
   3   0  20   59.89    5.34
  -3   0 -21  268.27   12.12
  -3   0  21  280.76   12.21
  -3   0 -22   48.85    4.08
  -3   0 -23   80.63    5.85
  -3   0 -24   -0.49    2.01
  -3   0 -25   20.35    4.62
  -3   0  25   12.54    3.61
  -3   0 -26   45.32    4.20
  -3   0  26   42.23    7.15
  -3   0 -27    9.70    3.29
  -3   0  27   13.08    4.81
  -3   0 -28   16.08    3.71
  -3   0  28    8.22    2.63
   3   1   0 1200.03   25.82
  -3   1   0 1189.81   25.76
   3  -1   0 1077.91   23.07
   3   1   0 1157.06   24.65
   3  -1   0 1177.66   25.24
   3   1   0 1201.40   25.56
   3   1   1  160.52    8.52
   3   1  -1  162.02    8.49
  -3   1   1  140.72    7.38
  -3   1   1  123.40    6.65
  -3   1  -1  119.50    6.36
  -3  -1   1  159.60    8.32
   3  -1   1  143.49    9.36
   3  -1  -1  132.87    9.57
   3   1   1  153.63   10.21
   3   1  -1  144.08    9.98
   3  -1   1  158.24    8.28
   3  -1  -1  167.52    8.84
   3   1   1  156.30    8.14
   3   1   2   41.38    3.16
   3   1  -2   43.77    7.42
  -3   1   2   34.39    3.20
  -3  -1   2   27.01    4.15
  -3   1   2   30.43    2.04
  -3   1  -2   27.75    2.26
  -3  -1   2   37.29    3.61
   3  -1   2   31.03    3.89
   3   1   2   35.77    3.68
   3   1  -2   33.84    3.42
   3  -1   2   40.12    3.00
   3   1   2   36.13    2.23
   3  -1  -2   40.52    3.28
   3   1   3   96.24    5.54
   3   1  -3  107.66    5.82
  -3   1   3  100.63    5.32
  -3  -1   3   84.66    6.02
  -3   1  -3   86.17    6.04
  -3   1   3  104.10    5.70
   3  -1   3   92.46    4.90
  -3  -1   3  108.78    6.07
   3   1   3   98.14    5.89
   3  -1   3  109.13    5.98
   3   1   3  105.96    5.57
   3  -1  -3  102.44    6.00
   3   1  -4  385.43    8.87
  -3   1   4  342.57    7.71
  -3  -1   4  343.69    7.87
  -3   1  -4  383.26    9.48
  -3   1   4  370.56    8.55
  -3  -1  -4  391.04    9.70
  -3  -1   4  374.27    8.86
   3   1   4  378.29    8.29
   3  -1   4  355.51    8.26
   3   1   4  371.35    8.19
   3  -1  -4  370.67    9.12
  -3   1  -4  366.55    8.31
   3   1  -7   13.36    1.94
  -3   1   7   12.28    1.92
  -3  -1   7   11.49    1.13
  -3   1   7   14.57    1.31
  -3   1  -7   12.14    2.43
  -3   1   7   16.06    2.19
  -3  -1   7   19.66    2.52
   3   1   7   11.76    1.33
   3   1   7   13.09    0.88
   3  -1   7   16.06    1.64
  -3   1  -7   11.20    1.09
   3   1  -9   33.32    2.51
  -3   1   9   30.47    0.95
  -3  -1   9   28.75    1.30
  -3   1   9   29.66    1.12
  -3   1  -9   25.01    3.00
  -3  -1  -9   33.07    4.02
  -3   1   9   38.38    5.45
  -3  -1   9   26.01    3.91
   3   1   9   28.58    1.21
   3  -1   9   30.98    1.69
  -3   1  -9   24.58    1.27
   3   1 -10   95.99    2.71
  -3  -1  10   98.43    2.73
  -3   1 -10  100.56    4.98
  -3  -1 -10   94.27    4.64
  -3   1  10   96.26    7.61
  -3  -1  10  104.50    7.60
   3   1  10  102.89    2.40
   3  -1  10   93.62    2.97
  -3   1 -10   98.51    2.90
   3   1 -11   51.51    3.63
  -3  -1  11   48.22    1.76
  -3   1 -11   56.72    3.75
  -3  -1 -11   49.91    3.37
  -3   1  11   49.95    8.46
  -3  -1  11   53.26    7.35
   3   1  11   50.23    1.90
   3  -1  11   44.12    2.04
  -3   1 -11   53.24    2.28
  -3  -1  13   22.24    0.96
  -3   1 -13   32.97    3.78
  -3  -1 -13   25.91    3.11
  -3   1  13   36.84    3.07
  -3  -1  13   27.68    4.66
   3   1  13   25.81    2.21
   3  -1  13   31.95    1.66
  -3   1 -13   25.43    1.46
  -3  -1 -13   27.58    1.09
  -3  -1  14  347.07    9.42
  -3   1 -14  373.23   12.28
  -3  -1 -14  370.57   11.86
  -3   1  14  384.19   23.96
  -3  -1  14  390.75   21.22
   3   1  14  348.28    9.50
   3  -1  14  368.02   10.41
  -3   1 -14  331.67    9.48
  -3  -1 -14  344.08    9.38
  -3  -1  15  294.39    8.37
  -3   1 -15  324.43   11.28
  -3  -1 -15  308.33   10.89
  -3   1  15  337.51   12.04
  -3  -1  15  327.16   19.43
   3   1  15  295.89    8.58
   3  -1  15  311.29    9.38
  -3   1 -15  285.67    8.66
  -3  -1 -15  293.53    8.53
  -3   1 -16   94.79    5.51
  -3  -1 -16   94.99    5.86
  -3   1  16  108.10   10.81
  -3  -1  16  104.71    8.99
   3   1  16   90.31    2.99
   3  -1  16  110.41    7.41
  -3   1 -17  331.12   11.98
  -3  -1 -17  297.74   10.75
  -3   1  17  320.16   11.54
  -3  -1  17  321.77   11.27
   3   1  17  308.64    9.31
   3  -1  17  315.76   10.11
  -3   1 -18   76.86    5.28
  -3  -1 -18   76.20    5.24
  -3   1  18   78.53    9.72
   3   1  18   68.04    4.36
  -3  -1  18   74.06    7.64
   3  -1  18   84.76    3.98
  -3   1 -19   19.21    3.27
  -3  -1 -19   20.94    3.81
  -3   1  19   24.72    5.34
  -3  -1  19   15.17    3.78
   3  -1  19   14.18    2.74
  -3   1 -20   42.52    4.81
  -3  -1 -20   35.59    3.82
  -3   1  20   27.18    5.83
  -3  -1  20   27.66    5.66
   3  -1  20   29.15    6.04
  -3   1 -21   50.79    4.30
  -3  -1 -21   58.60    5.67
  -3   1  21   56.81    9.16
  -3  -1  21   44.44    8.09
   3  -1  21   45.31    4.32
  -3   1 -22   15.86    4.58
  -3  -1 -22   10.80    3.52
  -3  -1  22   16.46    3.94
  -3   1 -23    6.44    2.36
  -3  -1 -23   19.64    3.92
  -3   1  23   19.28    4.11
  -3  -1  23   20.84    3.32
  -3   1 -24    4.25    2.19
  -3  -1 -24    7.72    2.59
  -3   1  24    4.42    3.25
  -3  -1  24    4.35    2.22
  -3   1 -25   11.00    3.47
  -3  -1 -25   -0.66    1.86
  -3   1  25    3.16    2.31
  -3   1 -26    8.65    3.44
  -3  -1 -26    5.57    2.16
  -3   1  26    4.04    2.17
  -3  -1  26   11.96    4.07
  -3   1 -27   18.70    4.23
  -3  -1 -27   24.49    4.46
  -3   1  27   25.65    4.92
  -3  -1  27   23.39    4.76
  -3   1 -28   -0.64    1.87
  -3  -1 -28    6.12    3.66
  -3   1  28    7.76    3.30
   3   2   0 1588.24   34.00
  -3   2   0 1580.33   33.86
  -3  -2   0 1580.37   33.37
   3   2   0 1542.17   32.55
   3  -2   0 1603.49   34.21
  -3   2   1  979.15   21.03
   3   2   1 1011.36   22.09
   3   2  -1 1079.41   23.38
  -3   2   1 1076.49   23.32
  -3   2  -1 1039.99   22.53
  -3  -2  -1 1014.17   21.54
  -3  -2   1 1041.45   22.29
   3   2   1 1044.35   22.18
   3   2  -1  996.03   21.33
   3  -2   1 1059.00   22.91
   3  -2  -1 1041.85   22.62
  -3   2   2   64.39    4.41
   3   2   2   75.38    8.77
   3   2  -2   72.61    8.43
  -3   2   2   62.42    3.87
  -3   2  -2   44.67    3.31
  -3  -2   2   67.05    5.39
   3   2  -2   50.27    5.24
   3   2   2   70.95    4.29
   3  -2   2   70.62    4.39
   3  -2  -2   65.99    4.10
   3   2   2   65.89    3.61
  -3   2  -2   59.80    3.54
  -3   2   3  259.57    6.11
   3   2   3  281.71    7.26
   3   2  -3  279.37    7.34
  -3   2   3  272.95    6.63
  -3   2  -3  271.76    7.05
  -3  -2   3  285.40    7.41
   3   2   3  262.23    5.86
   3  -2   3  253.65    6.34
   3  -2  -3  241.22    6.68
   3   2   3  273.19    6.14
  -3   2  -3  249.69    6.06
   3   2   4   36.75    5.11
  -3   2   4   24.68    4.12
   3   2  -4   31.29    4.96
   3   2   5  100.22    5.83
  -3   2   5  103.85    5.78
   3   2  -5  100.52    5.51
  -3  -2   5   92.88    5.05
  -3   2   5   96.80    5.15
  -3   2  -5   98.17    5.83
  -3  -2   5  106.76    5.92
   3   2   5   99.68    5.01
   3  -2   5  108.83    6.12
   3   2   5   99.67    5.05
  -3   2  -5   93.03    5.06
   3  -2  -5   97.62    5.76
   3   2   6  172.96    5.38
  -3   2   6  177.21    4.22
   3   2  -6  191.15    4.96
  -3  -2   6  165.92    8.56
  -3   2   6  178.60    4.39
  -3   2  -6  171.89    5.70
  -3  -2   6  189.14    5.47
   3  -2   6  186.54    5.14
  -3   2  -6  161.26    8.32
   3  -2  -6  174.75    5.47
   3   2   7  122.97    4.40
  -3   2   7  124.50    3.24
   3   2  -7  129.95    3.85
  -3  -2   7  117.27    3.41
  -3   2   7  124.37    3.44
  -3   2  -7  125.15    4.71
  -3  -2   7  128.60   10.89
   3  -2   7  121.61    3.93
  -3   2  -7  113.74    3.42
   3  -2  -7  129.68    4.94
  -3   2  -8   13.92    2.38
  -3  -2   8   22.83    3.86
   3  -2  -8   17.94    2.65
   3   2  -9  115.95    3.34
  -3   2   9  125.66    3.01
  -3  -2   9  116.90    3.40
  -3   2   9  124.96    3.03
  -3  -2  -9  124.58    4.93
  -3  -2   9  142.93   11.72
   3  -2   9  119.58    3.81
  -3   2  -9  105.31    3.35
   3  -2  -9  112.83    4.94
   3   2 -10  204.81    6.30
  -3  -2  10  190.00    5.85
  -3   2 -10  211.15    8.54
  -3  -2 -10  193.29    7.64
  -3  -2  10  212.29    7.33
   3  -2  10  192.74    6.26
  -3   2 -10  172.88    5.53
   3  -2 -10  207.64    7.62
   3   2 -11   91.10    3.27
  -3  -2  11   81.44    2.95
  -3   2 -11   94.93    5.10
  -3  -2 -11   93.11    5.16
  -3   2  11   84.58    4.14
  -3  -2  11   89.86    6.70
   3  -2  11   92.52    3.68
  -3   2 -11   84.69    3.28
   3   2 -12   47.27    2.85
  -3  -2  12   49.39    2.05
  -3   2 -12   42.54    3.54
  -3  -2 -12   47.27    3.24
  -3   2  12   49.70    3.32
  -3  -2  12   50.20    5.95
   3  -2  12   51.19    2.65
  -3   2 -12   44.06    2.03
   3   2 -13   85.43    3.23
  -3  -2  13   81.54    2.76
  -3   2 -13   82.24    4.59
  -3  -2 -13   78.02    4.98
  -3   2  13   87.19    5.28
  -3  -2  13   92.17    8.47
   3  -2  13   85.99    3.45
   3   2 -14   14.21    2.29
  -3  -2  14   10.94    0.99
  -3   2 -14    9.38    3.18
  -3  -2 -14   17.22    3.14
  -3   2  14   12.79    2.45
  -3  -2  14   14.66    3.20
   3  -2  14   22.65    2.09
   3   2 -15   81.61    2.78
  -3   2 -15   79.30    4.82
  -3  -2 -15   72.76    5.56
  -3   2  15   93.19    4.68
  -3  -2  15   85.51   10.18
   3  -2  15   86.45    3.60
   3   2 -16  139.61    4.51
  -3   2 -16  143.53    7.11
  -3  -2 -16  157.78    7.73
  -3   2  16  147.73    6.85
  -3  -2  16  147.99   13.32
   3  -2  16  147.64    5.30
   3   2 -17   85.65    2.89
  -3   2 -17   84.68    5.93
  -3  -2 -17  100.78    5.82
  -3   2  17   90.89    5.35
  -3  -2  17   99.36    9.51
   3  -2  17   80.45    3.22
  -3   2 -18  137.04    7.57
  -3  -2 -18  146.28    7.86
  -3   2  18  126.05   10.92
  -3  -2  18  113.77   15.33
   3  -2  18  124.55    6.65
  -3   2 -19    5.22    2.72
  -3  -2 -19    3.92    3.11
  -3   2  19    3.48    1.38
  -3  -2  19    1.19    0.78
   3  -2  19    1.04    1.00
  -3   2 -20   46.96    5.61
  -3  -2 -20   36.97    4.68
  -3   2  20   32.79    4.69
  -3  -2  20   36.21    6.12
   3  -2  20   31.84    5.46
  -3   2 -21   31.39    5.56
  -3  -2 -21   49.13    5.13
  -3  -2  21   30.57    7.44
   3  -2  21   29.23    4.90
  -3   2 -22   78.12    6.01
  -3  -2 -22   84.70    5.25
  -3   2  22   99.61    6.62
  -3  -2  22   63.90   10.87
   3  -2  22   55.41    9.66
  -3   2 -23   25.80    3.69
  -3  -2 -23   40.69    5.06
  -3   2  23   37.57    4.84
  -3  -2  23   30.78    5.86
  -3   2 -24   25.90    4.26
  -3  -2 -24   30.37    4.60
  -3   2  24   21.95    3.25
  -3  -2  24   26.93    5.39
  -3   2 -25   12.81    4.07
  -3  -2 -25   18.65    3.18
  -3   2  25   19.29    3.04
  -3  -2  25    9.72    3.42
  -3   2 -26   18.32    3.27
  -3  -2 -26   15.72    2.95
  -3   2  26   19.74    3.90
  -3   2 -27    8.67    2.94
  -3  -2 -27   15.31    3.28
  -3   2  27    6.04    3.02
  -3  -2  27   14.25    3.97
  -3   2 -28   15.61    3.13
  -3  -2 -28    8.10    2.53
  -3   2  28   14.70    2.99
  -3  -2  28   13.06    4.33
   3   3   0   25.06    2.84
  -3   3   0   21.51    2.28
  -3  -3   0   21.19    2.56
   3   3   0   20.73    1.49
   3  -3   0   17.72    2.32
   3   3   1   55.75    3.81
   3   3  -1   56.77    7.53
  -3   3   1   44.99    2.99
  -3   3  -1   56.79    3.90
  -3  -3  -1   46.83    3.11
  -3  -3   1   63.62    5.52
   3   3  -1   48.80    2.87
   3   3   1   52.61    2.99
   3  -3   1   48.36    3.65
   3  -3  -1   58.60    4.54
   3   3   2   11.43    2.04
   3   3  -2   12.46    2.09
  -3   3   2    6.62    1.30
  -3   3  -2    9.44    2.78
   3  -3  -2    8.38    1.08
  -3  -3  -2   10.03    1.28
  -3  -3   2   11.24    1.72
   3   3  -2   12.97    1.37
   3   3   2    9.97    0.92
   3  -3   2    7.87    1.55
   3  -3  -2    6.02    2.05
   3   3   3   73.18    8.27
   3   3  -3   79.59    7.21
  -3   3   3   62.42    3.91
  -3   3  -3   66.84    4.63
   3  -3  -3   63.95    3.83
  -3  -3  -3   56.10    3.04
  -3  -3   3   77.81    7.27
   3   3   3   69.35    3.61
   3  -3   3   64.18    4.16
   3  -3  -3   64.91    4.47
   3   3   4  172.70    7.16
   3   3  -4  190.06    5.15
  -3   3   4  167.38    8.72
  -3   3  -4  169.76    9.32
  -3  -3   4  165.87    9.44
   3  -3   4  162.39    8.66
   3  -3  -4  170.75    5.30
   3   3   4  163.79    8.22
  -3   3   5   79.78    2.44
   3   3   5  103.33    8.11
   3   3  -5   99.29    3.41
  -3   3   5   83.67    2.77
  -3   3  -5   64.85    3.05
  -3  -3   5   91.89    6.56
   3   3   5   89.70    2.11
   3  -3   5   86.48    3.54
   3   3   5   84.82    2.00
   3  -3  -5   90.93    4.20
  -3   3   6  573.37   13.11
   3   3   6  636.81   15.55
   3   3  -6  615.40   14.54
  -3   3   6  596.89   13.71
  -3   3  -6  605.03   14.87
  -3  -3   6  608.11   15.06
   3  -3   6  611.17   14.57
   3  -3  -6  590.92   14.55
   3   3   7  189.22    5.82
  -3   3   7  180.31    4.48
   3   3  -7  192.96    5.66
  -3   3   7  188.22    4.80
  -3   3  -7  180.33    5.57
  -3  -3   7  192.35    5.74
   3  -3   7  201.25    5.75
   3  -3  -7  196.49    6.39
   3   3   8  229.81    9.55
   3   3  -8  252.31    6.56
  -3  -3   8  195.29    5.17
  -3   3   8  237.35    5.67
  -3   3  -8  228.70    7.22
  -3  -3   8  228.88    6.68
   3  -3   8  244.55    6.84
   3  -3  -8  244.69    7.39
   3   3   9  202.03    7.06
  -3   3   9  202.56    5.81
   3   3  -9  195.68    7.20
  -3  -3   9  168.11    5.36
  -3   3   9  202.89    5.85
  -3   3  -9  209.19    7.73
  -3  -3   9  191.28    8.34
   3  -3   9  205.64    6.69
   3  -3  -9  206.16    7.49
   3   3  10   95.45    4.53
   3   3 -10   88.82    3.74
  -3  -3  10   78.33    2.97
  -3   3 -10   82.80    4.67
  -3  -3  10   83.30    5.77
   3   3  11  273.89    9.31
   3   3 -11  265.42    8.45
  -3  -3  11  238.99    7.33
  -3   3 -11  252.33    8.66
  -3  -3  11  257.32    8.67
   3  -3  11  265.06    8.36
   3   3 -12  432.35   12.24
  -3  -3  12  356.37   10.05
  -3   3 -12  423.53   13.07
  -3  -3 -12  434.72   13.44
  -3  -3  12  416.92   13.87
   3  -3  12  413.96   11.94
   3  -3 -12  423.43   13.35
   3   3 -13  174.24    5.71
  -3  -3  13  153.55    4.87
  -3   3 -13  146.34    6.15
  -3  -3 -13  169.12    8.00
  -3  -3  13  166.18    6.41
   3  -3  13  172.49    5.70
   3  -3 -13  170.08    7.55
   3   3 -14  643.97   18.65
  -3  -3  14  549.67   15.88
  -3   3 -14  659.53   20.50
  -3  -3 -14  632.61   19.58
  -3  -3  14  648.58   20.05
   3  -3  14  646.36   19.12
   3  -3 -14  651.53   20.09
   3   3 -15   70.11    5.45
  -3  -3  15   52.04    4.13
  -3   3 -15   60.80    5.94
  -3  -3 -15   76.38    5.64
  -3  -3  15   61.74    8.15
   3  -3  15   76.80    3.39
   3  -3 -15   70.61    6.85
  -3   3 -16   53.48    5.74
  -3  -3 -16   46.42    4.75
  -3  -3  16   51.72    7.43
   3  -3  16   50.27    4.37
   3  -3 -16   54.80    7.23
   3   3 -17   19.06    2.42
  -3   3 -17   14.02    3.79
  -3  -3 -17   11.51    2.75
  -3  -3  17   23.18    4.33
   3  -3  17   23.38    3.25
   3  -3 -17   25.00    5.19
   3   3 -18  288.17    9.91
  -3   3 -18  317.56   12.89
  -3  -3 -18  286.89   11.34
  -3  -3  18  282.97   11.21
   3  -3  18  282.29   10.29
   3  -3 -18  295.96   11.89
  -3   3 -19    7.65    2.95
  -3  -3 -19    3.57    2.55
  -3  -3  19    1.49    1.29
   3  -3  19    2.88    1.03
  -3   3 -20  188.50    9.77
  -3  -3 -20  187.49    9.15
  -3  -3  20  168.09   10.15
   3  -3  20  173.94   12.93
  -3   3 -21   20.31    4.20
  -3  -3 -21   31.80    4.79
  -3  -3  21   34.19    4.02
   3  -3  21   26.16    5.21
  -3   3 -22    1.49    2.24
  -3  -3 -22    2.36    1.95
  -3  -3  22    3.23    1.48
   3  -3  22    1.93    0.91
  -3   3 -23   65.85    6.68
  -3  -3 -23   74.67    7.10
  -3  -3  23   68.59    9.03
   3  -3  23   46.47    7.28
  -3   3 -24    6.52    2.43
  -3  -3 -24    2.97    2.57
  -3  -3  24    6.06    2.13
  -3   3 -25   10.07    3.42
  -3  -3 -25    7.85    2.53
  -3  -3  25    6.70    2.48
   3  -3 -25   16.76    4.75
  -3   3 -26    7.27    3.25
  -3  -3 -26    5.14    2.87
  -3  -3  26    3.18    2.78
   3  -3 -26   12.30    4.08
  -3   3 -27   12.17    3.67
  -3  -3 -27   16.48    3.06
   3  -3 -27    8.84    3.07
  -3   3 -28    2.98    2.00
  -3  -3 -28    1.64    1.76
  -3  -3  28    3.90    1.94
   3  -3 -28    5.29    2.88
   3   4   0  711.32   18.59
  -3   4   0  758.74   17.99
  -3  -4   0  741.16   17.10
   3   4   0  682.39   15.69
   3  -4   0  720.13   17.33
   3   4   1  490.91   12.41
   3   4  -1  487.27   12.14
  -3   4   1  493.74   12.03
  -3   4  -1  478.69   11.88
  -3  -4  -1  463.70   10.87
  -3  -4   1  489.94   11.68
   3   4  -1  477.79   11.25
   3   4   1  460.37   10.73
   3  -4   1  480.16   12.09
   3  -4  -1  477.83   12.08
   3   4   2  208.58    6.14
   3   4  -2  205.32    6.15
  -3   4   2  197.76    5.49
  -3   4  -2  211.99    6.28
  -3  -4  -2  190.47    5.26
  -3  -4   2  208.75    5.67
   3   4  -2  191.04    5.12
   3   4   2  191.11    4.77
   3  -4   2  205.88    6.55
   3  -4  -2  206.01    6.45
   3   4   3  861.16   20.86
   3   4  -3  859.07   21.04
  -3   4   3  836.05   19.32
  -3   4  -3  841.83   20.04
   3  -4  -3  739.99   17.06
  -3  -4  -3  828.50   18.64
  -3  -4   3  844.09   19.77
   3   4   3  868.89   19.52
   3  -4   3  817.85   19.38
   3  -4  -3  830.22   19.72
   3   4  -4   18.76    3.15
  -3   4   4    7.98    1.10
  -3   4  -4    8.74    2.28
   3  -4  -4    5.46    0.87
  -3  -4   4   13.21    2.39
   3   4   4   -0.38    0.26
   3  -4   4   14.15    2.41
   3  -4  -4    6.13    2.32
   3   4   5  288.31    8.02
   3   4  -5  279.59    7.62
  -3   4   5  275.02    6.99
  -3   4  -5  298.52    8.53
   3  -4  -5  272.80    6.74
  -3  -4   5  302.92    8.03
   3  -4   5  279.31    7.64
   3   4   5  286.85    6.50
   3  -4  -5  294.46    8.90
   3   4   6   92.01    6.31
   3   4  -6   79.48    3.14
  -3   4   6   89.65    2.93
  -3   4  -6   58.98    3.29
   3  -4  -6   84.36    2.73
  -3  -4   6   75.08    2.94
   3  -4   6   83.58    3.97
   3  -4  -6   89.86    4.75
   3   4   7  412.52   12.51
   3   4  -7  406.23   11.15
  -3   4   7  444.18   10.38
  -3   4  -7  451.70   11.98
   3  -4  -7  422.34    9.88
  -3  -4   7  459.07   11.68
   3  -4   7  464.47   11.75
   3  -4  -7  443.35   11.95
   3   4   8   66.94    8.75
   3   4  -8   63.84    5.95
  -3   4   8   53.50    2.14
  -3   4  -8   44.93    3.39
   3  -4  -8   53.46    2.07
  -3  -4   8   46.63    6.57
   3  -4   8   56.05    3.51
   3  -4  -8   58.91    4.06
  -3   4   9   -0.14    0.16
   3   4  10   10.68    2.66
   3   4 -10   15.03    1.90
  -3  -4  10   15.71    3.13
   3  -4  10   20.64    2.20
   3  -4 -10   17.45    3.82
   3   4  11   62.04    8.28
   3   4 -11   51.38    2.59
  -3   4 -11   64.01    4.32
  -3  -4  11   51.94    8.27
   3  -4  11   46.85    2.60
   3  -4 -11   62.59    4.68
   3   4 -12    7.02    1.38
  -3   4 -12    8.56    2.93
  -3  -4  12    9.89    3.02
   3  -4  12    6.28    1.67
   3  -4 -12    6.96    1.61
   3   4  13   72.24    3.92
   3   4 -13   76.45    3.27
  -3   4 -13  110.50    6.20
  -3  -4  13   97.02    9.27
   3  -4  13   73.70    3.42
   3  -4 -13   83.29    5.94
   3   4  14   51.73    5.23
   3   4 -14   41.75    3.74
  -3   4 -14   40.73    4.63
  -3  -4  14   48.88    6.24
   3  -4  14   46.42    4.24
   3  -4 -14   26.69    3.20
   3   4 -15    9.16    1.43
  -3   4 -15    1.94    3.18
  -3  -4 -15    7.63    2.72
  -3  -4  15   18.23    2.87
   3  -4  15    8.48    2.31
   3  -4 -15    6.50    3.02
   3   4 -16   21.57    2.78
  -3   4 -16   24.40    4.46
  -3  -4 -16   17.20    3.72
  -3  -4  16   20.23    4.51
   3  -4  16   18.81    2.93
   3  -4 -16   28.81    5.14
   3   4 -17   33.59    4.04
  -3   4 -17   29.88    5.24
  -3  -4 -17   29.21    4.35
  -3  -4  17   30.83    6.07
   3  -4  17   39.21    4.92
   3  -4 -17   31.85    4.64
   3   4 -18   18.56    2.11
  -3   4 -18   13.52    4.24
  -3  -4 -18   19.37    3.88
  -3  -4  18   21.29    4.68
   3  -4  18   21.36    2.68
   3  -4 -18   17.03    3.65
   3   4 -19  227.64    9.13
  -3   4 -19  236.64   11.30
  -3  -4 -19  211.30   10.08
  -3  -4  19  236.36   10.87
   3  -4  19  231.93    9.70
   3  -4 -19  234.48   10.89
  -3   4 -20   34.33    3.94
  -3  -4 -20   39.44    3.71
  -3  -4  20   28.25    5.26
   3  -4  20   32.13    2.59
   3  -4 -20   33.45    4.38
  -3   4 -21   81.49    6.08
  -3  -4 -21   70.75    5.64
  -3  -4  21   62.62    7.61
   3  -4  21   56.25    3.27
   3  -4 -21   59.44    4.47
  -3   4 -22   24.03    4.28
  -3  -4 -22   22.21    3.39
  -3  -4  22   22.35    3.93
   3  -4  22   16.14    3.90
   3  -4 -22   15.34    3.67
  -3   4 -23   21.69    3.48
  -3  -4 -23   28.02    4.20
  -3  -4  23   26.89    4.89
   3  -4  23   24.22    4.26
   3  -4 -23   21.27    3.99
  -3   4 -24   11.97    3.43
  -3  -4 -24    9.03    2.64
  -3  -4  24    8.81    3.84
   3  -4  24    4.64    1.70
   3  -4 -24    7.41    3.81
  -3   4 -25   76.03    6.18
  -3  -4 -25   80.59    6.07
  -3  -4  25   83.28   11.25
   3  -4 -25   77.39    5.83
  -3   4 -26   11.99    3.76
  -3  -4 -26    9.57    2.86
  -3  -4  26   10.48    3.61
   3  -4 -26   10.82    3.59
  -3   4 -27   76.97   12.01
  -3  -4 -27   61.61    7.91
  -3  -4  27   58.96   12.96
   3  -4 -27   58.95    8.19
   3   5   0  239.40    6.78
  -3   5   0  234.89    6.59
  -3  -5   0  246.13    6.38
   3   5   0  219.20    5.66
   3  -5   0  230.76    7.20
   3   5   1   68.10    9.90
   3   5  -1   56.17    5.13
  -3   5   1   53.57    2.50
  -3   5  -1   57.58    3.00
  -3  -5  -1   68.13    4.96
  -3  -5   1   55.30    3.09
   3   5  -1   53.49    2.05
   3   5   1   59.55    2.19
   3  -5   1   59.13    3.74
   3  -5  -1   65.26    3.98
   3   5   2  306.42    9.66
   3   5  -2  317.24    8.76
  -3   5   2  312.19    8.25
  -3   5  -2  310.56    8.44
  -3  -5  -2  298.38    7.25
  -3  -5   2  301.04    7.76
   3   5   2  298.99    7.23
   3  -5   2  309.61    8.88
   3  -5  -2  307.15    8.66
   3   5   3  197.25   13.45
   3   5  -3  201.12    5.85
  -3   5   3  189.27    5.41
  -3   5  -3  197.82    6.28
  -3  -5  -3  192.46    4.83
  -3  -5   3  186.49    5.44
   3   5   3  189.08    4.80
   3  -5   3  174.11    6.13
   3  -5  -3  186.48    6.72
   3   5   4  165.30   11.01
   3   5  -4  124.76    5.87
  -3   5   4  140.45    4.42
  -3   5  -4  147.60    5.51
  -3  -5  -4  143.91    3.70
  -3  -5   4  146.92    4.56
   3  -5   4  143.62    5.34
   3  -5  -4  139.73    5.67
   3   5   5  194.73    6.95
   3   5  -5  189.02    6.53
  -3   5   5  191.58    6.14
  -3   5  -5  168.76    6.45
   3  -5  -5  178.18    5.78
  -3  -5  -5  173.73    5.06
  -3  -5   5  175.75    6.00
   3  -5   5  193.27    6.80
   3  -5  -5  183.52    7.03
   3   5   6  101.19   11.38
   3   5  -6   93.23    6.12
  -3   5   6   99.44    4.05
  -3   5  -6   91.64    4.79
   3  -5  -6   79.98    3.19
  -3  -5   6   83.56    3.60
   3  -5   6  102.72    4.92
   3  -5  -6   93.21    5.32
   3   5   6   99.73    2.92
   3   5   7  183.59   15.77
   3   5  -7  192.06    6.67
  -3   5   7  179.11    5.69
  -3   5  -7  194.19    8.51
   3  -5  -7  162.81    5.23
  -3  -5   7  178.31    6.23
   3  -5   7  185.44    6.94
   3  -5  -7  185.14    7.56
   3   5   8  472.75   15.16
   3   5  -8  466.21   13.99
  -3   5   8  436.09   12.58
  -3   5  -8  452.17   14.55
   3  -5  -8  422.42   12.23
  -3  -5   8  437.17   13.45
   3  -5   8  440.89   13.56
   3   5   9  180.28    6.70
   3   5  -9  181.44    6.24
  -3   5   9  185.02    5.53
  -3   5  -9  150.27    6.79
   3  -5  -9  166.22    5.01
  -3  -5   9  165.69    5.93
   3  -5   9  198.79    6.76
   3  -5  -9  187.86    7.83
   3   5  10  433.96   13.15
   3   5 -10  445.43   12.94
  -3   5  10  429.44   11.75
  -3   5 -10  429.81   13.19
   3  -5 -10  398.74   10.92
  -3  -5  10  411.86   12.52
   3  -5  10  427.37   12.72
   3  -5 -10  425.44   13.14
   3   5  11  353.68   25.23
   3   5 -11  320.52   10.10
  -3   5  11  310.46    8.95
   3  -5 -11  298.63    8.63
  -3  -5  11  324.81   20.75
   3  -5  11  325.70   10.75
   3  -5 -11  330.61   11.60
   3   5 -12   66.36    3.19
  -3  -5  12   80.12    8.98
   3  -5  12   85.66    4.14
   3  -5 -12   57.13    3.95
   3   5  13  265.48    9.37
   3   5 -13  254.90    8.48
  -3   5 -13  273.07   10.24
  -3  -5  13  260.54    9.34
   3  -5  13  254.43    8.99
   3  -5 -13  231.94    9.38
   3   5  14   17.99    2.93
   3   5 -14   17.18    2.20
  -3   5 -14    4.76    3.44
  -3  -5  14   17.73    3.43
   3  -5  14   16.89    2.49
   3  -5 -14   21.96    4.58
   3   5  15   91.64    5.12
   3   5 -15   99.96    4.84
  -3   5 -15   92.63    5.73
  -3  -5  15   96.52    8.43
   3  -5  15   93.98    4.92
   3  -5 -15   90.11    5.56
   3   5  16   35.87    5.21
   3   5 -16   31.00    4.04
  -3   5 -16   34.39    5.29
  -3  -5  16   25.26    4.14
   3  -5  16   23.75    3.43
   3  -5 -16   35.91    5.77
   3   5 -17   38.89    4.03
  -3   5 -17   28.32    4.48
  -3  -5 -17   31.25    4.55
  -3  -5  17   33.77    6.49
   3  -5  17   31.65    3.77
   3  -5 -17   50.46    6.71
   3   5 -18   14.68    2.25
  -3   5 -18   14.43    3.46
  -3  -5 -18   10.19    2.27
  -3  -5  18   16.69    3.19
   3  -5  18   20.56    3.03
   3  -5 -18   19.34    4.21
   3   5 -19   17.49    2.34
  -3   5 -19    9.65    2.93
  -3  -5 -19   20.21    4.04
  -3  -5  19   18.13    4.83
   3  -5  19   20.02    2.88
   3  -5 -19   21.63    4.97
  -3   5 -20   78.88    5.28
  -3  -5 -20   64.51    4.61
  -3  -5  20   67.70   11.20
   3  -5  20   65.02    4.09
   3  -5 -20   62.02    5.50
  -3   5 -21   19.48    3.57
  -3  -5 -21   21.88    3.56
  -3  -5  21   20.84    4.54
   3  -5  21   26.48    2.91
   3  -5 -21   19.06    4.06
  -3   5 -22   41.11    4.95
  -3  -5 -22   26.35    3.79
  -3  -5  22   22.93    4.00
   3  -5  22   27.99    3.40
   3  -5 -22   20.76    3.96
  -3   5 -23   29.30    4.21
  -3  -5 -23   20.62    5.02
   3  -5  23   12.30    2.65
   3  -5 -23   18.94    4.57
  -3   5 -24   35.10    4.77
  -3  -5 -24   33.72    3.38
  -3  -5  24   19.53    4.78
   3  -5  24   21.06    4.57
   3  -5 -24   26.73    3.97
  -3   5 -25    3.25    2.14
  -3  -5 -25   16.60    3.05
  -3  -5  25    4.98    2.08
   3  -5  25    3.93    1.55
   3  -5 -25   13.51    3.95
  -3   5 -26   29.44    5.00
  -3  -5 -26   19.59    3.74
  -3  -5  26   16.01    3.48
   3  -5 -26   16.23    4.16
  -3   5 -27   11.95    3.38
  -3  -5 -27   14.12    3.94
  -3  -5  27   25.32    6.28
   3  -5 -27    9.67    2.94
   3   6   0   42.67    6.60
  -3   6   0   33.72    2.85
  -3  -6   0   30.55    4.23
   3   6   0   26.43    1.58
   3  -6   0   42.24    3.83
   3   6   1   45.95    5.66
   3   6  -1   39.81    4.20
  -3   6   1   40.61    2.73
  -3   6  -1   39.40    3.17
  -3  -6  -1   36.46    1.79
  -3  -6   1   33.89    3.09
   3   6   1   38.76    1.97
   3  -6   1   40.72    3.25
   3  -6  -1   36.29    2.89
   3   6   2  200.05   11.45
   3   6  -2  190.91    6.69
  -3   6   2  193.83    6.54
  -3   6  -2  193.85    7.02
  -3  -6  -2  190.61    5.99
  -3  -6   2  202.72    6.78
   3   6   2  189.08    5.96
   3  -6   2  184.91    7.23
   3  -6  -2  207.99    8.40
   3   6   3  284.49    9.40
   3   6  -3  285.68    9.69
  -3   6   3  253.52    8.10
  -3   6  -3  270.17    9.28
  -3  -6  -3  284.26    8.46
  -3  -6   3  279.86    8.80
   3   6   3  281.44    8.35
   3  -6   3  286.98    9.61
   3  -6  -3  284.81   10.19
   3   6   4  327.59   10.56
   3   6  -4  311.71   10.08
  -3   6   4  312.43    9.72
  -3   6  -4  313.49   10.25
  -3  -6  -4  318.71    9.28
  -3  -6   4  319.09    9.98
   3  -6   4  319.59   10.77
   3   6   4  307.47    8.98
   3  -6  -4  293.62   10.35
   3   6   5  256.05   20.07
   3   6  -5  238.54    8.39
  -3   6   5  235.45    7.44
  -3   6  -5  225.25    7.90
  -3  -6   5  246.88    8.08
  -3  -6  -5  238.68    7.00
   3  -6   5  235.11    8.17
   3  -6  -5  242.57    8.68
   3   6   6  282.15   18.11
   3   6  -6  255.16    8.19
  -3   6   6  248.28    7.65
  -3   6  -6  246.01    8.94
  -3  -6  -6  234.71    6.58
  -3  -6   6  238.87    8.39
   3  -6   6  254.84    8.81
   3   6   7  120.18   11.65
   3   6  -7  117.89    4.78
  -3   6   7  128.28    4.39
  -3   6  -7  129.66    6.41
   3  -6  -7  122.91    4.13
  -3  -6  -7  116.90    3.31
  -3  -6   7  140.09   13.62
   3  -6   7  122.21    5.55
   3   6   7  127.18    3.62
   3   6   8  317.54   10.56
   3   6  -8  312.82    9.60
  -3   6   8  320.20    9.26
  -3   6  -8  330.06   11.55
   3  -6  -8  289.49    8.37
  -3  -6   8  316.64    9.82
   3  -6   8  307.24    9.77
   3  -6  -8  323.02   10.96
   3   6   9   73.80   10.40
   3   6  -9   74.44    3.63
  -3   6   9   71.68    2.81
  -3   6  -9   77.66    5.76
   3  -6  -9   65.82    2.58
  -3  -6   9   84.94    8.47
   3  -6   9   65.53    3.87
   3  -6  -9   72.86    5.32
   3   6  10   92.61    9.25
   3   6 -10   71.22    3.63
  -3   6  10   79.49    2.98
  -3   6 -10   78.14    5.05
  -3  -6  10   95.63    8.69
   3  -6  10   83.94    4.53
   3  -6 -10   69.75    5.11
   3   6 -11    9.99    2.00
  -3   6  11    6.55    1.01
   3  -6 -11    7.21    1.00
  -3  -6  11   12.44    2.17
   3  -6  11   14.50    2.80
   3  -6 -11    8.32    4.12
   3   6  12    9.86    1.76
  -3   6  12   13.99    1.37
   3   6 -12   11.74    1.91
  -3   6 -12    1.62    3.80
  -3  -6  12   16.68    3.43
   3  -6  12   15.61    2.87
   3  -6 -12   10.92    2.96
   3   6  13  118.66   12.02
  -3   6  13   85.15    3.25
   3   6 -13  112.34    4.69
  -3   6 -13   86.05    4.70
  -3  -6  13   96.67   10.81
   3  -6  13  114.18    5.42
   3  -6 -13   98.39    6.73
   3   6  14    6.36    2.34
   3   6 -14   12.45    2.36
  -3   6 -14    4.15    3.28
  -3  -6  14   11.42    2.50
   3  -6  14    8.22    2.50
   3  -6 -14   10.22    4.02
   3   6  15   77.10   10.09
   3   6 -15   80.94    4.03
  -3   6 -15   79.07    5.36
  -3  -6  15   79.86   10.94
   3  -6  15   76.22    4.48
   3  -6 -15   81.09    6.41
   3   6  16   16.90    3.47
   3   6 -16   10.44    1.72
  -3   6 -16    7.57    4.54
  -3  -6  16   11.41    2.80
   3  -6  16    6.62    1.26
   3  -6 -16   11.46    4.19
   3   6  17   36.30    3.82
   3   6 -17   40.57    3.18
  -3   6 -17   39.44    4.68
  -3  -6  17   38.03    4.42
   3  -6  17   38.72    2.89
   3  -6 -17   33.32    5.56
   3   6  18    8.42    2.62
   3   6 -18    4.53    1.20
  -3   6 -18    3.08    2.69
  -3  -6  18    5.95    1.90
   3  -6  18    4.02    1.64
   3  -6 -18   10.38    4.37
   3   6 -19   22.53    2.21
  -3   6 -19   22.20    3.82
  -3  -6 -19   21.10    3.10
  -3  -6  19   32.73    5.44
   3  -6  19   20.40    2.16
   3  -6 -19   27.69    3.67
   3   6 -20   41.06    2.72
  -3   6 -20   40.80    5.33
  -3  -6 -20   32.35    3.70
  -3  -6  20   44.30    6.08
   3  -6  20   46.97    3.58
   3  -6 -20   44.69    4.46
  -3   6 -21   27.74    4.12
  -3  -6 -21   21.19    3.36
  -3  -6  21   18.37    4.50
   3  -6  21   23.39    2.92
   3  -6 -21   18.18    4.37
  -3   6 -22   34.82    4.88
  -3  -6 -22   30.99    4.08
  -3  -6  22   36.98    7.99
   3  -6  22   37.30    3.91
   3  -6 -22   29.76    4.76
  -3   6 -23   28.58    3.44
  -3  -6 -23   17.31    2.92
  -3  -6  23   25.20    5.88
   3  -6  23   19.66    2.40
   3  -6 -23   30.60    3.28
  -3   6 -24   15.33    3.34
  -3  -6 -24    3.09    2.06
  -3  -6  24   21.11    3.86
   3  -6  24    8.10    2.40
   3  -6 -24   20.87    3.60
  -3   6 -25   22.47    4.37
  -3  -6 -25   21.44    4.28
  -3  -6  25   11.74    3.08
   3  -6  25   16.18    3.89
   3  -6 -25   18.47    4.06
  -3   6 -26   14.20    3.73
  -3  -6 -26    8.65    3.01
  -3  -6  26   15.92    4.37
   3  -6 -26   28.62    5.60
   3   7   0  209.57    9.67
  -3   7   0  230.28    7.97
  -3  -7   0  206.29    6.68
   3  -7   0  223.09    8.76
   3   7   1  398.26   12.44
   3   7  -1  388.87   12.03
  -3   7   1  383.30   11.56
  -3   7  -1  369.68   11.33
  -3  -7   1  345.86   10.22
  -3  -7  -1  368.29   10.66
   3  -7   1  398.66   13.39
   3  -7  -1  365.30   11.83
   3   7   2   52.60    5.04
   3   7  -2   52.84    7.63
  -3   7   2   43.35    2.94
  -3   7  -2   45.73    3.44
  -3  -7   2   44.24    4.13
  -3  -7  -2   50.03    3.89
   3   7   2   36.61    1.78
   3  -7   2   43.30    3.81
   3  -7  -2   53.12    4.62
   3   7   3    9.88    2.58
   3   7  -3    9.75    1.60
  -3   7   3    8.09    1.91
  -3   7  -3    8.48    3.01
  -3  -7   3    7.20    1.07
  -3  -7  -3    3.08    1.27
   3   7   3    5.12    0.80
   3  -7   3    7.53    2.44
   3  -7  -3    9.49    2.86
   3   7   4  301.21   10.01
   3   7  -4  263.55    8.78
  -3   7   4  273.14    8.58
  -3   7  -4  283.59    9.33
  -3  -7   4  293.15    9.10
  -3  -7  -4  272.72    7.90
   3  -7   4  282.01    9.64
   3   7   4  258.60    7.51
   3  -7  -4  273.91    9.53
   3   7   5   15.38    2.50
   3   7  -5    9.42    2.00
  -3   7   5   14.40    1.77
  -3   7  -5   11.86    2.87
  -3  -7   5    8.11    1.65
  -3  -7  -5    1.34    0.74
   3  -7   5    9.08    2.39
   3   7   5    7.19    0.80
   3   7   6  471.13   14.94
   3   7  -6  478.27   14.77
  -3   7   6  441.55   13.28
  -3   7  -6  464.71   15.15
  -3  -7   6  484.70   15.17
  -3  -7  -6  462.66   13.58
   3  -7   6  498.57   15.67
   3   7   8  365.37   13.96
   3   7  -8  381.63   12.31
  -3   7   8  385.52   11.63
  -3   7  -8  385.47   13.16
  -3  -7   8  384.07   12.39
  -3  -7  -8  371.36   10.65
   3  -7   8  381.07   12.65
   3  -7  -8  365.23   12.17
   3   7   8  347.80    9.97
   3   7   9   68.20    7.61
   3   7  -9   79.40    4.15
  -3   7   9   80.60    3.38
  -3   7  -9   83.82    6.07
  -3  -7  -9   67.24    4.97
  -3  -7   9   82.44    8.00
   3  -7   9   73.15    9.03
   3  -7  -9   77.50    5.15
   3   7 -10  550.90   17.21
  -3   7  10  564.56   16.89
  -3   7 -10  570.14   18.58
  -3  -7  10  569.89   18.08
   3  -7  10  559.84   17.62
   3  -7 -10  484.72   16.33
   3   7  11  112.96   13.57
   3   7 -11  104.18    4.47
  -3   7  11  105.54    3.73
  -3   7 -11   82.64    5.17
  -3  -7  11  110.05    8.21
   3  -7  11  122.46    5.93
   3  -7 -11  104.92    5.74
   3   7  12  379.51   18.46
   3   7 -12  378.93   15.56
  -3   7  12  356.91   14.05
  -3  -7  12  371.35   16.11
   3  -7  12  371.47   15.49
   3  -7 -12  364.49   16.21
   3   7  13   92.75   10.24
   3   7 -13   99.34    5.04
  -3   7 -13   71.08    4.97
  -3  -7  13  108.72   10.15
   3  -7  13   92.61    5.19
   3  -7 -13   90.40    5.74
   3   7  14  221.05    9.07
   3   7 -14  228.54    8.73
  -3   7 -14  215.42    9.59
  -3  -7  14  232.12   16.97
   3  -7  14  225.60    9.02
   3  -7 -14  218.81    9.36
   3   7  15   55.10    9.65
   3   7 -15   53.85    3.60
  -3   7 -15   45.83    5.12
  -3  -7  15   46.79    6.52
   3  -7  15   53.33    3.90
   3  -7 -15   50.50    4.74
   3   7  16  139.22   14.44
   3   7 -16  148.50    6.70
  -3   7 -16  132.04    7.73
  -3  -7  16  137.61    9.91
   3  -7  16  142.42    6.88
   3  -7 -16  136.41    8.10
   3   7  17   19.99    7.29
   3   7 -17   20.56    3.10
  -3   7 -17   19.71    3.95
  -3  -7  17   15.19    2.95
   3  -7  17   24.61    3.67
   3  -7 -17   27.35    4.70
   3   7  18   44.14    3.48
   3   7 -18   49.47    3.64
  -3   7 -18   51.83    4.26
  -3  -7  18   44.35    6.68
   3  -7 -18   39.78    4.30
   3   7  19   51.25    4.90
   3   7 -19   66.96    5.75
  -3   7 -19   54.97    5.54
  -3  -7  19   52.94   11.03
   3  -7  19   67.17    5.80
   3  -7 -19   58.39    6.78
   3   7 -20   17.28    3.09
  -3   7 -20   12.40    3.20
  -3  -7  20   20.43    4.58
   3  -7  20   22.50    3.00
   3  -7 -20   15.18    3.80
  -3   7 -21   15.92    3.53
  -3  -7 -21   22.52    3.65
  -3  -7  21   22.54    5.00
   3  -7  21   24.23    3.09
   3  -7 -21   17.43    4.14
  -3   7 -22   21.81    3.08
  -3  -7 -22   10.31    2.96
  -3  -7  22   18.21    3.49
   3  -7  22   16.85    4.06
   3  -7 -22   22.28    2.99
  -3   7 -23    8.03    3.38
  -3  -7 -23    1.37    1.93
  -3  -7  23    5.41    1.86
   3  -7  23    8.98    2.50
   3  -7 -23   12.39    3.49
  -3   7 -24    4.61    3.09
  -3  -7 -24    5.03    2.14
  -3  -7  24    5.30    3.19
   3  -7  24    8.64    2.32
   3  -7 -24    6.35    2.57
  -3   7 -25   17.86    3.86
  -3  -7 -25    6.26    2.18
  -3  -7  25   13.63    3.99
   3  -7  25   15.68    3.37
   3  -7 -25   16.31    3.27
   3   8   0   57.88    6.24
  -3   8   0   63.58    4.29
  -3  -8   0   52.23    3.29
   3  -8   0   62.50    5.33
   3   8   1  695.52   21.22
   3   8  -1  662.02   20.80
  -3   8   1  660.99   19.84
  -3   8  -1  667.85   20.14
  -3  -8  -1  602.33   17.73
  -3  -8   1  637.17   18.97
   3  -8   1  694.36   21.57
   3  -8  -1  678.51   21.00
   3   8   2  130.58    9.97
   3   8  -2  117.79    9.68
  -3   8   2  115.06    5.06
  -3   8  -2  120.49    5.79
  -3  -8   2  123.15    9.30
  -3  -8  -2   98.00    4.63
   3  -8   2  113.78    5.84
   3  -8  -2  117.27    5.85
   3   8   3   95.23    9.23
   3   8  -3   92.89    9.58
  -3   8   3   87.61    4.23
  -3   8  -3   86.02    4.75
  -3  -8   3   90.88    7.10
  -3  -8  -3   83.64    3.35
   3  -8   3   93.54    5.03
   3  -8  -3   86.27    5.65
   3   8   4  112.87    8.17
   3   8  -4  100.99    4.68
  -3   8   4   99.08    4.33
  -3   8  -4  119.68    5.39
  -3  -8   4  103.35    8.01
  -3  -8  -4  102.32    3.90
   3  -8   4  114.37    6.27
   3   8   5  272.71    9.84
   3   8  -5  287.22   10.43
  -3   8   5  257.55    8.78
  -3   8  -5  271.77    9.80
  -3  -8   5  282.64   10.90
  -3  -8  -5  266.86    8.39
   3  -8   5  249.00    9.33
   3  -8  -5  268.85    9.93
   3   8   6   46.08    6.95
   3   8  -6   45.23    4.74
  -3   8   6   44.44    4.23
  -3   8  -6   36.66    4.45
  -3  -8   6   39.74    4.48
  -3  -8  -6   34.32    2.89
   3  -8   6   41.54    4.98
   3  -8  -6   40.16    4.80
   3   8   7  299.24   10.47
   3   8  -7  332.38   11.36
  -3   8   7  316.07   10.16
  -3   8  -7  322.89   11.76
  -3  -8   7  292.90   10.99
  -3  -8  -7  309.78    9.45
   3  -8   7  304.28   10.61
   3  -8  -7  317.67   12.05
   3   8   8   29.86    5.36
   3   8  -8   24.66    3.12
  -3   8   8   23.92    2.46
  -3   8  -8   17.52    3.15
  -3  -8   8   24.76    3.56
  -3  -8  -8   19.00    1.68
   3  -8   8   30.49    4.13
   3  -8  -8   17.21    3.16
   3   8   9   61.96    7.62
   3   8  -9   57.58    4.01
  -3   8   9   48.71    4.83
  -3   8  -9   56.60    5.31
  -3  -8   9   63.54    7.12
  -3  -8  -9   54.51    2.47
   3  -8   9   56.39    4.40
   3  -8  -9   57.72    6.16
   3   8 -10   30.31    4.49
  -3   8  10   36.28    4.43
  -3   8 -10   40.39    5.69
  -3  -8  10   36.35    7.23
   3  -8  10   33.97    5.03
   3  -8 -10   51.22    5.35
   3   8  11   64.42    6.41
   3   8 -11   59.25    7.07
  -3   8  11   52.66    5.00
  -3   8 -11   59.00    8.27
  -3  -8  11   75.74    8.44
   3  -8  11   73.17    4.42
   3  -8 -11   52.15    5.95
   3   8  12    8.50    1.87
   3   8 -12    9.56    2.13
  -3   8  12    7.78    1.42
  -3   8 -12   10.41    2.80
  -3  -8  12    9.96    2.37
   3  -8  12    9.63    2.77
   3  -8 -12    9.81    3.99
   3   8  13   34.20    6.68
   3   8 -13   44.11    3.38
  -3   8 -13   36.42    4.00
  -3  -8  13   36.91    4.81
   3  -8  13   32.79    4.56
   3  -8 -13   47.94    4.21
   3   8  14   56.44    9.97
   3   8 -14   62.86    3.63
  -3   8 -14   57.35    5.62
  -3  -8  14   63.45    7.48
   3  -8  14   66.03    4.19
   3  -8 -14   49.32    4.27
   3   8  15   12.49    2.81
   3   8 -15    4.64    1.41
  -3   8 -15    1.67    2.43
  -3  -8  15    9.25    2.99
   3  -8  15    4.73    2.21
   3  -8 -15   13.07    3.98
   3   8  16  114.15   13.59
   3   8 -16  115.32    5.77
  -3   8 -16  116.81    7.29
  -3  -8  16  132.33   12.58
   3  -8  16  114.88    6.21
   3  -8 -16  126.16    7.36
   3   8  17    9.43    2.65
   3   8 -17   14.08    2.64
  -3   8 -17    9.94    2.92
  -3  -8  17   16.30    3.04
   3  -8  17   15.51    2.71
   3  -8 -17    8.72    2.74
   3   8  18   54.92   10.06
  -3   8 -18   63.74    6.93
  -3  -8  18   70.03    9.06
   3  -8  18   70.71    6.24
   3  -8 -18   63.14    6.89
   3   8  19    9.62    2.39
   3   8 -19    8.33    2.11
  -3   8 -19    5.66    2.67
  -3  -8  19   13.44    3.81
   3  -8  19    8.85    2.08
   3  -8 -19    6.49    3.44
   3   8  20    6.46    2.68
   3   8 -20   10.24    2.55
  -3   8 -20    9.12    3.06
  -3  -8  20   12.40    3.72
   3  -8  20    9.60    2.73
   3  -8 -20   13.11    4.14
   3   8  21   10.98    3.38
  -3   8 -21   16.72    3.61
  -3  -8  21   22.61    4.70
   3  -8  21   14.34    3.63
   3  -8 -21    6.54    2.71
  -3   8 -22    8.71    4.22
  -3  -8 -22    4.63    2.06
  -3  -8  22    8.39    3.32
   3  -8  22    3.03    1.33
   3  -8 -22    7.10    3.90
  -3   8 -23   14.24    3.12
  -3  -8 -23   26.66    4.72
  -3  -8  23   24.75    5.87
   3  -8  23   17.18    2.78
   3  -8 -23   23.94    4.30
  -3   8 -24    5.25    2.34
  -3  -8 -24    5.86    2.79
  -3  -8  24    6.50    2.90
   3  -8  24   10.37    2.42
   3  -8 -24    5.63    2.38
   3   9   0  208.25   11.53
  -3   9   0  228.59    8.31
  -3  -9   0  212.05    7.38
   3  -9   0  205.99    8.90
   3   9   1   16.03    3.51
   3   9  -1   18.28    3.40
  -3   9   1   11.76    2.30
  -3   9  -1   12.28    3.10
  -3  -9  -1   13.36    1.94
  -3  -9   1   13.78    2.06
   3  -9   1   10.09    2.67
   3  -9  -1    7.22    2.62
   3   9   2  144.46   13.15
   3   9  -2  145.19   13.05
  -3   9   2  171.25    6.97
  -3   9  -2  150.73    6.64
  -3  -9   2  157.84   10.34
  -3  -9  -2  142.25    5.18
   3  -9   2  142.04    6.44
   3   9   3   51.86    6.84
   3   9  -3   50.63    4.14
  -3   9   3   47.42    5.08
  -3   9  -3   52.44    4.53
  -3  -9   3   41.19    5.14
  -3  -9  -3   49.31    2.76
   3  -9   3   48.34    5.64
   3   9   4   84.57    8.57
   3   9  -4   88.18    4.98
  -3   9   4   81.39    4.33
  -3   9  -4   85.55    5.44
  -3  -9   4   82.68    5.91
  -3  -9  -4   88.59    4.17
   3  -9   4   81.40    5.71
   3  -9  -4   88.00    5.73
   3   9   5   36.70    7.52
   3   9  -5   40.50    5.63
  -3   9   5   38.20    5.19
  -3   9  -5   52.95    4.78
  -3  -9   5   49.29    5.82
  -3  -9  -5   40.62    4.83
   3  -9   5   51.80    4.61
   3  -9  -5   50.16    5.29
   3   9   6    5.78    2.36
   3   9  -6    7.38    2.15
  -3   9   6    9.42    2.49
  -3   9  -6    5.32    2.49
  -3  -9   6    9.97    3.33
  -3  -9  -6    9.74    1.62
   3  -9   6    4.29    2.32
   3  -9  -6   14.33    3.02
   3   9   7  198.31    9.24
   3   9  -7  203.27    9.50
  -3   9   7  197.12    8.68
  -3   9  -7  205.42    9.84
  -3  -9   7  202.91   15.03
  -3  -9  -7  183.77    7.56
   3  -9   7  194.57    9.42
   3  -9  -7  180.71   10.14
   3   9   8    5.71    2.54
   3   9  -8    1.39    1.91
  -3   9   8    5.88    1.71
  -3   9  -8    1.18    2.60
  -3  -9   8    0.97    1.31
  -3  -9  -8    2.20    0.76
   3  -9   8    6.75    2.35
   3  -9  -8    6.08    2.91
   3   9   9   35.54    6.67
   3   9  -9   34.09    4.19
  -3   9   9   32.70    3.75
  -3   9  -9   43.36    5.33
  -3  -9   9   30.51    4.81
   3  -9   9   39.22    4.92
   3  -9  -9   37.80    5.03
   3   9  10   16.99    3.39
   3   9 -10   10.31    2.92
  -3   9  10    4.44    1.04
  -3   9 -10    8.29    2.83
  -3  -9  10   15.77    2.75
   3  -9  10   10.73    2.78
   3  -9 -10    9.29    3.96
   3   9  11   39.08    4.76
   3   9 -11   40.17    3.11
  -3   9  11   35.97    2.30
  -3   9 -11   43.06    4.74
  -3  -9  11   39.85    4.35
   3  -9  11   38.69    3.52
   3  -9 -11   42.61    5.04
   3   9  12   22.68    5.28
   3   9 -12   30.79    4.28
  -3   9  12   28.75    3.32
  -3   9 -12   30.12    4.64
  -3  -9  12   40.54    4.89
   3  -9  12   26.03    3.96
   3  -9 -12   24.80    4.27
   3   9  13   90.91   10.22
   3   9 -13   88.94    4.49
  -3  -9  13   97.92    7.63
   3  -9  13   99.98    5.56
   3  -9 -13  110.08    6.72
   3   9  14   24.20    3.74
   3   9 -14   30.50    2.99
  -3   9 -14   24.66    3.89
  -3  -9  14   27.59    6.58
   3  -9  14   18.99    3.32
   3  -9 -14   20.00    3.82
   3   9  15   47.93    7.15
   3   9 -15   46.56    3.63
  -3   9 -15   53.33    4.19
  -3  -9  15   47.41    6.77
   3  -9  15   37.15    3.64
   3  -9 -15   43.48    4.95
   3   9  16   44.36    7.77
   3   9 -16   50.36    4.99
  -3   9 -16   34.01    4.31
  -3  -9  16   44.39    5.87
   3  -9  16   46.05    4.78
   3  -9 -16   46.08    5.20
   3   9  17   35.13    7.23
   3   9 -17   30.87    3.56
  -3   9 -17   34.75    4.90
  -3  -9  17   30.55    5.28
   3  -9  17   34.15    3.91
   3  -9 -17   27.14    4.65
   3   9  18   13.63    4.08
   3   9 -18   20.41    2.77
  -3  -9  18   21.05    3.39
   3  -9  18   18.36    2.55
   3  -9 -18   11.45    3.34
   3   9  19   24.50    5.76
   3   9 -19   39.89    3.11
  -3   9 -19   31.99    4.26
  -3  -9  19   23.31    3.55
   3  -9  19   33.05    3.40
   3  -9 -19   41.52    4.85
   3   9  20   16.72    3.16
   3   9 -20   15.14    2.15
  -3   9 -20   17.10    3.00
  -3  -9  20   10.30    3.32
   3  -9  20   26.42    2.99
   3  -9 -20   20.17    3.60
   3   9  21   15.01    3.42
  -3   9 -21   18.83    4.00
  -3  -9  21   13.20    4.28
   3  -9  21    3.86    1.88
   3  -9 -21   16.82    3.93
   3   9  22   12.76    3.55
  -3   9 -22   12.73    4.22
  -3  -9  22    8.22    2.90
   3  -9  22    8.32    2.13
   3  -9 -22   15.19    2.98
  -3   9 -23    4.77    2.49
  -3  -9 -23    3.56    2.57
   3  -9  23    3.08    1.26
   3  -9 -23   10.95    3.43
   3  10   0  213.40    8.89
  -3  10   0  217.59    8.66
  -3 -10   0  219.96    8.36
   3 -10   0  236.72   10.17
   3  10   1  137.92   15.64
   3  10  -1  134.84   11.08
  -3  10   1  141.20    6.56
  -3  10  -1  133.65    6.07
  -3 -10   1  135.17    5.67
  -3 -10  -1  128.96    5.29
   3 -10   1  156.78    7.75
   3  10   2  191.85    8.46
   3  10  -2  207.79    8.66
  -3  10   2  205.23    8.39
  -3  10  -2  209.38    8.88
  -3 -10   2  196.80    7.64
  -3 -10  -2  193.52    7.38
   3 -10   2  211.52    9.19
   3  10   3   22.48    4.32
   3  10  -3   22.37    3.60
  -3  10   3   21.00    2.95
  -3  10  -3   20.20    3.29
  -3 -10   3   22.67    2.80
  -3 -10  -3   18.16    2.20
   3 -10   3   17.10    3.08
   3 -10  -3    7.86    2.07
   3  10   4   41.63    8.66
   3  10  -4   38.50    4.44
  -3  10   4   50.08    5.45
  -3  10  -4   41.03    4.88
  -3 -10   4   52.67    7.52
  -3 -10  -4   41.61    4.08
   3 -10   4   42.34    5.13
   3 -10  -4   36.66    5.25
   3  10   5   35.27    5.10
   3  10  -5   39.46    3.74
  -3  10   5   35.48    2.92
  -3  10  -5   36.72    3.72
  -3 -10   5   38.43    2.83
  -3 -10  -5   38.02    2.46
   3 -10   5   37.66    3.65
   3 -10  -5   36.79    4.14
   3  10   6    6.25    1.92
   3  10  -6    5.04    2.27
  -3  10   6    5.85    2.38
  -3  10  -6    3.20    2.20
  -3 -10   6    8.64    2.12
  -3 -10  -6    3.69    1.11
   3 -10   6    4.77    2.36
   3 -10  -6    6.98    4.45
   3  10   7  236.08   10.46
   3  10  -7  248.47   10.90
  -3  10   7  237.98    9.99
  -3  10  -7  255.67   11.56
  -3 -10   7  258.43   13.99
   3 -10   7  218.82   10.16
   3 -10  -7  235.89   10.92
   3  10   8   63.66    6.62
   3  10  -8   73.64    5.15
  -3  10   8   64.90    3.86
  -3  10  -8   72.64    5.21
  -3 -10   8   73.89    7.09
   3 -10   8   65.37    4.75
   3 -10  -8   60.35    4.83
   3  10  -9   37.35    3.94
  -3  10   9   33.12    2.55
  -3  10  -9   34.43    3.86
  -3 -10   9   30.98    4.66
   3 -10   9   32.65    3.96
   3 -10  -9   31.25    4.76
   3  10  10   32.69    4.41
   3  10 -10   29.16    4.22
  -3  10  10   36.16    2.54
  -3  10 -10   35.76    4.19
  -3 -10  10   36.96    5.32
   3 -10  10   21.68    3.39
   3 -10 -10   34.78    4.55
   3  10  11   11.06    2.54
   3  10 -11   13.33    3.11
  -3  10  11   11.19    1.88
  -3  10 -11   16.01    3.62
  -3 -10  11    9.35    2.08
   3 -10  11    6.24    2.15
   3 -10 -11   16.50    4.19
   3  10  12    7.87    2.36
   3  10 -12    3.96    1.74
  -3  10 -12    5.92    2.67
  -3 -10  12   14.59    3.03
   3 -10  12   13.00    3.72
   3 -10 -12    7.01    2.54
   3  10  13    7.07    2.04
   3  10 -13    7.43    2.36
  -3  10 -13    3.59    2.56
  -3 -10  13    9.24    2.68
   3 -10  13    8.13    3.43
   3 -10 -13    6.65    2.59
   3  10  14   41.77    7.99
   3  10 -14   62.99    5.84
  -3 -10  14   48.45    7.66
   3 -10  14   62.53    5.95
   3 -10 -14   54.90    5.64
   3  10  15   40.67    6.11
   3  10 -15   42.53    4.31
  -3  10 -15   35.62    4.49
  -3 -10  15   54.33    7.67
   3 -10  15   53.51    5.61
   3 -10 -15   50.36    5.69
   3  10  16   54.27    8.95
   3  10 -16   54.87    3.63
  -3  10 -16   54.31    4.42
  -3 -10  16   53.63    5.81
   3 -10  16   54.45    4.09
   3 -10 -16   61.68    4.98
   3  10  17   17.19    2.42
   3  10 -17    9.00    2.70
  -3  10 -17   18.04    3.67
  -3 -10  17   15.02    3.82
   3 -10  17   12.42    3.47
   3 -10 -17   20.14    3.49
   3  10  18    9.33    3.53
   3  10 -18   17.04    2.04
  -3  10 -18   24.00    4.36
  -3 -10  18   17.91    3.06
   3 -10  18   19.47    2.67
   3 -10 -18   18.34    3.13
   3  10  19    8.97    2.92
   3  10 -19    3.33    1.44
  -3  10 -19   17.66    4.32
  -3 -10  19    6.79    1.96
   3 -10  19    6.67    2.38
   3 -10 -19    7.07    3.45
   3  10  20    5.38    1.76
   3  10 -20    8.70    2.48
  -3  10 -20   14.21    3.58
  -3 -10  20    6.83    2.63
   3 -10  20    9.18    2.71
   3 -10 -20   10.94    3.76
   3  10  21    6.07    2.29
   3  10 -21    5.35    1.63
  -3  10 -21   10.45    3.32
  -3 -10  21    6.30    1.96
   3 -10  21    7.15    2.24
   3 -10 -21    6.71    2.44
   3  11   0   19.56    3.94
  -3  11   0   17.71    3.10
  -3 -11   0   15.35    2.40
   3  11   1    2.79    1.72
   3  11  -1    5.94    1.97
  -3  11   1    9.81    2.92
  -3  11  -1   10.68    2.55
  -3 -11  -1    5.56    1.67
  -3 -11   1    7.01    1.46
   3 -11   1    3.12    2.35
   3 -11  -1   11.22    3.49
   3  11   2   13.20    2.86
   3  11  -2   13.57    2.72
  -3  11   2   11.72    2.23
  -3 -11   2   11.96    2.03
  -3 -11  -2   14.44    2.41
   3 -11   2   19.93    3.88
   3 -11  -2   13.40    3.87
   3  11   3   12.97    2.48
   3  11  -3   20.16    3.90
  -3  11   3    8.71    2.13
  -3  11  -3   12.86    2.73
  -3 -11   3    9.26    1.70
  -3 -11  -3   17.79    2.61
   3 -11   3    6.36    2.49
   3 -11  -3   20.41    4.13
   3  11   4    9.69    2.42
   3  11  -4   13.25    3.12
  -3  11   4   10.71    2.54
  -3  11  -4   15.22    3.36
  -3 -11   4   15.55    2.58
  -3 -11  -4   10.66    1.75
   3 -11   4   12.87    3.13
   3  11   5   13.54    2.64
   3  11  -5   11.16    2.52
  -3  11   5   10.73    2.39
  -3  11  -5   11.97    3.15
  -3 -11   5   10.44    2.01
  -3 -11  -5    8.46    1.38
   3 -11   5    9.73    3.54
   3 -11  -5   13.64    3.29
   3  11   6   26.38    3.72
   3  11  -6   30.00    3.46
  -3  11   6   25.10    2.30
  -3  11  -6   43.82    4.44
  -3 -11   6   28.81    2.93
   3 -11   6   21.22    3.15
   3 -11  -6   34.71    4.64
   3  11   7   13.62    3.66
   3  11  -7   20.22    3.10
  -3  11   7   20.38    2.33
  -3  11  -7   13.70    3.31
  -3 -11   7   18.41    3.02
   3 -11   7   21.18    3.70
   3 -11  -7   21.53    3.94
   3  11  -8  116.39    6.45
  -3  11   8  110.58    5.61
  -3  11  -8  102.31    6.42
  -3 -11   8  101.81   10.05
   3 -11   8  103.74    6.05
   3 -11  -8  111.53    6.98
   3  11   9    3.02    1.48
   3  11  -9   12.29    3.67
  -3  11   9    3.71    1.61
  -3  11  -9    3.05    2.33
  -3 -11   9    1.22    1.22
   3 -11   9    7.93    3.48
   3 -11  -9    2.15    2.42
   3  11  10   83.12   14.86
   3  11 -10   64.83    5.91
  -3  11  10   66.12    5.64
  -3  11 -10   76.34    6.92
  -3 -11  10   86.42   13.35
   3 -11  10   79.35    7.08
   3 -11 -10   85.84    8.28
   3  11  11   12.61    3.38
   3  11 -11    8.81    2.55
  -3  11 -11   12.77    3.51
  -3 -11  11   11.72    3.31
   3 -11  11   16.76    4.43
   3 -11 -11   13.87    3.92
   3  11  12    5.84    2.01
   3  11 -12    9.46    2.89
  -3  11 -12   13.07    4.02
  -3 -11  12   10.53    2.47
   3 -11  12    9.00    3.01
   3 -11 -12    7.57    2.66
   3  11  13    6.93    2.42
   3  11 -13    6.34    2.54
  -3  11 -13    4.38    2.34
  -3 -11  13    8.09    2.13
   3 -11  13    8.74    2.43
   3 -11 -13   10.42    3.03
   3  11 -14   88.57    5.15
  -3 -11  14   66.74    7.49
   3 -11  14   70.81    5.20
   3 -11 -14  109.46    7.75
   3  11  15   19.89    3.73
   3  11 -15   20.28    2.74
  -3  11 -15   14.55    4.50
  -3 -11  15   21.18    3.83
   3 -11  15   23.49    3.73
   3 -11 -15   10.67    3.37
   3  11  16   38.82    9.42
   3  11 -16   49.47    4.08
  -3  11 -16   60.75    6.38
  -3 -11  16   50.24    9.22
   3 -11  16   53.87    4.77
   3 -11 -16   50.22    4.74
   3  11  17    2.97    1.28
   3  11 -17    3.76    2.04
  -3  11 -17   10.08    4.09
  -3 -11  17    3.48    1.33
   3 -11  17   10.23    3.26
   3 -11 -17    4.52    2.56
   3  11  18   16.88    3.81
   3  11 -18    9.38    2.74
  -3  11 -18   10.37    3.32
  -3 -11  18   17.80    4.07
   3 -11  18    8.97    2.56
   3 -11 -18   19.98    3.78
   3  11  19    6.00    2.33
   3  11 -19   11.25    2.48
  -3  11 -19    9.65    2.72
  -3 -11  19   11.42    3.47
   3 -11  19    7.20    2.24
   3 -11 -19    9.45    3.80
   3  12   0    7.07    1.97
  -3  12   0   18.30    4.13
  -3 -12   0    7.51    1.90
   3 -12   0    4.00    2.32
   3  12   1   57.51    7.99
   3  12  -1   60.30    6.72
  -3  12   1   48.96    4.78
  -3  12  -1   51.40    5.21
  -3 -12   1   42.18    3.87
  -3 -12  -1   50.62    4.42
   3 -12  -1   72.18    7.45
   3  12   2   14.62    3.98
   3  12  -2    9.80    2.71
  -3  12   2   13.15    3.14
  -3  12  -2   15.25    3.58
  -3 -12   2   14.46    2.85
  -3 -12  -2   10.40    2.25
   3 -12   2   17.81    4.58
   3 -12  -2   15.24    3.66
   3  12   3   19.97    5.02
   3  12  -3   28.78    3.95
  -3  12   3   20.25    2.65
  -3  12  -3   17.49    4.11
  -3 -12   3   13.31    2.57
  -3 -12  -3   20.01    3.58
   3 -12   3   26.56    3.50
   3 -12  -3   17.60    4.34
   3  12   4   19.02    3.77
   3  12  -4   25.27    3.42
  -3  12   4   22.30    3.21
  -3  12  -4   23.48    3.09
  -3 -12   4   15.68    3.12
  -3 -12  -4   24.10    2.53
   3 -12   4   21.47    3.87
   3 -12  -4   21.84    3.46
   3  12   5   14.64    3.28
   3  12  -5    7.80    2.39
  -3  12   5   10.78    2.72
  -3  12  -5    9.32    3.15
  -3 -12   5    7.78    2.23
   3 -12   5   17.57    3.95
   3 -12  -5    5.58    2.61
   3  12   6    5.50    2.63
   3  12  -6    2.46    1.94
  -3  12   6    3.93    1.63
  -3  12  -6    6.47    3.00
  -3 -12   6    5.34    2.39
   3 -12   6    5.02    2.19
   3 -12  -6    3.69    2.42
   3  12   7   41.48    5.63
   3  12  -7   41.14    4.29
  -3  12   7   37.44    3.72
  -3  12  -7   46.88    5.79
  -3 -12   7   34.58    3.69
   3 -12   7   41.16    4.65
   3 -12  -7   38.54    4.50
   3  12  -8    8.32    3.57
  -3  12   8    9.58    2.73
  -3  12  -8    3.15    3.00
  -3 -12   8    4.63    2.12
   3 -12   8    3.11    2.51
   3 -12  -8    8.58    3.98
   3  12   9   25.73    4.27
   3  12  -9   18.44    4.01
  -3  12   9   12.92    2.73
  -3  12  -9   15.74    3.48
  -3 -12   9   21.79    3.49
   3 -12   9   23.83    3.28
   3 -12  -9   19.33    4.57
   3  12  10    6.32    2.29
   3  12 -10    7.22    2.80
  -3  12  10    4.60    1.86
  -3  12 -10    9.06    3.06
  -3 -12  10   10.12    3.09
   3 -12  10    2.71    2.06
   3 -12 -10    4.40    2.39
   3  12  11    7.09    2.39
   3  12 -11    4.40    1.99
  -3  12 -11    3.97    2.29
  -3 -12  11    8.14    2.56
   3 -12  11   12.74    3.63
   3 -12 -11   11.82    3.73
   3  12  12   10.24    3.34
   3  12 -12    8.11    2.97
  -3  12 -12    6.68    3.42
  -3 -12  12   12.01    3.38
   3 -12  12    1.83    1.64
   3 -12 -12   16.65    3.62
   3  12  13   30.45    4.49
   3  12 -13   26.58    3.46
  -3  12 -13   20.63    3.24
  -3 -12  13   28.35    5.50
   3 -12  13   27.22    3.07
   3 -12 -13   27.09    3.92
   3  12  14   17.14    3.04
   3  12 -14   16.80    3.28
  -3  12 -14   15.62    3.64
  -3 -12  14   11.91    3.73
   3 -12  14   13.23    3.82
   3 -12 -14   12.86    4.09
   3  12  15   10.11    4.50
   3  12 -15   17.96    3.09
  -3 -12  15    9.24    3.72
   3 -12  15   16.96    3.60
   3 -12 -15   19.69    3.71
   3  12  16    5.75    2.74
   3  12 -16    9.54    2.82
  -3  12 -16    0.04    2.43
  -3 -12  16    7.02    2.10
   3 -12  16    2.25    1.65
   3 -12 -16    9.12    3.60
   3  12  17    9.77    3.07
   3  12 -17    8.65    2.26
  -3  12 -17   12.16    4.11
  -3 -12  17   12.53    3.84
   3 -12  17    7.42    2.08
   3 -12 -17    6.04    2.44
   3  13   0    5.75    2.24
  -3  13   0   11.53    3.69
  -3 -13   0    4.36    1.42
   3 -13   0    7.80    2.72
   3  13   1   27.23    4.10
   3  13  -1   33.68    5.96
  -3  13   1   33.47    3.40
  -3  13  -1   31.70    3.11
  -3 -13   1   18.65    2.18
  -3 -13  -1   21.89    2.00
   3 -13   1   24.06    2.93
   3 -13  -1   28.95    4.99
   3  13   2    9.94    3.56
   3  13  -2    3.00    2.13
  -3  13   2    4.51    1.94
  -3  13  -2    8.34    2.64
  -3 -13   2    2.11    1.12
  -3 -13  -2    2.14    1.28
   3 -13  -2    8.56    3.58
   3  13   3   39.20    7.10
   3  13  -3   59.32    4.42
  -3  13   3   56.08    4.39
  -3  13  -3   39.96    3.46
   3 -13   3   46.41    4.60
   3 -13  -3   53.30    4.50
   3  13   4   18.22    2.54
   3  13  -4   18.25    3.22
  -3  13   4   23.05    2.83
  -3  13  -4   19.34    2.83
  -3 -13   4   23.48    3.01
   3 -13   4   19.79    3.65
   3 -13  -4   19.13    3.71
   3  13   5   39.72    5.78
   3  13  -5   35.86    3.85
  -3  13   5   30.36    2.93
  -3  13  -5   32.02    3.33
  -3 -13   5   33.57    3.11
   3 -13   5   38.10    4.09
   3 -13  -5   33.49    3.79
   3  13   6   26.53    6.35
   3  13  -6   33.75    4.07
  -3  13   6   32.95    2.94
  -3  13  -6   28.79    3.69
  -3 -13   6   28.90    3.01
   3 -13   6   29.18    3.25
   3 -13  -6   34.29    4.84
   3  13  -7    2.84    2.47
  -3  13   7    7.81    2.92
  -3  13  -7    2.25    1.86
  -3 -13   7    4.88    2.00
   3 -13   7    6.76    2.52
   3 -13  -7    8.03    3.55
   3  13   8   17.17    4.12
   3  13  -8   13.14    3.67
  -3  13   8   11.03    2.79
  -3  13  -8   10.16    3.04
  -3 -13   8   14.83    2.30
   3 -13   8   24.68    3.88
   3 -13  -8   12.31    4.04
   3  13   9    4.97    2.42
   3  13  -9    5.33    2.63
  -3  13   9    8.71    2.78
  -3  13  -9    4.94    2.06
  -3 -13   9    2.70    1.45
   3 -13   9    4.48    2.10
   3 -13  -9    8.75    4.08
   3  13  10   10.90    3.49
   3  13 -10    8.76    2.63
  -3  13 -10    5.45    2.25
  -3 -13  10    8.53    3.11
   3 -13  10   12.08    3.77
   3 -13 -10    5.63    2.56
   3  13  11   20.64    4.70
   3  13 -11   24.20    4.46
  -3  13 -11   23.87    4.85
  -3 -13  11   13.91    2.72
   3 -13  11   23.92    4.61
   3 -13 -11   14.54    3.57
   3  13  12    5.31    2.17
   3  13 -12    4.77    1.98
  -3  13 -12    3.70    2.17
  -3 -13  12    1.90    1.51
   3 -13  12    5.11    2.10
   3 -13 -12    9.93    3.08
   3  13  13   26.03    6.25
   3  13 -13   36.02    5.21
  -3  13 -13   19.51    4.33
  -3 -13  13   21.77    4.83
   3 -13  13   36.40    5.49
   3 -13 -13    4.70    2.44
   3  13  14    5.83    1.44
   3  13 -14    6.06    1.94
  -3  13 -14    6.94    3.13
  -3 -13  14    3.57    1.29
   3 -13  14    1.92    1.58
   3 -13 -14    3.27    2.14
   3  14   0    5.26    3.01
  -3  14   0    4.32    1.87
  -3 -14   0    1.59    1.12
   3 -14   0    4.02    2.45
   3  14   1   68.33   15.18
   3  14  -1   65.07   11.59
  -3  14   1   97.82   12.31
  -3  14  -1   83.21   10.59
  -3 -14   1   72.71    9.10
   3 -14   1   90.36   11.95
   3 -14  -1   61.55    8.39
   3  14   2    3.07    1.80
   3  14  -2    4.23    2.16
  -3  14   2    2.98    1.71
  -3  14  -2    8.65    3.30
  -3 -14   2    3.08    1.38
   3 -14   2    8.58    3.64
   3 -14  -2   10.47    4.51
   3  14   3   61.07   12.26
   3  14  -3   64.58    8.69
  -3  14   3   70.36    9.14
  -3  14  -3   62.94    8.38
  -3 -14   3   57.80    7.42
   3 -14  -3   79.15   10.61
   3  14   4   22.34    4.03
   3  14  -4   16.23    3.46
  -3  14   4   11.84    3.15
  -3  14  -4   18.41    3.76
  -3 -14   4   11.22    2.75
   3 -14   4   15.59    3.45
   3 -14  -4   21.43    4.27
   3  14   5   77.83   12.50
   3  14  -5   87.89   11.54
  -3  14   5   74.27    9.53
  -3  14  -5   65.71    8.52
  -3 -14   5   71.38    9.06
   3 -14   5   68.82    9.15
   3 -14  -5   55.93    7.89
   3  14  -6   38.43    5.44
  -3  14   6   44.36    5.97
  -3  14  -6   49.53    7.02
  -3 -14   6   43.65    5.90
   3 -14   6   42.80    6.30
   3 -14  -6   41.55    6.60
   3  14   7   41.42    7.36
   3  14  -7   61.00    8.11
  -3  14   7   41.39    5.35
  -3  14  -7   41.15    5.76
  -3 -14   7   36.92    4.85
   3 -14   7   24.05    3.94
   3 -14  -7   59.15    8.15
   3  14   8   26.37    7.54
   3  14  -8   21.74    4.07
  -3  14  -8   30.46    4.69
  -3 -14   8   32.32    4.53
   3 -14   8   28.25    5.06
   3 -14  -8   32.13    5.18
   3  14   9    6.20    1.76
   3  14  -9    4.59    2.31
  -3  14  -9    3.88    2.15
  -3 -14   9    6.96    2.20
   3 -14   9    7.66    3.13
   3 -14  -9    6.08    2.54
  -4   0   0  181.24    6.60
   4   0   0  182.70    6.24
  -4   0  -1   77.86    4.09
  -4   0   1   64.33    3.16
   4   0   1   79.91    3.58
   4   0  -1   71.21    3.27
  -4   0   2  148.00    5.37
  -4   0  -2  139.87    5.51
   4   0   2  111.14    7.05
   4   0   2  154.59    5.20
   4   0  -2  144.02    5.41
  -4   0   3   99.17    3.93
  -4   0  -3  101.31    4.91
   4   0   3   68.75    5.38
   4   0   3  111.27    4.29
   4   0  -3   97.73    4.25
  -4   0   4   10.65    1.29
  -4   0  -4    7.15    2.11
   4   0   4   11.02    1.68
   4   0   4   12.74    1.63
   4   0  -4   14.34    2.29
  -4   0   5  553.51   15.52
  -4   0  -5  549.70   16.12
   4   0   5  459.81   12.72
   4   0   5  565.90   15.71
   4   0  -5  549.26   15.96
  -4   0   6    0.97    0.62
  -4   0   6   -1.89    1.44
  -4   0  -6    1.50    2.53
   4   0   6    0.50    0.22
   4   0   6    4.38    1.71
   4   0  -6    1.83    2.21
  -4   0   7  421.75   11.74
  -4   0  -7  509.91   15.33
  -4   0   7  539.04   15.03
  -4   0   7  517.48   15.16
   4   0   7  456.09   12.53
   4   0   7  529.93   14.60
  -4   0   8   24.80    1.54
  -4   0   8   24.50    1.56
  -4   0  -8   30.45    4.27
  -4   0   8   32.53    2.71
   4   0   8   18.52    2.81
   4   0   8   27.61    1.47
  -4   0   9  260.73    7.82
  -4   0   9  287.61    8.70
  -4   0  -9  288.82   10.59
  -4   0   9  298.65   10.07
   4   0   9  285.61    8.43
  -4   0 -10   19.10    3.54
  -4   0  10   14.05    2.20
  -4   0  11 1065.62  117.92
  -4   0 -11 1044.94  116.04
  -4   0  11 1027.45   31.08
   4   0  11 1002.39   29.14
  -4   0  12   18.37    1.62
  -4   0 -12   12.81    3.24
  -4   0  12   23.24    4.48
   4   0  12   22.03    1.83
  -4   0 -13  374.17   12.80
  -4   0  13  394.62   13.46
   4   0  13  356.91   10.54
  -4   0 -14    3.82    3.03
  -4   0  14    4.46    1.73
  -4   0 -15   15.15    4.60
  -4   0  15   12.39    2.99
  -4   0 -16   25.58    4.27
  -4   0  16   23.72    4.06
  -4   0 -17   86.09    5.56
  -4   0  17   93.60   10.18
  -4   0 -18    6.67    2.73
  -4   0  18   14.68    3.28
  -4   0 -19   43.00    4.43
  -4   0  19   34.38    4.88
  -4   0 -20   51.36    4.44
  -4   0  20   43.14    6.49
  -4   0 -21    8.46    2.87
  -4   0  21    3.01    1.61
  -4   0 -22   28.48    4.74
  -4   0  22   18.81    4.43
  -4   0 -23   10.18    3.65
  -4   0  23    9.06    2.86
  -4   0 -24    2.25    2.08
  -4   0  24    3.40    1.88
  -4   0 -25    2.62    2.33
  -4   0  25    4.57    1.86
  -4   0 -26    4.22    2.35
  -4   0  26    2.16    1.85
  -4   1   0  182.48    6.32
  -4  -1   0  183.59    6.58
   4  -1   0  188.22    6.85
   4   1   0  169.82    5.78
  -4   1  -1    3.10    2.08
  -4   1   1    0.46    1.88
  -4  -1  -1   12.34    2.29
  -4  -1   1    5.20    2.05
   4   1   1    4.18    1.10
   4  -1   1   11.96    2.05
   4  -1  -1    6.78    1.53
   4   1   1    8.65    1.52
   4   1  -1   15.92    2.29
  -4   1  -2  251.26    8.63
  -4   1   2  263.13    8.66
  -4  -1  -2  260.95    8.71
  -4  -1   2  278.34    9.18
   4   1   2  227.88    6.97
   4  -1   2  254.32    7.96
   4   1   2  255.26    7.91
   4  -1  -2  256.88    8.46
   4   1  -2  230.39    7.46
  -4   1  -3    2.31    2.05
  -4   1   3    9.42    2.78
  -4  -1  -3    9.25    2.32
  -4  -1   3    6.19    2.80
   4   1   3    0.11    0.52
   4  -1   3    5.69    1.49
   4   1   3    6.27    1.09
   4  -1  -3    8.77    2.06
   4   1  -3    6.91    2.58
  -4   1   4  455.32   13.52
  -4   1  -4  442.72   13.79
  -4  -1  -4  452.51   13.99
  -4  -1   4  434.80   13.01
  -4  -1   4  445.39   13.38
   4   1   4  397.92   11.46
   4  -1   4  465.78   13.78
   4   1   4  446.91   12.90
   4  -1  -4  449.62   13.73
  -4   1   5  105.17    4.11
  -4   1  -5   93.49    4.48
  -4  -1  -5   91.28    4.92
  -4  -1   5   80.43    3.27
  -4  -1   5  112.73    4.45
   4  -1   5   85.72    3.03
   4   1   5   79.98    3.01
   4  -1   5  108.77    4.20
   4   1   5  107.56    3.63
   4  -1  -5  100.01    4.65
  -4   1   6  129.85    6.50
  -4   1   6  171.71    5.60
  -4   1  -6  173.29    7.09
  -4  -1  -6  166.74    6.99
  -4  -1   6  165.82    5.45
  -4  -1   6  168.19    5.77
   4  -1   6  133.17    4.16
   4   1   6  169.45    5.07
   4  -1   6  164.13    5.52
   4  -1  -6  176.77    6.66
  -4   1   7  212.95    6.49
  -4   1   7  251.78    7.52
  -4   1  -7  234.05    8.43
  -4  -1  -7  239.58    8.92
  -4  -1   7  225.30    7.00
  -4  -1   7  231.78    7.69
   4  -1   7  192.37    5.66
   4   1   7  231.56    6.51
   4  -1   7  229.41    7.03
   4  -1  -7  243.69    8.31
  -4   1   8   18.88    1.22
  -4  -1   8   16.08    1.23
  -4   1   8   23.56    1.94
  -4   1  -8   23.48    4.11
  -4  -1  -8   17.99    3.08
  -4  -1   8   17.28    1.49
   4  -1   8   15.62    1.09
  -4  -1   8   17.39    2.95
   4   1   8   12.24    1.61
   4   1   8   20.87    0.97
   4  -1   8   18.99    1.66
   4  -1  -8   18.69    2.67
  -4   1   9    3.77    0.62
  -4  -1   9    4.55    0.73
  -4   1   9    5.98    0.95
  -4   1  -9    7.08    2.90
  -4  -1  -9    4.85    3.62
  -4  -1   9    6.40    1.15
  -4  -1   9    7.95    2.33
   4   1   9    3.42    0.45
   4   1   9    7.09    0.42
   4  -1   9    6.46    1.37
   4  -1  -9    2.11    2.25
  -4   1  11    1.17    0.51
  -4  -1  11    1.29    0.67
  -4   1  11    2.78    0.76
  -4   1 -11   10.78    4.87
  -4  -1  11    1.35    0.71
  -4  -1  11    6.22    1.90
   4  -1  11    2.85    0.86
  -4  -1 -12   41.83    4.40
  -4  -1  12   39.54    3.22
  -4   1  12   36.71    4.48
  -4  -1  12   38.25    4.91
   4  -1  12   39.36    3.19
  -4   1 -13   86.87    5.33
  -4  -1 -13   83.67    5.34
  -4  -1  13   86.45    3.69
  -4   1  13   92.49    5.22
  -4  -1  13   92.96    7.25
   4  -1  13   80.55    3.59
  -4   1 -14  161.86    8.78
  -4  -1 -14  160.46    8.92
  -4   1  14  161.71    7.84
  -4  -1  14  137.63    6.99
   4  -1  14  152.39    6.29
  -4   1 -15    3.56    3.26
  -4  -1 -15    0.07    2.72
  -4   1  15    9.76    2.83
  -4  -1  15    7.26    1.95
   4  -1  15    4.46    0.73
  -4   1 -16  130.44    7.17
  -4  -1 -16  102.74    5.75
  -4   1  16  112.31    6.32
  -4  -1  16  119.76   10.95
  -4   1 -17    9.62    3.60
  -4  -1 -17    9.25    3.53
  -4   1  17    5.33    2.08
  -4  -1  17    4.13    1.92
  -4   1 -18   55.23    5.71
  -4  -1 -18   55.39    5.30
  -4   1  18   52.31    4.13
  -4  -1  18   50.10    4.50
  -4   1 -19   16.51    3.57
  -4  -1 -19    8.61    2.69
  -4   1  19   10.74    3.04
  -4  -1  19   18.93    3.42
  -4   1 -20   56.26    6.27
  -4  -1 -20   73.39    7.17
  -4   1  20   57.00    5.43
  -4  -1  20   67.81   11.48
  -4   1 -21   21.40    4.09
  -4  -1 -21   37.47    5.61
  -4   1  21   10.37    2.66
  -4  -1  21   15.70    3.63
  -4   1 -22   76.05    7.44
  -4  -1 -22   68.42    6.59
  -4  -1  22   71.61   11.54
  -4   1 -23   10.02    3.09
  -4  -1 -23    9.62    2.93
  -4   1  23   10.01    3.79
  -4  -1  23    6.42    3.51
  -4   1 -24    7.98    3.37
  -4  -1 -24   15.07    3.28
  -4   1  24   24.72    4.16
  -4  -1  24   18.61    4.65
  -4   1 -25   57.29    8.12
  -4  -1 -25   65.19    9.36
  -4   1  25   75.20   11.96
  -4  -1  25   39.77   11.38
  -4   1 -26    8.91    3.46
  -4  -1 -26   11.39    3.18
  -4   1  26    7.34    2.45
  -4  -1  26    3.63    2.05
   4   2   0  250.51    8.37
  -4   2   0  251.23    9.03
   4   2   0  215.45    6.64
   4  -2   0  263.43    8.62
   4   2   0  253.46    7.97
   4   2   1  708.24   20.86
   4   2  -1  724.43   21.22
  -4   2   1  747.46   21.89
  -4   2  -1  689.95   20.21
   4   2   1  610.97   17.45
   4  -2   1  738.16   21.57
   4  -2  -1  709.16   20.72
   4   2   1  723.48   20.70
   4   2   2  114.32    4.64
   4   2  -2  125.43   12.31
  -4   2   2  122.01    5.72
  -4   2  -2   92.14    5.28
  -4  -2   2  121.81    4.60
   4   2   2   98.05    4.39
   4  -2   2  106.86    4.30
   4  -2  -2  119.44    5.02
   4   2   2  115.83    4.05
   4   2   3  284.50    9.23
   4   2  -3  301.88    9.18
  -4   2   3  310.82    9.42
  -4   2  -3  283.16    8.88
  -4  -2   3  286.81    8.74
   4   2   3  258.07   10.16
   4  -2   3  285.75    8.73
   4   2   3  295.60    8.45
   4  -2  -3  299.28    9.59
   4   2  -4  168.19    6.84
  -4   2   4  182.23    6.07
  -4   2  -4  169.35    6.16
  -4  -2   4  182.33    6.93
   4   2   4  159.87    6.24
   4  -2   4  186.23    6.13
   4   2   4  177.35    5.27
   4  -2  -4  181.83    6.65
   4   2   5    0.05    0.09
   4   2  -6   46.25    5.89
  -4   2   6   23.26    3.52
  -4   2   6   40.36    2.27
  -4   2  -6   34.13    2.66
  -4  -2  -6   41.41    3.77
  -4  -2   6   47.57    6.64
   4   2   6   43.87    1.46
   4   2   6   42.73    1.52
   4  -2   6   46.85    2.87
   4  -2  -6   50.35    4.04
   4   2  -7   94.56    5.78
  -4   2   7   66.52    3.06
  -4   2   7   83.20    3.20
  -4   2  -7   62.35    3.60
  -4  -2  -7   83.15    4.63
  -4  -2   7   77.65   10.30
   4  -2   7   84.30    3.92
   4  -2  -7   77.58    4.16
   4   2  -8  266.09    8.43
  -4   2   8  239.10    7.16
  -4   2   8  256.84    7.81
  -4   2  -8  259.17    9.40
  -4  -2  -8  264.23    9.36
  -4  -2   8  257.28    8.56
   4  -2   8  252.45    8.03
   4  -2  -8  262.08    9.41
   4   2  -9   70.61    5.22
  -4   2   9   63.20    2.49
  -4   2  -9   63.55    5.32
  -4  -2  -9   61.39    4.79
  -4  -2   9   75.88   10.00
   4  -2   9   69.71    3.26
   4  -2  -9   62.63    3.97
   4   2 -10  283.66    9.53
  -4   2  10  280.81    8.40
  -4   2 -10  277.19   10.34
  -4  -2 -10  264.55    9.66
  -4  -2  10  284.06    9.99
   4  -2  10  278.45    8.92
   4  -2 -10  314.54   11.53
   4   2 -11  204.90    6.80
  -4   2 -11  201.31    7.99
  -4  -2  11  214.20    8.41
   4  -2  11  219.55    7.27
   4  -2 -11  213.27    8.33
   4   2 -12   41.04    4.19
  -4   2 -12   39.20    4.46
  -4  -2 -12   41.42    5.33
  -4  -2  12   42.41    6.73
   4  -2  12   43.77    3.69
   4  -2 -12   40.87    4.60
   4   2 -13   80.77    5.75
  -4  -2 -13   94.79    5.81
  -4  -2  13   89.64    8.01
   4  -2  13   83.01    3.80
   4  -2 -13   95.71    6.77
   4   2 -14   77.45    3.96
  -4   2 -14   88.75    6.25
  -4  -2 -14   95.49    6.88
  -4  -2  14   97.56    8.83
   4  -2  14   93.40    4.35
   4  -2 -14   95.50    5.70
  -4   2 -15   85.75    5.68
  -4  -2 -15   72.25    5.01
  -4  -2  15   83.13   11.15
   4  -2  15   76.77    3.31
   4  -2 -15   86.51    5.20
  -4   2 -16   88.45    6.42
  -4  -2 -16  106.63    7.56
  -4  -2  16  121.13    9.49
   4  -2  16   97.40    4.34
   4  -2 -16   95.04    5.59
  -4   2 -17   34.34    3.94
  -4  -2 -17   23.79    4.11
  -4  -2  17   29.14    5.94
   4  -2 -17   41.10    4.25
  -4   2 -18   75.84    6.73
  -4  -2 -18   65.83    5.84
  -4  -2  18   63.07    6.79
  -4   2 -19   52.83    4.48
  -4  -2 -19   61.90    4.52
  -4  -2  19   68.01   12.46
  -4   2 -20   20.76    3.63
  -4  -2 -20   28.25    5.23
  -4  -2  20   42.76    5.84
  -4   2 -21   66.59    7.16
  -4  -2 -21   56.20    5.65
  -4  -2  21   60.45   10.50
  -4   2 -22   11.54    3.77
  -4  -2 -22   23.51    3.71
  -4  -2  22    8.38    3.00
  -4   2 -23   42.00    4.46
  -4  -2  23   37.22    6.06
  -4   2 -24    9.15    2.93
  -4  -2 -24   13.92    3.74
  -4  -2  24   13.13    3.79
  -4   2 -25   20.51    4.66
  -4  -2 -25   27.38    5.21
  -4  -2  25   19.54    4.57
  -4   2 -26    1.55    2.10
  -4  -2 -26   12.11    3.35
  -4  -2  26    5.72    2.00
   4  -2 -26   18.13    3.84
   4   3   0    9.60    1.83
  -4   3   0    8.45    1.92
  -4  -3   0    9.11    1.28
   4   3   0    6.37    0.92
   4  -3   0    9.03    2.18
   4   3   1  339.20   10.80
   4   3  -1  322.47   10.91
  -4   3  -1  327.88   10.23
  -4   3   1  322.81    9.84
  -4  -3   1  314.64    9.24
   4   3   1  291.68    8.35
   4  -3   1  320.23    9.94
   4  -3  -1  324.54   10.38
   4   3   2  386.37   11.90
   4   3  -2  363.06   11.63
  -4   3   2  376.38   11.12
  -4   3  -2  400.26   12.52
  -4  -3   2  367.01   10.65
   4   3   2  341.26    9.56
   4  -3   2  392.19   11.97
   4  -3  -2  370.20   11.58
   4   3   2  375.13   10.53
   4   3   3  155.05   11.81
   4   3  -3  165.66   10.65
  -4   3   3  136.69    4.97
  -4   3  -3  129.11    5.37
  -4  -3   3  148.35    9.12
   4   3   3  139.94    4.22
   4  -3   3  138.73    5.55
   4  -3  -3  145.78    5.68
   4   3   3  143.66    4.47
   4   3   4    3.07    0.52
   4   3   5    7.74    3.05
   4   3  -5    9.91    1.96
  -4   3   5   14.18    2.48
  -4   3  -5    2.33    4.12
  -4  -3   5    8.08    1.57
   4   3   5    6.48    0.50
   4  -3   5   10.04    2.47
   4   3   5    8.09    0.79
   4  -3  -5   14.69    3.50
   4   3   6  381.08   12.39
   4   3  -6  407.53   12.49
  -4   3   6  305.16    9.11
  -4   3   6  384.50   11.52
  -4   3  -6  383.70   12.68
  -4  -3   6  402.67   12.53
   4  -3   6  368.63   11.59
   4  -3  -6  376.79   12.42
   4   3   7   38.72    3.27
   4   3  -7   38.28    4.77
  -4   3   7   19.18    3.00
  -4   3   7   40.58    2.19
  -4  -3   7   40.14    4.30
   4  -3   7   34.62    2.78
   4  -3  -7   32.64    3.25
   4   3   8   64.57    4.26
   4   3  -8   68.46    7.51
  -4   3   8   49.46    2.43
  -4   3   8   60.91    2.42
  -4   3  -8   57.31    4.23
  -4  -3   8   77.07    4.97
   4  -3   8   67.25    3.45
   4  -3  -8   60.89    4.09
   4   3  -9   74.19   10.47
  -4   3   9   68.97    2.58
  -4   3  -9   68.91    6.32
  -4  -3  -9   66.50    6.07
  -4  -3   9   72.59    6.37
   4  -3   9   65.86    5.60
   4  -3  -9   74.19    9.17
   4   3 -10  184.87    6.42
  -4   3  10  166.56    5.14
  -4   3 -10  176.04    7.61
  -4  -3  10  189.10   14.66
   4  -3  10  157.02    5.65
   4  -3 -10  171.29    7.30
   4   3 -11   48.96    7.40
  -4   3 -11   37.27    4.26
  -4  -3 -11   57.81    5.41
  -4  -3  11   56.86    7.14
   4  -3  11   53.62    4.59
   4  -3 -11   53.35    5.36
   4   3 -12  125.91    5.60
  -4   3 -12  127.87    6.67
  -4  -3 -12  127.12    6.68
  -4  -3  12  147.48   11.59
   4  -3  12  136.13    6.10
   4  -3 -12  119.78    6.95
   4   3 -13  200.16    8.22
  -4  -3 -13  209.06   10.70
  -4  -3  13  201.07    9.24
   4  -3  13  215.00    8.96
   4  -3 -13  211.61    9.96
   4   3 -14   22.41    3.71
  -4   3 -14   29.49    4.24
  -4  -3 -14   35.46    5.39
  -4  -3  14   31.29    5.28
   4  -3  14   28.92    3.11
   4  -3 -14   31.52    4.56
  -4   3 -15   44.52    4.64
  -4  -3 -15   52.41    4.79
  -4  -3  15   51.73    7.67
   4  -3  15   48.79    2.78
   4  -3 -15   42.60    3.73
  -4   3 -16    6.42    2.71
  -4  -3 -16    5.07    2.42
  -4  -3  16    8.85    2.46
   4  -3  16    6.14    1.23
   4  -3 -16   12.46    2.98
  -4   3 -17   39.76    3.90
  -4  -3 -17   28.99    4.82
  -4  -3  17   40.03    7.21
   4  -3  17   39.14    2.21
  -4   3 -18   57.53    5.33
  -4  -3 -18   49.97    4.17
  -4  -3  18   66.94    5.26
   4  -3 -18   57.49    4.58
  -4   3 -19   60.06    5.68
  -4  -3 -19   59.10    5.80
  -4  -3  19   44.94    6.74
   4  -3 -19   38.21    4.55
  -4   3 -20    3.88    2.58
  -4  -3 -20    6.55    3.31
  -4  -3  20   13.62    3.39
   4  -3 -20    5.39    2.61
  -4   3 -21   45.66    5.93
  -4  -3 -21   36.56    4.22
  -4  -3  21   43.19    5.65
   4  -3 -21   49.97    5.97
  -4   3 -22   79.97    5.46
  -4  -3 -22   68.53    5.31
  -4  -3  22   73.12    8.04
   4  -3 -22   63.70    5.82
  -4   3 -23   63.92    6.51
  -4  -3 -23   53.02    5.88
  -4  -3  23   46.53    8.11
   4  -3 -23   48.24    5.87
  -4   3 -24   38.56    6.57
  -4  -3 -24   33.09    5.92
  -4  -3  24   42.24    8.45
   4  -3 -24   48.31    7.74
  -4   3 -25   22.38    4.30
  -4  -3 -25    6.88    3.27
  -4  -3  25   12.99    4.86
   4  -3 -25   11.25    3.89
   4   4   0  120.87   10.05
  -4   4   0  101.89    4.67
  -4  -4   0  104.17    3.66
   4   4   0   85.32    3.06
   4  -4   0  101.38    4.99
   4   4  -1  615.56   17.71
   4   4   1  613.37   18.63
  -4   4   1  631.58   17.97
  -4   4  -1  603.03   17.51
  -4  -4  -1  578.82   15.95
  -4  -4   1  601.72   17.18
   4   4   1  557.32   15.36
   4  -4   1  594.73   17.14
   4  -4  -1  592.65   17.27
   4   4   2    6.46    2.47
   4   4  -2    6.57    1.86
  -4   4   2    6.25    1.97
  -4   4  -2    4.70    2.18
  -4  -4  -2    6.01    0.79
  -4  -4   2    5.20    1.04
   4   4   2    6.19    0.76
   4  -4   2   19.50    3.89
   4  -4  -2   20.71    4.27
   4   4   3  110.13   11.05
   4   4  -3  101.34   12.16
  -4   4   3   94.75    4.10
  -4   4  -3   83.45    4.63
  -4  -4   3   97.05    7.05
   4   4   3   87.51    2.96
   4  -4   3   92.07    4.79
   4  -4  -3   82.39    4.63
   4   4   3   91.96    3.25
   4   4   4    6.47    1.52
   4   4  -4    7.54    1.57
  -4   4   4    8.05    2.06
  -4   4  -4    6.91    3.36
  -4  -4   4   11.37    1.76
   4   4   4    2.08    0.42
   4  -4   4    8.91    2.96
   4  -4  -4   12.06    2.84
   4   4   5   46.04    5.21
   4   4  -5   38.64    4.43
  -4   4   5   40.83    2.67
  -4   4  -5   31.41    3.16
  -4  -4   5   35.74    5.27
   4   4   5   34.95    1.21
   4  -4   5   43.66    3.42
   4   4   5   39.15    1.40
   4  -4  -5   33.57    2.85
  -4   4   6   35.65    4.24
   4   4   6   63.74    6.35
   4   4  -6   56.36    6.31
  -4   4   6   54.98    2.76
  -4   4  -6   41.39    3.02
  -4  -4   6   57.57    5.67
   4  -4   6   56.91    3.71
   4  -4  -6   63.67    4.28
   4   4   7  448.39   14.34
   4   4  -7  453.25   13.80
  -4   4   7  441.74   13.00
  -4   4  -7  434.17   13.92
  -4  -4   7  476.07   14.99
   4  -4   7  443.49   13.64
   4  -4  -7  428.02   13.77
   4   4   8  200.14   18.85
   4   4  -8  170.05    6.24
  -4   4   8  174.24    5.71
  -4  -4   8  191.07   13.98
   4  -4   8  184.38    7.11
   4  -4  -8  158.31    7.43
   4   4   9  384.01   12.98
   4   4  -9  350.42   11.34
  -4   4   9  366.20   11.02
  -4   4  -9  349.44   12.11
  -4  -4   9  348.19   12.64
   4  -4   9  368.58   12.01
   4  -4  -9  357.70   12.48
   4   4  10  183.18    7.36
   4   4 -10  186.27   12.60
  -4   4  10  166.58    5.18
  -4   4 -10  166.51    6.93
  -4  -4  10  176.44    6.92
   4  -4  10  172.48    6.22
   4  -4 -10  167.97    7.64
   4   4  11  128.64    6.66
   4   4 -11  140.39    6.39
  -4   4 -11  122.83    6.73
  -4  -4  11  125.95   11.10
   4  -4  11  126.57    5.95
   4  -4 -11  138.42    7.98
   4   4 -12   27.93    5.83
  -4   4 -12   19.61    4.51
  -4  -4  12   28.77    6.27
   4  -4  12   28.32    3.94
   4  -4 -12   27.28    4.42
   4   4 -13   88.40    4.34
  -4   4 -13  100.69    5.39
  -4  -4 -13   99.93    6.58
  -4  -4  13  100.80    9.88
   4  -4  13   98.50    4.61
   4  -4 -13   83.10    4.76
   4   4 -14   19.60    3.80
  -4  -4 -14   28.17    4.99
  -4  -4  14   19.14    3.17
   4  -4  14   17.73    2.77
   4  -4 -14   26.63    4.45
   4   4 -15  252.62   10.33
  -4   4 -15  307.38   13.87
  -4  -4 -15  263.89   11.71
  -4  -4  15  274.18   12.15
   4  -4  15  260.21   10.52
   4  -4 -15  265.00   12.08
  -4   4 -16   23.21    4.55
  -4  -4 -16   20.19    4.08
  -4  -4  16   20.22    5.06
   4  -4  16   17.47    2.59
  -4   4 -17  163.94    7.53
  -4  -4 -17  180.03    7.76
  -4  -4  17  181.99   16.01
  -4   4 -18    3.78    2.36
  -4  -4 -18    4.17    3.01
  -4  -4  18    3.95    1.83
   4  -4  18    1.79    0.81
   4  -4 -18    8.43    3.25
  -4   4 -19   49.02    5.30
  -4  -4 -19   72.44    7.51
  -4  -4  19   66.68    7.38
   4  -4 -19   65.56    6.66
  -4   4 -20    7.37    3.74
  -4  -4 -20    8.43    3.58
  -4  -4  20   12.79    3.57
   4  -4 -20    8.06    3.54
  -4   4 -21   10.16    2.95
  -4  -4 -21   20.98    3.93
  -4  -4  21   10.69    3.96
   4  -4 -21   26.21    3.57
  -4   4 -22   11.13    3.96
  -4  -4  22   12.30    3.94
   4  -4 -22   12.86    4.44
  -4   4 -23    6.64    2.75
  -4  -4 -23   16.43    4.15
  -4  -4  23    5.10    2.60
   4  -4 -23    4.18    2.52
  -4   4 -24   45.73    6.42
  -4  -4 -24   56.52    7.47
  -4  -4  24   48.04    9.55
   4  -4 -24   60.52    8.03
  -4   4 -25   37.44    7.09
  -4  -4 -25   22.78    4.44
  -4  -4  25   23.18    5.95
   4  -4 -25   35.83    6.40
   4   5   0  603.03   18.45
  -4   5   0  557.27   16.85
  -4  -5   0  549.49   16.11
   4  -5   0  559.19   17.30
   4   5   1  159.64    9.15
   4   5  -1  177.86   12.40
  -4   5   1  160.53    6.08
  -4   5  -1  151.75    5.98
  -4  -5  -1  152.12    5.17
  -4  -5   1  150.41    5.24
   4   5   1  137.63    4.63
   4  -5   1  164.32    6.68
   4  -5  -1  156.47    6.70
   4   5   2  324.09   18.09
   4   5  -2  282.76    9.43
  -4   5   2  289.55    9.33
  -4   5  -2  295.79   10.09
  -4  -5  -2  264.43    7.93
  -4  -5   2  306.30    9.64
   4   5   2  250.17    7.51
   4  -5   2  305.19   10.30
   4  -5  -2  275.09    9.54
   4   5   3   88.62    8.79
   4   5  -3  104.90   11.07
  -4   5   3   89.72    4.27
  -4   5  -3   86.48    4.44
  -4  -5  -3   81.30    4.52
  -4  -5   3   91.79    4.59
   4   5   3   82.70    2.85
   4  -5   3  107.47    5.34
   4  -5  -3   88.47    4.60
   4   5   4  308.41   10.65
   4   5  -4  291.53    9.71
  -4   5   4  296.19    9.47
  -4   5  -4  292.19   10.38
  -4  -5   4  296.81    9.42
   4  -5   4  290.06    9.80
   4  -5  -4  273.23    9.80
   4   5   5   58.66    7.06
   4   5  -5   51.10    9.41
  -4   5   5   46.55    4.07
  -4   5  -5   46.10    4.68
  -4  -5   5   52.23    5.58
   4  -5   5   43.39    4.57
   4   5   5   42.12    3.15
   4  -5  -5   52.42    5.10
   4   5   5   43.74    3.27
   4   5   6  241.01    8.79
   4   5  -6  254.84   10.74
  -4   5   6  261.60    8.50
  -4   5  -6  241.88    9.05
  -4  -5   6  243.57    8.38
   4  -5   6  242.85    8.98
   4  -5  -6  246.06    9.24
   4   5   7  168.52   12.81
   4   5  -7  158.57   14.58
  -4   5   7  139.25    4.88
  -4   5  -7  129.87    5.49
  -4  -5   7  165.79    9.82
   4  -5   7  154.39    6.20
   4  -5  -7  156.61    7.55
   4   5   8  524.66   17.26
   4   5  -8  483.32   15.18
  -4   5   8  498.67   14.99
  -4   5  -8  468.83   15.47
  -4  -5   8  487.26   16.14
   4  -5   8  468.96   14.80
   4  -5  -8  484.56   16.19
   4   5   9  133.56   11.77
   4   5  -9  121.89    6.52
  -4   5   9  126.70    5.40
  -4   5  -9   79.23    4.68
  -4  -5   9  137.85   13.75
   4  -5   9  120.64    6.02
   4  -5  -9  116.93    7.04
   4   5  10  506.28   21.30
   4   5 -10  470.73   19.27
  -4   5  10  445.24   17.29
  -4   5 -10  474.89   19.74
  -4  -5  10  509.38   20.70
   4  -5  10  469.95   18.96
   4  -5 -10  420.07   17.63
   4   5  11    0.30    1.89
   4   5 -11    3.84    1.62
  -4   5 -11    3.51    2.90
  -4  -5  11    2.54    1.58
   4  -5  11    5.64    2.04
   4  -5 -11    9.90    3.66
   4   5  12  167.22    7.63
   4   5 -12  174.91    6.94
  -4   5 -12  181.30    7.94
  -4  -5  12  185.58   14.28
   4  -5  12  177.79    7.10
   4  -5 -12  178.25    7.81
   4   5  13    8.66    3.04
   4   5 -13    8.49    2.13
  -4   5 -13    2.62    2.55
  -4  -5  13    6.32    2.72
   4  -5  13    3.92    1.30
   4  -5 -13    6.33    2.49
   4   5 -14  199.73    9.40
  -4   5 -14  220.85   10.55
  -4  -5  14  220.43    9.82
   4  -5  14  209.79    9.03
   4   5 -15   65.57    5.60
  -4   5 -15   59.09    5.05
  -4  -5 -15   74.52    5.51
  -4  -5  15   76.69    8.94
   4  -5  15   73.58    3.79
  -4   5 -16  111.82    7.08
  -4  -5 -16  110.05    6.29
  -4  -5  16  123.04   11.74
   4  -5  16  113.31    4.68
  -4   5 -17   44.56    3.84
  -4  -5 -17   45.62    3.89
  -4  -5  17   35.23    5.79
   4  -5  17   45.09    2.94
   4  -5 -17   54.32    4.79
  -4   5 -18   43.11    5.46
  -4  -5 -18   38.81    4.56
  -4  -5  18   45.19    6.48
   4  -5  18   36.26    3.55
   4  -5 -18   44.33    5.64
  -4   5 -19   10.43    3.97
  -4  -5 -19   12.47    3.70
  -4  -5  19    8.19    2.38
   4  -5  19    9.78    1.92
   4  -5 -19    8.69    2.65
  -4   5 -20    7.03    3.71
  -4  -5 -20   10.93    3.84
  -4  -5  20   15.75    4.34
   4  -5  20    6.27    1.74
   4  -5 -20   11.37    4.07
  -4   5 -21    8.49    3.54
  -4  -5 -21    6.66    2.56
  -4  -5  21    5.51    2.16
   4  -5 -21   13.27    4.40
  -4   5 -22    9.23    3.80
  -4  -5 -22   18.14    3.55
  -4  -5  22   21.59    5.33
   4  -5 -22    9.11    3.17
  -4   5 -23   13.37    4.28
  -4  -5 -23   22.56    4.61
  -4  -5  23   11.16    3.22
   4  -5 -23   18.75    4.92
  -4   5 -24    3.57    2.38
  -4  -5 -24    9.84    3.50
  -4  -5  24    8.13    3.56
   4  -5 -24    5.44    2.53
   4   6   0    3.99    2.16
  -4   6   0    3.26    1.92
  -4  -6   0    5.87    1.08
   4  -6   0    6.17    2.75
   4   6   1  259.34   17.74
   4   6  -1  239.17    8.68
  -4   6   1  225.12    7.84
  -4   6  -1  245.29    8.63
  -4  -6  -1  230.46    7.34
  -4  -6   1  234.93    7.77
   4  -6   1  235.06    8.75
   4  -6  -1  248.90    9.33
   4   6   2   33.79    7.85
   4   6  -2   34.49    5.37
  -4   6   2   27.69    3.20
  -4   6  -2   36.86    3.71
  -4  -6   2   27.86    4.41
   4  -6   2   31.85    4.02
   4  -6  -2   39.79    5.19
   4   6   3  349.54   12.43
   4   6  -3  371.60   12.49
  -4   6   3  351.15   11.32
  -4   6  -3  346.00   11.60
  -4  -6  -3  318.74    9.67
  -4  -6   3  358.27   11.47
   4  -6   3  379.89   12.96
   4  -6  -3  333.50   11.45
   4   6   4   39.78    4.83
   4   6  -4   42.99    6.02
  -4   6   4   35.70    3.70
  -4   6  -4   31.19    3.89
  -4  -6  -4   30.41    3.05
  -4  -6   4   42.75    6.70
   4  -6   4   38.34    4.77
   4  -6  -4   38.60    5.24
   4   6   5  264.23   14.33
   4   6  -5  239.73    8.85
  -4   6   5  226.66    7.61
  -4   6  -5  230.48    8.82
  -4  -6   5  231.88    8.02
   4  -6   5  218.33    8.19
   4  -6  -5  225.08    9.08
   4   6   6   26.55    4.23
   4   6  -6   17.56    2.50
  -4   6   6   18.37    2.13
  -4   6  -6   13.23    2.22
  -4  -6   6   19.68    2.81
   4  -6   6   20.95    3.49
   4  -6  -6   14.59    3.83
   4   6   7  255.85   11.41
   4   6  -7  237.76   10.62
  -4   6   7  232.27    9.59
  -4   6  -7  224.04   10.51
  -4  -6   7  265.97   19.67
   4  -6   7  245.48   10.87
   4  -6  -7  243.55   11.10
   4   6   8   32.06    6.73
   4   6  -8   28.78    6.04
  -4   6   8   28.10    3.57
  -4   6  -8   18.05    4.09
  -4  -6   8   23.29    4.19
   4  -6   8   24.95    4.21
   4  -6  -8   33.31    5.32
   4   6   9   68.04   11.92
   4   6  -9   51.66    6.36
  -4   6   9   59.50    6.55
  -4   6  -9   45.39    5.39
  -4  -6   9   51.47    6.76
   4  -6   9   62.28    4.20
   4  -6  -9   53.52    6.25
   4   6  10  107.36   10.03
   4   6 -10  115.94    8.12
  -4   6 -10  107.01    5.86
  -4  -6  10  105.91    5.05
   4  -6  10   95.94    4.90
   4  -6 -10  100.60    5.58
   4   6  11   17.74    3.83
   4   6 -11    7.49    1.63
  -4   6 -11    4.20    2.95
  -4  -6  11    7.08    2.15
   4  -6  11   12.20    2.47
   4  -6 -11   12.71    3.57
   4   6  12   75.28    8.90
   4   6 -12   80.82    6.76
  -4   6 -12   68.46    5.72
  -4  -6  12   64.77   10.22
   4  -6  12   76.64    4.50
   4  -6 -12   65.98    4.69
   4   6  13   59.20    8.39
   4   6 -13   61.08    6.00
  -4   6 -13   51.99    4.55
  -4  -6  13   65.04    5.70
   4  -6  13   66.23    3.85
   4   6 -14   69.42    4.02
  -4   6 -14   71.36    4.92
  -4  -6  14   71.04    8.55
   4  -6  14   68.00    3.41
   4  -6 -14   74.90    5.69
   4   6 -15   33.29    6.23
  -4  -6  15   36.46    4.20
   4  -6  15   35.43    3.18
   4  -6 -15   43.48    3.91
   4   6  16   48.99    4.21
   4   6 -16   58.74    5.78
  -4   6 -16   55.56    5.17
  -4  -6  16   61.59    5.27
   4  -6  16   48.68    3.33
   4  -6 -16   66.87    5.03
  -4   6 -17    9.66    2.77
  -4  -6 -17    8.67    3.39
  -4  -6  17   14.31    3.67
   4  -6  17    7.77    1.76
   4  -6 -17    8.45    2.74
  -4   6 -18   65.31    7.29
  -4  -6 -18   50.69    5.35
  -4  -6  18   43.52    6.43
   4  -6  18   47.33    4.26
   4  -6 -18   54.19    5.64
  -4   6 -19   10.81    3.45
  -4  -6 -19   29.01    3.84
  -4  -6  19   21.05    3.92
   4  -6  19   24.19    2.36
   4  -6 -19    7.71    3.18
  -4   6 -20   18.79    3.65
  -4  -6 -20   23.62    3.86
   4  -6  20   16.82    2.13
   4  -6 -20   17.15    3.25
  -4   6 -21   33.02    4.62
  -4  -6 -21   47.86    5.54
  -4  -6  21   43.83    7.88
   4  -6 -21   38.53    4.99
  -4   6 -22   22.29    4.87
  -4  -6 -22   13.09    3.47
  -4  -6  22   13.29    3.54
   4  -6 -22   14.06    3.04
  -4   6 -23   19.90    3.84
  -4  -6 -23   18.11    3.89
  -4  -6  23   15.01    3.35
   4  -6 -23   23.75    4.58
   4   7   0  600.51   24.22
  -4   7   0  635.17   25.46
  -4  -7   0  571.14   22.47
   4  -7   0  637.87   25.75
   4   7   1   27.33    5.14
   4   7  -1   23.02    4.94
  -4   7   1   16.36    2.71
  -4   7  -1   25.15    4.08
  -4  -7  -1   23.09    3.79
  -4  -7   1   18.86    3.44
   4  -7   1   19.26    3.91
   4  -7  -1   35.55    4.99
   4   7   2  323.50   13.82
   4   7  -2  318.01   15.30
  -4   7   2  317.53   13.25
  -4   7  -2  310.86   13.22
  -4  -7  -2  300.19   12.00
  -4  -7   2  305.98   12.58
   4  -7   2  311.52   13.76
   4  -7  -2  308.66   13.58
   4   7   3   57.26    7.66
   4   7  -3   58.20    9.12
  -4   7   3   47.14    5.08
  -4   7  -3   44.14    6.14
  -4  -7  -3   38.91    5.46
  -4  -7   3   43.43    6.80
   4  -7   3   54.51    4.74
   4  -7  -3   55.79    5.37
   4   7   4  174.96   15.12
   4   7  -4  171.86    8.23
  -4   7   4  174.98    7.61
  -4   7  -4  177.68    8.37
  -4  -7  -4  152.69    6.19
  -4  -7   4  162.24    7.38
   4  -7   4  186.51    9.18
   4  -7  -4  171.30    8.55
   4   7   5  152.84   14.60
   4   7  -5  154.20   15.44
  -4   7   5  147.82    6.79
  -4   7  -5  148.23    7.37
  -4  -7   5  160.27    7.21
   4  -7   5  156.96    8.06
   4  -7  -5  141.24    8.00
   4   7   6  281.07   19.64
   4   7  -6  264.47   16.55
  -4   7   6  236.47    8.62
  -4   7  -6  238.20    9.85
  -4  -7   6  234.89   10.54
   4  -7   6  220.70    8.86
   4  -7  -6  240.00   10.23
   4   7   7  127.37   13.31
   4   7  -7  148.19   11.66
  -4   7   7  118.65    4.78
  -4   7  -7  111.42    5.68
  -4  -7   7  110.02    8.99
   4  -7   7  122.37    5.81
   4  -7  -7  109.78    6.02
   4   7   8   15.17    3.13
   4   7  -8   12.92    3.19
  -4   7   8   20.93    2.42
  -4   7  -8    9.27    2.80
  -4  -7   8   22.70    4.46
   4  -7   8   18.29    3.21
   4  -7  -8   10.20    2.98
   4   7   9   85.05   11.59
   4   7  -9   88.95    7.42
  -4   7   9   89.97    4.09
  -4   7  -9   73.54    4.81
  -4  -7   9   85.42    8.16
   4  -7   9   82.05    4.93
   4  -7  -9   95.43    6.17
   4   7  10    5.98    2.30
   4   7 -10    5.44    1.99
  -4   7 -10    1.47    2.77
  -4  -7  10    2.35    1.01
   4  -7  10    3.03    1.60
   4  -7 -10    0.73    2.13
   4   7  11  128.81   11.52
   4   7 -11  142.81   11.76
  -4   7 -11  123.18    7.09
  -4  -7  11  134.64    5.84
   4  -7  11  115.44    5.41
   4  -7 -11  141.07    7.39
   4   7  12   35.09    5.75
   4   7 -12   32.14    4.55
  -4   7 -12   26.67    4.68
  -4  -7  12   35.84    4.45
   4  -7  12   21.52    3.43
   4   7 -13   44.46    6.78
  -4   7 -13   42.59    3.89
  -4  -7  13   52.60    5.02
   4  -7  13   42.19    3.08
   4   7 -14   80.01    6.67
  -4   7 -14   66.80    4.91
  -4  -7  14   64.91    7.21
   4  -7  14   68.85    4.49
   4  -7 -14   61.84    4.47
   4   7  15   31.13    5.18
   4   7 -15   29.41    6.60
  -4   7 -15   31.14    4.38
  -4  -7  15   32.59    6.78
   4  -7  15   41.10    4.19
   4  -7 -15   44.11    4.90
   4   7  16   91.77    8.32
   4   7 -16   81.95    8.60
  -4  -7  16   80.98   14.73
   4  -7  16   86.28    7.13
   4  -7 -16   70.82    7.42
   4   7  17   35.62    4.47
  -4   7 -17   42.33    5.64
  -4  -7  17   45.09    8.43
   4  -7  17   39.64    3.85
   4  -7 -17   43.04    5.61
  -4   7 -18   60.83    4.70
  -4  -7  18   64.20    7.79
   4  -7  18   64.85    3.95
   4  -7 -18   74.22    5.23
  -4   7 -19   22.15    3.55
  -4  -7 -19   16.05    2.87
  -4  -7  19   27.78    3.55
   4  -7  19   26.35    2.77
   4  -7 -19   25.53    3.77
  -4   7 -20   54.76    7.72
  -4  -7 -20   47.79    6.78
  -4  -7  20   43.01   10.68
   4  -7  20   50.15    6.63
   4  -7 -20   59.70    8.37
  -4   7 -21   11.71    4.13
  -4  -7 -21   15.47    3.67
  -4  -7  21   21.60    3.81
   4  -7  21   23.33    3.56
   4  -7 -21   15.58    3.50
  -4   7 -22   24.55    4.26
  -4  -7 -22   39.26    6.13
  -4  -7  22   28.87    6.18
   4  -7 -22   51.99    7.87
   4   8   0  157.93    6.93
  -4   8   0  161.59    6.87
  -4  -8   0  149.70    6.25
   4  -8   0  172.67    8.24
   4   8   1   64.37    5.54
   4   8  -1   61.86    6.29
  -4   8   1   55.35    5.77
  -4   8  -1   59.00    7.01
  -4  -8  -1   57.72    8.18
  -4  -8   1   61.88    5.32
   4  -8   1   64.59    4.60
   4  -8  -1   61.74    5.04
   4   8   2   87.90    6.94
   4   8  -2   96.35   13.99
  -4   8   2   97.10    4.90
  -4   8  -2   87.52    4.86
  -4  -8  -2   72.74    4.24
  -4  -8   2   87.73    6.93
   4  -8   2   82.76    5.25
   4  -8  -2   84.48    6.53
   4   8   3  187.92    8.08
   4   8  -3  196.95   16.54
  -4   8   3  203.66    8.04
  -4   8  -3  190.98    8.22
  -4  -8  -3  194.84    6.99
  -4  -8   3  190.00    7.52
   4  -8   3  207.72    8.69
   4  -8  -3  195.62    9.06
   4   8   4  106.53   12.84
   4   8  -4  137.82   11.59
  -4   8   4  108.50    5.16
  -4   8  -4  115.25    6.02
  -4  -8   4  105.79    5.05
   4  -8   4  115.82    6.25
   4  -8  -4  115.38    7.13
   4   8   5  104.81   11.46
   4   8  -5  124.65    6.13
  -4   8   5  103.04    4.90
  -4   8  -5  107.64    6.36
  -4  -8   5  107.48    5.07
   4  -8   5  110.61    6.64
   4  -8  -5  114.20    7.45
   4   8   6   94.51   11.58
   4   8  -6   96.97   10.14
  -4   8   6   94.00    4.72
  -4   8  -6   85.87    5.99
  -4  -8   6   76.34    7.90
   4  -8   6   93.07    5.46
   4  -8  -6   77.28    5.31
   4   8   7   31.49    5.75
   4   8  -7   37.77    6.95
  -4   8   7   39.22    2.85
  -4   8  -7   25.52    4.60
  -4  -8   7   29.87    5.59
   4  -8   7   30.63    4.67
   4  -8  -7   35.98    4.56
   4   8   8   28.43    6.47
   4   8  -8   36.21    6.13
  -4   8   8   32.45    2.21
  -4   8  -8   42.25    4.06
  -4  -8   8   30.77    4.61
   4  -8   8   27.98    4.12
   4  -8  -8   35.21    4.48
   4   8   9  134.21   13.77
   4   8  -9  144.52   10.66
  -4   8  -9  142.66    6.82
  -4  -8   9  143.23    9.69
   4  -8   9  142.58    6.33
   4  -8  -9  123.82    6.20
   4   8  10   15.34    3.17
   4   8 -10   10.07    2.54
  -4   8 -10    1.89    2.48
  -4  -8  10    8.33    2.23
   4  -8  10    5.56    2.48
   4  -8 -10   11.47    3.21
   4   8  11  204.26   16.89
   4   8 -11  206.71    9.11
  -4   8 -11  193.12    9.41
  -4  -8  11  185.96   14.02
   4  -8  11  184.30    8.69
   4   8  12    3.94    1.77
   4   8 -12    3.73    1.33
  -4   8 -12   -1.88    2.60
  -4  -8  12    1.88    1.20
   4  -8  12    1.89    1.47
   4  -8 -12    5.16    2.54
   4   8  13   55.01    7.52
   4   8 -13   64.05    7.26
  -4   8 -13   55.70    5.66
  -4  -8  13   55.31    7.71
   4  -8  13   53.92    5.21
   4  -8 -13   56.45    5.63
   4   8  14    8.09    2.67
   4   8 -14   10.70    2.65
  -4   8 -14    5.91    2.73
  -4  -8  14   18.13    5.49
   4  -8  14    7.59    2.41
   4  -8 -14    4.15    3.32
   4   8  15   30.27    5.79
   4   8 -15   25.64    5.88
  -4   8 -15   30.28    3.76
  -4  -8  15   27.69    5.23
   4  -8  15   27.62    3.44
   4  -8 -15   23.95    4.58
   4   8  16   21.93    4.89
   4   8 -16   18.18    2.60
   4  -8  16   15.12    3.78
   4  -8 -16    8.50    3.21
   4   8  17   12.97    3.73
  -4   8 -17   26.71    3.73
  -4  -8  17   23.40    4.62
   4  -8  17   23.72    2.34
   4  -8 -17   18.86    3.45
   4   8  18   15.79    3.01
  -4   8 -18    8.24    2.88
  -4  -8  18   13.15    4.52
   4  -8  18   14.08    3.50
   4  -8 -18   11.74    3.70
   4   8  19   11.05    3.44
  -4   8 -19   13.38    4.50
  -4  -8  19    8.95    2.36
   4  -8  19    8.67    2.36
   4  -8 -19    2.40    2.46
  -4   8 -20    3.91    2.64
  -4  -8 -20   10.36    3.62
  -4  -8  20   14.65    4.49
   4  -8  20    8.57    2.56
   4  -8 -20    6.05    2.50
  -4   8 -21   10.47    3.59
  -4  -8 -21   12.66    3.66
  -4  -8  21    6.91    2.82
   4  -8  21   12.09    2.39
   4  -8 -21    5.52    2.31
   4   9   0   52.02    6.86
  -4   9   0   41.81    3.34
  -4  -9   0   41.99    5.98
   4  -9   0   46.31    3.83
   4   9   1    1.93    1.59
   4   9  -1    1.62    2.05
  -4   9   1    4.23    1.76
  -4   9  -1    0.67    1.84
  -4  -9   1    2.48    1.57
  -4  -9  -1    2.00    0.77
   4  -9   1    9.30    4.00
   4  -9  -1    3.09    2.57
   4   9   2   12.79    3.49
   4   9  -2   15.16    2.96
  -4   9   2   12.20    2.54
  -4   9  -2    8.20    2.28
  -4  -9   2    6.27    1.76
  -4  -9  -2    7.41    1.62
   4  -9   2   10.28    2.65
   4  -9  -2   16.03    3.97
   4   9   3  165.75   12.51
   4   9  -3  185.85   13.51
  -4   9   3  167.11    6.77
  -4   9  -3  151.60    6.71
  -4  -9   3  155.70    6.17
   4  -9   3  165.32    7.70
   4  -9  -3  180.10    8.06
   4   9   4   35.48    3.76
   4   9  -4   35.54    6.17
  -4   9   4   27.93    4.13
  -4   9  -4   34.04    3.67
  -4  -9   4   30.39    5.53
   4  -9   4   24.26    4.02
   4  -9  -4   31.92    4.70
   4   9   5   65.88    4.78
   4   9  -5   52.37    7.17
  -4   9   5   60.73    3.58
  -4   9  -5   57.97    4.25
  -4  -9   5   51.66    8.04
   4  -9   5   52.39    4.61
   4  -9  -5   57.24    5.54
   4   9   6  107.18   10.15
   4   9  -6   84.87    9.33
  -4   9   6   91.05    4.32
  -4   9  -6   97.09    5.91
  -4  -9   6   87.17    6.49
   4  -9   6   87.77    5.03
   4  -9  -6   96.03    6.17
   4   9   7    3.90    2.23
   4   9  -7    3.70    1.52
  -4   9   7    1.49    1.05
  -4   9  -7    3.03    2.34
  -4  -9   7    2.46    1.70
   4  -9   7    7.47    3.11
   4  -9  -7    3.14    2.45
   4   9   8   82.00   11.15
   4   9  -8   75.63    6.63
  -4   9   8   82.49    4.07
  -4   9  -8   77.24    4.90
  -4  -9   8   77.98   11.34
   4  -9   8   78.68    5.16
   4  -9  -8   82.00    5.95
   4   9   9   14.75    2.83
   4   9  -9   13.62    3.86
  -4   9  -9    4.14    2.24
  -4  -9   9    4.61    1.32
   4  -9   9   12.72    3.05
   4   9  10   49.02    9.51
   4   9 -10   71.97    8.75
  -4   9 -10   67.02    6.17
  -4  -9  10   76.10    9.28
   4  -9  10   59.77    5.67
   4   9  11   14.17    2.82
   4   9 -11    5.26    2.28
  -4   9 -11    9.45    2.48
  -4  -9  11   13.73    3.96
   4  -9  11   11.55    3.09
   4  -9 -11   16.86    4.34
   4   9  12   96.19   14.59
   4   9 -12   97.49   10.98
  -4   9 -12  104.70    9.04
  -4  -9  12  100.49   11.77
   4  -9  12   90.11    7.67
   4  -9 -12   92.97    8.11
   4   9 -13   18.05    4.50
  -4   9 -13   12.13    3.12
  -4  -9  13   19.53    4.04
   4  -9  13   20.93    5.18
   4  -9 -13   16.26    3.58
   4   9  14  100.89   13.26
   4   9 -14   88.99   10.22
  -4   9 -14   96.30    6.81
  -4  -9  14   96.81    9.24
   4  -9  14   99.17    5.38
   4  -9 -14   97.96    6.73
   4   9  15   31.72    4.94
   4   9 -15   27.36    3.61
  -4   9 -15   15.19    4.26
  -4  -9  15   28.45    4.88
   4  -9  15   22.08    3.04
   4  -9 -15   19.82    3.42
   4   9  16   41.94    6.47
   4   9 -16   46.72    3.93
  -4   9 -16   39.90    4.63
  -4  -9  16   48.64    8.07
   4  -9  16   52.68    4.58
   4  -9 -16   57.04    6.15
   4   9  17   25.05    5.11
   4   9 -17   27.92    4.19
  -4  -9  17   31.78    5.94
   4  -9  17   30.32    4.65
   4  -9 -17   13.82    3.23
   4   9  18    6.29    2.09
  -4   9 -18   10.67    3.35
  -4  -9  18   14.09    4.26
   4  -9  18    5.98    1.96
   4  -9 -18   11.94    3.46
   4   9  19   18.44    3.40
  -4   9 -19   28.73    5.97
  -4  -9  19   19.59    4.85
   4  -9  19   17.11    2.97
   4  -9 -19   27.43    5.05
   4  10   0    2.84    1.44
  -4 -10   0    2.94    0.90
   4 -10   0    4.46    2.41
   4  10   1  122.22    6.19
   4  10  -1  129.32   11.25
  -4  10   1  136.97    6.61
  -4  10  -1  129.31    6.42
  -4 -10   1  123.45    5.62
   4 -10   1  131.00    7.42
   4 -10  -1  131.58    7.79
   4  10   2   23.97    4.20
   4  10  -2   15.97    2.80
  -4  10   2   21.19    2.93
  -4  10  -2   17.35    3.09
  -4 -10   2   14.32    3.89
   4 -10   2   14.91    3.19
   4 -10  -2   14.23    3.98
   4  10   3  110.02   10.55
   4  10  -3  117.88   12.57
  -4  10   3  124.02    6.47
  -4  10  -3  113.19    6.58
  -4 -10   3  133.87   10.23
   4 -10   3  106.03    6.09
   4 -10  -3  108.69    6.55
   4  10   4   10.16    2.37
   4  10  -4   17.85    3.15
  -4  10   4   11.16    2.26
  -4  10  -4    8.46    2.37
  -4 -10   4    8.28    2.18
   4 -10   4   12.76    2.81
   4 -10  -4   13.94    3.06
   4  10   5   74.81    8.33
   4  10  -5   72.15    7.93
  -4  10   5   67.07    5.58
  -4  10  -5   63.27    5.83
  -4 -10   5   60.43    8.26
   4 -10   5   82.54    7.48
   4 -10  -5   86.76    8.62
   4  10   6   10.63    2.95
   4  10  -6   19.73    4.09
  -4  10   6    8.93    2.27
  -4  10  -6   13.48    3.21
  -4 -10   6    9.48    2.03
   4 -10   6   18.69    4.22
   4 -10  -6   11.46    3.31
   4  10   7   44.64    9.59
   4  10  -7   51.65    8.18
  -4  10   7   43.29    3.80
  -4  10  -7   53.90    5.30
  -4 -10   7   45.76    6.66
   4 -10   7   55.85    5.80
   4 -10  -7   47.20    5.41
   4  10   8    9.06    3.24
   4  10  -8   18.91    4.02
  -4  10  -8    5.58    3.21
  -4 -10   8    8.24    1.83
   4 -10   8   11.05    2.80
   4  10   9   47.66    9.56
   4  10  -9   48.76    6.92
  -4  10  -9   52.30    5.47
  -4 -10   9   51.54    7.58
   4 -10   9   54.68    5.33
   4 -10  -9   42.85    5.15
   4  10  10   56.20    7.47
   4  10 -10   62.73   10.16
  -4  10 -10   52.34    6.24
  -4 -10  10   44.04    9.30
   4 -10  10   54.56    5.36
   4 -10 -10   51.79    5.33
   4  10  11   46.09    6.11
   4  10 -11   31.87    3.67
  -4  10 -11   33.45    4.18
  -4 -10  11   37.63    5.62
   4 -10  11   39.53    3.97
   4 -10 -11   41.27    4.45
   4  10 -12   80.84    7.22
  -4  10 -12   67.62    4.91
  -4 -10  12   65.14    7.81
   4 -10  12   78.42    5.10
   4 -10 -12   79.68    6.27
   4  10  13   22.34    3.78
   4  10 -13    4.91    1.85
  -4  10 -13   11.39    4.42
  -4 -10  13   14.00    4.11
   4 -10  13   19.25    3.19
   4 -10 -13   17.03    3.76
   4  10  14   16.09    3.13
   4  10 -14   21.33    2.61
  -4  10 -14   16.17    3.77
  -4 -10  14   12.22    3.71
   4 -10  14   13.67    3.69
   4 -10 -14   18.07    3.84
   4  10  15   23.09    5.99
   4  10 -15   31.12    4.55
  -4  10 -15   33.39    5.25
  -4 -10  15   29.30    6.09
   4 -10  15   28.59    4.25
   4 -10 -15   30.23    5.40
   4  10  16    4.99    2.02
   4  10 -16    3.42    1.57
  -4  10 -16    0.42    2.21
  -4 -10  16    2.98    1.46
   4 -10  16    5.67    2.21
   4 -10 -16    6.89    3.63
   4  10  17   53.59   12.17
   4  10 -17   72.69    8.88
  -4  10 -17   57.13    7.74
  -4 -10  17   58.85   11.07
   4 -10  17   62.29    7.75
   4 -10 -17   65.85    9.16
   4  11   0   78.26   13.23
  -4  11   0   84.62    7.30
   4 -11   0   95.09    8.60
   4  11   1    6.19    2.53
   4  11  -1    3.36    1.83
  -4  11   1    5.18    1.88
  -4  11  -1    1.98    1.88
  -4 -11   1    3.18    1.34
   4 -11   1   11.15    3.69
   4 -11  -1    7.62    2.49
   4  11   2   83.73   12.80
   4  11  -2   92.12   15.96
  -4  11   2   96.21    7.95
  -4  11  -2   88.55    7.54
  -4 -11   2  102.40    9.75
   4 -11   2  105.35    9.45
   4 -11  -2  107.28    9.40
   4  11   3   11.34    3.31
   4  11  -3    2.31    0.99
  -4 -11   3    3.62    1.06
   4 -11   3    7.74    2.71
   4 -11  -3    3.25    2.43
   4  11   4   73.47    9.37
   4  11  -4   76.69   13.70
  -4  11   4   84.28    7.09
  -4  11  -4   93.73    8.12
  -4 -11   4   73.47   12.83
   4 -11   4   94.25    8.50
   4 -11  -4   63.83    6.23
   4  11   5    6.44    2.52
   4  11  -5    7.94    2.06
  -4  11  -5   10.97    3.18
  -4 -11   5    9.27    1.98
   4 -11   5    7.97    2.65
   4 -11  -5   16.22    4.29
   4  11   6   38.76    5.90
   4  11  -6   35.66    6.26
  -4  11   6   33.75    2.71
  -4  11  -6   44.61    3.64
  -4 -11   6   42.58    6.22
   4 -11   6   40.82    4.10
   4 -11  -6   38.47    4.36
   4  11   7    6.39    2.47
   4  11  -7    3.10    2.12
  -4  11  -7    5.09    2.38
   4 -11   7    5.78    2.88
   4  11   8   20.85    3.09
   4  11  -8   22.40    3.64
  -4  11  -8   35.05    3.91
  -4 -11   8   13.71    3.46
   4 -11   8   11.54    3.16
   4 -11  -8   11.51    3.44
   4  11   9    3.54    1.69
   4  11  -9    5.07    1.54
  -4  11  -9    5.35    2.25
  -4 -11   9    4.70    2.46
   4 -11   9    5.76    3.38
   4 -11  -9    4.81    3.55
   4  11  10    8.81    2.79
   4  11 -10   11.67    3.39
  -4  11 -10   15.98    2.99
  -4 -11  10   13.72    3.39
   4 -11  10    9.27    3.19
   4  11  11    8.66    2.97
   4  11 -11    3.06    2.31
  -4  11 -11    4.29    2.23
  -4 -11  11    2.82    1.16
   4 -11  11    2.25    1.73
   4 -11 -11   18.57    4.42
   4  11  12   11.69    3.33
   4  11 -12   13.56    3.81
  -4  11 -12   12.17    3.84
  -4 -11  12   10.33    3.82
   4 -11  12    9.29    3.02
   4 -11 -12   14.58    4.13
   4  11  13    9.74    2.75
   4  11 -13    7.79    2.19
  -4  11 -13    9.81    3.94
  -4 -11  13   19.34    4.32
   4 -11  13   13.68    3.01
   4 -11 -13   10.34    3.26
   4  11  14    4.66    2.49
   4  11 -14    6.55    2.44
  -4  11 -14    3.93    2.47
  -4 -11  14    4.68    1.78
   4 -11  14    4.04    2.24
   4 -11 -14    9.66    3.73
   4  11  15   12.28    3.46
   4  11 -15   10.44    2.56
  -4  11 -15    9.96    3.18
  -4 -11  15    9.27    2.19
   4 -11  15    4.61    1.71
   4 -11 -15    5.48    2.32
   4  12   0    9.14    2.53
  -4  12   0    2.57    1.65
   4 -12   0    7.60    2.85
   4  12   1   41.62    4.07
  -4  12   1   38.29    3.83
  -4  12  -1   43.43    3.81
   4 -12   1   46.65    5.58
   4 -12  -1   40.62    5.29
   4  12   2    4.83    2.15
   4  12  -2    3.27    1.60
  -4  12   2    5.89    2.58
   4 -12   2    6.66    3.53
   4 -12  -2    6.37    2.70
   4  12   3   78.09    7.28
   4  12  -3   64.88   11.79
  -4  12   3   82.60    5.81
  -4  12  -3   90.35    6.64
   4 -12   3   87.89    6.82
   4 -12  -3   92.26    7.04
   4  12   4   19.66    3.35
   4  12  -4   22.97    3.11
  -4  12   4   16.72    2.38
  -4  12  -4   12.97    3.45
  -4 -12   4   14.82    3.51
   4 -12   4   20.19    3.38
   4 -12  -4   14.84    3.06
   4  12   5   36.24    6.05
   4  12  -5   32.95    7.90
  -4  12   5   38.79    3.67
  -4  12  -5   46.28    4.84
  -4 -12   5   30.43    5.21
   4 -12   5   33.71    4.20
   4  12   6   18.66    4.83
   4  12  -6    7.90    2.45
  -4  12  -6   23.82    4.11
  -4 -12   6   15.31    3.64
   4 -12   6   21.63    4.02
   4  12   7   21.79    5.89
   4  12  -7   23.82    4.14
  -4  12  -7   15.25    3.27
  -4 -12   7   23.91    5.05
   4 -12   7   18.82    3.67
   4 -12  -7   34.57    6.61
   4  12   8   13.68    3.95
   4  12  -8   11.00    4.74
  -4  12  -8   21.02    4.03
  -4 -12   8   16.39    3.77
   4 -12   8    8.37    2.46
   4 -12  -8   14.25    4.21
   4  12   9   84.12   18.48
   4  12  -9   60.38   10.84
  -4  12  -9   90.29   12.24
  -4 -12   9   60.85    9.92
   4 -12   9   68.73    8.88
   4 -12  -9   66.96    9.17
   4  12  10    2.66    2.29
   4  12 -10    7.09    2.91
  -4  12 -10    6.54    3.50
  -4 -12  10    2.47    1.18
   4 -12  10    7.02    2.81
   4 -12 -10   21.42    5.68
   4  12 -11   35.40    8.95
  -4  12 -11   39.90    5.98
  -4 -12  11   26.52    6.71
   4 -12  11   31.20    4.96
   4 -12 -11   41.53    7.23
   4  12  12   25.92    5.51
   4  12 -12   25.44    4.76
  -4  12 -12   26.12    4.93
  -4 -12  12   18.59    4.14
   4 -12  12   31.63    5.80
   4 -12 -12   18.27    4.40
   4  13   0    4.09    1.58
   4 -13   0    8.13    3.35
   4  13   1   27.20    5.59
   4  13  -1   31.54    6.35
  -4  13   1   18.23    3.34
  -4  13  -1   29.56    4.73
   4 -13   1   28.12    5.30
   4  13   2    2.28    2.44
   4  13  -2    5.68    2.37
  -4  13   2    7.70    2.52
  -4  13  -2    6.59    2.66
   4 -13   2   10.38    3.48
   4 -13  -2   13.46    4.21
   4  13   3   13.87    3.55
   4  13  -3   17.82    5.04
  -4  13   3   22.63    3.69
  -4  13  -3   19.48    3.32
   4 -13   3   13.19    3.50
   4 -13  -3   27.11    5.01
   4  13   4    9.43    3.29
   4  13  -4    7.34    2.27
  -4  13   4    3.11    2.22
  -4  13  -4    8.16    2.98
   4 -13   4    6.07    2.50
   4  13   5    9.11    2.87
   4  13  -5   17.86    4.32
  -4  13  -5   14.45    2.94
   4 -13   5   13.84    3.42
   4 -13  -5   13.23    4.09
   4  13   6   42.67    8.08
   4  13  -6   25.49    6.94
  -4  13  -6   50.76    8.17
  -4 -13   6   26.40    6.26
   4 -13   6   26.40    4.85
   4 -13  -6   51.49    8.65
   4  13   7    8.15    2.57
   4  13  -7    9.42    2.55
  -4  13  -7    9.76    3.27
  -4 -13   7    4.10    1.58
   4 -13   7   13.14    3.34
   4 -13  -7   18.03    4.30
  -5   0   0    6.24    3.21
   5   0   0    1.59    1.30
  -5   0  -1    1.93    1.98
  -5   0   1    2.69    1.73
   5   0   1    3.97    1.33
   5   0  -1    4.94    2.07
  -5   0  -2    2.96    1.98
  -5   0   2    4.45    1.67
   5   0   2    3.34    1.64
   5   0  -2    6.91    1.71
  -5   0  -3   46.23    6.16
  -5   0   3   48.22    5.22
   5   0   3   35.57    4.34
   5   0  -3   43.22    5.40
  -5   0   4   11.83    2.48
  -5   0  -4   14.21    2.93
   5   0   4   16.75    2.49
   5   0  -4   10.66    2.02
  -5   0   5   60.79    3.89
  -5   0  -5   61.91    4.11
   5   0   5   69.54    3.53
   5   0  -5   72.89    4.23
  -5   0  -6  277.57   10.64
  -5   0   6  286.06   10.33
   5   0   6  279.12    9.79
   5   0  -6  280.36   10.54
  -5   0  -7   -2.01    2.69
  -5   0   7    2.71    1.42
   5   0   7    3.54    1.14
   5   0  -7    2.32    1.88
  -5   0   8  322.75   11.27
  -5   0  -8  336.05   13.04
   5   0  -8  346.30   12.81
  -5   0   9    4.59    1.49
  -5   0  -9    9.96    3.96
   5   0  -9    5.83    3.06
  -5   0 -10  192.94    9.14
   5   0 -10  195.14    8.91
  -5   0 -11   18.43    4.73
   5   0 -11   17.90    3.91
  -5   0 -12  117.29    6.81
   5   0 -12  122.94    6.23
  -5   0 -13    5.31    2.71
  -5   0 -14   22.08    3.47
  -5   0 -15   28.14    3.79
  -5   0  15    6.23    1.94
  -5   0  16   71.89    6.97
  -5   0 -17   31.51    5.61
  -5   0  17   32.04    3.89
  -5   0 -18   19.04    3.15
  -5   0  18   23.90    3.84
  -5   0 -19   63.54    5.41
  -5   0 -20    4.46    3.40
  -5   0  20   -0.70    1.90
  -5   0 -21    7.92    3.45
  -5   0  21    1.57    2.33
  -5   0 -22    7.56    3.49
  -5   0  22    5.24    2.68
  -5   1   0  122.54    6.24
  -5  -1   0  116.05    6.11
   5  -1   0  111.67    5.61
   5   1   0  129.65    6.03
  -5   1  -1   62.63    4.11
  -5   1   1   62.07    3.89
  -5  -1   1   65.89    4.06
  -5  -1  -1   58.29    3.62
   5  -1   1   61.14    3.56
   5  -1  -1   65.12    3.93
   5   1   1   65.02    3.36
   5   1  -1   67.46    3.55
  -5   1  -2   43.47    5.77
  -5   1   2   50.09    3.67
  -5  -1   2   46.11    5.74
  -5  -1  -2   42.26    5.77
   5  -1   2   45.21    5.63
   5   1   2   48.57    4.89
   5  -1  -2   48.93    3.23
   5   1  -2   51.09    3.09
  -5   1   3   87.76    4.76
  -5   1  -3   89.85    5.03
  -5  -1  -3   92.13    5.63
  -5  -1   3   91.95    4.63
   5  -1   3   85.52    4.30
   5   1   3   91.98    4.39
   5  -1  -3   81.83    4.65
   5   1  -3   93.71    5.10
  -5   1   4   57.78    3.38
  -5   1  -4   46.60    5.98
  -5  -1  -4   61.67    4.80
  -5  -1   4   55.91    3.37
   5  -1   4   55.82    3.40
   5   1   4   53.92    2.89
   5  -1  -4   61.16    4.19
   5   1  -4   63.18    4.06
  -5   1   5  166.55    7.44
  -5   1  -5  156.40    7.65
  -5  -1  -5  157.60    8.20
  -5  -1   5  160.80    7.05
   5  -1   5  162.20    7.02
   5   1   5  162.64    6.72
   5  -1  -5  160.95    7.50
   5   1  -5  163.25    7.52
  -5   1   6  349.93   12.30
  -5   1  -6  341.21   12.70
  -5  -1  -6  357.90   13.63
  -5  -1   6  337.00   11.92
   5  -1   6  373.25   13.01
   5  -1  -6  325.22   11.98
   5   1  -6  349.35   12.72
  -5   1   7   31.99    3.35
  -5   1  -7   27.52    3.55
  -5  -1   7   42.45    4.37
  -5  -1  -7   30.59    4.19
   5  -1   7   45.66    4.55
   5  -1  -7   44.69    5.07
   5   1  -7   41.59    4.95
  -5   1   8   82.24    3.59
  -5   1  -8   86.79    4.87
  -5  -1   8   92.13    4.23
  -5  -1  -8   81.81    5.25
   5  -1   8   90.89    3.81
   5  -1  -8   83.18    4.52
   5   1  -8   84.95    4.65
  -5   1   9   11.54    1.78
  -5   1  -9   12.74    3.49
  -5  -1  -9   17.86    3.82
  -5  -1   9   13.70    2.10
   5  -1   9   15.26    2.06
   5  -1  -9   12.50    3.30
  -5   1 -10    6.77    2.59
  -5  -1  10    8.80    1.44
  -5  -1 -10    6.90    3.40
  -5  -1  10    6.57    1.74
   5  -1 -10   15.73    3.95
  -5   1 -11    4.60    2.70
  -5  -1  11   16.00    3.15
   5  -1 -11   13.24    3.36
  -5   1 -12   38.55    4.76
  -5  -1 -12   39.37    4.37
  -5  -1  12   32.57    2.78
   5  -1 -12   36.98    3.61
  -5   1 -13    7.62    3.65
  -5  -1 -13    8.67    2.80
  -5  -1  13    2.58    1.66
   5  -1 -13   11.70    3.58
  -5   1 -14   10.35    2.99
  -5  -1 -14    8.51    2.89
  -5  -1  14    6.08    2.46
   5  -1 -14    5.17    2.29
  -5   1 -15    7.41    4.02
  -5  -1  15   13.09    3.56
   5  -1 -15    8.10    3.53
  -5  -1 -16   14.45    3.78
  -5  -1  16   14.71    3.39
   5  -1 -16   15.09    4.25
  -5   1 -17    9.41    2.77
  -5  -1 -17   14.45    4.12
  -5  -1  17   14.77    3.41
   5  -1 -17    6.84    2.61
  -5   1 -18    9.52    3.76
  -5  -1 -18   11.05    4.07
  -5  -1  18   12.10    3.39
  -5   1 -19   35.69    4.74
  -5  -1 -19   45.85    5.59
  -5  -1  19   29.12    4.97
   5  -1 -19   28.70    3.62
  -5   1 -20   11.43    3.80
  -5  -1 -20   20.90    4.67
  -5  -1  20   18.27    4.27
   5  -1 -20   32.47    5.60
  -5   1 -21    6.23    3.60
  -5  -1 -21    5.32    2.55
  -5  -1  21    8.67    2.84
   5  -1 -21    2.38    2.35
  -5   1 -22   15.35    3.52
  -5  -1  22   14.46    4.71
   5  -1 -22    9.74    3.15
  -5   2   0   40.30    5.45
  -5  -2   0   38.56    5.10
   5  -2   0   43.33    5.53
   5   2   0   42.53    5.18
  -5   2  -1    2.86    2.17
  -5   2   1    4.46    2.27
  -5  -2  -1   -1.90    1.94
  -5  -2   1    1.57    2.06
   5  -2   1    3.65    1.61
   5  -2  -1    3.21    1.66
   5   2   1    3.73    1.45
   5   2  -1    0.81    1.04
  -5   2   2   90.36    4.80
  -5   2  -2   81.12    4.56
  -5  -2  -2   81.25    5.36
  -5  -2   2   73.08    4.36
   5  -2   2   93.56    5.09
   5  -2  -2   79.57    4.75
   5   2   2   80.15    3.88
   5   2  -2   84.63    4.48
  -5   2   3   79.99    4.39
  -5   2  -3   71.68    4.03
  -5  -2  -3   80.76    5.46
  -5  -2   3   73.94    4.57
   5  -2   3   77.35    4.65
   5   2   3   70.12    3.29
   5  -2  -3   74.10    4.49
   5   2  -3   74.31    4.09
  -5   2   4   14.36    2.43
  -5   2  -4   26.02    4.33
  -5  -2  -4   12.61    3.04
  -5  -2   4   16.12    3.12
   5  -2   4   18.36    3.21
   5   2   4   15.87    2.11
   5  -2  -4   18.68    3.26
   5   2  -4   16.84    3.00
  -5   2   5  246.52    9.17
  -5   2  -5  245.00    9.76
  -5  -2  -5  259.18   10.26
  -5  -2   5  249.00    9.22
   5  -2   5  252.25    9.41
   5  -2  -5  238.27    9.17
  -5   2   6   60.26    3.15
  -5   2  -6   40.97    4.68
  -5  -2  -6   60.47    4.20
  -5  -2   6   57.68    6.56
  -5  -2   6   64.16    3.55
   5  -2   6   72.01    3.65
   5  -2  -6   64.43    4.40
  -5   2   7  158.23    6.17
  -5   2  -7  166.71    7.48
  -5  -2  -7  159.73    7.65
  -5  -2   7  165.70    6.63
  -5  -2   7  147.63    6.30
   5  -2   7  161.24    6.33
   5  -2  -7  144.34    6.64
  -5   2   8   20.32    2.68
  -5   2  -8   14.62    3.14
  -5  -2  -8   23.50    3.85
  -5  -2   8   14.04    2.30
  -5  -2   8   21.42    3.48
   5  -2   8   28.09    3.57
   5  -2  -8   32.56    4.93
  -5   2  -9  329.69   34.67
  -5  -2  -9  302.39   13.00
  -5  -2   9  332.62   34.57
  -5  -2   9  312.09   12.82
   5  -2   9  335.67   34.87
   5  -2  -9  341.46   35.91
  -5   2 -10   14.15    3.22
  -5  -2 -10   22.11    4.72
  -5  -2  10   16.66    2.37
  -5  -2  10   20.89    3.83
   5  -2  10   23.60    3.00
   5  -2 -10   23.77    3.80
  -5   2 -11  237.79   10.00
  -5  -2 -11  248.14   10.40
  -5  -2  11  235.97    9.05
   5  -2 -11  231.87    9.01
  -5   2 -12   15.22    3.33
  -5  -2 -12   17.76    3.74
  -5  -2  12   19.89    3.59
   5  -2 -12   21.59    3.58
  -5   2 -13  125.08    7.74
  -5  -2 -13  142.64    7.87
  -5  -2  13  146.53    7.07
   5  -2 -13  159.56    8.27
  -5   2 -14    7.20    2.85
  -5  -2 -14    5.31    2.57
  -5  -2  14    6.01    1.53
   5  -2 -14   12.52    4.19
  -5   2 -15  134.96   11.44
  -5  -2 -15  143.71   11.77
  -5  -2  15  134.75   14.44
   5  -2 -15  144.45   11.63
  -5   2 -16    3.63    2.76
  -5  -2 -16    4.22    3.30
  -5  -2  16    2.01    1.16
   5  -2 -16    5.47    2.51
  -5  -2 -17   73.59    7.44
  -5  -2  17   66.96   10.86
   5  -2 -17   56.48    5.98
  -5   2 -18   17.01    3.99
  -5  -2 -18    5.58    2.47
  -5  -2  18    5.90    2.00
   5  -2 -18    3.99    3.26
  -5   2 -19  122.42    8.48
  -5  -2 -19  116.65    8.72
  -5  -2  19  116.79   17.36
   5  -2 -19  121.06    8.35
  -5   2 -20   11.42    4.11
  -5  -2 -20   22.61    4.58
  -5  -2  20   13.99    4.50
   5  -2 -20    2.93    2.33
  -5   2 -21   16.84    4.34
  -5  -2 -21   27.62    4.54
  -5  -2  21   14.17    3.84
   5  -2 -21   40.79    6.89
  -5   2 -22   13.79    3.06
  -5  -2 -22   12.56    3.66
  -5  -2  22    3.42    2.01
   5  -2 -22    1.81    2.19
   5   3   0   55.68    3.93
  -5   3   0   47.44    5.43
   5  -3   0   48.98    3.65
   5   3   0   46.77    5.64
   5   3  -1    7.93    1.66
   5   3   1   10.90    3.15
  -5   3  -1    6.79    3.10
  -5   3   1   10.17    2.04
   5  -3   1   17.11    3.17
   5  -3  -1   10.80    3.11
   5   3   1   12.18    2.05
   5   3  -1   11.85    2.01
   5   3  -2  405.04   14.43
  -5   3   2  413.10   43.84
  -5   3  -2  426.14   45.33
   5  -3   2  421.92   44.81
   5  -3  -2  402.45   14.44
   5   3   2  403.86   13.68
   5   3  -2  411.88   14.33
   5   3  -3  181.40    7.39
  -5   3   3  169.03    6.74
  -5   3  -3  158.71    6.83
   5  -3   3  170.71    6.85
   5  -3  -3  165.69    7.35
   5   3   3  164.72    5.94
   5   3  -4  250.05    9.39
  -5   3   4  275.46   10.19
  -5   3  -4  253.03    9.90
  -5  -3  -4  264.89   10.42
  -5  -3   4  248.43    9.16
   5  -3   4  277.03   10.34
   5  -3  -4  239.61    9.58
   5   3  -5   70.52    8.92
  -5   3   5   61.04    3.45
  -5   3  -5   44.10    5.23
  -5  -3  -5   72.34    5.28
  -5  -3   5   57.44    6.64
   5  -3   5   62.39    4.10
   5  -3  -5   62.86    4.34
   5   3  -6   13.92    2.91
  -5   3   6   14.55    2.06
  -5   3  -6   13.50    2.68
  -5  -3  -6   14.91    2.80
  -5  -3   6   14.88    2.50
   5  -3   6   21.35    3.44
   5  -3  -6   11.30    2.45
   5   3  -7    8.87    1.87
  -5   3   7    4.16    1.55
  -5   3  -7    1.05    2.15
  -5  -3  -7    2.04    2.08
  -5  -3   7    4.52    1.19
   5  -3   7    5.14    1.91
   5  -3  -7    0.73    2.93
   5   3  -8   16.82    3.61
  -5   3  -8   14.58    3.70
  -5  -3  -8   18.99    3.54
  -5  -3   8   18.72    3.76
   5  -3   8   17.35    2.74
   5  -3  -8   16.46    3.55
   5   3  -9   11.61    2.49
  -5   3  -9   33.13    4.95
  -5  -3  -9   14.07    3.30
  -5  -3   9   11.80    2.53
   5  -3   9   20.20    2.71
   5  -3  -9   27.68    4.07
   5   3 -10   17.51    3.59
  -5   3 -10   17.66    3.20
  -5  -3 -10   28.04    4.68
  -5  -3  10   21.41    3.20
   5  -3  10   14.36    2.11
   5  -3 -10   20.60    3.75
   5   3 -11    3.68    1.12
  -5   3 -11    3.92    2.53
  -5  -3 -11   10.59    3.47
  -5  -3  11    3.59    1.75
   5  -3  11    6.99    1.68
   5  -3 -11    6.50    2.42
  -5   3 -12   49.17    4.40
  -5  -3 -12   55.79    5.67
  -5  -3  12   63.09    8.99
   5  -3 -12   63.16    4.89
  -5   3 -13    5.46    3.43
  -5  -3 -13    6.21    2.43
   5  -3 -13    1.63    2.00
  -5   3 -14    4.17    2.46
  -5  -3  14    4.28    1.51
   5  -3 -14   15.82    4.53
  -5   3 -15   12.21    4.42
  -5  -3 -15    8.54    2.70
  -5  -3  15    8.67    2.98
   5  -3 -15    3.76    3.20
  -5   3 -16   29.84    4.77
  -5  -3 -16   17.59    4.02
  -5  -3  16   17.34    4.13
  -5   3 -17   12.02    3.85
  -5  -3 -17    1.74    2.40
  -5  -3  17    6.11    2.35
   5  -3 -17    3.71    2.31
  -5   3 -18   31.74    4.16
  -5  -3 -18   22.87    3.21
  -5  -3  18   30.06    5.30
   5  -3 -18   30.14    3.66
  -5   3 -19    7.65    3.79
  -5  -3 -19    1.94    2.37
  -5  -3  19    2.68    1.41
   5  -3 -19    7.27    2.83
  -5   3 -20   34.50    5.81
  -5  -3 -20   33.99    5.83
  -5  -3  20   38.15    7.33
   5  -3 -20   40.21    5.77
  -5   3 -21   14.88    3.97
  -5  -3 -21    7.59    2.65
  -5  -3  21   11.25    4.23
   5  -3 -21    8.08    3.42
   5   4   0   20.11    4.36
  -5   4   0   15.17    3.01
   5  -4   0   21.23    3.26
   5   4   0   22.92    2.54
   5   4   1  146.79    6.75
   5   4  -1  137.54    9.96
  -5   4  -1  135.51    5.95
  -5   4   1  125.62    5.55
   5  -4   1  138.41    6.38
   5  -4  -1  153.12    6.95
   5   4   1  131.45    5.06
   5   4   2  142.77   13.92
   5   4  -2  149.49   10.47
  -5   4   2  133.16    5.64
  -5   4  -2  147.74    6.85
  -5  -4   2  130.24    5.22
   5  -4   2  119.42    5.65
   5  -4  -2  140.38    6.65
   5   4   2  118.22    4.47
   5   4   3    9.24    2.92
   5   4  -3   11.89    2.45
  -5   4   3   11.24    2.36
  -5   4  -3   13.01    3.13
  -5  -4   3    8.16    1.68
   5  -4   3   13.40    2.54
   5  -4  -3   13.06    3.30
   5   4   4   41.08    3.73
   5   4  -4   37.23    5.86
  -5   4   4   47.09    3.53
  -5   4  -4   40.22    3.22
  -5  -4   4   40.77    5.40
   5  -4   4   45.14    3.93
   5  -4  -4   35.74    3.69
   5   4   5   22.67    3.70
   5   4  -5   24.94    3.69
  -5   4   5   26.21    3.52
  -5   4  -5   17.63    3.37
  -5  -4   5   20.88    4.82
   5  -4   5   26.21    4.07
   5  -4  -5   28.13    4.56
   5   4   6   11.95    3.02
   5   4  -6    8.35    2.17
  -5   4   6   10.75    1.90
  -5   4  -6   12.12    3.51
  -5  -4   6    9.57    1.74
   5  -4   6    9.84    1.91
   5  -4  -6   10.47    2.46
   5   4  -7   81.07    7.27
  -5   4   7   69.91    3.42
  -5   4  -7   77.37    4.70
  -5  -4   7   77.14    6.93
   5  -4   7   87.32    5.05
   5  -4  -7   88.31    5.86
   5   4  -8   23.99    4.86
  -5   4  -8   18.74    2.90
  -5  -4  -8   30.03    4.85
  -5  -4   8   31.24    6.33
   5  -4   8   27.05    3.43
   5  -4  -8   26.37    4.24
   5   4  -9   71.21    7.35
  -5   4  -9   74.77    4.89
  -5  -4  -9   71.71    4.93
  -5  -4   9   63.79    6.01
   5  -4   9   82.11    4.14
   5  -4  -9   69.28    5.11
   5   4 -10   18.49    3.23
  -5   4 -10   13.45    3.38
  -5  -4 -10    4.23    2.41
  -5  -4  10   23.12    3.84
   5  -4  10   13.74    2.41
   5  -4 -10   16.41    3.03
   5   4 -11    6.33    1.71
  -5   4 -11    3.44    3.26
  -5  -4 -11    4.39    2.35
  -5  -4  11    2.97    1.38
   5  -4  11    3.19    1.08
   5  -4 -11    6.15    2.15
  -5   4 -12   54.94    5.64
  -5  -4 -12   50.79    5.10
  -5  -4  12   54.77    8.48
   5  -4  12   55.36    3.63
   5  -4 -12   49.29    3.86
  -5   4 -13    5.53    2.71
  -5  -4  13   10.64    2.85
   5  -4 -13    9.94    3.70
  -5   4 -14   65.53    6.76
  -5  -4 -14   65.05    6.17
  -5  -4  14   80.92   12.17
   5  -4 -14   59.54    6.20
  -5   4 -15   21.88    3.51
  -5  -4 -15   34.44    4.62
  -5  -4  15   31.27    5.40
   5  -4 -15   33.21    3.97
  -5   4 -16   48.57    4.18
  -5  -4 -16   53.68    5.24
  -5  -4  16   48.62    6.03
   5  -4 -16   44.83    4.64
  -5   4 -17    7.16    3.41
  -5  -4 -17   13.17    4.31
  -5  -4  17   18.64    3.34
   5  -4 -17   19.79    4.16
  -5  -4 -18   25.41    4.13
  -5  -4  18   22.61    4.88
   5  -4 -18   20.50    3.92
  -5   4 -19   14.71    4.15
  -5  -4 -19   11.41    3.61
  -5  -4  19   20.76    4.23
   5  -4 -19   22.58    4.17
  -5   4 -20   30.16    5.25
  -5  -4 -20   29.72    4.73
  -5  -4  20   17.86    5.47
   5  -4 -20   26.28    4.29
  -5   4 -21    2.98    2.57
  -5  -4 -21    7.41    2.95
  -5  -4  21   10.83    2.83
   5  -4 -21    8.65    2.63
   5   5   0  269.79   11.73
  -5   5   0  276.93   11.81
  -5  -5   0  226.34    8.93
   5  -5   0  265.33   11.51
   5   5   1  139.02   15.03
   5   5  -1  148.31   11.34
  -5   5  -1  138.53    6.98
  -5   5   1  130.60    6.63
  -5  -5   1  128.51    7.85
   5  -5   1  137.11    6.85
   5  -5  -1  137.29    7.44
   5   5   2  170.50   16.02
   5   5  -2  162.44   16.80
  -5   5   2  165.65    7.51
  -5   5  -2  164.01    7.90
  -5  -5   2  145.05    9.22
   5  -5   2  172.15    8.20
   5  -5  -2  149.90    7.48
   5   5   3    7.29    2.02
   5   5  -3    4.10    1.46
  -5   5   3   10.09    2.53
  -5   5  -3    6.19    2.95
  -5  -5   3    1.83    0.79
   5  -5   3    5.03    1.99
   5  -5  -3    7.44    2.41
   5   5   4  120.62   10.84
   5   5  -4  128.47   13.62
  -5   5   4  110.65    5.07
  -5   5  -4  105.39    5.50
  -5  -5   4  103.39    5.66
   5  -5   4  133.75    6.61
   5  -5  -4  120.30    6.55
   5   5   5   25.48    5.32
   5   5  -5   14.98    3.67
  -5   5   5   25.70    3.42
  -5   5  -5   28.01    4.57
  -5  -5   5   18.05    4.32
   5  -5   5   24.62    4.03
   5  -5  -5   16.18    2.86
   5   5   6  106.83    8.88
   5   5  -6   97.92    9.15
  -5   5   6   86.27    3.73
  -5   5  -6  116.72    6.92
  -5  -5   6   95.47    8.94
   5  -5   6  106.42    5.16
   5  -5  -6   88.98    5.37
   5   5   7   20.95    3.70
   5   5  -7   14.26    3.65
  -5   5  -7   15.56    3.00
  -5  -5   7   25.51    4.08
   5  -5   7    9.75    1.72
   5  -5  -7   24.44    3.97
   5   5   8   81.43    5.09
   5   5  -8   74.77    6.59
  -5   5  -8   71.37    5.12
  -5  -5   8   77.73    7.36
   5  -5   8   71.89    4.08
   5  -5  -8   72.55    4.57
   5   5   9   47.14    3.76
   5   5  -9   40.52    6.25
  -5   5  -9   47.34    4.52
  -5  -5   9   41.46    9.06
   5  -5   9   50.15    3.48
   5  -5  -9   40.82    4.31
   5   5  10    8.97    2.83
   5   5 -10    9.01    2.41
  -5   5 -10    9.00    3.15
  -5  -5  10    5.80    1.67
   5  -5  10    8.77    2.02
   5  -5 -10    3.64    2.16
   5   5 -11    1.46    1.13
  -5   5 -11    6.56    3.09
  -5  -5 -11    6.83    2.55
  -5  -5  11    5.95    1.68
   5  -5  11    5.62    2.13
   5  -5 -11    6.40    3.15
   5   5 -12   10.02    3.37
  -5   5 -12    4.26    2.45
  -5  -5 -12    6.14    2.60
  -5  -5  12    6.37    3.07
   5  -5  12    7.40    1.79
   5  -5 -12    2.78    2.37
  -5   5 -13   19.68    3.98
  -5  -5  13   25.77    3.89
   5  -5  13   32.47    3.33
   5  -5 -13   18.69    3.83
  -5   5 -14   -1.07    2.18
  -5  -5 -14   11.50    3.61
  -5  -5  14    7.35    2.24
   5  -5 -14    3.13    2.90
  -5   5 -15   47.67    4.24
  -5  -5 -15   54.68    4.47
  -5  -5  15   52.99    4.91
   5  -5 -15   53.29    4.70
  -5   5 -16   10.67    3.20
  -5  -5 -16   20.70    3.95
  -5  -5  16   12.32    3.38
   5  -5 -16   14.30    4.34
  -5   5 -17   21.84    3.84
  -5  -5 -17   34.24    4.06
  -5  -5  17   26.45    4.83
   5  -5 -17   37.37    4.67
  -5   5 -18   81.94   10.94
  -5  -5 -18   87.90   11.99
  -5  -5  18   68.54   12.22
   5  -5 -18   74.96   10.02
  -5   5 -19   47.19    7.33
  -5  -5 -19   54.82    7.54
  -5  -5  19   36.34    8.41
   5  -5 -19   41.33    5.85
  -5   5 -20   24.23    5.27
  -5  -5 -20   29.33    5.61
  -5  -5  20   12.68    3.23
   5  -5 -20   15.06    3.62
   5   6   0   37.75    4.10
  -5   6   0   37.65    3.26
   5  -6   0   39.11    3.85
   5   6   1   62.04    8.05
   5   6  -1   55.41   10.03
  -5   6   1   56.68    3.56
  -5   6  -1   67.25    4.04
  -5  -6   1   48.73    3.83
   5  -6   1   75.25    5.02
   5  -6  -1   57.95    3.69
   5   6   2    7.01    2.69
   5   6  -2    7.73    1.76
  -5   6   2    3.37    1.43
  -5   6  -2    6.13    1.94
  -5  -6   2    3.09    1.04
   5  -6   2   11.40    2.70
   5  -6  -2    4.65    2.31
   5   6   3   40.11    4.98
   5   6  -3   35.33    3.64
  -5   6   3   26.63    3.63
  -5   6  -3   32.47    3.92
  -5  -6   3   26.58    3.79
   5  -6   3   41.28    3.83
   5  -6  -3   26.19    4.44
   5   6   4   13.98    2.75
   5   6  -4   16.38    3.86
  -5   6   4   14.45    2.51
  -5   6  -4   10.35    2.46
  -5  -6   4   19.26    3.45
   5  -6   4   12.13    2.50
   5  -6  -4   16.87    3.84
   5   6   5   70.70    9.83
   5   6  -5   57.06    4.85
  -5   6   5   61.56    3.38
  -5   6  -5   61.64    4.30
  -5  -6   5   61.82    5.34
   5  -6   5   56.65    4.39
   5  -6  -5   55.23    3.65
   5   6   6   16.32    4.23
   5   6  -6   14.18    2.66
  -5   6   6    9.25    1.68
  -5   6  -6   10.80    3.29
  -5  -6   6   14.09    2.88
   5  -6   6   15.11    3.11
   5  -6  -6    9.92    2.78
   5   6   7   23.76    4.57
   5   6  -7   24.50    3.95
  -5   6  -7    9.57    2.62
  -5  -6   7   11.80    2.18
   5  -6   7   30.13    3.61
   5  -6  -7   27.77    3.75
   5   6   8    7.71    2.19
   5   6  -8    7.69    1.72
  -5   6  -8    5.12    2.31
  -5  -6   8    8.55    2.05
   5  -6   8   10.02    2.65
   5  -6  -8    3.10    2.22
   5   6   9    6.97    2.47
   5   6  -9    8.04    1.93
  -5   6  -9    2.41    2.30
  -5  -6   9    6.58    2.11
   5  -6   9    7.87    2.24
   5  -6  -9    4.72    2.34
   5   6  10   11.18    2.76
   5   6 -10    6.99    2.02
  -5   6 -10    4.98    2.34
  -5  -6  10   10.45    2.64
   5  -6  10   12.61    2.69
   5  -6 -10    8.18    2.70
   5   6  11   61.34    6.22
   5   6 -11   65.15    6.29
  -5   6 -11   51.12    5.26
  -5  -6  11   62.95    7.81
   5  -6  11   67.69    5.83
   5  -6 -11   66.89    6.65
   5   6  12   24.02    3.27
   5   6 -12   29.70    5.13
  -5   6 -12   32.65    4.47
  -5  -6  12   24.75    5.79
   5  -6  12   29.30    3.20
   5  -6 -12   42.89    5.46
  -5   6 -13   63.42    5.91
  -5  -6  13   77.38    8.10
   5  -6  13   90.42    7.51
   5  -6 -13   67.27    6.82
  -5   6 -14   28.85    3.41
  -5  -6 -14   34.65    3.87
  -5  -6  14   29.85    4.67
   5  -6  14   33.97    2.69
   5  -6 -14   49.34    5.59
  -5   6 -15   32.12    4.56
  -5  -6 -15   45.14    5.27
  -5  -6  15   23.72    4.02
   5  -6 -15   35.34    4.40
  -5   6 -16   12.03    4.28
  -5  -6 -16    5.01    2.60
  -5  -6  16    6.91    2.48
   5  -6 -16    5.73    2.62
  -5   6 -17   46.73    6.80
  -5  -6 -17   37.33    6.14
  -5  -6  17   61.91    8.44
   5  -6 -17   40.45    5.89
  -5   6 -18   16.19    3.98
  -5  -6 -18   23.85    4.32
  -5  -6  18   15.53    3.47
   5  -6 -18   19.80    3.77
  -5  -6 -19   22.00    4.33
  -5  -6  19   28.99    7.73
   5  -6 -19   16.27    3.56
   5   7   0    4.00    1.23
  -5   7   0   -0.59    1.42
   5  -7   0    2.20    2.29
   5   7   1  105.20    8.62
   5   7  -1  123.73    6.37
  -5   7   1  121.43    5.84
  -5   7  -1  122.15    6.33
   5  -7   1  123.01    6.56
   5  -7  -1  111.10    6.30
   5   7   2   -1.51    1.74
   5   7  -2    5.22    1.66
  -5   7   2    4.03    1.82
  -5   7  -2    3.19    1.86
  -5  -7   2    4.76    1.13
   5  -7   2    7.02    2.34
   5  -7  -2    4.59    2.36
   5   7   3   45.38    5.41
   5   7  -3   52.67    6.35
  -5   7   3   52.40    3.33
  -5   7  -3   44.80    3.81
  -5  -7   3   43.12    4.35
   5  -7   3   42.59    3.78
   5  -7  -3   54.37    4.39
   5   7   4   16.73    2.98
   5   7  -4   16.08    3.46
  -5   7   4   13.64    2.21
  -5   7  -4   17.17    3.48
  -5  -7   4   16.19    3.22
   5  -7   4   14.78    3.12
   5  -7  -4    8.44    2.12
   5   7   5   26.08    5.11
   5   7  -5   24.68    3.65
  -5   7   5   17.46    2.47
  -5   7  -5   14.01    3.33
  -5  -7   5   19.90    4.11
   5  -7   5   13.40    2.64
   5  -7  -5   22.20    3.34
   5   7   6   71.18    8.45
   5   7  -6   67.42    8.91
  -5   7  -6   74.85    6.25
  -5  -7   6   56.79    7.32
   5  -7   6   87.37    5.46
   5  -7  -6   63.02    4.73
   5   7   7   20.09    2.99
   5   7  -7   25.43    3.96
  -5   7  -7   12.01    3.31
  -5  -7   7   12.64    3.11
   5  -7   7   18.23    3.68
   5  -7  -7   29.83    4.29
   5   7   8   66.92   13.43
   5   7  -8   79.40    8.03
  -5   7  -8   75.62    6.75
  -5  -7   8   77.68    9.94
   5  -7   8   73.47    6.77
   5  -7  -8   79.01    7.42
   5   7   9    7.95    2.52
   5   7  -9    2.45    1.35
  -5   7  -9   -1.80    2.06
  -5  -7   9    0.01    1.47
   5  -7   9    2.47    2.11
   5  -7  -9    4.65    2.60
   5   7  10   93.48   14.19
   5   7 -10  101.05   11.65
  -5   7 -10   85.27    7.33
  -5  -7  10   91.31   13.69
   5  -7  10  112.45    8.99
   5  -7 -10  112.38   10.08
   5   7  11   15.17    4.17
   5   7 -11    8.55    2.66
  -5   7 -11   10.53    3.83
  -5  -7  11    8.79    2.01
   5  -7  11   13.73    3.14
   5  -7 -11   12.29    3.57
   5   7  12   35.30    3.86
   5   7 -12   35.33    4.64
  -5   7 -12   39.42    4.00
  -5  -7  12   32.45    4.40
   5  -7  12   38.07    3.10
   5  -7 -12   34.64    3.47
   5   7  13    0.60    1.86
  -5   7 -13    4.40    2.53
  -5  -7  13    1.18    1.60
   5  -7  13   10.69    3.15
   5  -7 -13    3.84    2.58
   5   7  14    9.71    3.31
  -5   7 -14    9.35    2.96
  -5  -7  14   12.48    4.10
   5  -7  14   14.87    2.07
   5  -7 -14    6.97    3.76
  -5   7 -15   29.98    5.31
  -5  -7  15   30.47    5.57
   5  -7  15   29.37    4.26
   5  -7 -15   19.09    4.26
  -5   7 -16   18.25    3.95
  -5  -7 -16    9.42    3.08
  -5  -7  16   10.04    3.22
   5  -7 -16   16.49    3.45
  -5  -7 -17   10.16    3.51
  -5  -7  17    6.33    2.58
   5  -7 -17   15.77    3.91
  -5   7 -18   11.31    4.45
  -5  -7 -18    6.51    2.21
  -5  -7  18    5.37    2.46
   5  -7 -18   12.47    3.89
   5   8   0    4.93    2.43
  -5   8   0    0.74    1.42
   5  -8   0    9.55    3.76
   5   8   1    6.73    2.01
   5   8  -1    7.20    2.42
  -5   8  -1    8.97    2.54
  -5   8   1    8.17    2.29
   5  -8   1   10.45    3.50
   5  -8  -1    8.13    3.44
   5   8   2    3.96    1.54
   5   8  -2    7.77    2.61
  -5   8   2   12.41    3.05
  -5   8  -2    2.33    2.53
   5  -8   2    4.14    2.20
   5  -8  -2    8.45    3.37
   5   8   3   61.55   10.06
   5   8  -3   50.19    9.36
  -5   8   3   58.12    5.06
  -5   8  -3   52.17    5.33
   5  -8   3   48.72    4.87
   5  -8  -3   49.53    5.04
   5   8   4   25.69    6.06
   5   8  -4   30.06    5.24
  -5   8   4   27.26    2.96
  -5   8  -4   24.60    3.73
  -5  -8   4   27.54    4.40
   5  -8   4   23.24    3.22
   5  -8  -4   26.12    3.71
   5   8  -5   57.21   11.44
  -5   8  -5   56.50    5.71
  -5  -8   5   56.42    6.85
   5  -8   5   69.02    6.69
   5  -8  -5   49.41    5.16
   5   8   6   17.24    3.97
   5   8  -6   21.38    3.11
  -5   8  -6   16.91    3.54
  -5  -8   6    8.89    3.25
   5  -8   6   26.10    3.90
   5  -8  -6   13.67    4.06
   5   8   7    5.26    2.81
   5   8  -7    3.95    1.64
  -5   8  -7   11.29    3.97
  -5  -8   7    2.35    1.18
   5  -8   7    6.17    2.45
   5  -8  -7    6.11    3.59
   5   8   8   40.59    7.02
   5   8  -8   35.67    6.35
  -5   8  -8   32.07    3.83
  -5  -8   8   31.22    6.46
   5  -8   8   48.09    5.05
   5  -8  -8   41.56    5.57
   5   8   9   10.97    3.56
   5   8  -9   14.06    3.54
  -5   8  -9    8.62    3.01
   5  -8   9   13.07    3.54
   5   8  10   27.34    5.21
   5   8 -10   26.16    5.67
  -5   8 -10   27.01    3.66
  -5  -8  10   26.32    6.43
   5  -8  10   33.06    3.23
   5  -8 -10   37.26    4.56
   5   8  11   26.03    3.33
   5   8 -11   24.61    3.47
  -5   8 -11   23.57    3.21
  -5  -8  11   26.47    5.19
   5  -8  11   39.09    3.70
   5  -8 -11   38.53    4.25
   5   8  12    5.65    2.37
   5   8 -12    5.96    2.24
  -5   8 -12    9.33    4.10
  -5  -8  12    4.92    2.29
   5  -8 -12    5.63    2.69
   5   8  13   19.62    4.64
  -5   8 -13   19.98    4.02
  -5  -8  13   20.54    4.39
   5  -8  13   27.54    4.23
   5  -8 -13   20.30    4.26
   5   8  14    7.89    2.62
  -5   8 -14    2.09    2.49
  -5  -8  14   10.90    3.30
   5  -8  14    9.10    2.58
   5  -8 -14    6.72    2.77
   5   8  15   45.18    6.65
  -5   8 -15   48.68    6.79
  -5  -8  15   31.48    5.99
   5  -8  15   39.90    5.46
   5  -8 -15   53.37    7.72
   5   8  16   15.07    3.64
  -5   8 -16   10.47    3.70
  -5  -8  16   12.96    3.40
   5  -8 -16    9.66    3.94
   5   9   0  135.01   29.45
  -5   9   0  138.13   28.07
   5  -9   0  130.04   10.76
   5   9  -1   13.71    3.38
   5   9   1    8.88    2.42
  -5   9   1   15.49    3.11
  -5   9  -1   14.75    3.44
   5  -9   1   16.06    3.45
   5  -9  -1    8.74    3.42
   5   9   2  126.94   13.92
   5   9  -2  134.88   12.21
  -5   9   2  130.50    6.45
  -5   9  -2  142.87    7.40
   5  -9   2  129.32    6.95
   5  -9  -2  142.03    7.90
   5   9   3   32.17    6.12
   5   9  -3   26.40    4.77
  -5   9   3   21.29    2.35
  -5   9  -3   18.26    3.28
   5  -9   3   26.04    3.78
   5  -9  -3   40.49    4.99
   5   9   4   63.01   11.18
   5   9  -4   40.38    4.30
  -5   9  -4   62.68    5.54
   5  -9   4   52.42    4.43
   5  -9  -4   49.55    4.84
   5   9   5    9.50    2.37
   5   9  -5   13.55    3.87
  -5   9  -5   13.68    3.79
  -5  -9   5   12.19    2.95
   5  -9   5   21.13    3.19
   5  -9  -5   18.43    3.20
   5   9   6   30.92    4.88
   5   9  -6   32.25    5.15
  -5   9  -6   37.22    4.17
  -5  -9   6   26.90    5.84
   5  -9   6   36.93    3.84
   5  -9  -6   38.74    4.85
   5   9   7    8.77    3.01
   5   9  -7    2.81    1.77
  -5   9  -7    2.64    2.25
  -5  -9   7   -0.17    0.92
   5  -9  -7    7.98    3.93
   5   9   8   76.90   10.64
   5   9  -8   69.60   10.77
  -5   9  -8   82.21    6.68
  -5  -9   8   85.05    8.44
   5  -9   8   94.65    6.71
   5  -9  -8   68.97    6.07
   5   9   9   27.96    4.54
   5   9  -9   16.82    3.21
  -5   9  -9   33.64    5.17
  -5  -9   9   16.43    4.13
   5  -9   9   32.81    3.66
   5  -9  -9   18.55    3.13
   5   9  10   17.53    3.39
   5   9 -10   29.86    5.35
  -5   9 -10   32.81    5.95
  -5  -9  10   25.99    6.14
   5  -9  10   20.00    3.55
   5  -9 -10   43.45    8.20
   5   9  11   17.10    3.20
   5   9 -11   22.22    4.11
  -5   9 -11   19.86    4.17
  -5  -9  11    9.38    3.73
   5  -9  11   13.89    2.83
   5  -9 -11    7.79    2.82
   5   9  12    7.16    2.54
   5   9 -12    7.24    3.28
  -5   9 -12    5.42    2.56
  -5  -9  12    7.91    2.04
   5  -9  12   10.30    3.25
   5  -9 -12    2.06    2.14
   5   9  13   12.32    4.38
   5   9 -13    5.74    2.28
  -5   9 -13    4.12    2.39
  -5  -9  13    3.61    1.45
   5  -9  13    5.76    1.83
   5  -9 -13    5.83    2.53
   5   9  14    6.70    2.52
  -5   9 -14    4.83    3.14
  -5  -9  14    2.46    1.35
   5  -9  14    6.66    1.90
   5  -9 -14    7.75    3.56
   5  10   0    4.29    2.18
  -5  10   0    0.18    1.65
   5 -10   0    7.82    3.20
   5  10   1   10.50    3.26
   5  10  -1   15.08    2.64
  -5  10   1    8.65    2.75
  -5  10  -1    8.98    3.03
   5 -10   1    9.04    3.39
   5 -10  -1   11.12    3.76
   5  10   2   22.96    4.83
   5  10  -2   25.56    5.39
  -5  10   2   23.26    2.63
  -5  10  -2   35.73    4.09
   5 -10   2   33.22    4.13
   5 -10  -2   22.74    3.72
   5  10   3   18.72    5.16
   5  10  -3   16.59    2.84
  -5  10   3   16.92    2.07
  -5  10  -3   28.71    3.46
   5 -10   3   15.97    3.23
   5 -10  -3   19.76    3.27
   5  10   4   15.36    2.07
   5  10  -4   18.04    4.03
  -5  10  -4   20.51    3.55
   5 -10   4   16.78    2.52
   5 -10  -4    8.61    3.12
   5  10   5   21.03    3.54
   5  10  -5   12.67    3.39
  -5  10  -5   14.36    3.26
   5 -10   5   11.47    3.51
   5 -10  -5   19.76    3.75
   5  10   6   19.73    4.01
   5  10  -6   16.43    3.38
  -5  10  -6   27.15    4.61
   5 -10   6   31.44    5.42
   5 -10  -6   15.18    3.30
   5  10   7   45.57    7.70
   5  10  -7   29.69    7.01
  -5  10  -7   39.46    6.02
   5 -10   7   36.40    5.48
   5 -10  -7   33.68    5.40
   5  10   8   10.19    3.11
   5  10  -8   19.97    4.45
  -5  10  -8   15.48    3.83
  -5 -10   8   12.58    4.12
   5 -10   8   22.19    4.20
   5 -10  -8    9.33    3.61
   5  10   9   44.87   10.15
   5  10  -9   44.27    8.19
  -5  10  -9   51.25    7.51
  -5 -10   9   42.89    7.71
   5 -10   9   45.68    6.30
   5 -10  -9   49.59    7.51
   5  10  10   22.41    5.20
   5  10 -10   12.50    4.10
  -5  10 -10   17.65    4.00
  -5 -10  10   12.05    2.90
   5 -10  10   17.16    3.06
   5 -10 -10   17.29    3.92
   5  10  11   32.15    8.28
   5  10 -11   29.09    6.27
  -5  10 -11   41.84    7.46
  -5 -10  11   26.40    5.87
   5 -10 -11   33.59    5.85
   5  11   0    9.49    3.23
  -5  11   0    8.27    2.97
   5 -11   0    8.71    2.68
   5  11   1   47.19   11.42
   5  11  -1   48.09   11.44
  -5  11   1   57.29    7.10
  -5  11  -1   54.43    7.15
   5 -11   1   56.45    7.85
   5 -11  -1   56.80    8.10
   5  11   2    6.59    2.68
   5  11  -2    5.62    2.26
  -5  11   2    4.55    2.02
  -5  11  -2    7.64    2.28
   5 -11   2    8.15    3.25
   5 -11  -2    8.39    2.69
   5  11   3   37.03    6.23
   5  11  -3   25.09    5.24
  -5  11  -3   28.07    4.69
   5 -11   3   40.45    5.74
   5 -11  -3   56.71    8.26
   5  11   4    5.08    1.78
   5  11  -4    6.50    2.45
  -5  11  -4   11.83    3.36
   5 -11   4    4.47    2.17
   5 -11  -4   10.56    4.52
   5  11   5   40.78    8.39
   5  11  -5   47.19    9.00
  -5  11  -5   46.66    6.10
   5 -11   5   37.63    5.41
   5 -11  -5   47.86    7.33
   5  11   6    6.75    2.98
   5  11  -6    1.85    1.73
  -5  11  -6    6.05    2.85
   5 -11   6    9.06    2.77
   5 -11  -6    9.01    3.32
   5  11   7   24.95    5.17
   5  11  -7   24.25    5.90
  -5  11  -7   24.25    4.61
   5 -11   7   28.77    5.67
   5 -11  -7   21.24    4.30
  -6   0   0   17.16    3.05
   6   0   0    7.44    1.19
  -6   0  -1    6.55    1.93
  -6   0   1    6.57    2.37
   6   0   1    3.37    1.43
   6   0  -1    6.79    1.80
  -6   0  -2   14.84    3.67
  -6   0   2   10.59    2.85
   6   0  -2    8.22    2.18
  -6   0  -3    4.79    2.97
  -6   0   3    1.59    1.47
   6   0  -3    2.22    1.31
  -6   0  -4   28.37    3.46
  -6   0   4   34.02    3.83
   6   0  -4   24.76    2.80
  -6   0  -5   10.18    3.71
  -6   0   5    5.27    2.14
   6   0  -5   10.86    2.76
  -6   0  -6   44.71    5.83
   6   0  -6   42.27    4.32
  -6   0  -7   93.06    8.12
   6   0  -7   91.04    7.62
  -6   0  -8    7.72    2.68
   6   0  -8   11.84    3.58
  -6   0  -9  134.96   27.57
   6   0  -9  120.24    9.55
  -6   0 -10   11.48    4.14
   6   0 -10    3.54    1.72
  -6   0 -11   59.94    5.31
   6   0 -11   58.87    4.25
  -6   0 -12    6.56    3.39
   6   0 -12    2.46    2.28
  -6   0 -13   44.79    4.40
   6   0 -13   60.76    5.25
  -6   0 -14    4.33    2.39
   6   0 -14    2.56    2.41
  -6   0 -15  117.39   15.27
   6   0 -15   93.65   12.01
  -6   0 -16    3.84    2.55
   6   0 -16    4.59    2.94
  -6   0 -17   51.58    8.59
   6   0 -17   54.80    8.88
  -6   1   0   49.56    4.80
  -6  -1   0   52.51    4.65
   6  -1   0   50.65    4.36
  -6   1  -1   60.97    5.57
  -6   1   1   73.43    6.30
  -6  -1   1   72.33    6.19
  -6  -1  -1   63.69    5.72
   6  -1   1   63.04    5.35
   6  -1  -1   69.85    6.01
   6   1  -1   61.86    5.02
  -6   1   2   37.94    3.80
  -6   1  -2   45.97    4.74
  -6  -1   2   43.87    4.55
  -6  -1  -2   38.21    4.18
   6  -1   2   33.62    3.23
   6  -1  -2   47.85    4.44
   6   1  -2   41.37    3.76
  -6   1   3    0.37    1.27
  -6   1  -3   -3.97    1.96
  -6  -1   3    1.74    1.49
  -6  -1  -3    3.09    2.15
   6  -1  -3    4.00    1.53
   6   1  -3    3.87    1.64
  -6   1   4   19.30    3.40
  -6   1  -4   21.56    2.91
  -6  -1  -4   28.32    3.74
  -6  -1   4   23.01    2.78
   6  -1  -4   21.98    2.50
   6   1  -4   16.76    3.19
  -6   1   5   59.94    5.13
  -6   1  -5   55.13    5.65
  -6  -1  -5   49.68    4.92
  -6  -1   5   46.65    4.17
   6  -1  -5   62.70    5.46
   6   1  -5   56.29    4.88
  -6   1  -6   54.23    5.20
  -6  -1   6   54.25    4.63
  -6  -1  -6   57.68    6.19
   6  -1  -6   58.66    5.25
   6   1  -6   62.41    5.67
  -6   1  -7   52.64    5.46
  -6  -1  -7   52.85    5.83
   6  -1  -7   56.33    5.53
   6   1  -7   48.87    4.58
  -6   1  -8   77.01    7.11
  -6  -1  -8   79.82    7.50
   6  -1  -8   81.38    7.12
   6   1  -8   71.45    6.26
  -6   1  -9    6.80    3.22
  -6  -1  -9    3.41    2.19
   6  -1  -9    3.31    1.79
   6   1  -9    5.50    2.25
  -6   1 -10   11.85    3.92
  -6  -1 -10   20.49    3.49
   6  -1 -10    8.39    2.64
   6   1 -10   23.23    2.39
  -6   1 -11    7.12    2.64
  -6  -1 -11   13.72    4.18
   6  -1 -11   13.11    3.65
   6   1 -11   10.44    3.03
  -6   1 -12    7.37    3.44
  -6  -1 -12    8.90    3.00
   6  -1 -12    2.18    1.64
   6   1 -12   12.11    3.53
  -6   1 -13    5.41    3.29
  -6  -1 -13    9.38    3.85
   6  -1 -13    1.22    1.67
   6   1 -13    3.82    1.69
  -6   1 -14   10.76    3.27
  -6  -1 -14    4.95    2.56
   6  -1 -14    2.79    1.74
   6   1 -14    5.48    1.89
  -6   1 -15    9.26    3.15
  -6  -1 -15   22.36    5.03
   6  -1 -15   13.24    3.49
   6   1 -15   14.75    3.18
  -6   1 -16    3.82    2.44
  -6  -1 -16    6.22    3.35
   6  -1 -16    3.75    2.03
   6   1 -16    5.98    1.98
  -6   1 -17   19.93    5.01
  -6  -1 -17    6.68    3.52
   6  -1 -17    7.46    2.19
   6   1 -17   10.53    2.76
  -6   2   0   26.45    3.18
  -6  -2   0   24.09    3.26
   6  -2   0   22.40    2.55
  -6   2  -1   36.43    4.12
  -6   2   1   29.10    3.46
  -6  -2  -1   38.60    4.25
  -6  -2   1   34.82    4.13
   6  -2   1   36.53    3.56
   6  -2  -1   35.32    3.80
  -6   2  -2    5.45    2.68
  -6   2   2    2.73    1.42
  -6  -2   2    3.43    1.61
  -6  -2  -2    3.36    2.04
   6  -2   2    5.77    2.13
   6  -2  -2    7.25    2.26
   6   2  -2    3.23    1.08
  -6   2   3   67.41    5.69
  -6   2  -3   63.21    5.84
  -6  -2   3   69.32    6.09
  -6  -2  -3   77.25    7.13
   6  -2   3   64.43    5.29
   6  -2  -3   62.32    5.43
   6   2  -3   69.73    5.72
  -6   2   4   16.89    3.27
  -6   2  -4    7.16    2.46
  -6  -2   4   15.71    3.29
  -6  -2  -4   15.09    3.74
   6  -2  -4   10.15    2.41
   6   2  -4   11.28    2.40
  -6   2  -5    9.28    3.77
  -6  -2   5   13.09    2.70
  -6  -2  -5    7.22    2.50
   6  -2  -5   14.16    2.96
   6   2  -5   10.97    2.23
  -6   2  -6  109.58    9.29
  -6  -2   6   92.58    7.41
  -6  -2  -6   87.44    7.51
   6  -2  -6   86.49    7.28
   6   2  -6   85.14    6.82
  -6   2  -7    1.65    2.25
  -6  -2  -7    9.54    3.29
   6  -2  -7    8.49    2.25
   6   2  -7    4.21    1.87
  -6   2  -8   56.54    5.49
  -6  -2  -8   56.68    5.73
   6  -2  -8   63.22    5.90
   6   2  -8   53.00    4.94
  -6   2  -9   21.56    3.12
  -6  -2  -9   16.38    4.33
   6  -2  -9   23.13    3.11
   6   2  -9   22.54    2.96
  -6   2 -10   28.28    3.11
  -6  -2 -10   39.65    3.63
   6  -2 -10   47.72    3.58
   6   2 -10   49.19    3.65
  -6   2 -11    6.24    2.69
  -6  -2 -11    6.46    2.58
   6  -2 -11   11.74    3.55
   6   2 -11    6.98    2.59
  -6   2 -12   80.57    6.33
  -6  -2 -12   68.61    6.13
   6  -2 -12   76.80    6.21
   6   2 -12   74.75    5.53
  -6   2 -13    8.44    3.76
  -6  -2 -13    2.08    2.10
   6  -2 -13    7.12    3.33
  -6   2 -14   38.18    6.68
  -6  -2 -14   35.90    5.51
   6  -2 -14   44.97    6.37
  -6   2 -15   10.13    4.15
  -6  -2 -15   12.37    4.11
  -6  -2  15    2.63    1.49
   6  -2 -15   11.35    3.70
  -6   2 -16    1.45    2.41
  -6  -2 -16    2.77    2.37
  -6  -2  16    6.85    1.91
   6  -2 -16   10.75    3.26
  -6   3   0    5.05    2.17
  -6  -3   0    1.45    1.78
   6  -3   0    3.88    2.08
  -6   3  -1   21.38    3.24
  -6   3   1   21.91    2.93
  -6  -3   1   22.87    3.24
  -6  -3  -1   25.16    3.67
   6  -3   1   16.37    3.26
   6  -3  -1   27.97    3.16
  -6   3   2   42.29    4.21
  -6   3  -2   36.82    3.83
  -6  -3   2   62.43    5.88
  -6  -3  -2   61.71    5.67
   6  -3   2   55.70    5.06
   6  -3  -2   54.09    5.09
  -6   3   3   76.33    6.20
  -6   3  -3   71.84    6.38
  -6  -3  -3   82.95    7.56
  -6  -3   3   77.65    6.59
   6  -3   3   83.08    6.80
   6  -3  -3   69.75    6.24
  -6   3  -4   44.04    5.35
  -6  -3  -4   34.13    4.36
  -6  -3   4   34.53    3.42
   6  -3   4   29.26    3.33
   6  -3  -4   37.83    3.90
   6   3  -4   38.08    3.50
  -6   3  -5    4.97    2.24
  -6  -3  -5    2.26    1.96
  -6  -3   5    5.44    2.04
   6  -3   5    8.19    2.31
   6  -3  -5    7.90    3.32
   6   3  -5    1.37    1.47
  -6   3  -6    9.88    3.17
  -6  -3  -6    7.68    2.28
  -6  -3   6    6.16    1.75
   6  -3  -6    7.31    2.63
   6   3  -6    8.45    2.05
  -6   3  -7   12.33    3.35
  -6  -3  -7   12.21    3.33
  -6  -3   7    4.07    1.56
   6  -3  -7    7.79    2.62
   6   3  -7    1.71    1.21
  -6   3  -8   45.07    4.37
  -6  -3  -8   34.12    3.76
   6  -3  -8   34.51    3.38
   6   3  -8   49.19    3.46
  -6   3  -9   59.18    5.33
  -6  -3  -9   37.47    3.89
   6  -3  -9   40.68    3.88
  -6   3 -10   27.23    3.98
  -6  -3 -10   31.66    4.56
   6  -3 -10   30.69    3.07
  -6   3 -11   10.50    3.89
  -6  -3 -11   12.79    3.81
  -6  -3  11   11.84    3.14
   6  -3 -11   10.61    3.04
  -6   3 -12   13.01    4.01
  -6  -3 -12   23.18    4.48
  -6  -3  12   27.49    4.26
   6  -3 -12   22.64    3.91
  -6   3 -13    2.49    2.45
  -6  -3 -13    5.81    3.21
  -6  -3  13    1.95    1.29
   6  -3 -13    9.21    3.55
  -6   3 -14   10.09    3.93
  -6  -3 -14    9.79    3.45
  -6  -3  14    8.64    2.62
   6  -3 -14    2.17    1.87
  -6   3 -15   28.23    5.02
  -6  -3 -15   25.33    4.36
  -6  -3  15   27.73    4.34
   6  -3 -15   27.55    4.74
  -6   3 -16    9.24    3.56
  -6  -3 -16    2.99    2.34
   6  -3 -16    7.53    2.93
  -6   4   0    8.76    2.82
  -6  -4   0   10.44    2.71
   6  -4   0    7.79    2.45
  -6   4   1   13.65    3.42
  -6   4  -1   10.77    3.51
  -6  -4   1    4.09    1.78
  -6  -4  -1    8.56    2.93
   6  -4   1    3.56    1.50
   6  -4  -1    7.53    2.53
  -6   4   2    7.29    1.97
  -6   4  -2    7.28    2.75
  -6  -4   2    8.48    2.63
  -6  -4  -2   16.20    3.61
   6  -4   2   10.34    2.53
   6  -4  -2    8.74    2.29
  -6   4   3   34.60    3.59
  -6   4  -3   35.38    3.94
  -6  -4   3   35.78    3.93
  -6  -4  -3   40.78    4.53
   6  -4   3   36.21    3.66
   6  -4  -3   48.77    5.05
  -6   4  -4   23.95    3.07
  -6  -4  -4   19.25    4.10
   6  -4   4   27.35    3.19
   6  -4  -4   28.94    3.61
  -6   4  -5   11.17    3.39
  -6  -4  -5    9.58    3.22
   6  -4   5   16.72    3.58
   6  -4  -5   14.18    3.08
   6   4  -5    7.13    1.91
  -6   4  -6   24.46    3.36
  -6  -4  -6   29.42    3.80
   6  -4  -6   25.82    3.12
   6   4  -6   19.55    2.07
  -6   4  -7    6.97    2.15
  -6  -4  -7   12.68    3.78
   6  -4  -7   12.76    3.64
  -6   4  -8   11.42    3.26
  -6  -4  -8   20.31    3.13
  -6  -4   8   18.31    2.04
   6  -4  -8   13.69    3.67
  -6   4  -9   22.82    3.95
  -6  -4  -9   17.04    3.61
  -6  -4   9   13.92    3.28
   6  -4  -9   13.72    3.79
  -6   4 -10   11.57    3.89
  -6  -4 -10    6.91    2.51
  -6  -4  10   12.07    3.04
   6  -4 -10   11.46    3.84
  -6   4 -11   10.81    3.84
  -6  -4 -11    7.66    3.29
  -6  -4  11   10.81    2.86
   6  -4 -11    7.23    2.61
  -6   4 -12   16.40    3.88
  -6  -4 -12    9.30    2.72
  -6  -4  12   18.36    5.39
   6  -4 -12    7.87    2.93
  -6   4 -13   22.28    4.21
  -6  -4 -13   22.61    4.05
  -6  -4  13   25.13    4.97
   6  -4 -13   21.86    4.02
  -6   4 -14    4.83    2.14
  -6  -4 -14    8.50    2.87
  -6  -4  14    2.36    1.73
   6  -4 -14   12.35    4.22
  -6   4 -15   29.84    5.69
  -6  -4 -15   29.65    5.55
  -6  -4  15   18.14    4.25
   6  -4 -15   22.93    4.48
   6   5   0   39.09    3.30
  -6   5   0   34.84    3.42
   6  -5   0   38.22    3.35
   6   5   1   36.29    3.40
   6   5  -1   27.71    2.80
  -6   5   1   28.60    3.11
  -6   5  -1   24.27    3.07
   6  -5   1   30.66    3.06
   6  -5  -1   27.35    3.27
   6   5  -2    2.20    1.41
   6   5   2    4.80    2.02
  -6   5   2    1.16    1.28
  -6   5  -2    8.32    3.28
   6  -5   2    5.20    2.44
   6  -5  -2    7.27    2.71
   6   5  -3    8.72    2.89
  -6   5  -3   10.05    2.82
   6  -5   3    6.93    2.39
   6  -5  -3    8.76    3.13
   6   5  -4    7.54    2.12
  -6   5  -4    7.32    2.45
  -6  -5  -4    8.55    2.84
   6  -5   4    5.98    1.96
   6  -5  -4   10.79    3.40
   6   5  -5   18.79    4.27
  -6   5  -5   19.03    2.77
  -6  -5  -5   30.59    3.49
   6  -5   5   20.00    2.40
   6  -5  -5   20.86    3.10
   6   5  -6    9.53    2.65
  -6  -5  -6   10.35    3.74
   6  -5   6    9.78    2.57
   6  -5  -6   11.37    3.39
   6   5  -7    3.20    1.17
  -6   5  -7    7.56    2.62
  -6  -5  -7    7.46    3.20
  -6  -5   7    5.54    1.73
   6  -5  -7    5.86    2.15
  -6   5  -8    4.32    2.25
  -6  -5  -8    1.45    1.88
  -6  -5   8    2.07    1.11
   6  -5  -8    5.88    2.20
  -6   5  -9    7.34    2.60
  -6  -5   9   14.43    3.79
  -6   5 -10   12.60    4.20
  -6  -5 -10   10.06    3.50
  -6  -5  10    6.58    2.13
   6  -5 -10   14.62    3.17
  -6   5 -11   11.34    3.76
  -6  -5 -11    9.61    3.64
   6  -5 -11   10.26    3.27
  -6   5 -12   12.65    3.95
  -6  -5 -12   13.08    3.41
  -6  -5  12    8.28    2.74
   6  -5 -12   21.14    3.88
  -6   5 -13   26.60    5.24
  -6  -5 -13   27.02    5.00
  -6  -5  13   22.44    5.39
   6  -5 -13   19.09    3.91
  -6   5 -14   13.07    3.95
  -6  -5 -14   20.59    4.78
  -6  -5  14    3.18    1.28
   6  -5 -14    4.36    2.05
   6   6   0    2.24    1.88
  -6   6   0    8.41    2.83
   6  -6   0   17.84    3.48
   6   6  -1    3.47    2.14
   6   6   1    5.69    2.23
  -6   6   1    1.76    1.36
  -6   6  -1    3.60    1.67
   6  -6   1    2.28    1.68
   6  -6  -1    4.00    1.79
   6   6  -2    6.86    2.70
   6   6   2    9.43    2.92
  -6   6   2    5.99    1.90
  -6   6  -2    4.78    1.81
   6  -6   2    7.78    2.73
   6  -6  -2   11.58    3.48
   6   6   3   20.39    2.78
   6   6  -3   20.52    3.42
  -6   6  -3   15.49    2.35
   6  -6   3   17.41    2.62
   6  -6  -3   13.89    3.75
   6   6   4   14.68    3.72
   6   6  -4   14.99    3.53
  -6   6  -4   27.80    4.00
   6  -6   4   30.28    3.25
   6  -6  -4   27.93    3.62
   6   6   5   20.74    3.10
   6   6  -5   17.30    3.46
  -6   6  -5   12.10    3.22
   6  -6   5   16.32    2.45
   6  -6  -5   10.00    3.21
   6   6   6   29.93    3.71
   6   6  -6   25.00    3.90
  -6   6  -6   30.54    3.31
   6  -6   6   41.35    3.95
   6  -6  -6   31.26    3.96
   6   6  -7    5.39    1.97
  -6   6  -7    2.62    2.05
   6  -6   7    5.98    2.19
   6  -6  -7   13.39    4.02
   6   6  -8    0.99    0.90
  -6   6  -8    2.60    2.03
  -6  -6  -8    6.29    3.31
   6  -6  -8    9.07    3.07
  -6   6  -9   11.02    3.54
  -6  -6  -9    2.41    2.19
  -6  -6   9    8.65    2.79
   6  -6  -9   12.52    3.13
  -6   6 -10   12.76    3.85
  -6  -6 -10    7.08    2.65
  -6  -6  10    8.27    2.38
   6  -6 -10    5.74    2.98
  -6   6 -11   17.94    3.66
  -6  -6  11   17.03    3.27
   6  -6 -11   12.67    3.28
  -6   6 -12    3.32    3.23
  -6  -6 -12   14.36    3.79
  -6  -6  12   12.66    2.65
   6  -6 -12    9.69    3.13
   6   7   0   29.43    4.96
  -6   7   0   35.02    5.07
   6  -7   0   34.90    5.04
   6   7  -1    2.00    1.22
   6   7   1    2.86    2.07
  -6   7   1    0.87    1.29
  -6   7  -1    1.37    1.42
   6  -7   1    5.04    2.65
   6  -7  -1    1.95    2.51
   6   7   2   46.07    9.71
   6   7  -2   64.42   13.77
  -6   7  -2   56.71    7.61
   6  -7   2   49.14    6.66
   6  -7  -2   63.47    8.41
   6   7   3    0.97    1.63
   6   7  -3    5.48    2.32
  -6   7  -3    2.15    2.22
   6  -7   3    7.83    2.91
   6  -7  -3    5.52    2.08
   6   7   4   46.44    7.86
   6   7  -4   40.49    9.24
  -6   7  -4   49.75    6.94
   6  -7   4   47.63    6.62
   6  -7  -4   52.79    7.76
   6   7   5    8.54    3.00
   6   7  -5    6.61    2.34
  -6   7  -5   11.23    3.32
   6  -7   5    8.32    2.56
   6  -7  -5   15.54    3.11
   6   7   6   24.87    4.09
   6   7  -6   20.23    4.47
  -6   7  -6   14.19    3.51
   6  -7   6   16.57    3.05
   6  -7  -6   21.07    3.94
   6   7   7   16.34    3.50
   6   7  -7   17.66    4.27
  -6   7  -7   14.52    3.48
   6  -7   7    5.96    2.08
   6  -7  -7    9.80    3.36
   6   7   8   21.25    3.82
   6   7  -8   15.37    4.39
  -6   7  -8   17.88    3.57
   6  -7   8   17.95    3.10
   6  -7  -8   18.53    4.00
   6   7   9   16.35    3.33
  -6   7  -9   21.86    3.79
   6  -7  -9   13.47    3.60
  -6   7 -10    9.42    3.25
   6  -7 -10    8.04    3.32
   6   8   0    1.32    1.19
  -6   8   0    3.44    2.04
   6  -8   0    2.66    1.70
   6   8   1   10.06    3.26
   6   8  -1    5.91    2.02
  -6   8  -1    3.61    1.60
   6  -8   1    1.81    1.75
   6  -8  -1    6.98    2.74
   6   8   2    1.43    1.14
   6   8  -2    2.67    2.38
  -6   8  -2    4.64    2.36
   6  -8   2    4.04    2.28
   6  -8  -2    4.40    3.08
   6   8   3    6.81    2.11
   6   8  -3    1.51    1.23
  -6   8  -3    8.57    3.23
   6  -8   3    3.18    2.15
   6  -8  -3    7.11    3.25
   6   8   4   19.05    4.07
   6   8  -4   24.52    5.88
  -6   8  -4   22.35    3.51
   6  -8   4   20.78    3.63
   6  -8  -4   30.40    4.60
   6   8   5    2.75    1.16
   6   8  -5    6.08    2.40
  -6   8  -5   11.55    3.26
   6  -8   5    2.85    1.44
   6  -8  -5    7.67    2.83
   6   8   6   17.05    5.53
   6   8  -6   17.88    5.00
  -6   8  -6   18.53    3.98
   6  -8   6   14.93    3.25
   6  -8  -6   17.88    4.10
   6   8   7    7.62    2.60
   6   8  -7    3.20    1.58
  -6   8  -7    3.71    1.97
   6  -8   7    0.77    1.21
   6  -8  -7    2.76    1.85
  -7   0   0    3.76    2.60
  -7   0  -1   73.18    8.98
  -7   0  -2    9.56    3.09
  -7   0  -3   47.19    6.33
  -7   0  -4   65.14   10.06
  -7   0  -5   13.95    3.98
  -7  -1   0    4.08    1.82
  -7   1  -1   55.49    7.04
  -7  -1  -1   64.32    8.22
  -7   1  -2    6.73    2.70
  -7  -1  -2   14.05    3.25
  -7   1  -3   64.79    9.74
  -7  -1  -3   65.85   10.16
  -7   1  -4   49.29    8.02
  -7  -1  -4   44.21    7.30
  -7   1  -5   31.39    5.45
  -7  -1  -5   25.53    4.91
  -7  -2   0   49.55    7.69
  -7   2  -1    2.56    1.49
  -7  -2   1    4.48    1.66
  -7  -2  -1    2.69    1.67
  -7   2  -2   19.23    3.67
  -7  -2  -2   28.06    5.06
  -7   2  -3    5.01    1.81
  -7  -2  -3    4.56    2.64
  -7   2  -4   22.73    4.65
  -7  -2  -4    7.80    2.28
  -7  -3   0   68.57   10.40
  -7  -3   1   58.89    9.06
  -7  -3  -1   58.04    8.98

_computing_structure_solution     'SHELXT 2014/4 (Sheldrick, 2014)'
;
_shelx_hkl_checksum              16849
_olex2_submission_special_instructions 'No special instructions were received'
loop_
_space_group_symop_operation_xyz
'x, y, z'
'-x+1/2, -y, z+1/2'
'-x, y+1/2, -z+1/2'
'x+1/2, -y+1/2, -z'
loop_
_atom_site_label
_atom_site_type_symbol
_atom_site_fract_x
_atom_site_fract_y
_atom_site_fract_z
_atom_site_U_iso_or_equiv
_atom_site_adp_type
_atom_site_occupancy
_atom_site_site_symmetry_order
_atom_site_calc_flag
_atom_site_refinement_flags_posn
S1 S 0.46718(12) 0.61148(5) 0.73021(3) 0.03160(17) Uani 1 1 d .
O1 O 1.0958(4) 0.38160(17) 0.78232(11) 0.0452(6) Uani 1 1 d .
H1 H 1.1309 0.3196 0.7763 0.068 Uiso 1 1 calc GR
O2 O 0.2097(4) 0.62946(16) 0.72987(10) 0.0395(5) Uani 1 1 d .
O3 O 0.6290(4) 0.69978(16) 0.73549(10) 0.0426(5) Uani 1 1 d .
N1 N 0.7880(6) 0.6210(2) 0.87620(12) 0.0495(8) Uani 1 1 d .
N2 N 0.9314(7) 0.6860(2) 0.85735(12) 0.0532(8) Uani 1 1 d .
N3 N 1.0501(10) 0.7531(3) 0.84328(18) 0.0905(15) Uani 1 1 d .
N4 N 0.5203(4) 0.53198(18) 0.78036(9) 0.0299(5) Uani 1 1 d .
H4 H 0.4019 0.5058 0.7989 0.036 Uiso 1 1 calc R
C1 C 0.8188(6) 0.5107(2) 0.85568(12) 0.0336(6) Uani 1 1 d .
H1A H 0.9884 0.4899 0.8623 0.040 Uiso 1 1 calc R
C2 C 0.7735(5) 0.5052(2) 0.79370(12) 0.0290(6) Uani 1 1 d .
H2 H 0.8776 0.5587 0.7766 0.035 Uiso 1 1 calc R
C3 C 0.8451(5) 0.3988(2) 0.76989(13) 0.0335(6) Uani 1 1 d .
H3A H 0.7459 0.3431 0.7856 0.040 Uiso 1 1 calc R
H3B H 0.8207 0.3989 0.7308 0.040 Uiso 1 1 calc R
C4 C 0.6586(6) 0.4392(3) 0.88909(13) 0.0385(7) Uani 1 1 d .
C5 C 0.4490(7) 0.4746(3) 0.91464(13) 0.0472(8) Uani 1 1 d .
H5 H 0.4028 0.5452 0.9117 0.057 Uiso 1 1 calc R
C6 C 0.3067(7) 0.4039(4) 0.94495(15) 0.0622(12) Uani 1 1 d .
H6 H 0.1679 0.4282 0.9627 0.075 Uiso 1 1 calc R
C7 C 0.3693(9) 0.3000(4) 0.94867(16) 0.0642(12) Uani 1 1 d .
H7 H 0.2713 0.2534 0.9682 0.077 Uiso 1 1 calc R
C8 C 0.5763(9) 0.2639(3) 0.92371(16) 0.0586(11) Uani 1 1 d .
H8 H 0.6198 0.1930 0.9266 0.070 Uiso 1 1 calc R
C9 C 0.7201(7) 0.3326(3) 0.89438(14) 0.0458(8) Uani 1 1 d .
H9 H 0.8611 0.3075 0.8778 0.055 Uiso 1 1 calc R
C10 C 0.5429(6) 0.5446(2) 0.66923(12) 0.0352(6) Uani 1 1 d .
C11 C 0.7504(7) 0.5704(3) 0.64038(15) 0.0475(8) Uani 1 1 d .
H11 H 0.8526 0.6242 0.6525 0.057 Uiso 1 1 calc R
C12 C 0.8044(8) 0.5153(3) 0.59331(16) 0.0575(10) Uani 1 1 d .
H12 H 0.9425 0.5336 0.5735 0.069 Uiso 1 1 calc R
C13 C 0.6583(9) 0.4337(3) 0.57495(15) 0.0570(10) Uani 1 1 d .
C14 C 0.4527(9) 0.4092(3) 0.60467(16) 0.0624(11) Uani 1 1 d .
H14 H 0.3511 0.3550 0.5928 0.075 Uiso 1 1 calc R
C15 C 0.3943(7) 0.4631(3) 0.65157(15) 0.0510(9) Uani 1 1 d .
H15 H 0.2557 0.4448 0.6713 0.061 Uiso 1 1 calc R
C16 C 0.7247(12) 0.3712(4) 0.5249(2) 0.0913(17) Uani 1 1 d .
H16A H 0.8336 0.4120 0.5027 0.137 Uiso 1 1 calc GR
H16B H 0.5797 0.3553 0.5046 0.137 Uiso 1 1 calc GR
H16C H 0.8031 0.3065 0.5355 0.137 Uiso 1 1 calc GR
loop_
_atom_site_aniso_label
_atom_site_aniso_U_11
_atom_site_aniso_U_22
_atom_site_aniso_U_33
_atom_site_aniso_U_23
_atom_site_aniso_U_13
_atom_site_aniso_U_12
S1 0.0224(3) 0.0273(3) 0.0450(4) 0.0044(3) 0.0007(3) -0.0014(3)
O1 0.0317(12) 0.0302(10) 0.0737(16) -0.0038(12) 0.0023(11) 0.0076(9)
O2 0.0236(10) 0.0387(11) 0.0563(13) 0.0044(11) 0.0000(10) 0.0030(8)
O3 0.0315(11) 0.0287(10) 0.0676(15) 0.0076(11) -0.0004(12) -0.0044(9)
N1 0.060(2) 0.0385(15) 0.0500(16) -0.0120(13) 0.0106(14) -0.0118(16)
N2 0.075(2) 0.0385(14) 0.0462(16) -0.0119(13) 0.0002(16) -0.0074(17)
N3 0.129(4) 0.0472(19) 0.096(3) -0.0135(19) 0.027(3) -0.040(2)
N4 0.0216(11) 0.0318(11) 0.0365(13) 0.0024(9) 0.0034(10) -0.0004(9)
C1 0.0295(16) 0.0333(15) 0.0380(16) -0.0033(12) -0.0004(13) -0.0022(13)
C2 0.0229(13) 0.0273(13) 0.0370(15) -0.0007(11) 0.0022(11) -0.0013(11)
C3 0.0309(14) 0.0277(13) 0.0418(15) -0.0017(13) 0.0013(14) 0.0027(12)
C4 0.0340(17) 0.0486(18) 0.0329(15) 0.0029(14) -0.0070(14) -0.0071(15)
C5 0.0377(18) 0.066(2) 0.0382(17) -0.0013(16) -0.0025(15) -0.0047(18)
C6 0.039(2) 0.106(4) 0.0418(19) 0.002(2) 0.0038(16) -0.015(2)
C7 0.065(3) 0.086(3) 0.042(2) 0.015(2) -0.006(2) -0.031(3)
C8 0.069(3) 0.060(2) 0.046(2) 0.0140(18) -0.011(2) -0.020(2)
C9 0.046(2) 0.0494(19) 0.0420(18) 0.0072(15) -0.0055(16) -0.0088(16)
C10 0.0277(14) 0.0399(15) 0.0382(15) 0.0103(12) -0.0015(13) 0.0000(13)
C11 0.0357(18) 0.054(2) 0.052(2) 0.0103(17) 0.0086(16) -0.0061(16)
C12 0.049(2) 0.073(3) 0.050(2) 0.0132(19) 0.0195(19) 0.004(2)
C13 0.064(3) 0.068(2) 0.0388(18) 0.0034(18) 0.0060(19) 0.004(2)
C14 0.066(3) 0.070(3) 0.051(2) -0.0134(19) 0.009(2) -0.020(2)
C15 0.044(2) 0.058(2) 0.051(2) -0.0073(17) 0.0075(17) -0.0168(17)
C16 0.113(5) 0.106(4) 0.056(3) -0.014(3) 0.025(3) -0.003(4)
loop_
_atom_type_symbol
_atom_type_description
_atom_type_scat_dispersion_real
_atom_type_scat_dispersion_imag
_atom_type_scat_source
C C 0.0033 0.0016 'International Tables Vol C Tables 4.2.6.8 and 6.1.1.4'
H H 0.0000 0.0000 'International Tables Vol C Tables 4.2.6.8 and 6.1.1.4'
N N 0.0061 0.0033 'International Tables Vol C Tables 4.2.6.8 and 6.1.1.4'
O O 0.0106 0.0060 'International Tables Vol C Tables 4.2.6.8 and 6.1.1.4'
S S 0.1246 0.1234 'International Tables Vol C Tables 4.2.6.8 and 6.1.1.4'
loop_
_geom_angle_atom_site_label_1
_geom_angle_atom_site_label_2
_geom_angle_atom_site_label_3
_geom_angle
O2 S1 O3 119.25(13)
O2 S1 N4 106.34(14)
O2 S1 C10 107.62(16)
O3 S1 N4 107.68(13)
O3 S1 C10 107.67(15)
N4 S1 C10 107.80(13)
C3 O1 H1 109.5
N2 N1 C1 115.1(3)
N3 N2 N1 172.7(4)
S1 N4 H4 120.5
C2 N4 S1 119.01(19)
C2 N4 H4 120.5
N1 C1 H1A 107.6
N1 C1 C2 110.9(3)
N1 C1 C4 108.1(3)
C2 C1 H1A 107.6
C4 C1 H1A 107.6
C4 C1 C2 114.6(3)
N4 C2 C1 111.2(2)
N4 C2 H2 107.2
N4 C2 C3 111.3(2)
C1 C2 H2 107.2
C3 C2 C1 112.3(2)
C3 C2 H2 107.2
O1 C3 C2 107.6(2)
O1 C3 H3A 110.2
O1 C3 H3B 110.2
C2 C3 H3A 110.2
C2 C3 H3B 110.2
H3A C3 H3B 108.5
C5 C4 C1 122.6(3)
C5 C4 C9 118.1(3)
C9 C4 C1 119.3(3)
C4 C5 H5 120.1
C4 C5 C6 119.8(4)
C6 C5 H5 120.1
C5 C6 H6 119.6
C7 C6 C5 120.7(4)
C7 C6 H6 119.6
C6 C7 H7 120.0
C6 C7 C8 120.1(4)
C8 C7 H7 120.0
C7 C8 H8 120.0
C7 C8 C9 120.0(4)
C9 C8 H8 120.0
C4 C9 H9 119.4
C8 C9 C4 121.3(4)
C8 C9 H9 119.4
C11 C10 S1 121.0(3)
C11 C10 C15 120.1(3)
C15 C10 S1 118.9(3)
C10 C11 H11 120.4
C10 C11 C12 119.2(4)
C12 C11 H11 120.4
C11 C12 H12 119.2
C11 C12 C13 121.7(4)
C13 C12 H12 119.2
C12 C13 C16 121.2(4)
C14 C13 C12 118.0(4)
C14 C13 C16 120.8(4)
C13 C14 H14 119.2
C15 C14 C13 121.5(4)
C15 C14 H14 119.2
C10 C15 H15 120.2
C14 C15 C10 119.6(4)
C14 C15 H15 120.2
C13 C16 H16A 109.5
C13 C16 H16B 109.5
C13 C16 H16C 109.5
H16A C16 H16B 109.5
H16A C16 H16C 109.5
H16B C16 H16C 109.5
loop_
_geom_bond_atom_site_label_1
_geom_bond_atom_site_label_2
_geom_bond_distance
S1 O2 1.430(2)
S1 O3 1.432(2)
S1 N4 1.616(2)
S1 C10 1.769(3)
O1 H1 0.8200
O1 C3 1.426(3)
N1 N2 1.228(4)
N1 C1 1.492(4)
N2 N3 1.124(5)
N4 H4 0.8600
N4 C2 1.467(4)
C1 H1A 0.9800
C1 C2 1.544(4)
C1 C4 1.504(4)
C2 H2 0.9800
C2 C3 1.517(4)
C3 H3A 0.9700
C3 H3B 0.9700
C4 C5 1.384(5)
C4 C9 1.394(5)
C5 H5 0.9300
C5 C6 1.401(5)
C6 H6 0.9300
C6 C7 1.360(7)
C7 H7 0.9300
C7 C8 1.369(7)
C8 H8 0.9300
C8 C9 1.377(5)
C9 H9 0.9300
C10 C11 1.380(5)
C10 C15 1.383(5)
C11 H11 0.9300
C11 C12 1.382(5)
C12 H12 0.9300
C12 C13 1.382(6)
C13 C14 1.378(6)
C13 C16 1.506(6)
C14 H14 0.9300
C14 C15 1.376(5)
C15 H15 0.9300
C16 H16A 0.9600
C16 H16B 0.9600
C16 H16C 0.9600
loop_
_geom_hbond_atom_site_label_D
_geom_hbond_atom_site_label_H
_geom_hbond_atom_site_label_A
_geom_hbond_distance_DH
_geom_hbond_distance_HA
_geom_hbond_distance_DA
_geom_hbond_angle_DHA
_geom_hbond_site_symmetry_A
O1 H1 O3 0.82 2.03 2.784(3) 153.1 3_746
N4 H4 O1 0.86 2.33 3.006(3) 135.2 1_455
loop_
_geom_torsion_atom_site_label_1
_geom_torsion_atom_site_label_2
_geom_torsion_atom_site_label_3
_geom_torsion_atom_site_label_4
_geom_torsion
S1 N4 C2 C1 135.0(2)
S1 N4 C2 C3 -99.0(3)
S1 C10 C11 C12 179.2(3)
S1 C10 C15 C14 -179.0(3)
O2 S1 N4 C2 -175.3(2)
O2 S1 C10 C11 139.1(3)
O2 S1 C10 C15 -42.9(3)
O3 S1 N4 C2 -46.4(2)
O3 S1 C10 C11 9.4(3)
O3 S1 C10 C15 -172.6(3)
N1 C1 C2 N4 -64.3(3)
N1 C1 C2 C3 170.2(3)
N1 C1 C4 C5 26.5(4)
N1 C1 C4 C9 -154.2(3)
N2 N1 C1 C2 -62.5(4)
N2 N1 C1 C4 171.0(3)
N4 S1 C10 C11 -106.5(3)
N4 S1 C10 C15 71.4(3)
N4 C2 C3 O1 177.1(2)
C1 C2 C3 O1 -57.5(3)
C1 C4 C5 C6 179.6(3)
C1 C4 C9 C8 -178.8(3)
C2 C1 C4 C5 -97.8(4)
C2 C1 C4 C9 81.5(4)
C4 C1 C2 N4 58.5(3)
C4 C1 C2 C3 -67.0(3)
C4 C5 C6 C7 -1.4(6)
C5 C4 C9 C8 0.6(5)
C5 C6 C7 C8 1.5(6)
C6 C7 C8 C9 -0.6(6)
C7 C8 C9 C4 -0.4(6)
C9 C4 C5 C6 0.3(5)
C10 S1 N4 C2 69.5(2)
C10 C11 C12 C13 -1.3(6)
C11 C10 C15 C14 -1.0(6)
C11 C12 C13 C14 1.0(6)
C11 C12 C13 C16 -177.4(4)
C12 C13 C14 C15 -0.7(7)
C13 C14 C15 C10 0.7(7)
C15 C10 C11 C12 1.3(5)
C16 C13 C14 C15 177.7(4)
