#------------------------------------------------------------------------------
#$Date: 2016-04-04 14:57:35 +0300 (Mon, 04 Apr 2016) $
#$Revision: 181441 $
#$URL: svn://www.crystallography.net/cod/cif/1/54/29/1542930.cif $
#------------------------------------------------------------------------------
#
# This file is available in the Crystallography Open Database (COD),
# http://www.crystallography.net/
#
# All data on this site have been placed in the public domain by the
# contributors.
#
data_1542930
loop_
_publ_author_name
'Murayama, Hiroaki'
'Nagao, Kazunori'
'Ohmiya, Hirohisa'
'Sawamura, Masaya'
_publ_section_title
;
 Phosphine-Catalyzed Vicinal Acylcyanation of Alkynoates.
;
_journal_issue                   7
_journal_name_full               'Organic letters'
_journal_page_first              1706
_journal_page_last               1709
_journal_paper_doi               10.1021/acs.orglett.6b00677
_journal_volume                  18
_journal_year                    2016
_chemical_formula_moiety         'C18 H15 N O3 S'
_chemical_formula_sum            'C18 H15 N O3 S'
_chemical_formula_weight         325.38
_space_group_crystal_system      triclinic
_space_group_IT_number           2
_space_group_name_Hall           '-P 1'
_space_group_name_H-M_alt        'P -1'
_symmetry_space_group_name_Hall  '-P 1'
_symmetry_space_group_name_H-M   'P -1'
_atom_sites_solution_hydrogens   geom
_atom_sites_solution_primary     direct
_atom_sites_solution_secondary   difmap
_cell_angle_alpha                78.396(6)
_cell_angle_beta                 73.972(6)
_cell_angle_gamma                85.069(7)
_cell_formula_units_Z            2
_cell_length_a                   8.0503(13)
_cell_length_b                   8.2338(13)
_cell_length_c                   12.7870(18)
_cell_measurement_reflns_used    2413
_cell_measurement_temperature    150
_cell_measurement_theta_max      27.50
_cell_measurement_theta_min      3.40
_cell_volume                     797.6(2)
_computing_cell_refinement       'CrystalClear-SM Expert 2.0 r16'
_computing_data_collection
'CrystalClear-SM Expert 2.0 r16 (Rigaku, 2013)'
_computing_data_reduction        'CrystalClear-SM Expert 2.0 r16'
_computing_molecular_graphics    'CrystalStructure 4.1'
_computing_publication_material  'CrystalStructure 4.1 (Rigaku, 2014)'
_computing_structure_refinement  'SHELXL2013 (Sheldrick, 2008)'
_computing_structure_solution    'SIR2011 (Burla, et al., 2012)'
_diffrn_ambient_temperature      150
_diffrn_detector_area_resol_mean 7.314
_diffrn_measured_fraction_theta_full 0.992
_diffrn_measured_fraction_theta_max 0.989
_diffrn_measurement_device_type  'Rigaku Mercury70'
_diffrn_measurement_method       \w
_diffrn_radiation_type           'Mo K\a'
_diffrn_radiation_wavelength     0.71075
_diffrn_reflns_av_R_equivalents  0.0224
_diffrn_reflns_Laue_measured_fraction_full 0.992
_diffrn_reflns_Laue_measured_fraction_max 0.989
_diffrn_reflns_limit_h_max       9
_diffrn_reflns_limit_h_min       -10
_diffrn_reflns_limit_k_max       10
_diffrn_reflns_limit_k_min       -10
_diffrn_reflns_limit_l_max       11
_diffrn_reflns_limit_l_min       -16
_diffrn_reflns_number            6361
_diffrn_reflns_point_group_measured_fraction_full 0.992
_diffrn_reflns_point_group_measured_fraction_max 0.989
_diffrn_reflns_theta_full        25.242
_diffrn_reflns_theta_max         26.497
_diffrn_reflns_theta_min         3.374
_diffrn_standards_number         0
_exptl_absorpt_coefficient_mu    0.217
_exptl_absorpt_correction_T_max  0.979
_exptl_absorpt_correction_T_min  0.871
_exptl_absorpt_correction_type   multi-scan
_exptl_absorpt_process_details   'REQAB (Rigaku, 1998)'
_exptl_crystal_colour            colorless
_exptl_crystal_density_diffrn    1.355
_exptl_crystal_density_method    'not measured'
_exptl_crystal_description       prism
_exptl_crystal_F_000             340.00
_exptl_crystal_size_max          0.200
_exptl_crystal_size_mid          0.200
_exptl_crystal_size_min          0.100
_refine_diff_density_max         0.43
_refine_diff_density_min         -0.45
_refine_ls_extinction_method     none
_refine_ls_goodness_of_fit_ref   1.075
_refine_ls_hydrogen_treatment    constr
_refine_ls_number_parameters     208
_refine_ls_number_reflns         3261
_refine_ls_number_restraints     0
_refine_ls_R_factor_all          0.0488
_refine_ls_R_factor_gt           0.0385
_refine_ls_shift/su_max          0.000
_refine_ls_structure_factor_coef Fsqd
_refine_ls_weighting_details
'w = 1/[\s^2^(Fo^2^)+(0.0677P)^2^+0.0770P] where P=(Fo^2^+2Fc^2^)/3'
_refine_ls_weighting_scheme      calc
_refine_ls_wR_factor_gt          0.1141
_refine_ls_wR_factor_ref         0.1189
_reflns_number_gt                2619
_reflns_number_total             3261
_reflns_threshold_expression     F^2^>2.0\s(F^2^)
_cod_data_source_file            ol6b00677_si_002.cif
_cod_data_source_block           HM-1835-a
_cod_depositor_comments          'Adding full bibliography for 1542930.cif.'
_cod_database_code               1542930
_shelxl_res_file
;

    shelxl.res created by SHELXL-2014/7

TITL HM-1835-a
CELL  0.71075 8.05030 8.23380 12.78700 78.39600 73.97200 85.06900
ZERR  2 0.00130 0.00130 0.00180 0.00600 0.00600 0.00700
LATT 1
SFAC C H N O S
UNIT 36 30 2 6 2
SHEL 99999.000000 0.796448
L.S. 5
FMAP 2
PLAN -25
WPDB -2
HTAB
BOND $H
CONF
LIST 4
TEMP -123.0
ACTA
SIZE 0.200 0.200 0.100
WGHT    0.067700    0.077000
FVAR       1.07819
S1    5    0.263454    0.387341    0.462573    11.00000    0.04250    0.02515 =
         0.02259   -0.00546   -0.00857   -0.00460
O1    4    0.258699    0.188444    0.085618    11.00000    0.03423    0.02415 =
         0.02198   -0.00488   -0.01095   -0.00345
O2    4    0.192789    0.111208    0.345579    11.00000    0.03084    0.02483 =
         0.02841    0.00030   -0.00573   -0.00645
O3    4    0.207070    0.460605    0.031284    11.00000    0.06930    0.03032 =
         0.03134   -0.00267   -0.02391    0.00939
N20   3    0.105625    0.771307    0.138230    11.00000    0.03874    0.02814 =
         0.04480   -0.00391   -0.01683    0.00488
C1    1    0.490919    0.163159    0.262884    11.00000    0.02722    0.01730 =
         0.02053   -0.00574   -0.00877    0.00122
C2    1    0.302514    0.199811    0.280148    11.00000    0.02725    0.02009 =
         0.01785   -0.00465   -0.00647   -0.00339
C3    1    0.152683    0.648476    0.182499    11.00000    0.02339    0.02357 =
         0.03348   -0.00612   -0.00875    0.00047
C5    1    0.546564    0.043261    0.341705    11.00000    0.03350    0.02145 =
         0.02213   -0.00209   -0.00863   -0.00165
AFIX  43
H5    2    0.464814   -0.013738    0.404105    11.00000   -1.20000
AFIX   0
C6    1    0.210278    0.502348    0.250498    11.00000    0.01738    0.02152 =
         0.02571   -0.00140   -0.00538   -0.00231
C7    1    0.841675    0.087807    0.235444    11.00000    0.02824    0.02926 =
         0.03518   -0.01019   -0.01288    0.00605
AFIX  43
H7    2    0.961480    0.061232    0.225925    11.00000   -1.20000
AFIX   0
C8    1    0.246855    0.358411    0.212037    11.00000    0.01980    0.02152 =
         0.02206   -0.00242   -0.00546   -0.00283
C9    1    0.220391    0.536572    0.356216    11.00000    0.02060    0.02267 =
         0.02843   -0.00595   -0.00556   -0.00105
C10   1    0.721802    0.008740    0.327719    11.00000    0.03909    0.02419 =
         0.03163   -0.00308   -0.01822    0.00533
AFIX  43
H10   2    0.760292   -0.070085    0.382032    11.00000   -1.20000
AFIX   0
C11   1    0.234223    0.346040    0.099670    11.00000    0.02402    0.02649 =
         0.02338   -0.00317   -0.00765   -0.00026
C12   1    0.254590    0.157649   -0.022400    11.00000    0.03732    0.03401 =
         0.02417   -0.00874   -0.01273   -0.00565
AFIX  23
H12A  2    0.162508    0.228568   -0.047979    11.00000   -1.20000
H12B  2    0.227213    0.040361   -0.015390    11.00000   -1.20000
AFIX   0
C13   1    0.786942    0.205918    0.156798    11.00000    0.02637    0.02859 =
         0.02540   -0.00633   -0.00398   -0.00130
AFIX  43
H13   2    0.868866    0.259960    0.093236    11.00000   -1.20000
AFIX   0
C14   1    0.199955    0.689749    0.386270    11.00000    0.03776    0.02612 =
         0.04155   -0.01119   -0.01301    0.00184
AFIX  43
H14   2    0.175290    0.788912    0.339701    11.00000   -1.20000
AFIX   0
C15   1    0.255417    0.530400    0.544877    11.00000    0.02640    0.03768 =
         0.02920   -0.01337   -0.00125   -0.01001
C16   1    0.425407    0.193992   -0.106034    11.00000    0.04199    0.03996 =
         0.02780   -0.00818   -0.00721    0.00084
AFIX  33
H16A  2    0.419770    0.172574   -0.177623    11.00000   -1.20000
H16B  2    0.451665    0.310543   -0.113808    11.00000   -1.20000
H16C  2    0.516286    0.122581   -0.081261    11.00000   -1.20000
AFIX   0
C17   1    0.219243    0.684910    0.492960    11.00000    0.04118    0.03319 =
         0.04398   -0.02137   -0.00936   -0.00213
AFIX  43
H17   2    0.208035    0.780604    0.525603    11.00000   -1.20000
AFIX   0
C18   1    0.283707    0.475810    0.657996    11.00000    0.04595    0.05190 =
         0.02759   -0.01473   -0.00539   -0.01129
AFIX  33
H18A  2    0.307383    0.355745    0.671242    11.00000   -1.20000
H18B  2    0.382345    0.533107    0.662854    11.00000   -1.20000
H18C  2    0.179879    0.502904    0.713814    11.00000   -1.20000
AFIX   0
C19   1    0.611596    0.244437    0.171752    11.00000    0.02847    0.02110 =
         0.02176   -0.00302   -0.00899    0.00073
AFIX  43
H19   2    0.573979    0.327218    0.119072    11.00000   -1.20000
AFIX   0
HKLF 4
 
REM  HM-1835-a
REM R1 =  0.0385 for    2619 Fo > 4sig(Fo)  and  0.0488 for all    3261 data
REM    208 parameters refined using      0 restraints
 
END  
     
WGHT      0.0679      0.0762 

REM Instructions for potential hydrogen bonds
EQIV $1 x, y-1, z
HTAB C12 N20_$1
EQIV $2 -x+1, -y+1, -z+1
HTAB C18 S1_$2

REM Highest difference peak  0.433,  deepest hole -0.451,  1-sigma level  0.048
Q1    1   0.4002  0.4240  0.6587  11.00000  0.05    0.43
Q2    1   0.1973  0.3920  0.7001  11.00000  0.05    0.41
Q3    1   0.2674  0.5815  0.6871  11.00000  0.05    0.32
Q4    1   0.2474  0.3427  0.1655  11.00000  0.05    0.30
Q5    1   0.2261  0.5109  0.3042  11.00000  0.05    0.28
Q6    1   0.4196  0.1890  0.2722  11.00000  0.05    0.26
Q7    1   0.5249  0.1193  0.2981  11.00000  0.05    0.25
Q8    1   0.2837  0.2982  0.2430  11.00000  0.05    0.25
Q9    1   0.8060  0.1517  0.2036  11.00000  0.05    0.19
Q10   1   0.1949  0.5648  0.2217  11.00000  0.05    0.19
Q11   1   0.2726  0.4350  0.2163  11.00000  0.05    0.18
Q12   1   0.2398  0.4554  0.5190  11.00000  0.05    0.18
Q13   1   0.2331  0.4740  0.3992  11.00000  0.05    0.18
Q14   1   0.6912  0.2049  0.1674  11.00000  0.05    0.17
Q15   1   0.1930  0.4165  0.2442  11.00000  0.05    0.17
Q16   1   0.1884  0.7182  0.5113  11.00000  0.05    0.17
Q17   1   0.2465  0.5153  0.5911  11.00000  0.05    0.17
Q18   1   0.1882  0.5764  0.5359  11.00000  0.05    0.17
Q19   1   0.2111  0.7240  0.3662  11.00000  0.05    0.16
Q20   1   0.2375  0.0314  0.0146  11.00000  0.05    0.16
Q21   1   0.5395  0.1609  0.2057  11.00000  0.05    0.15
Q22   1   0.2004  0.6829  0.4485  11.00000  0.05    0.15
Q23   1   0.1723  0.6074  0.3848  11.00000  0.05    0.14
Q24   1   0.3200  0.1650 -0.0613  11.00000  0.05    0.14
Q25   1   0.2498  0.1840  0.3244  11.00000  0.05    0.14
;
_shelxl_hkl_file
;
   0   0   2   67.72    2.90
   0   0   2   68.10    1.73
   0   0  -2   69.97    3.32
   0   0  -2   65.42    1.89
   0   0   3   12.99    2.36
   0   0   3   14.66    1.42
   0   0  -3   12.68    2.69
   0   0  -3   13.80    1.86
   0   0   4   34.79    2.89
   0   0   4   38.15    1.82
   0   0  -4   35.86    2.79
   0   0  -4   38.35    1.97
   0   0   5  504.63   10.95
   0   0   5  526.91    8.79
   0   0  -5  526.73   11.58
   0   0  -5  520.02    8.73
   0   0   6  543.69   12.49
   0   0   6  578.50   10.28
   0   0  -6  555.08   13.15
   0   0  -6  560.05    9.95
   0   0   7  319.68    9.20
   0   0  -7  318.32   11.92
   0   0  -7  312.91    8.79
   0   0   8   49.78    2.95
   0   0  -8   45.47    5.05
   0   0  -8   45.48    2.63
   0   0  -9  261.25   10.97
   0   0  -9  256.65    6.53
   0   0 -10  391.48   16.91
   0   0 -11  421.07   14.67
   0   0 -12    4.74    4.45
   0   0 -13   -0.28    3.13
   0   0 -14  149.84   10.12
   0   0 -15   11.71    4.62
   0   1 -15    6.85    4.45
   0   1 -14  122.26    8.97
   0   1 -13   12.69    5.72
   0   1 -12  258.49   11.12
   0   1 -11  260.53   10.91
   0   1 -11  250.29    6.73
   0   1 -10   53.92    5.65
   0   1 -10   56.51    3.54
   0   1  -9   -2.87    3.43
   0   1  -9   -1.12    1.27
   0  -1   9    0.98    1.32
   0   1  -8  194.12    8.68
   0   1  -8  194.33    6.37
   0  -1   8  196.58    6.29
   0   1  -7   99.35    6.04
   0   1  -7   99.52    6.24
   0  -1   7  102.24    4.64
   0   1  -6  290.70    8.91
   0   1  -6  293.10    7.77
   0  -1   6  276.29    8.39
   0  -1   6  295.21    7.25
   0   1  -5  396.83   10.05
   0  -1   5  394.69    9.53
   0  -1   5  392.21    8.26
   0   1  -4  596.34   10.75
   0  -1   4  592.10   10.15
   0  -1   4  616.67    9.52
   0   1  -3  385.46    7.51
   0  -1   3  348.27    6.87
   0   1  -2 1488.93   16.83
   0  -1   2 1438.60   16.32
   0   1   2 1974.51   21.02
   0  -1  -2 2086.14   22.25
   0   1   3 2215.42   27.17
   0  -1  -3 2231.88   24.63
   0   1   4  488.72    9.18
   0   1   4  492.08    5.91
   0  -1  -4  497.82    9.43
   0   1   5 1250.54   20.95
   0   1   5 1285.61   17.38
   0  -1  -5 1296.27   21.98
   0   1   6  260.33    7.91
   0  -1  -6  275.52    8.99
   0  -1  -7   55.06    5.23
   0  -1  -8  457.41   12.77
   0  -1  -9    9.70    3.29
   0  -1 -10  485.82   19.27
   0  -1 -11    7.26    3.40
   0  -1 -12  201.98   10.22
   0  -1 -13   56.77    6.71
   0  -1 -14   28.02    5.77
   0  -1 -15   37.24    6.88
   0   2 -14   87.35    7.89
   0   2 -13    1.77    2.83
   0   2 -12    3.53    2.63
   0   2 -11  601.34   16.40
   0   2 -11  585.87   11.68
   0   2 -10  492.73   14.09
   0   2 -10  458.57   10.26
   0   2  -9  127.18    8.72
   0   2  -9  139.17    7.01
   0   2  -8   22.25    4.10
   0   2  -8   20.29    4.97
   0  -2   8   19.54    2.38
   0   2  -7  847.78   17.42
   0   2  -7  914.64   16.50
   0  -2   7  855.25   15.39
   0   2  -6  865.17   23.77
   0  -2   6  818.19   21.80
   0   2  -5  492.15   11.82
   0  -2   5  481.54   11.36
   0   2  -4 1668.86   26.30
   0  -2   4 1775.49   27.45
   0   2  -3  569.06   10.16
   0  -2   3  655.75   10.96
   0   2  -2  642.87   10.41
   0  -2   2  681.06   10.60
   0  -2   2  669.40    9.75
   0   2  -1  174.17    4.93
   0   2   0   67.78    2.97
   0   2   0   60.93    2.41
   0   2   0   65.82    2.99
   0  -2   0   65.69    2.31
   0  -2   0   68.54    2.90
   0   2   1 7774.67   72.68
   0   2   2  636.38   10.10
   0  -2  -2  632.18   10.06
   0   2   310177.57   96.29
   0  -2  -310302.89  133.75
   0   2   4    9.33    1.94
   0  -2  -4   12.39    3.63
   0   2   5 2871.06   41.90
   0  -2  -5 2860.62   42.27
   0  -2  -6   82.57    5.40
   0   2   7   10.33    1.02
   0  -2  -7   10.19    3.54
   0  -2  -7    9.00    1.48
   0   2   8  175.69    3.49
   0  -2  -8  171.43    7.91
   0  -2  -8  170.64    3.24
   0  -2  -9 1027.98   24.34
   0  -2 -10  215.76   11.46
   0  -2 -11  340.26   12.60
   0  -2 -12   20.96    5.03
   0  -2 -13   14.64    4.66
   0  -2 -14   10.80    5.06
   0  -2 -15    0.45    3.76
   0   3 -14   27.80    5.70
   0   3 -13   22.40    5.01
   0   3 -12   89.35    7.31
   0   3 -11    6.53    3.80
   0   3 -11    5.48    4.58
   0   3 -10  314.83   11.81
   0   3 -10  303.09   12.47
   0   3  -9  523.12   14.71
   0   3  -9  502.25   15.41
   0   3  -8  863.55   28.60
   0   3  -8  828.11   26.81
   0   3  -7    2.87    2.32
   0   3  -6   -0.34    2.38
   0   3  -5  508.81   15.69
   0   3  -4   88.47    4.76
   0  -3   4   87.35    4.53
   0  -3   4  101.77    4.63
   0   3  -3  115.95    5.25
   0   3  -3  125.53    4.90
   0  -3   3  120.61    5.13
   0  -3   3  113.30    4.53
   0   3  -2   62.43    3.85
   0   3  -2   66.37    3.70
   0   3  -2   69.20    4.99
   0  -3   2   58.90    2.95
   0   3  -1  307.54    7.59
   0   3  -1  292.02    6.54
   0   3  -1  279.10    6.32
   0  -3   1  288.08    6.45
   0   3   0  874.59   13.07
   0   3   0  824.75   10.85
   0  -3   0  885.98   13.41
   0  -3   0  833.56   10.83
   0   3   1 3078.81   33.46
   0  -3  -1 2992.03   33.02
   0   3   2  699.78   11.89
   0  -3  -2  686.03   12.09
   0   3   3 2447.77   36.07
   0  -3  -3 2495.75   37.11
   0   3   4   17.47    2.79
   0  -3  -4   19.53    3.49
   0  -3  -5  173.85    7.09
   0  -3  -6  534.43   16.75
   0  -3  -7  564.16   14.29
   0  -3  -8  186.13    9.03
   0   3   9  289.84    4.52
   0  -3  -9  287.08   11.37
   0  -3  -9  291.05    4.52
   0  -3 -10   32.44    6.20
   0  -3 -11  219.53   10.71
   0  -3 -12    6.71    5.31
   0  -3 -13   67.90    8.12
   0  -3 -14    6.91    5.47
   0  -3 -15   59.55    6.88
   0   4 -13   27.47    6.57
   0   4 -12  144.18    9.06
   0   4 -11  128.90    9.02
   0   4 -11  126.58    8.16
   0   4 -10  163.41    9.35
   0   4 -10  153.05    9.47
   0   4  -9   55.94    6.06
   0   4  -9   48.02   10.90
   0   4  -8   97.45    6.61
   0   4  -7    4.14    4.27
   0   4  -6  194.66    8.06
   0   4  -5  447.96   12.89
   0   4  -5  500.35   12.94
   0   4  -4   27.81    3.55
   0   4  -4   26.35    3.11
   0  -4   4   36.35    3.02
   0   4  -3   53.78    4.37
   0   4  -3   65.87    4.42
   0   4  -3   56.45    3.97
   0  -4   3   72.52    4.12
   0   4  -2  231.30   11.59
   0   4  -2  245.12    8.71
   0   4  -2  250.74    8.25
   0  -4   2  245.74    7.97
   0   4  -1  157.25    6.44
   0   4  -1  164.25    6.01
   0   4  -1  187.30    5.72
   0  -4   1  169.42    5.04
   0   4   0    4.52    1.48
   0   4   0    3.90    1.92
   0  -4   0    5.17    2.66
   0  -4   0    4.62    1.88
   0   4   1  157.39    6.02
   0   4   1  164.48    5.08
   0  -4  -1  167.51    6.45
   0  -4  -1  174.46    4.98
   0   4   2   78.48    4.31
   0  -4  -2   82.15    4.95
   0   4   3  632.69   14.18
   0  -4  -3  651.52   14.79
   0  -4  -4 1089.96   21.47
   0  -4  -5  685.17   20.48
   0  -4  -6   13.61    4.01
   0  -4  -7  256.40   10.16
   0  -4  -8  422.68   12.97
   0  -4  -9  113.20    8.19
   0  -4 -10  705.69   18.85
   0  -4 -11   25.82    5.19
   0  -4 -12   56.32    6.83
   0  -4 -13   36.01    6.51
   0  -4 -14   67.34    7.21
   0  -4 -15   57.16    8.10
   0   5 -12   17.71    4.87
   0   5 -12   18.02    4.90
   0   5 -11   55.38    6.87
   0   5 -11   46.37    9.05
   0   5 -11   60.13    6.61
   0   5 -10   16.96    4.45
   0   5 -10   11.28    6.37
   0   5 -10   11.18    4.65
   0   5  -9   -0.22    2.50
   0   5  -9   -0.75    2.25
   0   5  -8    7.97    2.77
   0   5  -8    8.82    2.65
   0   5  -7  525.71   14.39
   0   5  -7  501.84   15.16
   0   5  -6   94.90    6.14
   0   5  -6   99.48    9.54
   0   5  -5  224.77   10.67
   0   5  -5  260.68   11.64
   0   5  -4    4.66    2.95
   0   5  -4    3.00    2.15
   0  -5   4    3.58    1.57
   0   5  -3  334.33   11.16
   0   5  -3  336.96    9.49
   0  -5   3  302.73   10.03
   0   5  -2  163.43    7.17
   0   5  -2  194.07    6.42
   0  -5   2  172.05    5.77
   0   5  -1   10.65    5.86
   0   5  -1    9.95    2.28
   0   5  -1    7.71    1.90
   0   5   0  263.07    8.58
   0  -5   0  271.21   10.51
   0  -5   0  228.29    7.70
   0   5   1  175.29    6.60
   0  -5  -1  184.42    8.23
   0  -5  -1  166.83    5.96
   0  -5  -2   26.57    3.64
   0  -5  -2   24.03    2.19
   0  -5  -3  337.71   12.18
   0  -5  -4    8.26    3.08
   0  -5  -5  422.96   12.61
   0  -5  -6  166.63    8.77
   0  -5  -7    2.73    5.48
   0  -5  -8  988.90   33.21
   0  -5  -9   16.21    4.90
   0  -5 -10   14.24    5.45
   0  -5 -11  124.00    9.39
   0  -5 -12   77.24    7.92
   0  -5 -13    5.10    4.02
   0  -5 -14   93.76    8.64
   0   6 -11    6.75    5.00
   0   6 -11    4.24    2.16
   0   6 -10    7.56    3.24
   0   6 -10    7.43    4.01
   0   6 -10    5.81    3.77
   0   6  -9    9.12    3.90
   0   6  -9    4.83    1.47
   0   6  -8   56.31    5.53
   0   6  -8   58.20    8.65
   0   6  -7    4.76    1.91
   0   6  -6  202.15    9.27
   0   6  -6  212.94   10.23
   0   6  -5    1.79    2.83
   0   6  -5    1.09    2.12
   0   6  -4    8.28    3.44
   0   6  -4   10.87    3.10
   0   6  -3  199.64   10.22
   0   6  -3  177.65    7.95
   0  -6   3  143.01    6.94
   0   6  -2  175.30    8.08
   0   6  -2  184.32    6.23
   0   6  -1  402.72   13.83
   0   6   0  318.67    8.81
   0  -6   0  311.17   11.08
   0  -6   0  309.71    9.51
   0   6   1   34.87    2.99
   0  -6  -1   39.56    4.62
   0  -6  -1   31.59    5.83
   0   6   2   53.24    3.83
   0  -6  -2   58.79    5.50
   0  -6  -2   66.21    3.46
   0  -6  -3   21.55   11.30
   0  -6  -3   19.19    2.35
   0  -6  -4   46.97    5.61
   0  -6  -5   96.36    7.16
   0  -6  -6    3.22    4.54
   0  -6  -7  109.67    7.92
   0  -6  -8  378.03   13.27
   0  -6  -9   38.07    6.02
   0  -6 -10  517.41   16.77
   0  -6 -11    1.09    3.96
   0  -6 -12   96.60    8.79
   0  -6 -13   76.20    8.67
   0  -6 -14    6.59    6.03
   0   7  -9   68.75    6.77
   0   7  -8   84.89    7.04
   0   7  -7   64.36    6.73
   0   7  -6   12.81    3.28
   0   7  -6   15.53    3.50
   0   7  -5    8.57    2.72
   0   7  -5   11.04    2.75
   0   7  -4  227.35    9.96
   0   7  -4  232.59    8.41
   0   7  -3   88.98    6.98
   0   7  -3   88.37    4.99
   0   7  -2  432.48   13.44
   0   7  -1  102.22   14.14
   0   7   0  383.33   18.79
   0   7   0  441.89    9.70
   0   7   1    4.11    2.24
   0  -7  -1    4.96    3.30
   0  -7  -1    1.45    0.69
   0   7   2   19.39    2.81
   0  -7  -2   21.67    4.39
   0  -7  -2   21.88    2.41
   0   7   3  561.74   11.61
   0  -7  -3  523.41   15.07
   0  -7  -4  187.14    9.36
   0  -7  -5    2.00    3.63
   0  -7  -6   19.46    3.98
   0  -7  -7  106.72    8.07
   0  -7  -8  154.34    9.63
   0  -7  -9   52.64    6.69
   0  -7 -10   18.23    5.25
   0  -7 -11   -0.60    3.48
   0  -7 -12    6.01    5.87
   0  -7 -13    7.23    5.95
   0   8  -8   79.75    7.44
   0   8  -7    5.49    3.93
   0   8  -6    1.98    2.69
   0   8  -5    1.36    3.56
   0   8  -4    0.81    2.57
   0   8  -3   34.67    4.93
   0   8  -2   81.18    6.90
   0   8  -1   41.27   14.75
   0   8   0   17.81    5.17
   0   8   2   39.84    3.20
   0  -8  -2   43.76    5.76
   0   8   3   68.96    4.31
   0  -8  -3   69.09    6.39
   0   8   4   45.42    4.57
   0  -8  -4   47.32    6.14
   0  -8  -5   87.98    7.45
   0  -8  -6  224.54   11.68
   0  -8  -7    2.10    4.06
   0  -8  -8   -2.56    3.89
   0  -8  -9   21.20    5.11
   0  -8 -10   14.73    9.36
   0  -8 -11   52.97    6.56
   0   9  -5    5.88    3.32
   0   9  -4  199.47   10.79
   0   9  -3   43.11    5.77
   0   9  -2   51.46    6.19
   0   9  -1   33.17   19.01
   0   9   0    0.96    1.21
   0   9   1   74.01   21.05
   0  -9  -2   21.05    4.74
   0  -9  -3    4.66    5.10
   0  -9  -4   79.62    7.59
   0  -9  -5    2.63    5.13
   0  -9  -6   51.06    7.02
   0  -9  -7   29.15    5.91
   0  -9  -8   10.84    4.88
   0  -9  -9    5.31    3.65
   0  -9 -10   18.54    4.96
   0  10  -2    0.51    3.02
   0  10  -1   92.71    8.28
   0  10   0   15.43    8.17
   0  10   1   41.67   22.19
   0  10   2   18.67    9.20
   0 -10  -4   25.80    5.77
   0 -10  -5   19.45    5.21
   0 -10  -6  125.38   10.08
   0 -10  -7    1.76    3.90
   0 -10  -8    1.90    3.98
   1 -10  -7    0.40    3.11
   1 -10  -6   56.99    6.98
   1 -10  -5   70.86    7.48
   1 -10  -4    6.26    4.28
   1 -10  -3  101.31    8.40
  -1  10   2  182.24   33.62
  -1  10   1    1.49    2.23
  -1  10   0   35.68   17.15
  -1  10  -1    1.65    2.72
  -1  10  -2    9.32    4.14
   1  -9  -9    2.21    3.66
   1  -9  -8  142.33   10.18
   1  -9  -7   37.94    7.20
   1  -9  -6  161.99   10.56
   1  -9  -5   78.71    7.41
   1  -9  -4   92.88    8.03
   1  -9  -3    2.45    2.98
   1  -9  -2   59.52    6.92
  -1   9   1   15.05    7.15
  -1   9   0   59.81   11.27
  -1   9  -1   19.43    6.32
  -1   9  -2   20.47    4.83
  -1   9  -3    1.66    2.41
   1  -8 -11   15.64    5.48
   1  -8 -10   38.38    6.52
   1  -8  -9  199.54   11.13
   1  -8  -8   77.28    7.93
   1  -8  -7   67.44    7.61
   1  -8  -6   22.78    4.86
   1  -8  -5   66.25    6.37
   1  -8  -4   16.52    5.60
  -1   8   4   17.66   11.24
   1  -8  -3  168.79    9.17
  -1   8   3  157.52    9.61
   1  -8  -2    6.30    4.36
  -1   8   2    4.36    2.69
   1  -8  -1    1.42    3.16
  -1   8   1   -0.55    1.61
  -1   8   0   60.45    6.04
  -1   8   0   59.62    4.51
  -1   8  -1  103.06   10.55
  -1   8  -1   81.43    4.91
  -1   8  -2   41.12    5.57
  -1   8  -3   34.63    5.01
  -1   8  -4   72.53    6.24
  -1   8  -5   58.52    5.38
  -1   8  -6   20.18    3.84
  -1   8  -8  102.23   17.51
   1  -7 -12    9.46    5.41
   1  -7 -11  148.14   10.66
   1  -7 -10  147.96   11.24
   1  -7  -9    1.38    3.90
   1  -7  -8    1.87    3.61
   1  -7  -7    3.00    5.50
   1  -7  -6    4.45    4.30
   1  -7  -5   18.71    3.55
   1  -7  -4    4.47    3.94
   1  -7  -3   70.22    6.34
  -1   7   3   58.31    5.03
   1  -7  -2  285.25   10.49
  -1   7   2  272.86   11.30
   1  -7  -1  558.30   14.96
  -1   7   1  564.15   13.04
   1  -7   0  177.93    8.79
  -1   7   0  162.88    7.03
  -1   7  -1 1010.86   24.38
  -1   7  -1  998.69   17.87
  -1   7  -2  120.03    6.66
  -1   7  -3  128.36    7.33
  -1   7  -3  131.31    6.66
  -1   7  -4   23.85    3.70
  -1   7  -4   25.32    3.61
  -1   7  -5   28.73    4.18
  -1   7  -5   27.43    3.86
  -1   7  -6  137.21    7.58
  -1   7  -6  157.14    8.11
  -1   7  -7   32.90    4.97
  -1   7  -7   27.70    4.40
  -1   7  -8    1.77    2.69
  -1   7  -8    1.73    1.88
  -1   7  -8    3.07    3.22
  -1   7  -9   54.81    7.28
  -1   7  -9   58.39    6.29
  -1   7 -10   91.73    8.39
   1  -6 -13  186.23   12.51
   1  -6 -12  111.45    9.54
   1  -6 -11  108.89    9.03
   1  -6 -10    0.22    3.67
   1  -6  -9   21.89    5.56
   1  -6  -8   15.41    5.39
   1  -6  -7  216.34    9.89
   1  -6  -6    0.11    3.56
   1  -6  -5   32.39    5.21
   1  -6  -4   84.01    6.39
   1  -6  -3  722.12   16.64
   1  -6  -2  707.74   16.67
  -1   6   2  812.50   15.00
   1  -6  -1   14.28    3.20
   1  -6  -1   12.78    2.09
  -1   6   1   15.52    2.63
   1  -6   0   69.69    5.14
   1  -6   0   78.93    4.30
  -1   6   0   72.21    4.53
  -1   6  -2   18.36   10.11
  -1   6  -2   18.19    7.53
  -1   6  -2   23.12    3.39
  -1   6  -3   79.83    5.31
  -1   6  -3   78.96    5.48
  -1   6  -4   49.08    4.33
  -1   6  -4   41.47    4.19
  -1   6  -5   26.47    3.50
  -1   6  -5   24.22    3.60
  -1   6  -6  237.62    9.10
  -1   6  -6  226.83    9.32
  -1   6  -7    6.37    2.50
  -1   6  -8   34.85    4.29
  -1   6  -8   35.41   19.85
  -1   6  -8   44.70    4.92
  -1   6  -9   29.91    4.26
  -1   6  -9   25.85   14.68
  -1   6  -9   32.48    6.07
  -1   6 -10   70.29    6.97
  -1   6 -10   59.62   10.45
  -1   6 -10   65.14   15.53
  -1   6 -11  205.83   12.68
  -1   6 -11  243.11   12.63
   1  -5 -14   38.73    7.76
   1  -5 -13  104.53   10.07
   1  -5 -12    1.93    3.41
   1  -5 -11   64.62    7.10
   1  -5 -10    4.01    4.02
   1  -5  -9  209.11   10.74
   1  -5  -8  358.19   13.04
   1  -5  -7  251.59   12.16
   1  -5  -6  178.84    8.56
   1  -5  -5  434.39   13.33
   1  -5  -4   81.52    5.48
   1  -5  -3  259.24   10.11
   1  -5  -2  143.86    6.56
   1  -5  -2  123.20    5.09
   1  -5  -1   47.74    3.98
   1  -5  -1   49.31    3.34
  -1   5   1   53.90    3.93
   1  -5   0 1521.40   24.12
   1  -5   0 1485.51   23.90
  -1   5   0 1509.34   23.22
   1  -5   1   61.50    6.51
  -1   5  -1   64.64    4.41
   1  -5   2    2.56    1.56
  -1   5  -2    1.64    1.43
  -1   5  -2    1.69    1.94
  -1   5  -2    1.51    1.82
  -1   5  -3   57.14    4.60
  -1   5  -3   67.58    4.57
  -1   5  -4  153.46    6.86
  -1   5  -4  142.85    6.53
  -1   5  -5    3.22    2.45
  -1   5  -6  450.78   11.93
  -1   5  -6  434.78   12.74
  -1   5  -7    3.85    2.53
  -1   5  -7    2.52    2.53
  -1   5  -8  117.18    6.50
  -1   5  -8  108.05    7.76
  -1   5  -8  109.37   12.68
  -1   5  -9  124.60    7.25
  -1   5  -9  129.40    8.46
  -1   5  -9  109.28   11.05
  -1   5 -10  104.62    7.44
  -1   5 -10  104.42    7.51
  -1   5 -10   90.84   27.31
  -1   5 -11  141.71    8.11
  -1   5 -11  155.62    9.38
  -1   5 -11  162.13    9.54
  -1   5 -12    9.82    3.74
  -1   5 -12    4.51    4.15
  -1   5 -12    8.29    3.19
   1  -4 -14   40.07    7.03
   1  -4 -13   10.79    5.41
   1  -4 -12    3.45    4.38
   1  -4 -11    6.00    4.56
   1  -4 -10   11.12    5.57
   1  -4  -9    1.48    3.82
  -1   4   9    0.18    0.37
   1  -4  -8  724.54   17.64
   1  -4  -8  714.27    9.32
   1  -4  -7   77.20    6.21
   1  -4  -6  312.42   10.64
   1  -4  -5    6.00    2.34
   1  -4  -4   81.24    5.36
   1  -4  -3  268.44    9.90
  -1   4   3  271.45    9.65
   1  -4  -2    6.26    2.12
  -1   4   2    5.74    1.92
   1  -4  -1  453.21   10.93
   1  -4  -1  429.13    9.84
  -1   4   1  464.29   10.74
  -1   4   1  464.20   10.76
   1  -4   0 1013.75   18.78
   1  -4   0 1019.32   18.11
  -1   4   0 1065.39   19.01
  -1   4   0 1053.81   19.00
   1  -4   1  440.55   10.34
   1  -4   1  449.14   10.23
  -1   4  -1  439.52   10.18
  -1   4  -1  442.58   10.57
  -1   4  -1  411.05    9.84
   1  -4   2  448.90   13.99
  -1   4  -2  443.96   13.13
  -1   4  -2  432.46   13.16
  -1   4  -2  419.57   12.84
  -1   4  -2  432.89   13.24
   1  -4   3   40.81    3.46
  -1   4  -3   41.91    3.08
  -1   4  -3   49.49    4.01
  -1   4  -3   39.32    3.55
  -1   4  -4  813.62   15.43
  -1   4  -4  792.44   14.60
  -1   4  -4  857.33   16.55
  -1   4  -5   13.81    2.71
  -1   4  -5   15.43    6.39
  -1   4  -6  345.74    9.79
  -1   4  -6  342.42   11.28
  -1   4  -7  709.84   23.46
  -1   4  -7  738.53   26.13
  -1   4  -7  746.77   26.98
  -1   4  -8  226.79    9.15
  -1   4  -8  220.58    9.17
  -1   4  -8  208.92    9.52
  -1   4  -9   12.16    3.05
  -1   4  -9   11.78    7.61
  -1   4  -9   14.78    4.13
  -1   4 -10  265.19   10.14
  -1   4 -10  255.82   11.22
  -1   4 -10  257.76   11.10
  -1   4 -11   21.65    4.05
  -1   4 -11   16.86    4.59
  -1   4 -12   15.37    4.00
  -1   4 -12   19.99    3.73
  -1   4 -13    2.38    2.80
   1  -3 -15   -1.83    3.62
   1  -3 -14   42.79    6.87
   1  -3 -13   14.86    4.23
   1  -3 -12   36.62    6.28
   1  -3 -11  483.48   15.52
   1  -3 -10   46.26    5.49
   1  -3  -9    6.31    4.40
   1  -3  -8  171.39    9.00
   1  -3  -7  321.26   10.99
   1  -3  -7  327.90    5.32
  -1   3   7  324.59    6.02
   1  -3  -6   10.84    3.77
   1  -3  -5   51.43    4.88
   1  -3  -4 1169.20   21.63
  -1   3   4 1170.85   21.57
   1  -3  -3    4.85    2.67
  -1   3   3    4.98    2.20
   1  -3  -2  262.34    7.40
  -1   3   2  268.44    7.23
   1  -3  -1  314.60    7.94
   1  -3  -1  341.73    7.88
  -1   3   1  317.90    7.58
   1  -3   0 2041.95   29.74
  -1   3   0 1927.24   29.07
   1  -3   1   55.71    3.25
   1  -3   1   58.43    3.21
   1  -3   1   55.27    3.89
  -1   3  -1   58.83    3.00
  -1   3  -1   62.62    3.59
  -1   3  -1   55.71    3.95
   1  -3   2  314.65    7.95
   1  -3   2  292.96    7.79
  -1   3  -2  303.36    8.30
  -1   3  -2  294.26    8.44
  -1   3  -3 1412.68   23.27
  -1   3  -3 1455.10   23.61
  -1   3  -3 1435.91   24.58
   1  -3   4 1506.10   25.68
  -1   3  -4 1655.70   26.98
   1  -3   5   27.09    6.09
  -1   3  -5   27.73    3.11
  -1   3  -5   30.20    4.60
   1  -3   6  376.12    9.65
  -1   3  -6  375.12    9.85
  -1   3  -6  384.10   10.96
  -1   3  -7   34.64    3.61
  -1   3  -7   35.64    5.77
  -1   3  -8  138.44    6.85
  -1   3  -8  132.08    7.67
  -1   3  -9    5.86    2.66
  -1   3  -9    4.94    3.20
  -1   3 -10    7.71    4.02
  -1   3 -10    3.18    2.46
  -1   3 -11   22.97    3.90
  -1   3 -11   25.41    3.86
  -1   3 -12   27.15    4.58
  -1   3 -12   27.27    3.78
  -1   3 -13    2.33    2.80
  -1   3 -14   92.96    8.10
   1  -2 -15   81.73    8.83
   1  -2 -14   28.28    6.33
   1  -2 -13  123.62   10.22
   1  -2 -12  246.67   11.98
   1  -2 -11    7.50    4.54
   1  -2 -10  156.24    8.94
   1  -2  -9   10.69    4.91
   1  -2  -8  842.30   20.87
   1  -2  -7    2.59    2.80
   1  -2  -6   11.63    4.29
   1  -2  -5  119.23    2.69
   1  -2  -5  116.71    6.01
  -1   2   5  122.07    3.12
  -1   2   5  112.48    5.53
   1  -2  -4   12.87    3.41
   1  -2  -4   14.88    1.37
  -1   2   4   14.25    2.51
   1  -2  -3  258.33    7.20
  -1   2   3  268.97    6.79
   1  -2  -2   13.19    2.93
  -1   2   2   15.21    2.35
   1  -2  -1    0.13    1.72
  -1   2   1    0.01    1.74
   1  -2   0    0.13    1.53
   1  -2   0    1.17    2.80
  -1   2   0   -0.45    1.44
  -1   2   0   -0.21    1.62
   1  -2   1 1590.87   17.27
   1  -2   1 1595.50   18.70
   1  -2   1 1580.19   19.64
  -1   2  -1 1579.16   17.16
  -1   2  -1 1550.59   18.53
   1  -2   2  571.13   10.03
   1  -2   2  600.11    9.85
   1  -2   2  547.24   10.36
  -1   2  -2  570.51    8.49
  -1   2  -2  566.76    9.68
  -1   2  -2  580.11    8.22
  -1   2  -2  581.73   10.16
   1  -2   3 1632.81   18.84
   1  -2   3 1727.15   21.83
  -1   2  -3 1638.53   18.75
   1  -2   4   36.01    2.62
   1  -2   4   37.95    3.21
   1  -2   4   40.98    3.25
  -1   2  -4   42.17    3.21
   1  -2   5   65.37    3.67
   1  -2   5   64.42    4.21
   1  -2   5   68.49    4.04
  -1   2  -5   69.01    4.36
  -1   2  -5   59.69    3.57
   1  -2   6  239.45    8.46
   1  -2   6  243.78    8.99
  -1   2  -6  241.52    8.80
  -1   2  -6  237.42    9.13
   1  -2   7   58.81    3.78
  -1   2  -7   56.41    4.53
  -1   2  -7   57.07    5.50
  -1   2  -8  180.47    7.36
  -1   2  -8  202.74    7.78
  -1   2  -9  974.09   30.77
  -1   2  -9  988.46   30.74
  -1   2 -10   99.07    6.34
  -1   2 -10   93.50    5.62
  -1   2 -11   62.29    5.65
  -1   2 -11   68.49    4.87
  -1   2 -12   48.54    5.40
  -1   2 -12   50.71    4.83
  -1   2 -13  207.18   10.78
  -1   2 -14   12.61    4.79
  -1   2 -15   56.20    7.49
   1  -1 -15   35.20    6.85
   1  -1 -14   47.31    7.16
   1  -1 -13    3.11    5.42
   1  -1 -12   56.31    6.77
   1  -1 -11   -0.07    3.38
   1  -1 -10   42.10    6.10
   1  -1  -9   74.71   14.79
   1  -1  -8   54.72    5.68
   1  -1  -7  153.22    8.31
   1  -1  -6 1053.46   21.41
   1  -1  -5 2082.51   32.97
  -1   1   5 2079.76   32.21
   1  -1  -4  432.97   10.52
  -1   1   4  426.05    9.81
   1  -1  -3   73.48    4.19
  -1   1   3   73.11    3.70
   1  -1  -2  233.60    5.51
   1  -1  -2  232.65    3.83
  -1   1   2  240.06    5.57
   1  -1  -1   14.96    2.22
   1  -1  -1   14.91    2.11
  -1   1   1   15.25    1.67
  -1   1   1   14.49    1.78
  -1   1   1   15.67    1.88
   1  -1   0   17.27    1.73
   1  -1   0   18.96    1.53
   1  -1   0   18.03    1.85
  -1   1   0   22.76    5.86
  -1   1   0   18.44    1.60
  -1   1   0   20.01    2.32
   1  -1   1  959.28    9.66
   1  -1   1  973.43   12.31
  -1   1  -1  970.09    9.73
  -1   1  -1  971.21   12.75
  -1   1  -1  977.03   12.40
  -1   1  -1  973.87   12.73
  -1   1  -1 1009.54   12.73
   1  -1   2 1435.72   14.69
   1  -1   2 1373.72   16.41
   1  -1   2 1437.04   17.11
  -1   1  -2 1427.08   17.05
  -1   1  -2 1395.47   16.85
  -1   1  -2 1477.85   17.56
  -1   1  -2 1373.79   16.59
   1  -1   3 1126.71   13.03
   1  -1   3 1108.04   14.86
   1  -1   3 1128.18   14.80
  -1   1  -3 1111.54   13.13
  -1   1  -3 1079.46   15.02
  -1   1  -3 1075.73   14.40
   1  -1   4  235.22    5.36
   1  -1   4  229.61    5.87
  -1   1  -4  225.59    5.46
  -1   1  -4  225.53    6.09
  -1   1  -4  224.44    6.75
   1  -1   5   88.05    3.79
   1  -1   5   88.62    4.29
  -1   1  -5   80.92    4.03
  -1   1  -5   85.73    4.25
   1  -1   6   51.15    3.37
   1  -1   6   53.98    3.47
  -1   1  -6   51.19    3.74
  -1   1  -6   51.56    3.47
   1  -1   7   -1.34    1.58
   1  -1   7    0.14    1.28
  -1   1  -7   -0.91    2.00
  -1   1  -7   -0.37    1.72
   1  -1   8  407.63    9.43
  -1   1  -8  407.32   11.15
  -1   1  -8  412.63    9.84
  -1   1  -9 1172.05   19.94
  -1   1  -9 1204.81   17.44
   1  -1  10  101.73    6.52
  -1   1 -10  114.76    7.08
  -1   1 -10  113.86    6.37
  -1   1 -11  522.99   15.83
  -1   1 -11  554.36   11.09
  -1   1 -12  178.36    9.15
  -1   1 -12  170.61    6.30
  -1   1 -13  148.46    8.82
  -1   1 -14   28.56    5.80
  -1   1 -15   -3.07    2.95
   1   0 -15    0.40    3.72
   1   0 -14    5.96    5.56
   1   0 -13    4.34    3.88
   1   0 -12   -0.17    2.92
   1   0 -11   19.33    4.82
   1   0 -10  332.50   12.74
   1   0  -9   46.41    5.59
   1   0  -9   43.99    1.64
   1   0  -8  241.06   10.26
   1   0  -8  239.46    5.03
  -1   0   8  246.71    5.17
   1   0  -7   47.18    5.00
   1   0  -7   44.88    2.06
  -1   0   7   41.65    2.00
   1   0  -6    0.12    2.78
   1   0  -6    1.46    0.65
  -1   0   6    2.01    0.89
   1   0  -5 1679.96   28.07
  -1   0   5 1653.03   26.99
  -1   0   5 1648.64   22.09
   1   0  -4    6.06    3.37
  -1   0   4    8.61    2.04
   1   0  -3  293.84    7.05
  -1   0   3  297.31    6.96
   1   0  -2   29.28    3.82
  -1   0   2   24.36    2.58
   1   0  -1 1980.05   20.80
  -1   0   1 1952.94   20.35
   1   0   2   91.19    2.36
   1   0   2   92.94    3.27
   1   0   2   94.88    3.60
   1   0   2   94.21    3.20
  -1   0  -2   92.25    2.73
  -1   0  -2   91.36    3.77
  -1   0  -2   91.80    3.41
   1   0   3 1561.90   16.96
   1   0   3 1540.72   17.31
   1   0   3 1573.76   17.49
  -1   0  -3 1546.01   17.36
  -1   0  -3 1567.52   17.08
  -1   0  -3 1578.53   17.68
   1   0   4   21.32    2.19
   1   0   4   25.08    4.53
   1   0   4   21.76    2.10
  -1   0  -4   21.88    2.33
  -1   0  -4   20.41    2.08
  -1   0  -4   20.68    2.36
   1   0   5  154.34    5.00
   1   0   5  159.98    4.72
   1   0   5  141.09    4.39
  -1   0  -5  149.88    4.81
  -1   0  -5  151.92    5.39
  -1   0  -5  155.22    5.07
   1   0   6   42.04    3.21
   1   0   6   47.79    5.20
   1   0   6   44.33    2.65
  -1   0  -6   44.58    3.32
  -1   0  -6   42.53    3.63
  -1   0  -6   43.39    2.75
   1   0   7    7.99    2.40
   1   0   7    5.14    2.31
  -1   0  -7    7.08    2.04
  -1   0  -7    7.16    1.82
  -1   0  -7    7.26    2.05
  -1   0  -8  579.94   13.43
  -1   0  -8  572.56   10.90
  -1   0  -9  123.75    6.90
  -1   0  -9  112.90    4.88
  -1   0 -10  345.22   14.65
  -1   0 -10  321.00   11.23
  -1   0 -11  490.88   14.47
  -1   0 -12   51.75    5.70
  -1   0 -13   54.85    5.91
  -1   0 -14   17.55    4.61
  -1   0 -15   24.10    5.34
  -1   0 -16    5.50    4.92
   1   1 -14    5.70    3.86
   1   1 -13    4.92    3.29
   1   1 -12   42.53    5.98
   1   1 -11  412.75   14.61
   1   1 -10   13.93    4.71
   1   1 -10   10.71    1.60
   1   1  -9 1053.70   34.79
   1   1  -9  979.15   28.30
  -1  -1   9  987.06   28.40
   1   1  -8    0.71    3.01
   1   1  -8    0.00    0.60
  -1  -1   8   -0.02    0.81
   1   1  -7   61.48    5.66
  -1  -1   7   63.69    3.08
   1   1  -6  177.30    8.28
   1   1  -5    1.33    3.06
  -1  -1   5    3.16    1.64
   1   1  -4   62.32    4.42
  -1  -1   4   59.94    3.89
   1   1  -3  735.84   12.12
  -1  -1   3  735.06   11.88
   1   1  -2  828.10   12.37
  -1  -1   2  770.95   11.46
   1   1  -1 5494.88   53.27
  -1  -1   1 5450.84   52.33
   1   1   0 2324.69   24.37
  -1  -1   0 2293.83   23.76
   1   1   1 1704.17   18.11
   1   1   1 1702.96   16.34
  -1  -1  -1 1722.53   18.58
  -1  -1  -1 1715.32   16.46
   1   1   2  112.37    3.47
  -1  -1  -2  118.93    3.73
   1   1   3 3045.18   31.09
  -1  -1  -3 3056.28   31.44
   1   1   4 1823.06   21.19
   1   1   4 1879.00   20.50
  -1  -1  -4 1854.93   21.73
   1   1   5 2530.55   36.39
   1   1   5 2634.83   36.04
  -1  -1  -5 2566.98   37.10
  -1  -1  -5 2541.40   34.92
   1   1   6  941.30   17.19
   1   1   6  927.27   14.83
  -1  -1  -6  915.32   16.96
  -1  -1  -6  941.16   15.31
   1   1   7  615.79   17.59
   1   1   7  611.99   16.23
  -1  -1  -7  624.08   18.15
  -1  -1  -7  601.60   15.63
   1   1   8  292.17    6.53
  -1  -1  -8  290.97    9.42
  -1  -1  -8  301.32    6.77
  -1  -1  -9   21.34    4.65
  -1  -1  -9   18.26    1.94
  -1  -1 -10   71.60    6.87
  -1  -1 -11   87.82    6.66
  -1  -1 -12   23.69    4.54
  -1  -1 -13  136.92    8.52
  -1  -1 -14   41.17    7.03
  -1  -1 -15  106.46    8.16
  -1  -1 -16  213.97   12.05
   1   2 -14   14.64    4.65
   1   2 -13  154.74    9.78
   1   2 -12   74.64    7.20
   1   2 -11   32.06    5.39
   1   2 -10   16.98    4.97
   1   2 -10   14.68    4.73
   1   2  -9  297.71   11.74
   1   2  -9  296.25    8.14
   1   2  -8    9.99    4.46
  -1  -2   8    7.35    1.68
   1   2  -7  183.50    9.22
   1   2  -6   -1.17    3.19
   1   2  -5    0.66    2.96
   1   2  -4  190.42    7.62
  -1  -2   4  177.94    7.13
   1   2  -3 1098.64   19.39
  -1  -2   3 1102.47   19.25
   1   2  -2  492.83    9.93
  -1  -2   2  481.80    9.53
   1   2  -1   23.87    2.81
  -1  -2   1   23.24    3.02
   1   2   0   15.55    6.40
   1   2   0   14.32    2.53
   1   2   0   13.57    2.42
  -1  -2   0   15.49    0.82
   1   2   1  484.84    8.47
  -1  -2  -1  495.44    8.82
   1   2   2 1217.08   15.69
  -1  -2  -2 1248.82   16.21
   1   2   3 2154.33   24.74
  -1  -2  -3 2168.44   25.13
   1   2   4 3984.10   41.89
  -1  -2  -4 3935.99   41.60
   1   2   5    6.61    1.78
  -1  -2  -5    8.96    3.22
   1   2   6 1644.73   27.83
  -1  -2  -6 1636.93   28.44
   1   2   7    1.00    0.87
  -1  -2  -7    0.51    2.95
   1   2   8  234.52    5.73
  -1  -2  -8  242.66    9.18
  -1  -2  -8  227.12    6.18
   1   2   9    0.00    0.78
  -1  -2  -9    1.32    3.23
  -1  -2  -9    0.76    0.93
   1   2  10  100.97    5.06
  -1  -2 -10  110.32    7.70
  -1  -2 -10  100.77    3.63
  -1  -2 -11    2.69    4.14
  -1  -2 -12  183.30    9.65
  -1  -2 -13   66.09    6.47
  -1  -2 -14  428.51   15.71
  -1  -2 -15   26.34    4.90
  -1  -2 -16    6.03    4.56
   1   3 -13   34.38    6.04
   1   3 -12    2.91    3.35
   1   3 -11  138.85    9.72
   1   3 -10   85.08    6.91
   1   3 -10   86.59    5.43
   1   3  -9   13.91    5.29
   1   3  -8    2.31    3.60
   1   3  -7  126.22    7.57
   1   3  -6  877.68   21.24
   1   3  -5    2.45    4.06
   1   3  -4 1155.62   30.98
   1   3  -3  242.21    8.49
  -1  -3   3  218.13    7.54
   1   3  -2  142.92    6.32
  -1  -3   2  127.60    5.53
   1   3  -1  618.32   13.21
   1   3  -1  613.17   12.68
  -1  -3   1  684.38   10.64
   1   3   0 1065.95   18.81
   1   3   0  995.71   17.38
   1   3   1   29.29    2.70
   1   3   1   28.73    1.79
  -1  -3  -1   32.56    3.86
  -1  -3  -1   33.14    1.19
   1   3   2 2322.57   27.55
  -1  -3  -2 2342.46   28.12
   1   3   3   87.34    4.44
  -1  -3  -3   91.55    5.45
   1   3   4 4215.57   61.97
  -1  -3  -4 4076.10   57.74
   1   3   5  153.24    6.16
  -1  -3  -5  159.06    7.39
  -1  -3  -6 1136.37   22.18
  -1  -3  -7  269.06   10.71
  -1  -3  -8   18.67    4.90
   1   3   9  279.50    7.24
  -1  -3  -9  286.39   11.67
   1   3  10  475.07   14.71
  -1  -3 -10  483.17   19.23
  -1  -3 -10  475.48   15.27
  -1  -3 -11   75.87    6.56
  -1  -3 -12  164.60    9.46
  -1  -3 -13   78.16    7.44
  -1  -3 -14   -0.24    3.19
  -1  -3 -15    9.82    3.73
  -1  -3 -16   51.41    6.68
   1   4 -12   22.45    5.63
   1   4 -10   52.93    6.31
   1   4 -10   54.49    5.29
   1   4  -9    7.37    3.10
   1   4  -8 1020.31   21.28
   1   4  -7  555.90   15.65
   1   4  -6    3.48    3.65
   1   4  -5    3.17    3.78
   1   4  -4 1049.28   20.61
  -1  -4   4 1010.38   16.93
   1   4  -3  373.37   13.59
  -1  -4   3  416.27   12.00
   1   4  -2  952.76   26.49
   1   4  -2  966.45   23.96
  -1  -4   2 1043.30   25.50
   1   4  -1   60.99    7.01
   1   4  -1   58.27    2.81
  -1  -4   1   58.04    2.54
   1   4   0  801.67   18.26
   1   4   0  701.14   14.92
   1   4   1  689.95   14.79
  -1  -4  -1  707.52   15.34
   1   4   2   83.00    4.46
  -1  -4  -2   85.14    5.34
  -1  -4  -3 1587.98   28.15
  -1  -4  -4   40.95    4.30
  -1  -4  -5  879.30   24.75
  -1  -4  -6  770.06   22.61
  -1  -4  -7 1390.29   25.29
  -1  -4  -8  738.80   19.68
  -1  -4  -9  118.65    7.88
  -1  -4 -10    5.20    3.40
  -1  -4 -11    8.92    4.73
  -1  -4 -11    5.07    2.40
  -1  -4 -12    8.41    5.49
  -1  -4 -13   22.39    5.54
  -1  -4 -14   29.57    6.07
  -1  -4 -15    0.01    3.75
   1   5 -12   13.25    5.41
   1   5 -11  130.46   10.52
   1   5 -10  152.35    9.94
   1   5  -9   46.82    5.84
   1   5  -8   73.50    6.68
   1   5  -7    4.45    5.00
   1   5  -6  149.73    8.55
   1   5  -5  794.93   27.50
   1   5  -5  828.33   28.03
   1   5  -4  346.06   11.74
   1   5  -4  371.98    9.25
  -1  -5   4  338.39    8.21
   1   5  -3  122.86    7.54
   1   5  -3  116.79    8.35
  -1  -5   3  126.24    4.88
   1   5  -2   37.03    4.78
   1   5  -2   36.98    2.54
  -1  -5   2   35.84    2.36
   1   5  -1   18.71    9.26
   1   5  -1   17.16    2.05
   1   5   0  152.19    7.57
   1   5   1   39.12    2.16
  -1  -5  -1   36.43    4.03
  -1  -5  -1   31.09    1.90
   1   5   2    3.24    1.61
  -1  -5  -2    3.63    2.57
  -1  -5  -2    3.51    1.03
  -1  -5  -3  195.41    9.01
  -1  -5  -4   23.78    4.41
  -1  -5  -5 2177.51   34.77
  -1  -5  -6  523.89   15.29
  -1  -5  -7   -0.60    3.20
  -1  -5  -8   37.24    5.13
  -1  -5  -9  143.63    9.24
  -1  -5 -10   56.87    6.10
  -1  -5 -11   18.04    5.01
  -1  -5 -12   15.15    4.64
  -1  -5 -13  207.92   12.15
  -1  -5 -14    4.03    5.64
  -1  -5 -15    7.22    5.83
   1   6 -10   36.44    6.14
   1   6  -9  213.05   11.12
   1   6  -9  188.96   13.25
   1   6  -8   -0.43    2.75
   1   6  -8   -0.75    1.91
   1   6  -7  263.71   11.79
   1   6  -7  251.63   14.55
   1   6  -6  486.14   15.31
   1   6  -6  426.48   16.06
   1   6  -5  407.52   13.55
   1   6  -5  392.09   12.43
   1   6  -4  183.61    9.25
   1   6  -4  180.58    6.53
   1   6  -3    5.22    2.82
   1   6  -3    7.62    3.36
  -1  -6   3    3.73    2.10
   1   6  -2   59.40    5.82
   1   6  -2   48.66    2.91
  -1  -6   2   49.42    2.87
   1   6  -1  351.34   11.79
   1   6   0  399.49   17.98
   1   6   1  215.39    5.35
  -1  -6  -1  192.30    9.09
   1   6   2  647.59   12.26
  -1  -6  -2  664.54   17.83
  -1  -6  -2  599.21   11.40
   1   6   3  426.08    9.78
  -1  -6  -3  402.94   13.60
  -1  -6  -3  402.72    9.02
  -1  -6  -4   67.23    8.87
  -1  -6  -5  105.55    7.45
  -1  -6  -6  271.82   11.24
  -1  -6  -7  863.43   30.17
  -1  -6  -8   90.89    7.52
  -1  -6  -9   18.73    5.30
  -1  -6 -10   38.63    6.45
  -1  -6 -11  250.78   12.57
  -1  -6 -12  219.25   11.89
  -1  -6 -13  173.01   11.55
  -1  -6 -14   18.51    5.34
   1   7  -9   20.37   15.19
   1   7  -8   11.18    4.60
   1   7  -7   23.06    5.18
   1   7  -6   72.08    6.61
   1   7  -5   79.89    6.75
   1   7  -4   47.37    5.81
   1   7  -3   12.70    4.66
   1   7  -3   14.49    2.29
   1   7  -2  289.36   11.97
   1   7  -1 2271.33   33.91
   1   7   0   27.39    9.19
   1   7   1  461.55   15.72
   1   7   2   65.17    2.92
  -1  -7  -2   68.04    6.49
   1   7   3  129.99    5.39
  -1  -7  -3  136.88    8.82
   1   7   4   52.62    3.28
  -1  -7  -4   47.50    5.60
  -1  -7  -5   16.62    4.50
  -1  -7  -6   98.00    7.87
  -1  -7  -7   70.41    6.90
  -1  -7  -8   88.77    7.97
  -1  -7  -9   29.72   10.35
  -1  -7 -10   75.42    7.80
  -1  -7 -11   73.34    7.97
  -1  -7 -12   24.71    6.17
  -1  -7 -13   74.84    9.37
   1   8  -7    3.76    3.38
   1   8  -6   73.02    7.56
   1   8  -5    5.47    4.18
   1   8  -4  362.04   14.27
   1   8  -3  188.52   10.77
   1   8  -2   19.10    4.89
   1   8  -1   39.05    8.47
   1   8   0   14.71    5.18
   1   8   1   83.23   24.80
  -1  -8  -2  160.45    9.63
  -1  -8  -3  217.75   10.93
  -1  -8  -4   90.82    8.41
  -1  -8  -5  102.59    8.95
  -1  -8  -6    2.69    5.80
  -1  -8  -7  167.27   10.10
  -1  -8  -8   55.57    6.75
  -1  -8  -9    8.84    5.14
  -1  -8 -10   71.91    7.85
  -1  -8 -11   41.52    6.98
  -1  -8 -12   45.61   23.79
   1   9  -5  121.92    9.17
   1   9  -4   21.68    5.48
   1   9  -3    7.14    4.34
   1   9  -2   20.25    4.78
   1   9  -1   30.86    5.55
   1   9   0   44.13    8.57
   1   9   1   15.58    9.26
   1   9   2   15.45    5.78
  -1  -9  -3    2.01    3.75
  -1  -9  -4  297.57   13.57
  -1  -9  -5    3.03    3.71
  -1  -9  -6  144.38    9.77
  -1  -9  -7   94.58    8.87
  -1  -9  -8  164.91   11.68
  -1  -9  -9   19.49    5.84
  -1  -9 -10  143.43   10.68
   1  10  -2   23.76    6.97
   1  10  -1    7.38    3.81
   1  10   0   96.49   24.40
   1  10   1    8.28    3.25
   1  10   2  132.93   10.56
   1  10   3   15.79    8.91
  -1 -10  -4   15.59    5.63
  -1 -10  -5  153.04   11.02
  -1 -10  -6  122.81   10.68
  -1 -10  -7    6.21    5.92
  -1 -10  -8    2.15    4.21
   2 -10  -5    5.89    4.36
   2 -10  -4   43.52    6.30
   2 -10  -3    0.17    2.58
   2 -10  -2   16.49    4.45
  -2  10   1    9.87    6.32
   2  -9  -9    2.83    4.24
   2  -9  -8    5.59    3.63
   2  -9  -7   69.08    7.43
   2  -9  -6   19.07    6.26
  -2   9   6   19.67    5.00
   2  -9  -5    0.48    2.97
  -2   9   5   -1.24    1.65
   2  -9  -4   -0.50    2.72
  -2   9   4   -0.25    2.19
   2  -9  -3    8.42    3.85
  -2   9   3    4.37    2.45
   2  -9  -2   57.99    6.15
   2  -9  -1   11.54    4.32
  -2   9   0   19.55   11.05
  -2   9  -1    5.08    2.58
  -2   9  -2   58.30    5.55
  -2   9  -4  157.60   11.48
   2  -8 -10    1.37    3.43
   2  -8  -9  127.01    9.82
   2  -8  -8    4.08    4.60
   2  -8  -7   48.97    6.74
   2  -8  -6    8.16    3.54
   2  -8  -5   19.24    4.88
   2  -8  -4  175.00    9.95
  -2   8   4  150.76    9.07
   2  -8  -3   16.35    4.15
  -2   8   3   15.99   10.56
   2  -8  -2   79.00    6.15
  -2   8   2   65.96    5.81
   2  -8  -1   78.38    6.10
  -2   8   1   77.69    6.03
  -2   8   0   -0.09    2.39
  -2   8  -1  104.44   14.44
  -2   8  -1   97.51    6.90
  -2   8  -2   -1.57    2.01
  -2   8  -2    1.32    3.40
  -2   8  -3    5.80    2.97
  -2   8  -4    0.73    1.97
  -2   8  -5   38.92    7.34
  -2   8  -5   32.08    4.85
  -2   8  -6    2.95    2.67
  -2   8  -6    2.40    3.14
  -2   8  -7    7.24    5.29
   2  -7 -11    5.20    5.38
   2  -7 -10   -1.65    3.27
   2  -7  -9   85.42    7.97
   2  -7  -8   98.87    7.90
   2  -7  -7   29.59    5.27
   2  -7  -6   70.27    6.57
   2  -7  -5    0.42    4.05
   2  -7  -4  425.94   13.58
   2  -7  -3  145.14    8.31
  -2   7   3  146.67    7.39
   2  -7  -2   79.10    6.59
  -2   7   2   70.39    9.06
   2  -7  -1   38.27    4.49
  -2   7   1   34.50    4.03
   2  -7   0   56.89    5.33
  -2   7   0   59.71    4.80
  -2   7  -1  147.30   17.67
  -2   7  -1  127.60    6.56
  -2   7  -2  188.78   13.10
  -2   7  -2  210.88    8.60
  -2   7  -3   51.57    4.74
  -2   7  -3   50.57    4.95
  -2   7  -4    0.02    1.89
  -2   7  -4   -0.35    2.32
  -2   7  -5   26.84    3.62
  -2   7  -5   35.70    6.09
  -2   7  -5   22.84    3.83
  -2   7  -6  156.49    7.49
  -2   7  -6  172.88   11.08
  -2   7  -6  181.74    9.16
  -2   7  -7   51.03   25.33
  -2   7  -7   61.93    6.27
  -2   7  -8   59.89    8.91
  -2   7  -8   60.06    5.96
  -2   7  -9  193.54   11.90
  -2   7  -9  202.29   10.96
  -2   7 -10   24.97   16.09
  -2   7 -10   35.63    5.75
   2  -6 -12   18.69    5.72
   2  -6 -11   55.55    7.78
   2  -6 -10  172.44   11.23
   2  -6  -9   16.75    5.30
   2  -6  -8  169.05    9.73
   2  -6  -7   11.34    4.73
  -2   6   7   13.70    6.54
   2  -6  -6  146.06    8.30
   2  -6  -5  227.85    9.44
   2  -6  -4    8.81    3.55
   2  -6  -3   52.93    5.50
   2  -6  -2    0.90    2.68
  -2   6   2    1.04    1.47
   2  -6  -1    1.02    2.54
  -2   6   1    0.79    1.98
   2  -6   0  476.17   11.90
  -2   6   0  455.68   12.26
   2  -6   1  908.57   28.65
  -2   6  -1  993.80   31.79
  -2   6  -2   -0.48    1.90
  -2   6  -2   -0.11    2.73
  -2   6  -3   25.11    3.53
  -2   6  -3   26.99    3.81
  -2   6  -3   26.00    4.05
  -2   6  -4  127.62    6.17
  -2   6  -4  124.07    7.57
  -2   6  -5   88.50    5.29
  -2   6  -5   85.67    7.29
  -2   6  -5   88.67    6.25
  -2   6  -6   35.08    4.01
  -2   6  -6   38.17   15.96
  -2   6  -6   35.60    5.31
  -2   6  -7    2.72    2.39
  -2   6  -7    3.56    2.14
  -2   6  -7    2.46    2.62
  -2   6  -8  187.11   10.88
  -2   6  -8  180.15   10.54
  -2   6  -8  188.25    9.45
  -2   6  -9    4.07    3.27
  -2   6  -9   12.90    4.64
  -2   6 -10    4.83    3.83
  -2   6 -10    7.25    4.34
  -2   6 -11   27.59    5.31
  -2   6 -11   18.47    4.45
   2  -5 -13   67.65    8.17
   2  -5 -12   43.16    7.50
   2  -5 -11    1.44    4.16
   2  -5 -10  114.28    8.79
   2  -5  -9   39.58    6.24
   2  -5  -8  684.15   18.14
  -2   5   8  694.11   10.85
   2  -5  -7   85.93    7.20
  -2   5   7   88.84    4.41
   2  -5  -6   21.65    4.94
   2  -5  -6   18.16    2.18
  -2   5   6   25.21    5.55
   2  -5  -5  542.05   17.64
   2  -5  -4   12.28    3.23
   2  -5  -3    3.25    2.54
   2  -5  -2   52.97    5.81
   2  -5  -1   93.62    5.19
  -2   5   1  106.18    5.58
   2  -5   0    8.72    2.44
  -2   5   0    6.99    1.79
  -2   5   0    7.87    4.64
   2  -5   1  120.32    5.49
  -2   5  -1  109.92    4.98
  -2   5  -1  127.51    6.65
  -2   5  -2  595.05   15.16
  -2   5  -2  531.96   12.48
  -2   5  -2  564.55   14.84
  -2   5  -2  487.87   13.52
  -2   5  -3  278.19    8.69
  -2   5  -3  303.07    8.73
  -2   5  -3  283.03   10.28
  -2   5  -3  283.31   12.00
  -2   5  -4    1.79    2.24
  -2   5  -4    0.72    1.74
  -2   5  -4    0.10    2.35
  -2   5  -5   48.11    3.46
  -2   5  -5   55.66   17.43
  -2   5  -5   57.28    5.69
  -2   5  -6    9.66    2.29
  -2   5  -6    8.73    4.79
  -2   5  -6    7.12    3.44
  -2   5  -7   11.24    2.17
  -2   5  -7   13.18    5.40
  -2   5  -7   10.23    3.79
  -2   5  -8  145.19    8.92
  -2   5  -8  141.90    9.02
  -2   5  -9   51.48    4.83
  -2   5  -9   50.50   14.57
  -2   5  -9   45.38   12.79
  -2   5 -10   45.29    5.06
  -2   5 -10   40.54   12.88
  -2   5 -10   49.50   14.82
  -2   5 -11   16.48    4.61
  -2   5 -11   13.24    4.34
  -2   5 -12   82.96    7.52
  -2   5 -12   79.60    8.14
   2  -4 -13   20.42    6.29
   2  -4 -12   50.23    7.07
   2  -4 -11   11.69    5.17
   2  -4 -10  108.74    8.48
   2  -4  -9  440.40   14.13
   2  -4  -8   16.66    4.74
  -2   4   8   14.43    1.30
   2  -4  -7   52.05    5.32
   2  -4  -7   54.40    2.71
   2  -4  -6  151.00    8.68
   2  -4  -6  151.25    5.15
  -2   4   6  157.59    5.98
   2  -4  -5  259.38    9.69
   2  -4  -5  271.98    7.58
  -2   4   5  280.38   10.18
   2  -4  -4   81.00    5.21
   2  -4  -4   81.46    3.96
  -2   4   4   82.33    4.31
   2  -4  -3 1310.75   33.77
   2  -4  -3 1240.51   31.46
   2  -4  -2   61.46    4.48
   2  -4  -2   58.03    4.00
  -2   4   2   58.31    4.03
   2  -4  -1   13.20    2.60
   2  -4  -1   11.85    2.39
  -2   4   1   11.20    1.95
   2  -4   0  315.16   10.32
   2  -4   0  311.09   10.60
  -2   4   0  312.24    9.74
  -2   4   0  299.77   10.67
   2  -4   1   97.80    4.69
   2  -4   1   97.28    5.39
  -2   4  -1   92.76    4.23
  -2   4  -1   97.53    5.64
  -2   4  -2  171.89    6.38
  -2   4  -2  154.79    5.84
  -2   4  -2  166.22    7.75
  -2   4  -2  173.83    7.67
  -2   4  -3   12.64    2.02
  -2   4  -3   14.30    1.85
  -2   4  -3   14.07    3.20
  -2   4  -3   12.75    2.60
  -2   4  -4  120.48    4.78
  -2   4  -4  119.49    4.53
  -2   4  -4  116.99    7.05
  -2   4  -4  134.33    7.00
  -2   4  -4  120.65    6.38
  -2   4  -5   42.32    3.29
  -2   4  -5   43.53    2.85
  -2   4  -5   45.83    9.73
  -2   4  -5   43.21    4.66
  -2   4  -6    1.75    1.33
  -2   4  -6    0.88    1.30
  -2   4  -6    1.09    2.34
  -2   4  -6    0.17    2.91
  -2   4  -7    7.36    5.22
  -2   4  -7    7.31    3.26
  -2   4  -8    8.40    2.86
  -2   4  -8    7.19    3.14
  -2   4  -8    8.15    5.48
  -2   4  -9   42.34    3.99
  -2   4  -9   37.12   11.12
  -2   4  -9   39.17    4.69
  -2   4 -10   87.31    5.76
  -2   4 -10   86.55    7.10
  -2   4 -10   81.14   16.66
  -2   4 -11  211.11    9.04
  -2   4 -11  221.82   10.50
  -2   4 -11  208.52   28.28
  -2   4 -12   71.13    5.68
  -2   4 -12   71.44    6.34
  -2   4 -12   73.47   16.84
  -2   4 -13    2.42    1.55
   2  -3 -14  106.39    9.79
   2  -3 -13   30.99    6.68
   2  -3 -12    6.49    5.85
   2  -3 -11   53.27    7.33
   2  -3 -10  312.58   13.19
   2  -3  -9   16.57    4.68
   2  -3  -8   10.10    3.46
   2  -3  -7  442.69   14.25
   2  -3  -6    4.03    2.44
   2  -3  -6    2.95    1.08
   2  -3  -5  196.27    8.64
   2  -3  -5  187.10    6.07
  -2   3   5  199.70    6.40
   2  -3  -4 1613.98   40.75
   2  -3  -4 1562.45   37.47
  -2   3   4 1651.75   39.61
   2  -3  -3 1837.80   28.82
   2  -3  -3 1770.79   30.02
  -2   3   3 1820.36   29.12
  -2   3   3 1803.98   29.92
   2  -3  -2   15.48    2.15
   2  -3  -2   20.49    2.68
  -2   3   2   15.40    4.52
  -2   3   2   16.13    2.22
   2  -3  -1  542.98   11.88
   2  -3  -1  527.69   10.75
   2  -3  -1  520.87   11.23
  -2   3   1  521.45   11.54
  -2   3   1  528.23   10.50
   2  -3   0  344.42    8.89
   2  -3   0  358.48    8.19
   2  -3   0  336.17    8.87
  -2   3   0  337.17    9.31
  -2   3   0  326.68    7.28
  -2   3   0  319.71    8.77
   2  -3   1  362.34    9.09
   2  -3   1  338.83    7.46
   2  -3   1  333.69    9.17
  -2   3  -1  354.11    7.27
  -2   3  -1  329.08    9.23
  -2   3  -1  344.89    9.82
  -2   3  -1  320.55    8.83
   2  -3   2  401.61   10.79
   2  -3   2  397.24   10.74
   2  -3   2  405.54   10.14
  -2   3  -2  407.94    8.05
  -2   3  -2  425.13   10.84
  -2   3  -2  396.51   12.49
  -2   3  -2  436.73    8.63
  -2   3  -2  391.17   10.27
   2  -3   3 1286.84   28.34
   2  -3   3 1286.80   23.18
  -2   3  -3 1256.79   19.80
  -2   3  -3 1295.49   20.47
  -2   3  -3 1306.61   23.69
  -2   3  -3 1340.32   25.28
  -2   3  -3 1221.22   22.73
  -2   3  -4    3.03    1.37
  -2   3  -4    2.53    1.10
  -2   3  -4    2.53    1.73
  -2   3  -4    3.26    2.76
  -2   3  -4    2.47    2.47
   2  -3   5  509.66   14.08
  -2   3  -5  559.99   15.15
  -2   3  -5  553.61   17.40
  -2   3  -5  484.94   16.72
   2  -3   6  133.27    5.50
  -2   3  -6  140.70    5.45
  -2   3  -6  140.82    8.78
  -2   3  -6  164.98    7.80
   2  -3   7  144.68    5.85
  -2   3  -7  135.95    5.85
  -2   3  -7  142.19    7.61
  -2   3  -7  136.78   11.34
  -2   3  -8  166.08    7.71
  -2   3  -8  172.69   10.08
  -2   3  -8  148.29    9.37
  -2   3  -9    7.36    2.65
  -2   3  -9    7.08    3.47
  -2   3  -9    8.38    4.66
  -2   3 -10   10.30    2.91
  -2   3 -10    7.03    2.61
  -2   3 -10    9.06    3.49
  -2   3 -11  121.17    6.92
  -2   3 -11  124.25    7.54
  -2   3 -12   76.50    6.08
  -2   3 -12   66.94    5.65
  -2   3 -13   54.79   19.99
   2  -2 -14    3.01    3.61
   2  -2 -13    2.43    3.88
   2  -2 -12   26.13    6.31
   2  -2 -11  157.04   10.21
   2  -2 -10  152.20    9.45
   2  -2  -9  406.71   17.57
   2  -2  -8    0.19    3.81
   2  -2  -7  430.59   14.19
   2  -2  -6  720.41   16.74
   2  -2  -5  539.65   16.75
   2  -2  -4  557.86    9.80
   2  -2  -4  549.23   12.96
  -2   2   4  574.93   10.09
  -2   2   4  556.88   12.72
   2  -2  -3  315.81    6.81
   2  -2  -3  304.15    8.73
  -2   2   3  308.10    6.71
  -2   2   3  297.67    7.93
   2  -2  -2  192.64    5.28
   2  -2  -2  191.08    6.50
  -2   2   2  199.44    5.68
  -2   2   2  192.76    5.85
   2  -2  -1  116.10    4.44
   2  -2  -1  114.45    4.02
  -2   2   1  116.06    4.49
  -2   2   1  114.77    3.84
  -2   2   1  115.38    4.54
   2  -2   0  208.01    6.04
   2  -2   0  194.47    4.45
   2  -2   0  188.98    5.53
  -2   2   0  195.41    5.87
  -2   2   0  198.26    4.50
  -2   2   0  193.06    6.08
   2  -2   1  166.48    5.46
   2  -2   1  173.72    3.77
   2  -2   1  168.29    5.64
  -2   2  -1  162.38    3.50
  -2   2  -1  177.45    5.88
  -2   2  -1  164.99    5.90
  -2   2  -1  161.04    5.98
  -2   2  -1  149.34    5.88
   2  -2   2 1148.96   19.47
   2  -2   2 1155.45   19.70
  -2   2  -2 1092.83   19.46
  -2   2  -2 1158.90   20.17
  -2   2  -2 1201.79   20.34
  -2   2  -2 1110.24   19.33
   2  -2   3    3.90    2.99
   2  -2   3    0.70    1.46
   2  -2   3    0.85    1.78
  -2   2  -3    2.07    2.68
  -2   2  -3    3.50    3.17
  -2   2  -3   -0.36    2.95
  -2   2  -3    2.36    0.94
  -2   2  -3    4.46    3.99
   2  -2   4 3714.46   52.39
   2  -2   4 3719.53   56.59
   2  -2   4 3737.50   56.00
  -2   2  -4 3954.03   60.10
  -2   2  -4 3843.87   58.17
  -2   2  -4 3730.47   56.28
   2  -2   5  877.75   15.10
  -2   2  -5  914.77   15.53
  -2   2  -5  931.96   18.95
  -2   2  -5  901.42   23.66
   2  -2   6   67.83    3.70
  -2   2  -6   64.34    3.79
  -2   2  -6   61.84    4.90
  -2   2  -6   59.52    5.44
   2  -2   7    0.91    1.22
  -2   2  -7    2.66    2.07
  -2   2  -7   -0.60    2.04
   2  -2   8  127.54    5.57
  -2   2  -8  125.69    5.84
  -2   2  -8  119.75    6.47
  -2   2  -9   -1.59    1.97
  -2   2  -9    0.47    2.58
  -2   2 -10   90.83    5.75
  -2   2 -10   95.31    5.81
  -2   2 -11  462.93   12.94
  -2   2 -11  450.42   11.70
  -2   2 -12   -1.48    1.98
  -2   2 -12    1.94    2.51
  -2   2 -13   10.94    3.42
  -2   2 -13   10.03    2.82
  -2   2 -14  116.15    7.85
   2  -1 -14   23.89    6.22
   2  -1 -13    8.04    4.98
   2  -1 -12   47.09    6.70
   2  -1 -11  146.23    9.24
   2  -1 -10  297.14   17.65
   2  -1  -9   24.90    4.93
   2  -1  -8  908.97   19.86
   2  -1  -7    4.23    4.51
   2  -1  -6  575.97   18.04
   2  -1  -5    6.37    3.69
   2  -1  -4  390.97   10.56
   2  -1  -4  389.86    6.54
  -2   1   4  387.91   10.12
  -2   1   4  396.33    6.58
   2  -1  -3 1132.01   19.63
   2  -1  -3 1159.65   16.75
  -2   1   3 1154.59   19.69
  -2   1   3 1151.97   16.64
   2  -1  -2 1256.59   16.82
   2  -1  -2 1242.87   14.51
  -2   1   2 1282.17   16.89
  -2   1   2 1233.73   14.48
  -2   1   2 1300.59   15.14
   2  -1  -1  425.42    7.45
   2  -1  -1  426.37    7.39
   2  -1  -1  450.24    7.76
  -2   1   1  432.31    7.42
  -2   1   1  430.85    7.48
  -2   1   1  419.08    7.32
   2  -1   0  794.82    9.82
   2  -1   0  799.41   11.46
   2  -1   0  748.31   11.37
   2  -1   0  790.72   11.36
  -2   1   0  800.14    9.93
  -2   1   0  811.25   11.88
  -2   1   0  785.74   11.45
   2  -1   1 2235.12   20.94
   2  -1   1 2196.78   24.72
   2  -1   1 2141.21   24.22
   2  -1   1 2170.56   24.45
  -2   1  -1 2105.03   24.22
  -2   1  -1 2141.14   24.48
   2  -1   2    4.21    2.61
   2  -1   2    0.80    1.82
   2  -1   2   -0.13    2.16
   2  -1   2    3.23    2.00
  -2   1  -2    2.16    2.68
  -2   1  -2    3.56    2.57
  -2   1  -2   -1.63    2.44
  -2   1  -2    1.45    3.65
   2  -1   3  927.68    9.55
   2  -1   3  845.83   13.21
   2  -1   3  929.68   14.07
   2  -1   3  856.91   13.20
  -2   1  -3  880.41   13.69
  -2   1  -3  851.14   13.32
  -2   1  -3  904.33   14.15
  -2   1  -3  881.57   14.17
   2  -1   4  415.77    7.28
   2  -1   4  446.19   10.19
   2  -1   4  429.35    9.87
   2  -1   4  414.67    9.76
  -2   1  -4  438.82    7.70
  -2   1  -4  433.12   10.34
  -2   1  -4  437.45   10.45
   2  -1   5  142.43    4.20
   2  -1   5  146.38    5.58
   2  -1   5  152.26    5.77
   2  -1   5  148.54    5.95
  -2   1  -5  148.15    4.41
  -2   1  -5  150.47    5.88
  -2   1  -5  154.82    5.95
   2  -1   6 1508.51   24.10
   2  -1   6 1428.38   24.97
  -2   1  -6 1498.81   24.16
  -2   1  -6 1468.04   25.64
  -2   1  -6 1496.70   25.82
   2  -1   7  531.65   14.96
   2  -1   7  507.24   15.08
  -2   1  -7  519.34   14.88
  -2   1  -7  514.37   15.64
  -2   1  -7  503.49   15.33
   2  -1   8  585.43   12.15
  -2   1  -8  578.43   13.98
  -2   1  -8  602.24   13.56
  -2   1  -8  595.09   13.19
  -2   1  -9  190.12    7.80
  -2   1  -9  189.19    7.24
  -2   1 -10   87.72    5.89
  -2   1 -10   83.39    5.00
  -2   1 -11   85.85    5.97
  -2   1 -11   82.38    5.07
  -2   1 -12   16.73    3.56
  -2   1 -12   16.52    3.16
  -2   1 -13    2.85    3.02
  -2   1 -13    4.27    2.37
  -2   1 -14  124.06    8.35
  -2   1 -15    5.42    4.12
   2   0 -14    3.68    4.00
   2   0 -13   18.79    6.22
   2   0 -12  171.12   11.02
   2   0 -11  207.61   10.93
   2   0 -10  129.68    8.54
   2   0  -9   67.10    6.61
   2   0  -8    2.07    4.80
   2   0  -7  545.26   15.82
  -2   0   7  533.52    9.11
   2   0  -6   20.07    3.97
   2   0  -5  645.80   15.21
   2   0  -4   86.98    5.12
  -2   0   4   87.66    4.79
   2   0  -3  273.68    8.06
  -2   0   3  274.07    7.68
   2   0  -2  712.94   11.74
  -2   0   2  761.34   11.95
   2   0  -1 4425.37   43.85
  -2   0   1 4461.10   44.05
   2   0   1  248.20    5.81
   2   0   1  260.27    5.67
  -2   0  -1  260.14    4.51
  -2   0  -1  243.83    5.61
  -2   0  -1  264.33    6.32
   2   0   2 1794.04   17.70
   2   0   2 1904.79   21.52
   2   0   2 1857.46   21.15
  -2   0  -2 1845.79   21.67
  -2   0  -2 1806.29   20.81
  -2   0  -2 1852.21   21.63
  -2   0  -2 1893.96   21.73
   2   0   3 1104.83   12.15
   2   0   3 1060.47   14.68
   2   0   3 1092.62   14.89
  -2   0  -3 1078.01   12.28
  -2   0  -3 1070.37   14.84
  -2   0  -3 1060.92   14.73
   2   0   4  631.10    8.77
   2   0   4  643.23   10.85
   2   0   4  614.65   11.26
  -2   0  -4  648.37    8.99
  -2   0  -4  653.28   11.52
  -2   0  -4  624.41   10.82
   2   0   5 2533.72   35.13
   2   0   5 2555.04   37.40
   2   0   5 2533.16   37.55
  -2   0  -5 2380.85   33.35
  -2   0  -5 2450.76   35.69
  -2   0  -5 2438.24   35.88
   2   0   6  902.96   16.05
   2   0   6  879.03   16.46
  -2   0  -6  879.70   15.91
  -2   0  -6  906.62   17.44
  -2   0  -6  843.25   16.21
   2   0   7   49.45    3.36
   2   0   7   48.54    3.39
  -2   0  -7   51.12    4.01
  -2   0  -7   47.57    3.56
  -2   0  -7   48.90    4.08
   2   0   8   55.27    3.64
   2   0   8   54.98    3.49
  -2   0  -8   53.30    3.91
  -2   0  -8   57.30    4.17
  -2   0  -8   53.31    4.03
  -2   0  -9  355.14   10.89
  -2   0  -9  352.61    9.87
  -2   0  -9  346.95    9.90
  -2   0 -10   34.65    4.33
  -2   0 -10   33.12    3.41
  -2   0 -11   96.54    6.09
  -2   0 -12    2.08    3.62
  -2   0 -13  285.03   11.24
  -2   0 -14  135.87   19.85
  -2   0 -15   -0.16    3.03
  -2   0 -16  252.58   12.76
   2   1 -13    4.22    3.77
   2   1 -12  104.07    9.06
   2   1 -11   49.63    6.77
   2   1 -10   10.18    5.05
   2   1  -9   37.67    6.43
   2   1  -9   34.66    2.32
   2   1  -8  387.89   12.95
  -2  -1   8  410.50    7.46
   2   1  -7   -1.78    3.26
   2   1  -6   17.72    4.09
   2   1  -5  712.67   21.03
   2   1  -4  429.83   11.57
   2   1  -3 1866.75   29.80
  -2  -1   3 1834.54   28.68
   2   1  -2  630.83   11.63
  -2  -1   2  616.23   10.88
   2   1  -1 4109.22   42.57
  -2  -1   1 4195.85   43.17
   2   1   1  183.81    4.84
   2   1   1  181.53    4.83
   2   1   1  179.77    3.98
  -2  -1  -1  181.87    4.10
  -2  -1  -1  184.96    4.52
   2   1   2 2767.93   28.35
   2   1   2 2661.98   27.15
  -2  -1  -2 2750.48   28.40
  -2  -1  -3  446.12    7.69
  -2  -1  -3  474.62    8.39
   2   1   4   27.14    2.35
   2   1   4   26.62    2.87
   2   1   4   24.96    2.26
  -2  -1  -4   27.69    2.59
   2   1   5  228.04    6.19
   2   1   5  235.41    6.65
  -2  -1  -5  242.90    6.87
   2   1   6  478.87   10.63
   2   1   6  488.49   10.65
  -2  -1  -6  469.59   10.69
  -2  -1  -6  453.05   10.72
   2   1   7    6.41    1.84
   2   1   7    6.52    1.76
  -2  -1  -7    7.66    2.55
  -2  -1  -7    6.00    2.12
   2   1   8   19.78    2.22
  -2  -1  -8   21.40    3.09
  -2  -1  -8   18.40    2.72
   2   1   9   30.35    3.97
  -2  -1  -9   32.62    3.67
  -2  -1  -9   36.32    3.51
   2   1  10  338.61    9.89
  -2  -1 -10  350.33   11.15
  -2  -1 -10  345.41    8.57
  -2  -1 -11  222.36    9.33
  -2  -1 -11  219.22    7.02
  -2  -1 -12  289.21   10.85
  -2  -1 -12  278.01    8.68
  -2  -1 -13    4.82    3.57
  -2  -1 -14    1.55    3.82
  -2  -1 -15   90.16    7.75
  -2  -1 -16   33.05    6.95
   2   2 -13   12.41    5.53
   2   2 -12   12.69    5.41
   2   2 -11    9.61    4.57
   2   2 -10  241.91   11.17
   2   2  -9   24.19    5.50
   2   2  -8   42.60    5.63
   2   2  -7  594.41   15.73
   2   2  -6  604.59   16.98
   2   2  -5  902.14   25.99
   2   2  -4    2.70    4.13
   2   2  -3  443.23   11.85
  -2  -2   3  461.15   11.52
   2   2  -2  461.65   11.45
  -2  -2   2  488.83   11.35
   2   2  -1  782.51   15.39
  -2  -2   1  770.41   14.93
   2   2   0  532.60   10.63
   2   2   1 1746.79   21.75
   2   2   1 1778.43   21.57
   2   2   1 1769.81   17.39
   2   2   2  947.01   13.63
   2   2   2  934.58   10.92
  -2  -2  -2  899.44   13.38
  -2  -2  -2  980.74   11.17
   2   2   3  400.23    8.19
   2   2   3  418.19    6.89
  -2  -2  -3  406.62    8.40
   2   2   4    4.28    1.92
  -2  -2  -4    5.09    2.67
   2   2   5 4169.28   57.69
  -2  -2  -5 4188.65   61.24
   2   2   6  349.79    9.19
  -2  -2  -6  349.15    9.53
   2   2   7  410.97   12.28
  -2  -2  -7  399.16   13.16
   2   2   8  251.70    7.10
  -2  -2  -8  241.48    8.63
  -2  -2  -8  226.46    7.28
   2   2   9 1207.67   22.71
  -2  -2  -9 1222.53   25.70
  -2  -2  -9 1241.99   17.20
   2   2  10  245.47    6.88
  -2  -2 -10  250.94   10.15
  -2  -2 -10  228.53    6.92
  -2  -2 -11  227.54    9.74
  -2  -2 -11  233.81    7.06
  -2  -2 -12    7.06    3.00
  -2  -2 -12    6.88    2.04
  -2  -2 -13   24.67    5.80
  -2  -2 -14  113.96    8.02
  -2  -2 -15   41.97    5.72
  -2  -2 -16  162.80   10.33
   2   3 -13    1.78    3.45
   2   3 -12   85.09    8.36
   2   3 -11   11.20    5.14
   2   3 -10  110.36    8.44
   2   3  -9  271.88   12.36
   2   3  -8  110.32    8.02
   2   3  -7  176.06   10.54
   2   3  -6   63.28    5.87
   2   3  -5   48.23    5.18
   2   3  -4  241.03    9.18
   2   3  -3    1.05    2.91
   2   3  -2   59.89    5.05
   2   3  -1  236.33    8.45
  -2  -3   1  237.38    7.85
   2   3   0    3.16    2.91
   2   3   0    1.80    2.44
   2   3   1  129.42    6.03
   2   3   1  137.13    5.58
   2   3   2  393.52    9.65
   2   3   2  408.64    6.06
  -2  -3  -2  386.31   10.11
  -2  -3  -2  384.75    5.79
   2   3   3 1525.95   24.83
  -2  -3  -3 1532.34   25.46
   2   3   4   31.59    3.05
  -2  -3  -4   27.54    3.27
   2   3   5 2458.45   39.11
  -2  -3  -5 2442.41   39.35
  -2  -3  -6   34.26    4.49
  -2  -3  -7  267.40   10.95
  -2  -3  -8  724.86   16.78
   2   3   9  394.15   10.27
  -2  -3  -9  372.89   12.80
   2   3  10   79.96    4.06
  -2  -3 -10   83.13    6.74
  -2  -3 -10   79.84    6.85
  -2  -3 -11  183.63    9.20
  -2  -3 -11  194.07    7.56
  -2  -3 -12   32.26    5.75
  -2  -3 -12   27.20    2.82
  -2  -3 -13    4.45    4.27
  -2  -3 -14   32.74    6.52
  -2  -3 -15  214.15   11.19
  -2  -3 -16    2.82    3.65
   2   4 -12  168.02   11.19
   2   4 -11    3.78    3.27
   2   4 -10    1.43    3.45
   2   4  -9   93.29    8.26
   2   4  -8   26.01    4.63
   2   4  -7    0.72    4.04
   2   4  -6   88.10    7.08
   2   4  -5  321.43   11.60
   2   4  -4   18.67    4.18
   2   4  -3    9.02    2.93
   2   4  -2  838.70   24.39
   2   4  -1   51.92    5.15
  -2  -4   1   49.44    2.26
   2   4   0    5.44    3.04
   2   4   1  570.90   14.27
  -2  -4  -2  112.35    6.07
  -2  -4  -3 2529.76   41.34
  -2  -4  -4  658.66   19.74
  -2  -4  -5   25.08    4.36
  -2  -4  -6  348.77   12.78
  -2  -4  -7  339.03   11.01
  -2  -4  -8   36.78    4.96
  -2  -4  -9    3.34    3.05
  -2  -4 -10  214.96   11.27
  -2  -4 -11    0.27    3.50
  -2  -4 -12   18.80    4.88
  -2  -4 -12   19.27    4.98
  -2  -4 -13   75.71    7.62
  -2  -4 -14  186.36   10.62
  -2  -4 -15    7.42    4.40
  -2  -4 -16   24.72    5.42
   2   5 -11   54.75    7.59
   2   5 -10    7.51    4.52
   2   5  -9    6.09    4.37
   2   5  -8    3.45    3.20
   2   5  -7   72.05    6.97
   2   5  -6   35.20    5.79
   2   5  -5   42.21    5.96
   2   5  -4  115.14    8.55
  -2  -5   4  100.12    5.13
   2   5  -3  362.74   12.57
   2   5  -3  367.23    8.99
  -2  -5   3  376.46    7.69
   2   5  -2   28.60    4.88
  -2  -5   2   31.62    2.03
   2   5  -1    0.15    2.70
   2   5  -1    1.26    0.80
  -2  -5   1    0.44    0.35
   2   5   0  116.10    7.09
   2   5   1   91.82   10.69
  -2  -5  -2  497.46   13.35
  -2  -5  -3  183.88    8.04
  -2  -5  -3  185.12    3.42
  -2  -5  -4   90.28    6.16
  -2  -5  -5  375.82   11.84
  -2  -5  -6   32.17    5.26
  -2  -5  -7    8.11    4.41
  -2  -5  -8 3054.26   34.39
  -2  -5  -9  184.63   10.70
  -2  -5 -10   36.09    5.70
  -2  -5 -11  118.33    8.12
  -2  -5 -12   72.50    6.91
  -2  -5 -13  103.21    8.48
  -2  -5 -14   88.60    8.31
  -2  -5 -15   55.22    7.73
   2   6 -10   16.32    6.17
   2   6  -9   15.40    4.86
   2   6  -8    6.86    4.86
   2   6  -7   27.54    5.49
   2   6  -6  103.37    7.88
   2   6  -6  117.02    5.79
   2   6  -5   14.10    3.73
   2   6  -5   10.92    4.32
   2   6  -4  103.36    7.79
   2   6  -4  107.88    4.93
   2   6  -3  271.37   12.14
   2   6  -3  285.30    6.83
   2   6  -2    6.57    4.74
  -2  -6   2    2.75    1.26
   2   6  -1  167.11    9.80
   2   6   0   17.80    6.87
   2   6   1   48.44   12.06
  -2  -6  -2   26.05    5.36
   2   6   3    0.33    0.24
  -2  -6  -3    2.09    3.99
  -2  -6  -3    0.44    0.21
  -2  -6  -4    6.27    3.56
  -2  -6  -5   11.06    4.89
  -2  -6  -6  331.42   14.74
  -2  -6  -7  287.45   14.06
  -2  -6  -8   52.66    6.00
  -2  -6  -9    5.42    4.99
  -2  -6 -10  614.05   17.85
  -2  -6 -11  101.02    8.71
  -2  -6 -12  158.39   10.45
  -2  -6 -13    3.00    4.47
  -2  -6 -14    5.49    5.69
   2   7  -8   49.92    6.63
   2   7  -7   35.88    5.87
   2   7  -6   35.06    5.67
   2   7  -5    3.22    2.99
   2   7  -4   11.12    4.78
   2   7  -3   57.59    6.60
   2   7  -2 1281.82   25.25
   2   7  -1   26.96    5.35
   2   7   0  286.98   15.66
   2   7   1   36.85    7.76
  -2  -7  -3   82.58    7.13
   2   7   4   20.85    1.40
  -2  -7  -4   21.90    5.04
  -2  -7  -5   46.34    5.86
  -2  -7  -6   33.69    5.51
  -2  -7  -7  153.74    9.36
  -2  -7  -8  130.52    9.10
  -2  -7  -9  684.45   20.37
  -2  -7 -10   23.15    6.02
  -2  -7 -11  125.18    9.44
  -2  -7 -12   61.57    9.00
  -2  -7 -13    1.14    3.42
   2   8  -7    3.50    3.52
   2   8  -6    2.14    3.42
   2   8  -5   -0.39    3.10
   2   8  -3   10.31    4.84
   2   8  -2  278.11   13.27
   2   8  -1  461.68   15.96
   2   8   0  170.42   26.68
   2   8   1   20.42    8.97
   2   8   2    3.07    1.75
  -2  -8  -3  175.02   10.94
  -2  -8  -4   56.51    6.78
  -2  -8  -5    1.18    3.77
  -2  -8  -6   57.59    5.99
  -2  -8  -7   19.89    5.51
  -2  -8  -8   78.02    7.68
  -2  -8  -9  186.64   10.91
  -2  -8 -10   59.69    7.51
  -2  -8 -11   -0.24    3.86
  -2  -8 -12    6.80    5.60
   2   9  -4   97.28    8.63
   2   9  -3   28.70    5.68
   2   9  -2  154.63   10.34
   2   9  -1    4.81    4.52
   2   9   0   41.37    7.85
   2   9   1  153.84   10.52
   2   9   2   91.91   21.36
   2   9   3  117.69   29.31
  -2  -9  -4    2.63    4.17
  -2  -9  -5   68.90    8.12
  -2  -9  -6    4.70    6.29
  -2  -9  -7    4.71    6.12
  -2  -9  -8   17.51    6.34
  -2  -9  -9   16.98    5.62
  -2  -9 -10    1.38    4.04
   2  10  -1   29.73    5.86
   2  10   0  132.62    9.98
   2  10   1  260.58   24.25
   2  10   2   41.34   20.33
   2  10   3   50.54   20.17
   2  10   4   -1.19    3.34
  -2 -10  -5    3.44    3.79
  -2 -10  -6   25.20    6.07
  -2 -10  -7    3.28    4.50
   3  -9  -7   28.35    5.83
   3  -9  -6  346.79   14.69
  -3   9   6  341.25   13.57
   3  -9  -5    0.37    2.50
  -3   9   5   -1.00    2.51
  -3   9   5    0.84    1.54
   3  -9  -4   21.54    4.80
  -3   9   4   17.73    8.62
  -3   9   4   11.15    7.91
   3  -9  -3  168.60    9.35
  -3   9   3  166.80   30.80
  -3   9   3  190.03    9.77
   3  -9  -2  131.83    7.95
  -3   9   2  136.80    9.56
  -3   9   2  128.38    8.25
  -3   9   1    1.18    3.23
  -3   9   1    2.55    3.24
  -3   9   0   85.32   19.29
  -3   9   0   83.54    6.59
  -3   9  -1   31.70   16.99
  -3   9  -1   24.89    4.12
  -3   9  -2    1.61    2.08
  -3   9  -3    8.78    5.08
   3  -8  -9   81.57    8.59
   3  -8  -8   39.89    6.60
   3  -8  -7  102.71    8.08
  -3   8   6   -0.19    1.75
   3  -8  -5   37.56    5.26
  -3   8   5   38.01    7.56
   3  -8  -4   56.62    5.81
  -3   8   4   69.61   11.51
  -3   8   4   51.28   14.55
   3  -8  -3    1.51    1.92
  -3   8   3    1.75    2.01
  -3   8   3   -0.10    2.04
   3  -8  -2   10.12    3.45
  -3   8   2   10.47    5.56
  -3   8   2    5.52    3.86
   3  -8  -1   70.43    5.89
  -3   8   1   59.73   24.46
  -3   8   1   66.03    5.84
   3  -8   0    8.01    3.78
  -3   8   0    9.69    3.60
  -3   8   0   11.79    3.55
  -3   8  -1    9.00    4.60
  -3   8  -1   13.31    5.57
  -3   8  -1    9.09    3.67
  -3   8  -2   18.88    8.80
  -3   8  -2   18.45    4.29
  -3   8  -3   -0.31    2.81
  -3   8  -3    0.19    2.74
  -3   8  -4  181.00   11.29
  -3   8  -5   73.64   13.67
  -3   8  -6    2.28    1.66
  -3   8  -6    0.41    2.45
  -3   8  -7   24.06   12.38
  -3   8  -7   27.33    4.95
   3  -7 -11   15.18    5.50
   3  -7 -10   44.06    6.73
   3  -7  -9   21.69    5.30
   3  -7  -8   23.09    5.38
   3  -7  -7    6.92    3.49
   3  -7  -6   15.14    4.61
  -3   7   6   12.50    8.36
   3  -7  -5  132.66    7.99
  -3   7   5  140.65    7.57
   3  -7  -4    6.66    3.69
  -3   7   4    7.32    2.83
   3  -7  -3  392.38   12.36
  -3   7   3  395.34   13.41
  -3   7   3  362.36   12.93
   3  -7  -2   37.39    4.57
  -3   7   2   33.87   15.29
  -3   7   2   26.98   16.06
   3  -7  -1   47.12    4.34
  -3   7   1   51.77   11.77
  -3   7   1   39.92    9.55
   3  -7   0  294.65    9.69
  -3   7   0  284.90   12.63
  -3   7   0  260.95   10.39
  -3   7  -1  298.74    9.22
  -3   7  -1  279.59   21.07
  -3   7  -1  324.64   11.38
  -3   7  -2   21.39    6.95
  -3   7  -2   22.80    7.90
  -3   7  -2   23.22    4.32
  -3   7  -3  286.26    8.98
  -3   7  -3  282.68   18.06
  -3   7  -3  251.63   10.73
  -3   7  -4   12.88    6.16
  -3   7  -4   13.25    3.89
  -3   7  -4   13.55    3.75
  -3   7  -5   94.67   14.06
  -3   7  -5  110.78    7.84
  -3   7  -6  105.30   12.42
  -3   7  -6  111.55    7.76
  -3   7  -7   13.50    7.48
  -3   7  -7   14.45    4.27
  -3   7  -8   12.17    5.08
  -3   7  -8   11.83    5.02
  -3   7  -9    7.82    4.61
  -3   7  -9   12.32    4.78
   3  -6 -11  263.08   14.00
   3  -6 -10    2.79    3.53
   3  -6  -9   49.52    7.20
   3  -6  -8    1.18    3.22
   3  -6  -7  159.17    8.92
  -3   6   7  159.12    6.53
   3  -6  -6   20.20    4.39
  -3   6   6   19.40    9.81
   3  -6  -5    1.66    2.58
  -3   6   5    1.00    1.61
   3  -6  -4  199.80    9.08
  -3   6   4  207.92    8.50
   3  -6  -3  316.01   11.35
  -3   6   3  321.78   11.04
   3  -6  -2  291.79   10.08
  -3   6   2  281.99   10.75
  -3   6   2  270.34   11.40
   3  -6  -1   64.30    4.64
  -3   6   1   62.10    6.13
  -3   6   1   62.84    5.43
   3  -6   0  594.47   20.09
  -3   6   0  577.46   24.13
  -3   6   0  606.66   21.82
   3  -6   1  479.83   11.69
  -3   6  -1  462.84   15.76
  -3   6  -1  498.62   13.76
  -3   6  -2   42.32   10.88
  -3   6  -2   37.67    8.93
  -3   6  -2   39.77    4.66
  -3   6  -3  306.17    8.63
  -3   6  -3  304.59   12.60
  -3   6  -3  316.07   11.44
  -3   6  -3  338.28   11.89
  -3   6  -4    1.99    2.12
  -3   6  -4    1.75    3.58
  -3   6  -4    3.85    3.30
  -3   6  -4    0.81    2.71
  -3   6  -5   62.34    3.97
  -3   6  -5   68.15   12.57
  -3   6  -5   73.65    7.10
  -3   6  -6    8.38    2.10
  -3   6  -6    7.41    3.69
  -3   6  -6    8.77    3.91
  -3   6  -7   58.14   10.87
  -3   6  -7   62.93    6.35
  -3   6  -8    3.86    2.42
  -3   6  -8    4.49    4.58
  -3   6  -9    0.52    2.62
  -3   6  -9    0.78    3.03
  -3   6 -10    6.22    4.62
  -3   6 -10    7.99    4.61
  -3   6 -11   86.48    8.17
  -3   6 -11   85.76    8.43
   3  -5 -12  107.39    9.54
   3  -5 -11   13.73    5.65
   3  -5 -10   81.81    8.02
   3  -5  -9  102.39    8.41
   3  -5  -8  144.73    9.04
   3  -5  -7   84.25    6.74
  -3   5   7   83.98    4.31
   3  -5  -6   91.01    6.48
  -3   5   6   89.56    4.84
   3  -5  -5  322.20   14.03
  -3   5   5  311.87   12.58
   3  -5  -4  184.42    9.47
  -3   5   4  173.81    9.18
   3  -5  -3   19.21    4.45
  -3   5   3   17.93    3.38
   3  -5  -2    8.38    2.80
  -3   5   2    9.68    5.34
   3  -5  -1  125.08    5.99
  -3   5   1  125.71   13.98
  -3   5   1  114.28    7.64
   3  -5   0  635.27   14.76
  -3   5   0  598.05   13.64
  -3   5   0  621.26   19.92
  -3   5   0  598.08   16.24
   3  -5   1  200.40    7.07
  -3   5  -1  203.05    6.75
  -3   5  -1  205.63   11.30
  -3   5  -1  199.05    8.65
  -3   5  -2    9.61    4.38
  -3   5  -2    9.63    1.73
  -3   5  -2    8.76    3.09
  -3   5  -2   10.92    3.47
  -3   5  -3  102.13    4.40
  -3   5  -3  106.58    4.23
  -3   5  -3  105.38    7.58
  -3   5  -3  109.09    6.76
  -3   5  -3  110.14    6.72
  -3   5  -4   17.03    2.19
  -3   5  -4   15.96    1.95
  -3   5  -4   19.44   12.17
  -3   5  -4   15.18    4.25
  -3   5  -4   14.44    4.08
  -3   5  -5   77.05    3.98
  -3   5  -5   74.59    6.76
  -3   5  -5   62.54    5.97
  -3   5  -6  499.82   10.14
  -3   5  -6  530.38   16.55
  -3   5  -6  511.77   15.24
  -3   5  -7   95.03   10.41
  -3   5  -7  105.61    7.58
  -3   5  -8  152.23   16.50
  -3   5  -8  165.33    9.62
  -3   5  -9   56.91   20.19
  -3   5  -9   60.42    8.23
  -3   5 -10   95.78    8.19
  -3   5 -10   96.45   18.58
  -3   5 -11  127.60    8.86
  -3   5 -11  120.63   18.67
  -3   5 -12    5.07    2.95
  -3   5 -12    9.12    4.55
   3  -4 -12   -1.23    4.22
   3  -4 -11   12.88    6.36
   3  -4 -10   31.81    6.63
   3  -4  -9   12.39    5.52
   3  -4  -8  908.86   20.78
   3  -4  -7   29.13    5.07
   3  -4  -6  296.40   13.61
   3  -4  -6  310.50   11.54
  -3   4   6  293.90   10.37
   3  -4  -5    2.14    2.90
   3  -4  -5    1.54    0.96
  -3   4   5    3.65    2.03
   3  -4  -4   -0.57    2.04
   3  -4  -4    1.22    1.71
  -3   4   4    1.77    2.13
   3  -4  -3  249.07    8.75
  -3   4   3  247.68    8.57
   3  -4  -2   79.43    4.88
  -3   4   2   74.93    4.15
  -3   4   2   80.85    4.87
   3  -4  -1  128.04    5.26
  -3   4   1  129.44    5.11
  -3   4   1  134.83    6.87
   3  -4   0  137.66    5.09
  -3   4   0  133.46    5.03
  -3   4   0  135.71    6.97
  -3   4   0  138.89    7.19
   3  -4   1  118.27    4.49
  -3   4  -1  110.93    4.05
  -3   4  -1  115.28    7.65
  -3   4  -1  122.99    6.79
  -3   4  -2  123.72    3.95
  -3   4  -2  124.99    7.00
  -3   4  -2  142.05    7.16
  -3   4  -2  130.48    6.91
  -3   4  -3   21.80    1.92
  -3   4  -3   21.25    1.84
  -3   4  -3   21.65   13.35
  -3   4  -3   23.53    4.40
  -3   4  -3   21.96    4.13
  -3   4  -4  199.60    5.53
  -3   4  -4  193.72    5.44
  -3   4  -4  189.77    9.19
  -3   4  -4  204.88    9.15
  -3   4  -4  216.49    9.48
  -3   4  -5   14.54    1.83
  -3   4  -5   13.46    1.61
  -3   4  -5   15.73    7.63
  -3   4  -5   12.39    4.17
  -3   4  -5   11.86    4.68
  -3   4  -6  642.16   19.34
  -3   4  -6  636.65   25.37
  -3   4  -6  594.42   21.60
  -3   4  -7   82.76    4.22
  -3   4  -7   85.15    6.80
  -3   4  -7   81.86    6.47
  -3   4  -8  591.04   10.70
  -3   4  -8  585.00   16.33
  -3   4  -8  578.04   16.12
  -3   4  -9   91.04    4.77
  -3   4  -9   86.84    6.99
  -3   4  -9  103.42   10.12
  -3   4 -10   11.94    3.71
  -3   4 -10   11.73    6.61
  -3   4 -11   -0.02    2.70
  -3   4 -11   -0.56    3.22
  -3   4 -12   89.48    7.55
  -3   4 -12   80.29   17.51
  -3   4 -13   42.38    5.92
  -3   4 -13   35.14   14.90
   3  -3 -13    3.78    4.20
   3  -3 -12  116.67   10.44
   3  -3 -11  117.28    9.21
   3  -3 -10   10.46    4.91
   3  -3  -9  112.96    8.67
   3  -3  -8   75.66    6.43
   3  -3  -7   29.98    5.07
   3  -3  -6   36.71    5.48
   3  -3  -5   72.60    5.57
   3  -3  -5   66.13    3.27
  -3   3   5   68.52    3.27
   3  -3  -4  741.07   15.82
   3  -3  -4  759.77   13.65
  -3   3   4  717.61   12.95
   3  -3  -3   14.44    5.54
   3  -3  -3   15.20    2.76
  -3   3   3   13.59    2.24
  -3   3   3   14.92    2.38
   3  -3  -2  303.95   10.06
   3  -3  -2  315.57   10.48
  -3   3   2  322.96   10.84
  -3   3   2  323.27   10.48
   3  -3  -1 1092.98   28.33
   3  -3  -1 1052.06   26.58
  -3   3   1 1091.09   28.50
  -3   3   1 1077.71   27.02
   3  -3   0  150.71    6.76
   3  -3   0  151.40    5.67
  -3   3   0  155.14    7.25
  -3   3   0  157.83    5.62
  -3   3   0  134.90   12.40
   3  -3   1    2.69    1.30
  -3   3  -1    4.46    1.20
  -3   3  -1    1.02    2.51
  -3   3  -1    4.20    3.02
   3  -3   2  342.12    9.07
  -3   3  -2  337.15    8.89
  -3   3  -2  332.74   13.88
  -3   3  -2  320.09   12.01
  -3   3  -2  305.72   11.25
  -3   3  -3  263.42    7.05
  -3   3  -3  263.29   10.63
  -3   3  -3  280.49   10.88
  -3   3  -3  273.06   10.53
  -3   3  -4 1421.94   33.06
  -3   3  -4 1365.45   36.13
  -3   3  -4 1408.31   37.14
  -3   3  -4 1265.15   33.84
  -3   3  -5   23.65    1.63
  -3   3  -5   22.65    4.34
  -3   3  -5   24.86    4.72
  -3   3  -5   22.12    4.09
  -3   3  -6  411.52    9.06
  -3   3  -6  419.51    9.07
  -3   3  -6  403.81   13.18
  -3   3  -6  418.27   13.84
   3  -3   7  424.83    8.10
  -3   3  -7  403.87    8.02
  -3   3  -7  410.31   13.15
  -3   3  -7  461.13   13.38
   3  -3   8    1.87    1.33
  -3   3  -8    2.20    1.62
  -3   3  -8    1.14    2.46
  -3   3  -9    0.70    1.38
  -3   3  -9   -1.06    2.47
  -3   3  -9    0.90    1.55
  -3   3 -10  132.69    5.98
  -3   3 -10  133.71    8.22
  -3   3 -10  141.80    8.69
  -3   3 -11   22.33    3.12
  -3   3 -11   24.87    4.60
  -3   3 -11   23.81    8.52
  -3   3 -12    3.60    3.24
  -3   3 -12    5.51    4.56
  -3   3 -13   36.36    4.92
  -3   3 -13   29.06   13.69
  -3   3 -14   23.09   14.12
   3  -2 -13  138.57   10.88
   3  -2 -12   39.63    6.76
   3  -2 -11   -0.31    3.50
   3  -2 -10   53.99    7.29
   3  -2  -9    3.46    3.16
   3  -2  -8  443.61   14.30
   3  -2  -7   25.77    4.52
   3  -2  -6    4.99    4.38
   3  -2  -5   61.54    9.69
   3  -2  -4   62.75    4.92
  -3   2   4   62.55    3.45
   3  -2  -3 1107.14   28.91
  -3   2   3 1074.41   27.80
  -3   2   3 1071.92   26.67
  -3   2   3 1092.77   27.16
   3  -2  -2   10.71    2.45
   3  -2  -2   10.87    4.50
   3  -2  -2   12.38    3.10
  -3   2   2   10.29    2.10
  -3   2   2   12.03    2.27
  -3   2   2   13.52    2.70
   3  -2  -1  312.70    7.93
   3  -2  -1  311.57    8.22
   3  -2  -1  324.92    8.39
  -3   2   1  316.67    7.64
  -3   2   1  307.95    8.37
  -3   2   1  316.82    8.53
   3  -2   0   48.84    2.90
   3  -2   0   51.75    4.15
   3  -2   0   54.95    3.77
   3  -2   0   49.62    5.66
  -3   2   0   49.00    2.56
  -3   2   0   54.61    4.52
  -3   2   0   50.19    4.57
   3  -2   1 1324.26   18.69
   3  -2   1 1324.89   22.65
   3  -2   1 1294.15   22.54
   3  -2   1 1360.10   22.97
  -3   2  -1 1368.34   19.21
  -3   2  -1 1383.39   23.88
  -3   2  -1 1364.73   23.40
  -3   2  -1 1383.05   24.00
   3  -2   2  534.32    7.93
   3  -2   2  513.27   12.12
   3  -2   2  503.42   12.11
   3  -2   2  514.04   12.03
  -3   2  -2  500.92   12.54
  -3   2  -2  515.36   13.00
  -3   2  -2  519.12   12.63
  -3   2  -2  476.20   12.08
  -3   2  -3 2129.27   35.83
  -3   2  -3 2121.79   35.52
  -3   2  -3 2116.52   35.31
  -3   2  -4   22.16    0.72
  -3   2  -4   21.43    0.68
  -3   2  -4   17.32    3.78
  -3   2  -4   24.56    4.09
  -3   2  -4   21.70    4.20
  -3   2  -4   21.69    4.03
   3  -2   5   23.59    1.56
  -3   2  -5   20.25    3.37
  -3   2  -5   20.55    4.05
  -3   2  -5   22.78    4.16
  -3   2  -5   26.98    4.47
   3  -2   6   39.06    2.25
  -3   2  -6   35.31    3.26
  -3   2  -6   36.25    3.63
  -3   2  -6   37.39    5.99
  -3   2  -6   36.29    4.66
   3  -2   7   22.85    2.06
  -3   2  -7   25.49    2.23
  -3   2  -7   24.88    4.39
  -3   2  -7   33.86   15.73
  -3   2  -7   28.95    4.49
   3  -2   8  124.16    4.78
  -3   2  -8  117.24    5.85
  -3   2  -8  123.80    7.15
  -3   2  -8  132.14    8.12
   3  -2   9  373.92   12.98
  -3   2  -9  380.36   13.34
  -3   2  -9  391.31   15.57
  -3   2  -9  397.34   17.04
  -3   2 -10  134.64    5.90
  -3   2 -10  136.34    7.62
  -3   2 -10  144.19    8.85
  -3   2 -11   46.08    4.00
  -3   2 -11   44.36    5.14
  -3   2 -11   50.43   11.02
  -3   2 -12  163.75    7.59
  -3   2 -12  168.31    8.34
  -3   2 -12  174.90   10.95
  -3   2 -13   12.86    4.02
  -3   2 -13   10.46    4.45
  -3   2 -13   11.03    4.55
  -3   2 -14   94.80    9.50
   3  -1 -13    1.81    4.24
   3  -1 -12    3.33    4.26
   3  -1 -11   48.27    6.34
   3  -1 -10  183.32   10.71
   3  -1  -9    1.08    3.57
   3  -1  -8   12.10    4.56
   3  -1  -7   40.41    4.84
   3  -1  -6    3.65    3.21
   3  -1  -6    1.95    0.73
  -3   1   6    1.25    0.66
   3  -1  -5  447.66   12.25
   3  -1  -5  451.16    7.71
  -3   1   5  429.95    7.37
   3  -1  -4    7.35    2.94
   3  -1  -4    6.51    1.41
  -3   1   4    6.12    1.45
   3  -1  -3   -0.68    2.23
   3  -1  -3    0.22    1.00
  -3   1   3    0.53    1.87
  -3   1   3   -0.13    1.34
   3  -1  -2   -1.70    2.27
   3  -1  -2   -0.62    1.26
  -3   1   2    1.77    1.80
  -3   1   2    0.49    1.80
   3  -1  -1   29.88    2.83
   3  -1  -1   32.03    2.65
  -3   1   1   30.38    2.45
  -3   1   1   30.18    2.91
  -3   1   1   31.73    3.11
   3  -1   0 1939.03   27.63
   3  -1   0 1937.11   29.19
   3  -1   0 1902.25   29.41
  -3   1   0 1922.49   27.26
  -3   1   0 1901.98   28.82
  -3   1   0 1911.73   29.14
   3  -1   1  111.30    3.20
   3  -1   1  116.36    4.93
   3  -1   1   99.83    4.69
   3  -1   1  115.95    8.83
  -3   1  -1  115.31    3.13
  -3   1  -1  114.47    4.88
  -3   1  -1  108.16    5.44
  -3   1  -1  116.35    5.58
   3  -1   2   29.00    1.13
   3  -1   2   32.01    1.13
   3  -1   2   32.94    2.80
   3  -1   2   30.81    6.13
   3  -1   2   29.75    2.94
   3  -1   2   33.89    6.40
  -3   1  -2   28.98    4.00
  -3   1  -2   27.66    3.07
  -3   1  -2   27.13    4.13
  -3   1  -2   35.25    4.19
   3  -1   3   60.57    3.90
   3  -1   3   62.05    3.96
   3  -1   3   58.88    4.36
   3  -1   3   57.22    3.76
  -3   1  -3   61.83    4.85
  -3   1  -3   60.09    4.83
  -3   1  -3   66.61    4.91
  -3   1  -3   61.89    4.89
   3  -1   4   -0.07    0.19
   3  -1   4    0.10    1.69
   3  -1   4   -0.93    1.75
   3  -1   4   -0.34    1.37
  -3   1  -4   -0.44    2.91
  -3   1  -4   -0.49    2.65
  -3   1  -4    1.18    2.93
  -3   1  -4    0.64    0.42
  -3   1  -4    2.31    2.83
   3  -1   5  116.21    3.14
  -3   1  -5  115.20    5.97
  -3   1  -5  114.82    7.04
  -3   1  -5  111.77    5.97
   3  -1   6   31.39    2.09
  -3   1  -6   29.31    2.16
  -3   1  -6   30.28    3.81
  -3   1  -6   33.59    3.80
  -3   1  -6   30.58    4.27
   3  -1   7    1.19    1.31
  -3   1  -7    1.59    1.85
  -3   1  -7   -0.09    2.48
  -3   1  -7    2.51    1.38
  -3   1  -7    1.30    2.47
   3  -1   8  108.48    4.55
  -3   1  -8  111.16    4.86
  -3   1  -8  112.61    6.15
  -3   1  -8  111.54    7.34
  -3   1  -8  109.27    6.17
   3  -1   9 1431.89   19.45
  -3   1  -9 1500.96   19.95
  -3   1  -9 1538.69   23.62
  -3   1  -9 1489.29   22.87
  -3   1 -10    5.31    2.59
  -3   1 -10    4.89    3.35
  -3   1 -10    3.89    2.56
  -3   1 -11  205.68    7.80
  -3   1 -11  198.20    8.29
  -3   1 -12   15.58    3.76
  -3   1 -12   11.57    6.75
  -3   1 -13  140.40    8.52
  -3   1 -13  127.48    7.18
  -3   1 -14    4.23    3.23
   3   0 -13    2.03    2.29
   3   0 -12   75.38    7.97
   3   0 -11   18.84    4.73
   3   0 -10  264.21   12.56
   3   0  -9    5.34    3.72
   3   0  -8  156.98   10.54
  -3   0   8  154.18    4.56
   3   0  -7  121.40    8.06
   3   0  -7  113.69    3.50
   3   0  -6    1.13    3.31
   3   0  -6    2.08    0.94
   3   0  -5  591.57   14.64
   3   0  -4    5.85    3.21
   3   0  -3  480.34   12.08
  -3   0   3  486.38   11.75
   3   0  -2   50.91    3.87
   3   0  -2   52.36    2.95
  -3   0   2   53.82    3.52
   3   0  -1 1589.79   24.76
   3   0  -1 1634.76   25.21
  -3   0   1 1624.00   24.89
   3   0   0 2985.56   43.62
   3   0   0 3118.03   42.85
   3   0   0 3008.45   43.27
  -3   0   0 3068.82   42.15
   3   0   1  841.22   12.94
   3   0   1  798.97   10.80
   3   0   1  828.23   13.16
  -3   0  -1  810.54   10.96
   3   0   2  388.40    6.27
   3   0   2  375.04    5.94
   3   0   2  375.52    8.58
   3   0   2  403.16    8.53
  -3   0  -2  390.25    9.29
  -3   0  -2  384.89    9.07
  -3   0  -2  356.11    8.30
   3   0   3  262.71    5.66
   3   0   3  262.29    5.20
   3   0   3  253.81    7.30
   3   0   3  261.88    7.34
   3   0   3  258.45    7.44
  -3   0  -3  265.37    7.92
  -3   0  -3  266.51    8.44
  -3   0  -3  246.07    7.38
   3   0   4   63.75    2.48
   3   0   4   68.56    4.07
   3   0   4   62.76    3.93
  -3   0  -4   71.55    2.88
  -3   0  -4   68.90    4.65
  -3   0  -4   69.55    5.00
  -3   0  -4   67.12    4.95
  -3   0  -4   59.52    4.53
   3   0   5  138.08    4.02
   3   0   5  143.86    5.86
   3   0   5  139.92    5.83
  -3   0  -5  141.99    4.23
  -3   0  -5  151.12    9.99
  -3   0  -5  137.47    6.42
  -3   0  -5  137.72    6.12
   3   0   6    4.85    1.37
   3   0   6    5.68    1.81
  -3   0  -6    4.62    1.53
  -3   0  -6    4.39    2.86
  -3   0  -6    4.24    1.95
  -3   0  -6    6.94    3.12
   3   0   7   29.14    2.58
  -3   0  -7   27.57    2.68
  -3   0  -7   28.29    3.60
  -3   0  -7   28.32    4.13
   3   0   8 2419.92   32.49
  -3   0  -8 2474.62   20.19
  -3   0  -8 2476.56   23.73
  -3   0  -8 2493.50   24.01
   3   0   9   23.67    2.79
  -3   0  -9   22.23    2.95
  -3   0  -9   24.43    3.32
  -3   0 -10   69.95    4.54
  -3   0 -10   74.15    4.92
  -3   0 -11  150.85    6.99
  -3   0 -11  152.01    7.18
  -3   0 -12    0.72    2.17
  -3   0 -12    0.74    1.97
  -3   0 -13  126.39    7.40
  -3   0 -14   20.46    3.91
  -3   0 -15   23.90    4.21
   3   1 -13   10.22    5.69
   3   1 -12   43.42    6.79
   3   1 -11  379.65   15.60
   3   1 -10   16.99    5.38
   3   1  -9   37.74    5.01
   3   1  -8   20.73    3.95
   3   1  -7  102.11    7.78
   3   1  -6   45.89    6.23
   3   1  -5  201.33    8.72
   3   1  -4   69.02    5.68
   3   1  -3   23.97    3.94
   3   1  -2  194.21    7.29
  -3  -1   2  195.52    6.81
   3   1  -1 1846.27   28.85
  -3  -1   1 1902.29   29.31
   3   1   0 1651.44   25.58
  -3  -1   0 1608.65   25.07
   3   1   1  384.80    8.12
   3   1   1  392.33    7.56
  -3  -1  -1  355.81    7.56
  -3  -1  -1  406.28    7.87
   3   1   2   24.20    2.79
   3   1   2   23.60    2.15
   3   1   2   19.92    2.20
   3   1   2   23.70    3.92
  -3  -1  -2   22.28    2.28
  -3  -1  -2   25.92    2.60
   3   1   3  530.40    9.93
   3   1   3  549.01   10.84
   3   1   3  474.67    9.81
  -3  -1  -3  504.66   10.61
  -3  -1  -3  518.67    9.85
  -3  -1  -3  525.97   10.92
   3   1   4  883.39   14.65
   3   1   4  928.70   16.45
   3   1   4  871.92   16.25
  -3  -1  -4  927.71   16.69
  -3  -1  -4  917.63   15.29
   3   1   5  218.44    6.01
   3   1   5  215.83    6.96
   3   1   5  218.42    7.13
  -3  -1  -5  225.38    7.40
  -3  -1  -5  215.46    6.31
   3   1   6   -0.44    1.59
   3   1   6    1.83    2.47
   3   1   6    3.97    1.99
  -3  -1  -6    1.57    2.02
  -3  -1  -6    0.29    1.59
   3   1   7   91.73    4.64
   3   1   7  101.67    5.41
  -3  -1  -7   91.63    4.90
  -3  -1  -7   90.84    5.35
   3   1   8  310.10    8.46
  -3  -1  -8  307.24    8.66
  -3  -1  -8  302.35   11.30
  -3  -1  -9   64.13    4.72
  -3  -1  -9   62.13    4.29
  -3  -1 -10  200.22    7.79
  -3  -1 -10  215.58    8.00
  -3  -1 -11   93.05    5.71
  -3  -1 -11   97.12    5.84
  -3  -1 -12    9.68    3.19
  -3  -1 -12    8.02    2.91
  -3  -1 -13    8.52    3.19
  -3  -1 -13    6.04    2.34
  -3  -1 -14   90.19    6.82
  -3  -1 -15    9.88    4.31
  -3  -1 -16   61.49    6.54
   3   2 -12   77.04    8.82
   3   2 -11    3.21    4.26
   3   2 -10    3.19    3.63
   3   2  -9  667.63   18.55
   3   2  -8   13.09    5.49
   3   2  -7   77.45    6.45
   3   2  -6    3.68    3.00
   3   2  -5   13.76    3.25
   3   2  -4   44.35    4.87
   3   2  -3  873.26   24.98
   3   2  -2  193.28    7.43
   3   2  -1  334.57    9.84
  -3  -2   1  342.46    9.67
   3   2   0   67.20    4.61
  -3  -2   0   80.01    5.67
   3   2   1  281.49    8.23
   3   2   1  281.95    7.73
   3   2   1  264.54    6.66
  -3  -2  -1  293.77    7.17
   3   2   2  190.55    6.48
   3   2   2  185.74    6.02
   3   2   2  183.24    4.91
  -3  -2  -2  180.28    4.92
  -3  -2  -2  193.83    5.09
   3   2   3    0.95    1.92
   3   2   3    0.83    1.23
  -3  -2  -3    1.63    2.18
  -3  -2  -3   -0.50    1.52
   3   2   4 1700.47   26.37
   3   2   4 1621.17   24.75
  -3  -2  -4 1722.96   26.95
  -3  -2  -4 1742.88   26.85
   3   2   5   95.94    4.43
   3   2   5   95.56    4.36
  -3  -2  -5   97.67    4.82
  -3  -2  -5   95.56    4.60
   3   2   6  624.96   17.56
   3   2   6  587.80   16.82
  -3  -2  -6  640.20   17.99
   3   2   7   23.07    2.63
   3   2   7   20.15    2.62
  -3  -2  -7   22.78    3.07
  -3  -2  -8  206.94    7.78
  -3  -2  -8  217.78    7.82
  -3  -2  -9  462.89   13.21
  -3  -2  -9  486.80   13.58
  -3  -2 -10   85.90    5.64
  -3  -2 -10   86.67   10.31
  -3  -2 -11  321.83   11.14
  -3  -2 -11  330.67    9.54
  -3  -2 -12  146.52    7.85
  -3  -2 -12  135.62    6.27
  -3  -2 -13   40.52    5.61
  -3  -2 -13   36.69    3.86
  -3  -2 -14   57.58    5.83
  -3  -2 -15    9.51    5.03
  -3  -2 -16   62.70    7.75
   3   3 -12    6.33    5.61
   3   3 -11    5.25    4.60
   3   3 -10  210.44   12.74
   3   3  -9    2.00    4.21
   3   3  -8   77.39    8.20
   3   3  -7  111.87    8.39
   3   3  -6    8.97    3.64
   3   3  -5    9.55    3.42
   3   3  -4  593.73   16.79
   3   3  -3   -0.14    2.68
   3   3  -2  243.15   10.00
   3   3  -1  820.77   23.50
   3   3   0  595.74   14.48
   3   3   0  592.43   10.02
   3   3   1   36.48    6.25
   3   3   1   33.55    3.14
   3   3   1   31.42    2.18
   3   3   2    3.80    2.59
   3   3   2    3.90    2.13
   3   3   3  212.10    7.17
   3   3   3  224.38    5.66
  -3  -3  -3  206.95    7.56
  -3  -3  -3  203.84    4.96
   3   3   4   63.70    4.03
   3   3   4   64.77    3.02
  -3  -3  -4   66.11    4.85
  -3  -3  -4   64.57    4.61
   3   3   5    0.15    1.12
  -3  -3  -5    3.24    3.86
  -3  -3  -6   14.14    3.56
  -3  -3  -7   75.11    5.34
  -3  -3  -8    3.57    3.10
  -3  -3  -9 1314.79   22.13
  -3  -3 -10  161.06    8.98
  -3  -3 -10  171.95    8.47
  -3  -3 -11   35.01    5.34
  -3  -3 -11   26.30   10.90
  -3  -3 -12   58.25    5.86
  -3  -3 -12   61.56    5.78
  -3  -3 -13   10.28    3.92
  -3  -3 -13    9.96    2.74
  -3  -3 -14  137.18    8.76
  -3  -3 -15  110.74    8.92
  -3  -3 -16   17.76    5.18
   3   4 -11   38.14    7.11
   3   4 -10    7.71    5.51
   3   4  -9   89.71    8.86
   3   4  -8  136.97    9.58
   3   4  -7   37.74    6.18
   3   4  -6   41.15    6.16
   3   4  -5   59.01    6.59
   3   4  -4  838.09   19.28
   3   4  -3  242.35   10.44
   3   4  -2  989.44   23.25
   3   4  -1    6.98    3.09
   3   4   0    7.51    3.54
   3   4   0    7.45    1.05
  -3  -4   0    8.31    1.65
   3   4   1  111.68    6.91
   3   4   2  870.84   24.73
  -3  -4  -3  308.70   12.11
  -3  -4  -3  320.12    8.03
   3   4   4   21.93    1.79
  -3  -4  -4   25.44    4.36
  -3  -4  -4   23.13    2.27
   3   4   5    0.51    0.94
  -3  -4  -5    0.32    1.49
  -3  -4  -6  479.01   13.48
  -3  -4  -7  646.51   17.57
  -3  -4  -8   99.01    6.77
  -3  -4  -9    4.21    4.01
  -3  -4 -10    6.81    4.58
  -3  -4 -12  300.44   11.99
  -3  -4 -12  298.75   11.19
  -3  -4 -13   64.82    6.47
  -3  -4 -14   14.68    5.37
  -3  -4 -15    6.79    4.09
  -3  -4 -16   79.30    8.32
   3   5 -10    1.76    3.89
   3   5  -9    8.04    5.32
   3   5  -8  246.82   12.57
   3   5  -7  104.44    8.19
   3   5  -6  122.79    9.05
   3   5  -5  234.13   10.85
   3   5  -4   63.10    5.98
   3   5  -3   19.64    4.50
   3   5  -2   91.06    7.50
  -3  -5   2   91.22    3.12
   3   5  -1    5.19    3.72
  -3  -5   1    2.16    0.69
   3   5   0   73.51    6.26
   3   5   1   99.41    6.67
   3   5   2   63.75   15.50
  -3  -5  -3  865.32   21.53
   3   5   4   63.15    1.83
  -3  -5  -4   65.63    6.04
  -3  -5  -4   62.74    1.87
   3   5   5  435.61    9.16
  -3  -5  -5  441.47   14.47
  -3  -5  -6   39.00    8.81
  -3  -5  -7  182.72    8.96
  -3  -5  -8  132.25    9.03
  -3  -5  -9  200.92    9.70
  -3  -5 -10  169.85    9.26
  -3  -5 -11    7.91    3.43
  -3  -5 -12   76.45    6.97
  -3  -5 -13   29.66    5.42
  -3  -5 -14    5.63    4.13
  -3  -5 -15    3.44    2.96
   3   6  -9  150.93   11.05
   3   6  -8    7.79    5.18
   3   6  -7  122.82    9.31
   3   6  -6   13.36    5.39
   3   6  -5    6.90    4.44
   3   6  -4    2.06    3.51
   3   6  -3   25.97    5.43
   3   6  -2    6.32    4.57
   3   6  -1  105.32    8.10
   3   6   0  278.17   13.95
   3   6   1  441.99   19.36
   3   6   2  362.80   12.64
  -3  -6  -3   13.53    4.52
  -3  -6  -4   11.27    4.48
   3   6   5  236.59    7.50
  -3  -6  -5  242.69   12.41
  -3  -6  -5  242.29    7.79
  -3  -6  -6    5.05    3.41
  -3  -6  -7 1398.90   25.13
  -3  -6  -8   32.06    5.53
  -3  -6  -9   19.17    5.22
  -3  -6 -10   38.32    5.62
  -3  -6 -11   52.03    5.80
  -3  -6 -12  269.18   12.26
  -3  -6 -13   62.05    7.16
  -3  -6 -14   26.64    6.04
  -3  -6 -15   83.04    8.38
   3   7  -8   66.56    8.26
   3   7  -7   53.36    7.60
   3   7  -6    1.50    3.90
   3   7  -5   54.83    6.82
   3   7  -4    3.23    3.23
   3   7  -3   40.94    6.26
   3   7  -2  140.84    9.40
   3   7  -1  982.37   23.18
   3   7   0  122.77    9.05
   3   7   1  216.23   10.79
   3   7   2   26.33   20.12
   3   7   3  193.73   11.53
  -3  -7  -4  143.82    9.18
  -3  -7  -5   -0.83    3.34
  -3  -7  -6   62.61   13.81
  -3  -7  -7   22.06    5.17
  -3  -7  -8   96.42   16.23
  -3  -7  -9   56.42    6.93
  -3  -7 -10   42.66    5.72
  -3  -7 -11  236.65   13.21
  -3  -7 -12  102.01    9.31
  -3  -7 -13   75.61    8.86
  -3  -7 -14    2.63    3.85
   3   8  -6   64.61    7.11
   3   8  -5   21.43    5.85
   3   8  -4  153.64   10.50
   3   8  -3    7.82    5.20
   3   8  -2  194.78   11.74
   3   8  -1  188.98   12.71
   3   8   0   19.52    5.98
   3   8   1  107.61   17.55
   3   8   2  193.12   11.22
   3   8   3  144.40    9.77
  -3  -8  -4  110.64    8.64
  -3  -8  -5   54.55    6.04
  -3  -8  -6    2.99    4.04
  -3  -8  -7   65.64    8.35
  -3  -8  -8    6.57    5.79
  -3  -8  -9   56.51   16.25
  -3  -8 -10  304.46   14.19
  -3  -8 -11   21.28    5.38
  -3  -8 -12    9.24    4.76
   3   9  -3   -0.13    3.53
   3   9  -2   22.89    6.37
   3   9  -1   51.32    7.35
   3   9   0    5.82    5.34
   3   9   1    0.14    2.89
   3   9   2   46.71   18.18
   3   9   3    7.20    3.52
   3   9   4  267.36   13.42
  -3  -9  -5   -0.89    4.12
  -3  -9  -6  129.27    9.91
  -3  -9  -7   57.98    7.28
  -3  -9  -8  171.44   11.15
  -3  -9  -9   59.26    8.10
  -3  -9 -10   64.36    8.64
   3  10   1    4.16    4.48
   3  10   2   85.14   20.87
   3  10   3  101.86   26.93
   3  10   4   27.12   12.89
   3  10   5   30.14   19.46
  -3 -10  -6   76.11    8.99
  -4   9   5    3.10    2.56
  -4   9   4   33.18   13.99
  -4   9   4   25.21   19.65
  -4   9   3    2.03    2.18
  -4   9   3    0.59    1.62
  -4   9   2   11.24    7.32
  -4   9   2   10.30    3.82
  -4   9   1    1.18    1.61
  -4   9   1    0.92    2.57
  -4   9   0  116.98   25.21
  -4   9   0  114.69    8.20
  -4   9  -1   23.92   14.84
  -4   9  -1   32.33    5.24
  -4   9  -2   41.51   20.05
  -4   9  -2   58.37    6.71
  -4   9  -3   47.30    6.74
   4  -8  -8   13.29    4.59
   4  -8  -7   -0.21    2.52
   4  -8  -6    5.30    3.02
   4  -8  -5    5.66    3.69
  -4   8   5    3.49    2.92
  -4   8   5    5.03    4.02
   4  -8  -4    5.24    3.48
  -4   8   4    6.49    2.91
  -4   8   4    3.98    3.96
   4  -8  -3   78.89    6.85
  -4   8   3   78.05   11.28
  -4   8   3   73.07    6.73
   4  -8  -2  321.49   11.84
  -4   8   2  323.67   15.41
  -4   8   2  328.65   13.68
  -4   8   1  162.87   16.28
  -4   8   1  185.14    9.78
  -4   8   0    0.63    2.83
  -4   8   0    1.65    2.79
  -4   8  -1    2.18    3.40
  -4   8  -1    2.27    2.81
  -4   8  -2   -0.85    4.28
  -4   8  -2   -3.27    2.97
  -4   8  -3   26.57   11.92
  -4   8  -3   26.23   17.11
  -4   8  -4   95.69   26.81
  -4   8  -4   89.59    7.75
  -4   8  -5    2.75    2.62
  -4   8  -6    2.92    4.15
  -4   8  -7   18.10    4.96
   4  -7  -9   -0.87    3.00
   4  -7  -8    2.33    3.29
   4  -7  -7   11.41    4.81
   4  -7  -6   73.97    6.74
   4  -7  -5   18.01    4.32
  -4   7   5   23.43    4.36
   4  -7  -4  194.98    9.64
  -4   7   4  209.52   22.71
   4  -7  -3  142.27    7.68
  -4   7   3  142.51   15.53
  -4   7   3  120.38    9.22
   4  -7  -2  207.19    9.06
  -4   7   2  202.66   11.90
  -4   7   2  181.32    9.78
   4  -7  -1  192.89    8.26
  -4   7   1  184.18   10.16
  -4   7   1  186.82   13.07
   4  -7   0   14.60    3.08
  -4   7   0   12.27    8.09
  -4   7   0   12.22    4.66
   4  -7   1   18.26    3.03
  -4   7  -1   16.09    7.37
  -4   7  -1   17.65    4.76
  -4   7  -2    1.60    3.13
  -4   7  -2    1.51    3.16
  -4   7  -3   49.73    7.54
  -4   7  -3   56.87    6.27
  -4   7  -4    2.36    3.05
  -4   7  -4    2.50    3.29
  -4   7  -5    4.07    6.09
  -4   7  -5    5.28    3.83
  -4   7  -5    4.05    3.14
  -4   7  -6  114.68    9.16
  -4   7  -6  107.70    8.19
  -4   7  -7   21.23    6.41
  -4   7  -7   27.35    5.54
  -4   7  -8   82.06    8.58
  -4   7  -8   77.44    8.80
  -4   7  -9   61.35    8.47
  -4   7  -9   72.42    8.71
   4  -6 -11    1.93    3.18
   4  -6 -10    0.99    3.26
   4  -6  -9   67.69    7.23
   4  -6  -8   97.90    8.41
   4  -6  -7    7.07    4.56
   4  -6  -6   26.91    4.61
  -4   6   6   24.27    3.68
   4  -6  -5   24.10    4.31
  -4   6   5   19.51    3.56
   4  -6  -4  158.83    8.07
  -4   6   4  163.54    8.22
   4  -6  -3    1.48    1.87
  -4   6   3    2.21    2.42
   4  -6  -2   58.63    4.96
  -4   6   2   58.35    9.48
  -4   6   2   55.54    6.93
   4  -6  -1  210.01    7.98
  -4   6   1  210.02   11.06
  -4   6   1  205.86   10.19
   4  -6   0  675.85   12.99
  -4   6   0  629.21   25.84
  -4   6   0  614.41   15.90
   4  -6   1  886.19   13.30
  -4   6  -1  897.02   22.40
  -4   6  -1  865.14   18.98
  -4   6  -2   44.17    3.68
  -4   6  -2   44.56    9.77
  -4   6  -2   41.43    5.18
  -4   6  -3   89.87    7.57
  -4   6  -3   83.34    6.69
  -4   6  -4    9.36    6.03
  -4   6  -4   11.14    4.52
  -4   6  -4    9.23    4.04
  -4   6  -5    0.63    1.83
  -4   6  -5    3.85    4.32
  -4   6  -5    0.01    3.14
  -4   6  -6    2.88    3.89
  -4   6  -7   32.41   13.54
  -4   6  -7   34.05    5.29
  -4   6  -8  120.61    9.87
  -4   6  -8  118.77    8.82
  -4   6  -9   39.85    6.73
  -4   6  -9   35.22    5.89
  -4   6 -10   81.95    9.01
  -4   6 -10   70.54   24.92
  -4   6 -11    4.15    5.01
  -4   6 -11    5.96    3.71
   4  -5 -11   23.08    6.24
   4  -5 -10  310.11   14.19
   4  -5  -9   96.04    8.40
   4  -5  -8  147.27    9.30
   4  -5  -7   22.69    4.21
   4  -5  -6   28.39    4.79
  -4   5   6   31.42    3.76
   4  -5  -5   52.74    5.91
  -4   5   5   56.01    4.21
   4  -5  -4   10.03    3.59
  -4   5   4   12.91    3.14
   4  -5  -3   19.20    3.55
  -4   5   3   24.67    3.63
   4  -5  -2   22.79    3.72
  -4   5   2   22.32    4.57
   4  -5  -1  343.90   12.96
  -4   5   1  327.67   14.34
  -4   5   1  296.72   14.53
   4  -5   0  113.30    5.88
  -4   5   0  114.15    5.69
  -4   5   0  116.13    8.04
  -4   5   0  134.86    8.96
   4  -5   1 1146.36   33.40
  -4   5  -1 1134.87   32.77
  -4   5  -1 1165.00   37.95
  -4   5  -1 1211.75   39.70
  -4   5  -2   25.24    2.22
  -4   5  -2   24.61   12.15
  -4   5  -2   25.75   10.78
  -4   5  -3    8.78    1.79
  -4   5  -3   11.63    6.02
  -4   5  -3   12.80    4.58
  -4   5  -4   20.25    3.70
  -4   5  -4   17.60    3.90
  -4   5  -4   24.59    4.97
  -4   5  -5   66.55    7.38
  -4   5  -5   74.59    6.59
  -4   5  -5   63.61    6.28
  -4   5  -6    2.92    3.47
  -4   5  -7   22.00    5.80
  -4   5  -7   18.38    4.88
  -4   5  -8   29.08    5.90
  -4   5  -8   27.09    6.12
  -4   5  -9   29.05    4.91
  -4   5  -9   34.44    5.45
  -4   5 -10   75.34    8.01
  -4   5 -10   78.64    8.10
  -4   5 -11   64.34    7.21
  -4   5 -11   63.35    7.26
  -4   5 -12    7.86    3.47
  -4   5 -12   11.86    4.78
   4  -4 -12   24.60    5.38
   4  -4 -11   87.59    8.48
   4  -4 -10   24.60    6.00
   4  -4  -9    4.09    3.71
   4  -4  -8   63.14    6.55
   4  -4  -7   74.21    7.04
   4  -4  -6  105.36    7.47
  -4   4   6   89.31    4.57
   4  -4  -5   41.10    4.65
   4  -4  -5   38.73    3.72
  -4   4   5   41.92    3.32
   4  -4  -4   26.20    4.20
  -4   4   4   27.02    3.34
   4  -4  -3  403.61   11.47
  -4   4   3  414.90   10.99
   4  -4  -2   39.15    3.48
  -4   4   2   39.73    3.91
   4  -4  -1   80.10    4.43
  -4   4   1   76.75    3.93
  -4   4   1   73.32    4.84
  -4   4   1   83.46    6.17
   4  -4   0   49.14    3.34
  -4   4   0   46.60    2.94
  -4   4   0   44.10    4.74
  -4   4   0   46.68    7.79
   4  -4   1   34.22    2.53
  -4   4  -1   32.83    2.32
  -4   4  -1   36.81    6.27
  -4   4  -1   36.54    4.88
   4  -4   2  233.99    5.88
  -4   4  -2  239.22    5.89
  -4   4  -2  240.22   10.71
  -4   4  -2  229.16    9.80
  -4   4  -3   56.36    2.27
  -4   4  -3   56.94    2.22
  -4   4  -3   59.84    6.63
  -4   4  -3   62.14    6.25
  -4   4  -3   71.20    6.24
  -4   4  -4   -0.15    0.31
  -4   4  -4    0.40    0.42
  -4   4  -4   -0.65    3.26
  -4   4  -4   -1.30    3.33
  -4   4  -4   -0.28    3.27
  -4   4  -5   70.90    1.79
  -4   4  -5   74.72    1.84
  -4   4  -5   73.74    7.05
  -4   4  -5   64.81    6.61
  -4   4  -5   91.85    7.46
  -4   4  -6   68.97    2.15
  -4   4  -6   76.05    7.02
  -4   4  -6   60.01    5.55
  -4   4  -6   66.53    5.74
  -4   4  -7    3.77    3.83
  -4   4  -7    3.14    3.53
  -4   4  -8    4.53    5.77
  -4   4  -8    2.70    4.24
  -4   4  -9   -0.10    3.14
  -4   4  -9    0.27    3.11
  -4   4 -10   94.23    7.83
  -4   4 -10   85.70    7.73
  -4   4 -11   73.94    7.12
  -4   4 -11   79.69    7.76
  -4   4 -12   67.22    7.11
  -4   4 -12   59.42   18.28
  -4   4 -13   30.07    5.76
  -4   4 -13   33.35   11.07
   4  -3 -12   24.83    5.82
   4  -3 -11  230.84   13.12
   4  -3 -10  165.64   10.50
   4  -3  -9  367.96   14.53
   4  -3  -8    2.31    3.70
   4  -3  -7  256.35   10.77
   4  -3  -6  127.95    8.19
   4  -3  -5  139.49    8.48
   4  -3  -4  260.75    9.50
  -4   3   4  253.04    9.26
   4  -3  -3  628.59   15.65
   4  -3  -3  622.48   15.08
  -4   3   3  645.12   15.09
   4  -3  -2   -0.09    1.84
  -4   3   2   -0.88    1.27
  -4   3   2    2.19    2.72
  -4   3   2   -0.52    2.03
   4  -3  -1  314.51    8.07
  -4   3   1  301.51    7.69
  -4   3   1  304.50    9.57
  -4   3   1  302.45    9.27
   4  -3   0   53.88    3.25
  -4   3   0   51.23    3.01
  -4   3   0   55.87    5.03
  -4   3   0   53.09    4.60
  -4   3   0   58.58    5.62
   4  -3   1  128.08    4.05
  -4   3  -1  125.02    3.92
  -4   3  -1  122.82    6.97
  -4   3  -1  117.59    6.35
  -4   3  -1  159.31    8.00
   4  -3   2   70.98    2.25
  -4   3  -2   68.25    2.33
  -4   3  -2   62.67    5.36
  -4   3  -2   69.95    5.69
  -4   3  -2   61.43    5.44
  -4   3  -3  152.33    8.02
  -4   3  -3  162.42    7.81
  -4   3  -3  149.98    7.74
  -4   3  -3  140.85    7.50
  -4   3  -4  543.06   15.60
  -4   3  -4  556.66   15.91
  -4   3  -4  553.05   15.87
  -4   3  -4  597.87   16.74
  -4   3  -5   -0.04    3.18
  -4   3  -5    0.81    3.20
  -4   3  -5    3.38    3.61
  -4   3  -5    4.22    3.77
  -4   3  -6  132.08    7.91
  -4   3  -6  135.69    8.87
  -4   3  -6  134.10    8.04
  -4   3  -6  141.92    8.47
  -4   3  -7   22.81    1.43
  -4   3  -7   22.50    1.40
  -4   3  -7   23.33    4.75
  -4   3  -7   24.09    5.18
  -4   3  -8   10.32    4.21
  -4   3  -8    6.05    3.18
  -4   3  -9   41.29    5.36
  -4   3  -9   38.64    5.83
  -4   3 -10   84.10    7.57
  -4   3 -10  108.33   18.70
  -4   3 -11   34.84    5.75
  -4   3 -11   31.57   17.06
  -4   3 -12   99.96    8.28
  -4   3 -12  102.73    9.27
  -4   3 -13   87.71    7.91
  -4   3 -13   78.64    9.32
  -4   3 -14   -0.69    2.41
  -4   3 -14   -0.61    2.75
   4  -2 -12   23.64    6.36
   4  -2 -11  105.27    9.67
   4  -2 -10   47.56    6.95
   4  -2  -9   14.00    4.49
   4  -2  -8  268.00   12.00
   4  -2  -7  386.80   13.74
   4  -2  -6   21.16    5.14
   4  -2  -5  423.95   13.48
  -4   2   5  423.52    8.28
   4  -2  -4  621.07   16.06
   4  -2  -4  537.17   11.89
  -4   2   4  599.91   13.33
   4  -2  -3   62.04    4.36
   4  -2  -3   52.13    5.02
  -4   2   3   57.24    3.68
   4  -2  -2  160.01    6.15
   4  -2  -2  153.59    5.60
  -4   2   2  160.34    5.99
  -4   2   2  161.95    6.13
  -4   2   2  158.11    5.99
   4  -2  -1   52.51    3.72
   4  -2  -1   48.14    6.76
  -4   2   1   47.68    3.34
  -4   2   1   50.63    4.10
  -4   2   1   48.28    3.88
   4  -2   0   39.02    2.67
  -4   2   0   38.18    2.67
  -4   2   0   42.05    4.16
  -4   2   0   40.70    4.01
  -4   2   0   47.93    4.93
   4  -2   1  542.71   13.88
  -4   2  -1  514.81   13.19
  -4   2  -1  526.91   16.57
  -4   2  -1  525.16   16.48
  -4   2  -1  541.05   17.16
   4  -2   2    0.09    0.42
  -4   2  -2    0.38    0.57
  -4   2  -2   -0.32    3.16
  -4   2  -2    0.62    2.91
  -4   2  -2    1.55    2.75
  -4   2  -2    1.18    1.70
  -4   2  -3    1.24    3.29
  -4   2  -3    2.60    2.91
  -4   2  -3    0.97    2.80
  -4   2  -3   -0.15    2.58
  -4   2  -4 1025.97   28.56
  -4   2  -4  909.44   26.11
  -4   2  -4 1035.75   28.85
  -4   2  -4  965.81   27.57
  -4   2  -5  217.45    9.12
  -4   2  -5  234.01    9.22
  -4   2  -5  223.21    9.24
  -4   2  -5  222.30    9.05
  -4   2  -6   33.15    4.78
  -4   2  -6   34.81    4.88
  -4   2  -6   30.67    4.82
  -4   2  -6   33.19    5.06
   4  -2   7   19.00    1.67
  -4   2  -7   22.42    1.56
  -4   2  -7   24.46    4.82
  -4   2  -7   22.86    4.84
  -4   2  -7   23.24    5.16
   4  -2   8  132.85    5.28
  -4   2  -8  139.09    8.95
  -4   2  -8  127.17    8.68
  -4   2  -8  129.14    8.53
  -4   2  -9    4.76    1.63
  -4   2  -9    6.39    3.55
  -4   2  -9    4.51    2.00
  -4   2  -9    4.25    4.61
  -4   2 -10   50.49    3.37
  -4   2 -10   53.97    5.48
  -4   2 -10   52.03   20.81
  -4   2 -11  427.01   14.32
  -4   2 -11  356.98   13.94
  -4   2 -12   20.03    4.03
  -4   2 -12   22.92   11.00
  -4   2 -13    1.55    2.74
  -4   2 -13    0.82    1.66
  -4   2 -14   36.79    4.92
  -4   2 -14   31.63   16.17
   4  -1 -12   88.00    9.24
   4  -1 -11   29.79    7.00
   4  -1 -10  135.41    9.41
   4  -1  -9  183.47   10.36
   4  -1  -8   82.00    7.30
   4  -1  -7   -0.55    3.05
  -4   1   7    0.47    0.57
   4  -1  -6  646.96   23.69
   4  -1  -6  616.47   18.31
  -4   1   6  652.34   19.13
   4  -1  -5    2.10    3.33
  -4   1   5    2.25    1.39
   4  -1  -4   27.65    4.24
   4  -1  -4   25.16    2.16
  -4   1   4   30.14    3.16
   4  -1  -3   23.38    3.47
   4  -1  -3   20.47    2.27
  -4   1   3   19.89    2.27
   4  -1  -2  371.92   12.07
   4  -1  -2  362.21   11.43
  -4   1   2  372.20   11.90
  -4   1   2  358.33   11.42
   4  -1  -1   -2.10    2.00
   4  -1  -1    1.61    1.98
  -4   1   1    0.02    1.36
  -4   1   1   -0.68    1.85
   4  -1   0   54.30    3.45
   4  -1   0   51.86    3.62
  -4   1   0   48.59    2.71
  -4   1   0   57.53    4.37
   4  -1   1  121.14    4.03
   4  -1   1  117.87    5.50
  -4   1  -1  115.79    3.82
  -4   1  -1  129.69    6.20
  -4   1  -1  120.23    5.88
  -4   1  -1  117.05   12.49
   4  -1   2   56.71    2.21
  -4   1  -2   65.38    2.75
  -4   1  -2   57.48    5.17
  -4   1  -2   63.02    5.02
  -4   1  -2   58.09    5.08
  -4   1  -2   53.77    4.62
   4  -1   3  426.04    6.25
  -4   1  -3  417.21   11.78
  -4   1  -3  399.38   11.32
  -4   1  -3  439.08   12.09
  -4   1  -3  450.71   12.18
  -4   1  -4  127.04    6.87
  -4   1  -4  122.66    7.00
  -4   1  -4  133.51    7.38
  -4   1  -4  146.33    7.54
  -4   1  -5  130.55    7.72
  -4   1  -5  126.50    7.12
  -4   1  -5  131.86    8.16
  -4   1  -5  132.36    7.54
   4  -1   6  555.03    7.83
  -4   1  -6  539.22    7.60
  -4   1  -6  535.57   13.85
  -4   1  -6  582.69   14.74
  -4   1  -6  530.85   14.02
   4  -1   7   92.64    3.04
  -4   1  -7   90.49    6.15
  -4   1  -7   90.61    6.92
  -4   1  -7   87.33    6.36
   4  -1   8  552.34    8.92
  -4   1  -8  546.05    8.90
  -4   1  -8  542.13   16.54
  -4   1  -8  556.68   14.28
   4  -1   9  621.48   19.14
  -4   1  -9  646.56   19.90
  -4   1  -9  617.90   22.23
  -4   1  -9  575.50   22.97
  -4   1  -9  633.49   22.74
  -4   1 -10    1.25    1.96
  -4   1 -10    0.05    2.44
  -4   1 -10    0.91    2.13
  -4   1 -10    2.03    2.86
  -4   1 -11    5.09    2.54
  -4   1 -11    0.99    2.87
  -4   1 -11    7.88    5.66
  -4   1 -11    3.24    2.25
  -4   1 -12   46.34    4.06
  -4   1 -12   44.51    4.96
  -4   1 -12   50.13   25.32
  -4   1 -12   47.35    5.23
  -4   1 -13   29.92   15.65
  -4   1 -14    6.83    3.61
  -4   1 -15    0.76    2.37
   4   0 -12   52.67    8.05
   4   0 -11  170.39   11.23
   4   0 -10   92.12    8.12
   4   0  -9   68.15    7.20
   4   0  -8   10.56    3.58
   4   0  -7   76.22    7.28
  -4   0   7   71.90    3.38
   4   0  -6  377.24   16.21
   4   0  -6  356.15   11.59
  -4   0   6  368.04   12.44
   4   0  -5   54.71    5.44
   4   0  -5   55.95    3.13
   4   0  -4   18.69    3.42
   4   0  -4   16.85    2.53
   4   0  -3   48.08    5.07
   4   0  -3   48.88    3.84
   4   0  -2 1836.02   45.63
   4   0  -2 1883.94   26.67
   4   0  -1  663.39   14.31
   4   0  -1  670.92   14.09
  -4   0   1  647.38   13.59
   4   0   0 4125.00   96.30
   4   0   0 4118.68   95.30
   4   0   0 4035.38   59.88
  -4   0   0 3986.14   57.94
  -4   0   0 3956.46   59.20
   4   0   1  308.26    7.72
   4   0   1  333.33    9.33
  -4   0  -1  305.97    7.52
  -4   0  -1  355.17    9.91
  -4   0  -1  349.44   10.04
   4   0   2    3.39    1.80
   4   0   2    2.06    1.36
   4   0   2   -0.66    1.92
  -4   0  -2    0.53    1.37
  -4   0  -2    1.65    2.62
  -4   0  -2    3.24    2.05
   4   0   3  239.17    5.59
   4   0   3  232.65    5.45
   4   0   3  231.40    7.55
   4   0   3  218.68    8.62
  -4   0  -3  240.18    7.96
  -4   0  -3  243.34    8.47
  -4   0  -3  234.21    8.13
   4   0   4 1113.23   17.54
   4   0   4 1085.84   16.83
  -4   0  -4 1110.30   21.39
  -4   0  -4 1126.77   22.67
  -4   0  -4 1020.55   20.91
   4   0   5  603.10   15.08
  -4   0  -5  601.81   18.12
  -4   0  -5  606.51   18.52
  -4   0  -5  602.49   18.46
   4   0   6  583.53   15.22
  -4   0  -6  568.47   14.71
  -4   0  -6  586.67   19.25
  -4   0  -6  589.98   18.70
   4   0   7   66.89    3.09
  -4   0  -7   64.74    3.09
  -4   0  -7   66.98    5.00
  -4   0  -7   63.38    5.48
   4   0   8    0.66    1.18
  -4   0  -8    1.31    1.38
  -4   0  -8    0.72    1.58
  -4   0  -8   -0.10    2.76
   4   0   9  383.07    8.77
  -4   0  -9  389.26    8.99
  -4   0  -9  360.98   20.40
  -4   0  -9  389.75   12.37
  -4   0 -10    5.42    2.66
  -4   0 -10    3.17    1.56
  -4   0 -10    2.55    3.03
  -4   0 -11  147.94    6.32
  -4   0 -11  167.84    9.42
  -4   0 -11  149.94    7.34
  -4   0 -12   -0.60    1.94
  -4   0 -12    2.00    3.27
  -4   0 -12    0.33    2.15
  -4   0 -13   99.18    6.23
  -4   0 -13   92.45    6.45
  -4   0 -14   89.40    6.16
   4   1 -12  111.48   10.50
   4   1 -11   45.32    7.72
   4   1 -10   13.99    5.39
   4   1  -9   12.92    5.69
   4   1  -8   59.55    7.09
   4   1  -7    1.88    3.31
   4   1  -6   54.96    6.27
   4   1  -5   63.02    7.05
   4   1  -4  275.19   10.66
   4   1  -3  767.09   16.88
   4   1  -2   50.98    4.39
   4   1  -1 4192.32   53.49
   4   1   0 1268.65   22.81
   4   1   0 1327.14   22.99
  -4  -1   0 1319.03   23.38
   4   1   1   55.53    3.56
   4   1   1   58.68    3.58
  -4  -1  -1   57.62    3.47
  -4  -1  -1   50.09    3.64
   4   1   2 1029.99   18.42
   4   1   2  982.87   17.39
   4   1   2 1039.39   18.96
  -4  -1  -2 1053.46   21.24
   4   1   3  275.53    7.56
   4   1   3  293.48    7.37
   4   1   3  251.05    7.47
   4   1   3  276.63    7.92
  -4  -1  -3  286.37    8.56
  -4  -1  -3  304.80    8.72
   4   1   4  527.53   10.64
   4   1   4  530.04   12.06
   4   1   4  525.80   12.14
  -4  -1  -4  555.51   12.94
  -4  -1  -4  562.20   12.89
   4   1   5  292.52    8.98
   4   1   5  290.18   10.11
  -4  -1  -5  274.18   10.02
  -4  -1  -5  277.78   10.81
  -4  -1  -5  279.33    8.85
   4   1   6   56.79    3.28
  -4  -1  -6   54.08    3.50
  -4  -1  -6   44.10    4.54
  -4  -1  -6   60.30    5.56
   4   1   7  100.20    4.40
  -4  -1  -7  108.26    4.75
  -4  -1  -7  101.97    6.20
  -4  -1  -7  104.81    6.36
   4   1   8  113.03    5.06
  -4  -1  -8  114.70    5.20
  -4  -1  -8  101.04    6.63
  -4  -1  -8  112.53    6.69
  -4  -1  -9   27.06    3.27
  -4  -1  -9   33.20   17.20
  -4  -1  -9   26.23    3.64
  -4  -1 -10  252.84   10.78
  -4  -1 -10  248.00   11.30
  -4  -1 -11   95.68    6.21
  -4  -1 -11   92.36    6.10
  -4  -1 -12   55.82    4.80
  -4  -1 -12   53.08    4.76
  -4  -1 -13  197.56    8.50
  -4  -1 -13  193.72    8.24
  -4  -1 -14   17.76    3.60
  -4  -1 -14   14.19    3.16
  -4  -1 -15   19.97    3.87
   4   2 -11    1.88    4.06
   4   2 -10  115.82    9.58
   4   2  -9    4.98    4.51
   4   2  -8   27.15    6.68
   4   2  -7  328.36   13.21
   4   2  -6  515.91   16.65
   4   2  -5  121.17    8.78
   4   2  -4    0.78    3.68
   4   2  -3   46.88    4.94
   4   2  -2   33.02    4.03
   4   2  -1 1967.85   30.23
   4   2   0  859.57   23.77
   4   2   0  876.54   22.53
   4   2   1    8.33    2.90
   4   2   1    9.32    2.37
   4   2   1    8.97    1.74
  -4  -2  -1   10.67    4.53
   4   2   2  155.62    6.38
   4   2   2  146.64    5.69
   4   2   2  144.42    5.12
  -4  -2  -2  154.71    5.40
   4   2   3   78.08    6.80
   4   2   3   71.13    3.87
   4   2   3   73.88    3.61
   4   2   3   72.32    4.00
  -4  -2  -3   74.68    4.18
  -4  -2  -3   74.52    3.85
   4   2   4 1201.03   30.32
   4   2   4 1272.14   31.70
  -4  -2  -4 1216.53   31.00
  -4  -2  -4 1193.97   30.12
  -4  -2  -4 1260.95   31.69
   4   2   5  616.38   17.20
   4   2   5  621.61   17.73
  -4  -2  -5  621.52   17.56
  -4  -2  -5  565.22   16.27
   4   2   6  457.39   13.75
  -4  -2  -6  459.97   14.05
  -4  -2  -6  485.01   14.92
   4   2   7  457.50   10.66
  -4  -2  -7  446.05   10.92
  -4  -2  -7  480.92   13.09
  -4  -2  -8  101.53    7.15
  -4  -2  -8   92.17    5.73
  -4  -2  -8  106.58    6.58
  -4  -2  -9  689.06   14.45
  -4  -2  -9  681.48   15.79
  -4  -2 -10  136.98    7.56
  -4  -2 -10  140.01   18.86
  -4  -2 -11  325.26   10.96
  -4  -2 -11  319.23   10.64
  -4  -2 -12    0.15    2.17
  -4  -2 -12   -0.02    1.91
  -4  -2 -13    0.54    2.29
  -4  -2 -13    1.42    2.08
  -4  -2 -14    6.87    3.29
  -4  -2 -15   31.56    4.82
  -4  -2 -16    7.22    3.67
   4   3 -10   15.27    6.39
   4   3  -9  133.31   11.11
   4   3  -8  178.66   11.87
   4   3  -7  250.97   13.43
   4   3  -6    7.41    3.83
   4   3  -5   88.08    7.47
   4   3  -4  110.67    7.85
   4   3  -3    5.33    4.37
   4   3  -2  235.99    9.89
   4   3  -1   76.94    5.81
   4   3   0   17.18    3.51
   4   3   0   14.68    1.72
   4   3   1  118.69    6.81
   4   3   1  111.42    4.40
  -4  -3  -1  109.39    4.43
   4   3   2  835.00   23.89
   4   3   2  801.60   20.55
  -4  -3  -2  803.61   20.14
   4   3   3   65.79    8.36
  -4  -3  -3   68.18    3.82
  -4  -3  -3   64.51    3.41
   4   3   4   29.75    3.24
  -4  -3  -4   31.71    3.98
  -4  -3  -4   30.29    2.79
   4   3   5  468.09    9.75
  -4  -3  -5  482.12   12.02
  -4  -3  -5  449.10    9.75
   4   3   6  128.06    5.40
  -4  -3  -6  130.41    6.78
  -4  -3  -6  134.53    7.02
  -4  -3  -7 1085.91   23.23
  -4  -3  -7 1121.16   23.33
  -4  -3  -8  248.24    9.39
  -4  -3  -9  426.30   13.27
  -4  -3 -10  160.02    8.12
  -4  -3 -10  160.21    7.42
  -4  -3 -11   58.77    5.21
  -4  -3 -11   64.98   10.09
  -4  -3 -12  116.01    7.07
  -4  -3 -12  105.19   16.52
  -4  -3 -13   -0.14    2.50
  -4  -3 -13    1.70    3.07
  -4  -3 -14   18.14    4.83
  -4  -3 -15   20.40    4.89
  -4  -3 -16   29.82    5.35
   4   4 -10    2.08    3.93
   4   4  -9   72.26    8.09
   4   4  -8    1.48    3.60
   4   4  -7    1.22    3.78
   4   4  -6  140.03    9.15
   4   4  -5  402.89   14.93
   4   4  -4    0.45    3.38
   4   4  -3  131.41    8.96
   4   4  -2  146.67    8.80
   4   4  -1   22.58    4.39
   4   4   0  248.54   10.95
   4   4   0  252.33    5.88
   4   4   1    0.55    2.41
   4   4   1    1.48    0.56
  -4  -4  -1    2.03    1.00
   4   4   2  444.89   12.94
   4   4   3  795.79   19.70
   4   4   4  167.88    4.95
  -4  -4  -4  172.20    8.20
  -4  -4  -4  161.50    4.50
   4   4   5  911.64   17.04
  -4  -4  -5  909.56   21.36
  -4  -4  -5  885.34   16.85
   4   4   6  152.28    5.52
  -4  -4  -6  164.53    8.14
  -4  -4  -6  164.66    6.35
   4   4   7   19.64    2.42
  -4  -4  -7   22.59    4.64
  -4  -4  -7   18.85    3.63
  -4  -4  -8  119.95    7.24
  -4  -4  -9   72.21    6.04
  -4  -4 -10  125.52    7.77
  -4  -4 -11    2.02    4.02
  -4  -4 -12    3.14    2.99
  -4  -4 -12    2.42    2.54
  -4  -4 -13    9.33    3.86
  -4  -4 -13    6.70    5.50
  -4  -4 -14  243.84   11.61
  -4  -4 -15   52.48    6.91
  -4  -4 -16   74.82    8.45
   4   5  -9   58.27    9.08
   4   5  -8    4.38    4.17
   4   5  -7   32.20    6.36
   4   5  -6   37.40    5.48
   4   5  -5   15.00    5.41
   4   5  -4  339.04   13.61
   4   5  -3    4.88    4.32
   4   5  -2   26.57    5.15
   4   5  -1   13.85    5.25
   4   5  -1   11.09    1.09
   4   5   0   83.76    7.76
   4   5   1   -0.73    4.07
   4   5   2  633.99   16.61
   4   5   3  709.48   18.21
  -4  -5  -4   56.46    6.00
   4   5   5    0.98    0.73
  -4  -5  -5    0.45    3.62
  -4  -5  -5   -0.46    0.58
   4   5   6    0.68    1.08
  -4  -5  -6    3.05    3.84
  -4  -5  -6    0.51    0.60
   4   5   7    1.93    1.27
  -4  -5  -7    1.58    3.67
  -4  -5  -7    2.26    1.62
  -4  -5  -8  388.26   13.37
  -4  -5  -9  236.22   10.50
  -4  -5 -10    6.02    4.04
  -4  -5 -11    5.14    4.73
  -4  -5 -12  125.41    9.01
  -4  -5 -13  257.19   14.76
  -4  -5 -13  253.31    9.85
  -4  -5 -14   90.63    8.00
  -4  -5 -15    8.75    4.58
   4   6  -8    2.60    1.91
   4   6  -7    2.42    3.92
   4   6  -6  101.75    9.34
   4   6  -5    0.05    3.93
   4   6  -4   10.07    5.18
   4   6  -3  100.88    8.79
   4   6  -2   14.35    5.23
   4   6  -1  211.45   10.58
   4   6   0  109.25    8.27
   4   6   1   23.50   12.32
   4   6   2   87.37   21.69
   4   6   3  106.06    7.75
  -4  -6  -4   20.63    4.26
  -4  -6  -5    1.01    3.62
  -4  -6  -6    4.54    4.23
  -4  -6  -6    4.25    1.99
  -4  -6  -7  143.49    8.76
  -4  -6  -7  143.92    5.08
  -4  -6  -8  785.40   19.31
  -4  -6  -9   -0.49    3.19
  -4  -6 -10  206.20   10.89
  -4  -6 -11  116.25    8.75
  -4  -6 -12   88.70    7.86
  -4  -6 -13    2.73    3.42
  -4  -6 -14    6.08    4.43
  -4  -6 -15  205.15   11.93
   4   7  -6   12.52    4.35
   4   7  -5    3.76    3.97
   4   7  -4   82.86    8.50
   4   7  -3  102.35    8.96
   4   7  -2  209.79   11.72
   4   7  -1   36.83    6.54
   4   7   0   59.22    7.48
   4   7   1   75.60    7.90
   4   7   2   73.56   18.34
   4   7   3    7.15    4.99
   4   7   4   26.44   14.77
  -4  -7  -5   16.36    4.92
  -4  -7  -6   79.49    7.32
  -4  -7  -7  499.34   16.16
  -4  -7  -8   43.57    6.65
  -4  -7  -9  181.41   10.74
  -4  -7 -10   -3.09    3.75
  -4  -7 -11   21.75    5.75
  -4  -7 -12   76.49    8.36
  -4  -7 -13    9.59    5.09
  -4  -7 -14  157.05   11.35
   4   8  -4    6.72    5.37
   4   8  -2  167.89   11.24
   4   8  -1  197.36   11.58
   4   8   0   -0.09    3.80
   4   8   1   -1.97    3.99
   4   8   2   35.04   10.71
   4   8   3   18.94    8.49
   4   8   4  223.14   12.32
  -4  -8  -5   20.39    6.31
  -4  -8  -6    3.57    3.99
  -4  -8  -7    5.31    4.93
  -4  -8  -8    4.40    3.89
  -4  -8  -9    0.68    3.70
  -4  -8 -10    5.82    5.24
  -4  -8 -11   -2.51    4.15
  -4  -8 -12    4.18    4.12
   4   9  -2    3.34    4.31
   4   9  -1   13.56    5.85
   4   9   0   42.86    7.08
   4   9   1   13.37    5.32
   4   9   2   44.30   19.53
   4   9   3  169.88   38.78
   4   9   4   14.56   10.58
   4   9   5   52.71    8.39
  -4  -9  -6    0.35    4.09
  -4  -9  -7   23.76    6.82
  -4  -9  -8    3.71    4.04
  -4  -9  -9   47.92    6.98
  -4  -9 -10   49.93    7.22
  -5   8   5   -0.35    2.79
  -5   8   4    0.36    2.68
  -5   8   4    1.56    2.02
  -5   8   3   25.10    5.02
  -5   8   3   24.58   12.13
  -5   8   2    5.36    5.08
  -5   8   2    1.53    2.09
  -5   8   1   14.58    5.06
  -5   8   1   11.66    5.14
  -5   8   0   12.31    5.03
  -5   8   0   11.97    4.93
  -5   8  -1   77.07    8.03
  -5   8  -1   79.54    8.39
  -5   8  -2   -1.15    4.12
  -5   8  -2    0.90    3.20
  -5   8  -3    3.33    3.77
  -5   8  -4  141.15   10.51
  -5   8  -4  125.05    9.15
  -5   8  -5   17.07    4.86
   5  -7  -8   28.11    6.09
   5  -7  -7    2.78    2.60
   5  -7  -6    8.44    3.57
   5  -7  -5  117.26    7.83
   5  -7  -4   24.08    4.71
  -5   7   4   25.59    4.58
  -5   7   4   15.63   10.20
   5  -7  -3   19.91    3.68
  -5   7   3   19.57    4.18
  -5   7   3   19.61   11.59
  -5   7   2    2.74    3.23
  -5   7   2   -3.40    3.38
  -5   7   1  273.39   12.70
  -5   7   1  273.76   16.92
  -5   7   0  100.63    8.39
  -5   7   0  101.63    8.70
  -5   7  -1   13.83    5.12
  -5   7  -1   15.09   10.45
  -5   7  -2   27.40    6.05
  -5   7  -2   26.00    5.77
  -5   7  -3   52.34    8.00
  -5   7  -3   46.97    6.69
  -5   7  -4   37.61    6.69
  -5   7  -4   33.87    5.79
  -5   7  -5  145.46   10.63
  -5   7  -5  153.12   10.26
  -5   7  -6    6.21    4.38
  -5   7  -6    5.91    4.41
  -5   7  -7   24.24    6.02
  -5   7  -7   25.41    5.70
  -5   7  -8   24.26    5.90
   5  -6  -9    4.23    4.30
   5  -6  -8    2.66    3.42
   5  -6  -7   49.38    6.08
   5  -6  -6   35.52    5.12
   5  -6  -5   -1.80    2.43
  -5   6   5    1.38    2.21
   5  -6  -4  146.67    8.20
  -5   6   4  163.41    8.51
   5  -6  -3  236.99    9.53
  -5   6   3  255.96   10.46
  -5   6   3  263.04   12.46
   5  -6  -2  128.07    7.20
  -5   6   2  122.00    7.84
  -5   6   2  142.64    9.01
   5  -6  -1   41.82    3.95
  -5   6   1   39.10    5.41
  -5   6   1   45.29   11.96
  -5   6   0  160.79    9.90
  -5   6   0  148.38    9.31
  -5   6  -1   11.06    4.83
  -5   6  -1   10.64    5.05
  -5   6  -2  185.47   10.22
  -5   6  -2  201.62   10.70
  -5   6  -3  316.29   14.02
  -5   6  -3  315.37   12.93
  -5   6  -4  108.90    8.94
  -5   6  -4  107.67    8.10
  -5   6  -5   91.09    8.98
  -5   6  -5   95.88    7.62
  -5   6  -5  105.33    8.91
  -5   6  -6   30.21    5.46
  -5   6  -6   27.89    5.29
  -5   6  -6   37.84    6.35
  -5   6  -7    1.33    3.76
  -5   6  -7   -0.32    2.78
  -5   6  -8   32.89    6.95
  -5   6  -8   26.48    5.23
  -5   6  -9   50.54    7.34
  -5   6  -9   54.46    6.83
  -5   6 -10    3.02    4.22
  -5   6 -10    7.52    4.81
   5  -5 -10    0.35    3.19
   5  -5  -9   37.94    6.20
   5  -5  -8  160.73    9.69
   5  -5  -7   88.05    7.38
   5  -5  -6   14.21    3.89
   5  -5  -5   67.11    6.00
  -5   5   5   63.30    4.62
   5  -5  -4   45.42    5.16
  -5   5   4   45.60    4.75
   5  -5  -3   31.36    3.60
  -5   5   3   33.92    4.19
   5  -5  -2   58.18    4.48
  -5   5   2   62.75    5.32
  -5   5   2   61.79    7.16
   5  -5  -1    8.94    2.48
  -5   5   1    8.11    3.95
  -5   5   1   10.42    4.46
   5  -5   0 1319.16   15.71
  -5   5   0 1313.96   23.60
  -5   5   0 1340.07   25.32
   5  -5   1  298.44    6.83
  -5   5  -1  287.83   11.35
  -5   5  -1  285.04   18.09
  -5   5  -2  100.80    7.97
  -5   5  -2   95.61    7.62
  -5   5  -3  174.94    9.70
  -5   5  -3  185.44   10.16
  -5   5  -4    8.21    4.61
  -5   5  -4   15.04    5.22
  -5   5  -4   18.00    5.74
  -5   5  -5   -1.11    3.72
  -5   5  -5    0.70    3.28
  -5   5  -5   -2.52    3.88
  -5   5  -6   15.17    5.87
  -5   5  -6   13.74    4.73
  -5   5  -6   10.27    5.09
  -5   5  -7    4.64    3.40
  -5   5  -7    6.81    4.53
  -5   5  -8  169.32   11.18
  -5   5  -8  198.37   11.61
  -5   5  -9    9.41    4.93
  -5   5  -9    9.73    4.07
  -5   5 -10   98.03    9.27
  -5   5 -10   81.09   16.05
  -5   5 -11  113.06    9.27
  -5   5 -11  122.59    9.72
   5  -4 -11    1.73    3.35
   5  -4 -10    3.65    4.77
   5  -4  -9   67.78    7.24
   5  -4  -8  319.34   14.18
   5  -4  -7   24.44    6.51
   5  -4  -6  111.75    7.75
   5  -4  -5   12.54    3.93
  -5   4   5    9.81    2.44
   5  -4  -4  109.97    6.60
  -5   4   4  108.62    8.20
   5  -4  -3  121.05    6.44
  -5   4   3  122.80    6.67
   5  -4  -2    1.62    2.39
  -5   4   2    3.52    3.18
   5  -4  -1   96.09    5.70
  -5   4   1   94.40    5.30
  -5   4   1   95.67    6.67
  -5   4   1   99.15    7.89
   5  -4   0    5.34    2.15
  -5   4   0    4.43    1.48
  -5   4   0    1.91    3.43
  -5   4   0    3.70    3.74
   5  -4   1  125.60    5.41
  -5   4  -1  117.17    8.32
  -5   4  -1  118.34   11.74
   5  -4   2  168.30    5.76
  -5   4  -2  167.61    5.67
  -5   4  -2  165.61   10.06
  -5   4  -2  173.09    9.95
  -5   4  -3  158.57    9.98
  -5   4  -3  168.72    9.97
  -5   4  -4  119.41    7.97
  -5   4  -4  127.21    8.41
  -5   4  -4  128.24    8.15
  -5   4  -5  747.93   19.60
  -5   4  -5  793.73   19.90
  -5   4  -5  762.27   19.17
  -5   4  -6  585.80   17.57
  -5   4  -6  542.76   15.88
  -5   4  -6  654.08   17.68
  -5   4  -7    9.06    5.04
  -5   4  -7    4.13    3.34
  -5   4  -8  490.08   16.72
  -5   4  -8  485.68   16.17
  -5   4  -9   29.34    6.17
  -5   4  -9   41.38    6.39
  -5   4 -10   55.04    6.77
  -5   4 -10   63.89    8.20
  -5   4 -11   26.96    5.60
  -5   4 -11   23.36    6.36
  -5   4 -12    0.86    3.57
  -5   4 -12    4.92    5.33
  -5   4 -13    1.20    3.00
   5  -3 -11   44.69    8.04
   5  -3 -10    9.82    5.15
   5  -3  -9    8.07    4.91
   5  -3  -8    0.44    2.99
   5  -3  -7  127.59    8.21
   5  -3  -6  349.00   12.67
   5  -3  -5   17.50    4.67
   5  -3  -4   39.56    4.68
   5  -3  -3   13.86    3.50
  -5   3   3   10.41    2.80
  -5   3   3   12.03    2.91
   5  -3  -2  100.58    5.22
  -5   3   2  107.97   12.16
  -5   3   2  102.37    6.11
   5  -3  -1   51.95    3.71
  -5   3   1   50.37    3.21
  -5   3   1   52.50    4.61
  -5   3   1   53.52    4.93
   5  -3   0   25.96    2.61
  -5   3   0   27.13    2.42
  -5   3   0   24.50    4.29
  -5   3   0   28.32    4.08
  -5   3   0   24.19   12.11
   5  -3   1   28.87    2.25
  -5   3  -1   28.11    2.04
  -5   3  -1   31.91    5.11
  -5   3  -1   31.69    5.02
  -5   3  -1   40.19    6.95
   5  -3   2   12.29    1.16
  -5   3  -2   13.18    1.15
  -5   3  -2   13.37    4.73
  -5   3  -2   14.23    4.41
  -5   3  -2   15.35    7.03
  -5   3  -3  476.99   13.79
  -5   3  -3  506.21   15.06
  -5   3  -3  510.20   14.79
  -5   3  -3  515.58   16.89
  -5   3  -4 1606.07   25.20
  -5   3  -4 1617.73   24.98
  -5   3  -4 1597.49   24.80
  -5   3  -4 1559.31   26.84
  -5   3  -5   16.54    4.68
  -5   3  -5   22.61    5.10
  -5   3  -5   24.12    5.53
  -5   3  -5   19.35    5.58
  -5   3  -6   44.08    6.09
  -5   3  -6   55.73    6.97
  -5   3  -6   47.81    5.88
  -5   3  -6   42.68    5.89
  -5   3  -7   33.96    5.29
  -5   3  -7   27.33    5.12
  -5   3  -7   30.73    4.53
  -5   3  -8   37.42    5.96
  -5   3  -8   40.25    5.86
  -5   3  -8   35.26    5.65
  -5   3  -9  185.82   10.32
  -5   3  -9  174.79   10.33
  -5   3 -10   73.94    7.11
  -5   3 -10   75.08    7.87
  -5   3 -11   16.14    5.44
  -5   3 -11   11.79    4.30
  -5   3 -12    4.57    2.81
  -5   3 -12    6.25    5.03
  -5   3 -13   65.65    7.07
  -5   3 -13   61.16   18.57
  -5   3 -14   21.54   10.91
   5  -2 -11    2.43    3.69
   5  -2 -10    2.20    3.44
   5  -2  -9   36.06    7.23
   5  -2  -8  502.69   17.43
   5  -2  -7   32.24   14.10
   5  -2  -6  215.49    9.78
  -5   2   6  212.14    5.77
   5  -2  -5   26.78    5.53
  -5   2   5   24.03    2.84
   5  -2  -4  154.14    8.66
   5  -2  -4  139.56    6.37
  -5   2   4  146.94    7.36
   5  -2  -3   66.27    5.27
  -5   2   3   62.09    4.37
   5  -2  -2   55.46    4.26
  -5   2   2   53.21    4.65
   5  -2  -1  137.50    5.87
  -5   2   1  139.48    5.57
  -5   2   1  139.13    7.04
   5  -2   0   75.79    3.94
  -5   2   0   79.21    3.61
  -5   2   0   77.25    5.29
  -5   2   0   85.24    5.76
  -5   2   0   83.97    6.63
   5  -2   1  617.62   12.42
  -5   2  -1  632.57   12.62
  -5   2  -1  624.53   16.64
  -5   2  -1  626.25   16.55
  -5   2  -1  625.58   17.57
   5  -2   2  372.27    7.38
  -5   2  -2  410.30    8.13
  -5   2  -2  369.15   12.43
  -5   2  -2  380.35   12.46
  -5   2  -2  414.26   13.59
  -5   2  -3 1119.96   25.15
  -5   2  -3 1108.66   25.40
  -5   2  -3 1127.31   25.58
  -5   2  -3 1070.11   24.40
  -5   2  -4   56.13    5.97
  -5   2  -4   56.17    5.52
  -5   2  -4   52.70    5.88
  -5   2  -4   61.22    6.00
  -5   2  -5  125.77    7.94
  -5   2  -5  127.52    8.32
  -5   2  -5  127.08    7.93
  -5   2  -5  123.75    8.18
  -5   2  -6  351.06   12.59
  -5   2  -6  363.41   12.63
  -5   2  -6  372.91   13.04
  -5   2  -6  315.19   11.62
  -5   2  -7  394.74   16.77
  -5   2  -7  378.05   16.32
  -5   2  -7  367.46   15.94
  -5   2  -8    4.95    4.58
  -5   2  -8    1.55    3.40
  -5   2  -8    2.58    3.24
  -5   2  -9   40.92    6.20
  -5   2  -9   37.16    5.08
  -5   2  -9   40.91    5.86
  -5   2 -10   22.88    4.04
  -5   2 -10   27.37    6.18
  -5   2 -10   25.57    4.81
  -5   2 -11  134.79   15.81
  -5   2 -11  146.01   16.66
  -5   2 -11  154.77   12.24
  -5   2 -12    2.87    3.17
  -5   2 -12   -0.18    3.92
  -5   2 -13   37.25    5.54
  -5   2 -13   28.61   18.27
  -5   2 -14   45.19   26.50
   5  -1 -11   84.91    8.43
   5  -1 -10   19.30    4.89
   5  -1  -9   15.24    5.66
   5  -1  -8    3.45    3.66
   5  -1  -7  233.62   11.39
   5  -1  -6    7.00    3.11
  -5   1   6    4.72    1.44
   5  -1  -5  144.17    8.03
  -5   1   5  139.24    5.32
   5  -1  -4    2.70    3.91
   5  -1  -4    2.68    1.82
  -5   1   4    1.25    1.72
   5  -1  -3  549.21   13.60
  -5   1   3  532.63   11.47
   5  -1  -2    7.87    2.90
  -5   1   2    9.00    2.73
   5  -1  -1   26.26    3.20
  -5   1   1   24.15    2.50
  -5   1   1   25.36    9.27
   5  -1   0  312.19    8.22
  -5   1   0  292.89    7.58
  -5   1   0  311.20    9.82
  -5   1   0  302.65   10.47
   5  -1   1  140.36    4.89
  -5   1  -1  156.10    5.13
  -5   1  -1  130.38    6.27
  -5   1  -1  149.64    7.69
   5  -1   2  190.83    5.05
  -5   1  -2  186.56    5.29
  -5   1  -2  193.42    8.69
  -5   1  -2  186.33    9.13
   5  -1   3  127.18    3.17
   5  -1   3  121.49    3.48
  -5   1  -3  125.22    7.25
  -5   1  -3  112.14    6.67
  -5   1  -3  122.91    6.94
  -5   1  -3  123.56    6.88
  -5   1  -4   31.03    4.15
  -5   1  -4   41.60    4.82
  -5   1  -4   35.10    4.82
  -5   1  -4   34.63    4.57
  -5   1  -5  451.88   14.30
  -5   1  -5  424.34   14.04
  -5   1  -5  458.02   14.43
  -5   1  -5  466.00   14.73
  -5   1  -6    1.83    1.75
  -5   1  -6   -1.60    3.55
  -5   1  -6   -0.60    3.43
  -5   1  -6    2.33    3.57
  -5   1  -7  191.73    9.32
  -5   1  -7  164.41    8.80
  -5   1  -7  191.68    9.14
   5  -1   8  224.70    7.10
  -5   1  -8  238.93    7.49
  -5   1  -8  230.84   11.86
  -5   1  -8  233.23   12.13
  -5   1  -8  224.85   11.91
  -5   1  -9  654.18   17.49
  -5   1  -9  625.41   18.29
  -5   1  -9  652.95   17.40
  -5   1 -10  155.32    8.64
  -5   1 -10  146.98   13.32
  -5   1 -10  155.49    8.65
  -5   1 -11  102.45   17.99
  -5   1 -11   92.35    7.10
  -5   1 -12   19.83   12.38
  -5   1 -12   27.24    4.83
  -5   1 -13  139.86    9.94
  -5   1 -13  155.87    9.02
  -5   1 -14   19.33   10.28
   5   0 -11    4.98    4.26
   5   0 -10   33.67    7.12
   5   0  -9    0.26    4.18
   5   0  -8   34.18    6.31
   5   0  -7  147.50    9.52
   5   0  -6    2.18    3.53
  -5   0   6    0.54    0.72
   5   0  -5  795.04   27.99
  -5   0   5  754.53   24.53
   5   0  -4  194.83    8.92
   5   0  -4  197.22    6.58
  -5   0   4  211.50    7.28
   5   0  -3   14.05    4.16
   5   0  -3   10.23    2.11
  -5   0   3   11.65    6.18
   5   0  -2   24.62    3.62
  -5   0   2   21.26   12.33
   5   0  -1   80.06    5.14
  -5   0   1   81.25    8.27
   5   0   0  193.79    7.01
  -5   0   0  181.75    6.40
  -5   0   0  202.51    7.94
   5   0   1    2.16    1.76
  -5   0  -1    3.24    1.41
  -5   0  -1   -0.19    2.28
  -5   0  -1    1.78    1.58
   5   0   2   37.51    3.04
   5   0   2   38.26    2.76
  -5   0  -2   40.82    6.10
  -5   0  -2   39.71    4.64
   5   0   3    7.59    1.90
   5   0   3    5.96    1.34
  -5   0  -3    5.28    2.53
  -5   0  -3    9.21    5.45
  -5   0  -3    8.80    3.68
   5   0   4    0.90    1.04
   5   0   4    1.37    0.87
  -5   0  -4    0.64    2.43
  -5   0  -4    0.74    2.12
  -5   0  -4   -1.77    2.91
   5   0   5  143.44    4.07
   5   0   5  138.28    3.83
  -5   0  -5  152.42    7.82
  -5   0  -5  149.03    7.91
  -5   0  -5  137.30    7.59
   5   0   6  190.16    5.43
   5   0   6  193.26    5.01
  -5   0  -6  193.09    8.86
  -5   0  -6  197.63   10.14
  -5   0  -6  190.42    8.98
   5   0   7   11.03    1.42
  -5   0  -7   11.91    1.48
  -5   0  -7   10.22    3.10
  -5   0  -7   12.92    4.45
   5   0   8  585.05    9.35
  -5   0  -8  576.43    9.47
  -5   0  -8  557.88   16.83
  -5   0  -8  601.28   16.21
  -5   0  -9   48.50    3.07
  -5   0  -9   47.27    7.05
  -5   0  -9   47.54    5.80
  -5   0 -10  167.69    5.67
  -5   0 -10  156.64    9.81
  -5   0 -10  175.51    9.54
  -5   0 -11   62.93    4.10
  -5   0 -11   72.28   27.70
  -5   0 -11   65.74    6.71
  -5   0 -12  183.41   10.39
  -5   0 -12  155.99    8.83
  -5   0 -13    4.76    3.30
  -5   0 -13    6.04    3.26
  -5   0 -14   94.89    9.59
  -5   0 -14   62.08    5.87
  -5   0 -15  233.77   16.46
   5   1 -10    0.56    4.36
   5   1  -9   44.53    7.23
   5   1  -8   40.97    6.69
   5   1  -7   -1.82    3.76
   5   1  -6  278.53   12.49
   5   1  -5  131.67    8.10
   5   1  -4  159.78   10.33
   5   1  -3   -2.92    3.54
   5   1  -2  375.68   12.52
   5   1  -1  538.39   13.42
   5   1   0 1330.42   22.56
   5   1   1  166.17    6.57
  -5  -1  -1  170.97    6.24
  -5  -1  -1  178.16    6.97
   5   1   2  573.48   16.40
   5   1   2  593.55   16.69
  -5  -1  -2  551.70   16.79
   5   1   3   60.05    3.88
   5   1   3   61.11    3.57
  -5  -1  -3   60.84    4.53
  -5  -1  -3   65.25    4.51
   5   1   4    0.13    1.41
   5   1   4   -0.84    1.31
  -5  -1  -4   -0.33    1.95
  -5  -1  -4   -0.64    2.39
   5   1   5  339.64   10.60
   5   1   5  368.59    8.21
  -5  -1  -5  362.87   10.88
  -5  -1  -5  379.54   12.44
  -5  -1  -5  371.08   11.08
   5   1   6   56.35    3.12
  -5  -1  -6   59.53    3.49
  -5  -1  -6   57.47    4.95
  -5  -1  -6   61.30    5.64
   5   1   7   10.80    1.86
  -5  -1  -7    9.13    2.64
  -5  -1  -7    9.65    2.93
  -5  -1  -7    9.07    5.57
   5   1   8  277.32    7.25
  -5  -1  -8  279.03    7.56
  -5  -1  -8  311.03   11.50
  -5  -1  -8  284.44   11.02
   5   1   9   39.29    3.03
  -5  -1  -9   41.62    3.47
  -5  -1  -9   37.93    4.56
  -5  -1  -9   41.90    5.22
  -5  -1 -10  196.17    7.67
  -5  -1 -10  194.73   18.92
  -5  -1 -10  193.33    9.36
  -5  -1 -11   28.03    3.26
  -5  -1 -11   29.67   12.62
  -5  -1 -11   29.72    4.38
  -5  -1 -12   22.91    3.20
  -5  -1 -12   24.37   15.18
  -5  -1 -12   23.97    4.16
  -5  -1 -13   -0.20    2.07
  -5  -1 -13   -0.02    3.48
  -5  -1 -13    0.14    2.28
  -5  -1 -14   13.10   12.05
  -5  -1 -14   21.87    4.46
  -5  -1 -15    7.01    4.22
   5   2 -10   25.36    6.65
   5   2  -9  133.79   10.27
   5   2  -8   -1.89    3.41
   5   2  -7   27.25    6.72
   5   2  -6    0.34    3.65
   5   2  -5   24.40    5.05
   5   2  -4    5.57    3.00
   5   2  -3    1.25    3.60
   5   2  -2  106.51    7.30
   5   2  -1   17.30    3.33
   5   2   0  141.13    7.19
   5   2   0  166.43    6.40
   5   2   1   23.36    3.35
   5   2   1   24.77    2.55
  -5  -2  -1   22.04   10.35
   5   2   2    3.53    1.83
   5   2   2    4.69    1.65
  -5  -2  -2    6.62    2.24
   5   2   3   41.95    3.78
   5   2   3   34.21    2.99
   5   2   3   34.96    2.94
  -5  -2  -3   39.45    4.14
   5   2   4  915.42   19.26
   5   2   4  925.57   16.27
   5   2   4  944.74   17.56
  -5  -2  -4  888.11   16.56
  -5  -2  -4  907.67   16.75
   5   2   5   61.75    4.15
   5   2   5   53.71    3.66
  -5  -2  -5   57.36    4.22
  -5  -2  -5   54.92    4.24
   5   2   6   59.31    3.86
  -5  -2  -6   62.96    3.92
  -5  -2  -6   61.15    4.52
   5   2   7    7.47    1.94
  -5  -2  -7    9.31    4.29
  -5  -2  -7    7.33    2.95
  -5  -2  -8   19.21    3.57
  -5  -2  -8   15.63    8.84
  -5  -2  -8   16.85    7.79
  -5  -2  -9  111.29    6.58
  -5  -2  -9  112.35    7.52
  -5  -2  -9  118.93    8.37
  -5  -2 -10   92.29    5.82
  -5  -2 -10   94.94    6.75
  -5  -2 -10   91.78   12.18
  -5  -2 -11   22.97    4.37
  -5  -2 -11   18.92    9.45
  -5  -2 -11   20.24    7.46
  -5  -2 -12   63.56    5.18
  -5  -2 -12   63.50    6.60
  -5  -2 -12   62.64    5.99
  -5  -2 -13   10.15    3.06
  -5  -2 -13    6.73    2.71
  -5  -2 -13    6.60    3.12
  -5  -2 -14   32.67    4.73
  -5  -2 -14   24.58   14.01
  -5  -2 -14   36.29    4.79
  -5  -2 -15  129.96   10.20
  -5  -2 -16    1.50    2.95
   5   3  -9   12.94    5.91
   5   3  -8   15.65    5.70
   5   3  -7    1.35    3.46
   5   3  -6   27.59    6.01
   5   3  -5   23.20    6.92
   5   3  -4   51.70    5.63
   5   3  -3  183.78   11.11
   5   3  -2  118.38    8.24
   5   3  -1    9.80    3.21
   5   3   0   68.75    6.26
   5   3   0   66.96    3.94
  -5  -3   0   68.81    3.80
   5   3   1   46.42    5.08
   5   3   1   48.25    3.08
  -5  -3  -1   49.10    3.86
   5   3   2   12.09    4.09
   5   3   2   12.10    1.67
  -5  -3  -2   12.33    1.99
   5   3   3   16.06    4.73
   5   3   3   12.51    2.10
  -5  -3  -3   13.13    2.14
   5   3   4  358.21   11.20
  -5  -3  -4  358.20    9.74
  -5  -3  -4  374.95   10.08
   5   3   5  605.76   14.52
  -5  -3  -5  611.48   14.27
  -5  -3  -6   68.12    4.84
  -5  -3  -6   65.08    4.36
  -5  -3  -7    1.03    1.87
  -5  -3  -7    0.51    2.22
  -5  -3  -8  143.07    7.65
  -5  -3  -8  151.97    8.24
  -5  -3  -9  305.94   10.16
  -5  -3  -9  306.33   10.72
  -5  -3 -10   19.91    3.52
  -5  -3 -10   18.52    9.68
  -5  -3 -10   23.03    4.44
  -5  -3 -11  183.03    8.09
  -5  -3 -11  179.97    9.29
  -5  -3 -11  183.66   20.29
  -5  -3 -12    8.61    3.15
  -5  -3 -12    9.34    5.67
  -5  -3 -12   11.23    4.86
  -5  -3 -13   82.39   13.46
  -5  -3 -13   73.35    5.82
  -5  -3 -14   99.89    7.11
  -5  -3 -14  103.58    6.88
  -5  -3 -15   17.55    4.67
   5   4  -9   53.37   10.62
   5   4  -8   81.70    9.82
   5   4  -7   41.45    6.92
   5   4  -6    5.89    3.79
   5   4  -5   40.44    6.62
   5   4  -4  398.70   15.08
   5   4  -3  134.56    8.36
   5   4  -2  196.69    9.95
   5   4  -1    0.68    3.29
   5   4  -1    0.37    0.86
   5   4   0   72.38    6.44
   5   4   0   73.96    3.47
  -5  -4   0   74.80    4.75
   5   4   1   12.77    4.59
   5   4   1   12.04    3.23
  -5  -4  -1   13.81    5.18
   5   4   3   80.32    6.70
   5   4   4    5.49    3.87
   5   4   5    0.34    0.53
  -5  -4  -5    1.52    3.20
  -5  -4  -5    1.74    1.81
   5   4   6  106.60    5.79
  -5  -4  -6  110.54    6.53
  -5  -4  -6  109.38    5.18
  -5  -4  -7  287.30   12.80
  -5  -4  -7  289.21   11.30
  -5  -4  -8  106.76    6.66
  -5  -4  -8  108.31    6.74
  -5  -4  -9   16.08    3.73
  -5  -4  -9   13.10    6.42
  -5  -4 -10    2.65    2.85
  -5  -4 -10    3.00    2.02
  -5  -4 -11  175.21    9.12
  -5  -4 -11  187.34    9.11
  -5  -4 -12  149.66    8.59
  -5  -4 -12  142.14   18.94
  -5  -4 -13   11.42    4.41
  -5  -4 -13    7.36    4.39
  -5  -4 -14   44.76    5.81
  -5  -4 -14   32.46   12.65
  -5  -4 -15   -0.99    2.95
   5   5  -8   39.81    8.46
   5   5  -7   49.47    8.29
   5   5  -6   33.45    6.80
   5   5  -5  178.96   12.24
   5   5  -4  162.03   10.53
   5   5  -3    2.52    4.16
   5   5  -2   21.09    5.40
   5   5  -1  128.88    8.27
   5   5   0   -0.32    3.26
  -5  -5   0    0.15    0.40
   5   5   1   33.96    5.38
   5   5   2    7.14    3.14
   5   5   3  435.99   18.16
   5   5   4   42.84    8.93
  -5  -5  -6  245.10   10.53
  -5  -5  -6  247.85    6.54
  -5  -5  -7  210.12    9.79
  -5  -5  -7  201.61    6.43
  -5  -5  -8   70.93   12.00
  -5  -5  -8   71.00    4.56
  -5  -5  -9   11.53    4.24
  -5  -5  -9    9.87    5.81
  -5  -5 -10  277.55   12.68
  -5  -5 -10  275.43    9.99
  -5  -5 -11   11.27    5.14
  -5  -5 -11   10.19    6.59
  -5  -5 -12    3.17    4.42
  -5  -5 -13    0.08    3.09
  -5  -5 -13    0.07    1.85
  -5  -5 -14    7.77    4.50
  -5  -5 -14    3.84    2.08
  -5  -5 -15    2.57    3.41
   5   6  -6    7.95    5.33
   5   6  -5    8.70    5.37
   5   6  -4    2.64    4.21
   5   6  -3   24.21    6.39
   5   6  -2   24.94    6.35
   5   6  -1    4.76    4.13
   5   6   0  234.46   11.73
   5   6   1   93.85    8.11
   5   6   2  144.46    8.93
   5   6   3   59.46   12.67
   5   6   4    5.73    3.76
   5   6   5  181.92   15.24
  -5  -6  -6   25.07    5.52
  -5  -6  -7  580.74   16.95
  -5  -6  -8   25.02    4.32
  -5  -6  -9    2.67    3.02
  -5  -6  -9    3.12    2.28
  -5  -6 -10   40.91    5.67
  -5  -6 -10   38.26    3.81
  -5  -6 -11  127.17    9.85
  -5  -6 -11  114.38    7.44
  -5  -6 -12  104.23    9.15
  -5  -6 -14   12.46    5.11
   5   7  -5    3.58    3.72
   5   7  -4    0.32    3.70
   5   7  -3    7.70    5.23
   5   7  -2   69.90    8.94
   5   7  -1  952.18   24.84
   5   7   0   42.94    6.86
   5   7   1   53.55    6.89
   5   7   2   54.04    7.11
   5   7   3   80.87    7.77
   5   7   4   98.08    8.44
   5   7   5    1.40    2.67
  -5  -7  -6  159.73    9.85
  -5  -7  -7   64.28    6.72
  -5  -7  -8   57.86    6.58
  -5  -7  -9   11.03    3.79
  -5  -7 -10   97.81    8.47
  -5  -7 -11   10.48    3.85
  -5  -7 -12  149.70   31.52
  -5  -7 -13   68.72    7.66
   5   8  -3    3.29    5.10
   5   8  -2  321.72   16.24
   5   8  -1   27.87    5.59
   5   8   0    3.79    4.24
   5   8   1  191.50   12.03
   5   8   2  220.50   13.19
   5   8   3   15.73    7.80
   5   8   4   21.53    9.33
   5   8   5   12.10    6.04
   5   8   6    5.71    5.45
  -5  -8  -7   42.72    7.32
  -5  -8  -8    0.09    4.15
  -5  -8  -9    8.84    4.33
  -5  -8 -10   60.42    7.86
  -5  -8 -11   64.19    7.86
  -5  -8 -12  115.00   10.09
   5   9   1   29.01    7.33
   5   9   3   11.71    7.68
   5   9   4  118.68   10.39
   5   9   5    1.79    1.75
   5   9   6   92.80    9.47
   5   9   7    5.14    3.93
  -5  -9  -8   43.14    7.10
  -6   8   2   40.85    6.30
  -6   8   2   32.85   11.23
  -6   8   1    7.17    4.02
  -6   8   1   12.91    5.46
  -6   8   0   28.74    6.51
  -6   8   0   29.47    6.07
  -6   8  -1    0.16    3.43
  -6   8  -1   -0.86    2.78
  -6   8  -2    5.61    5.32
  -6   8  -2    3.05    3.06
  -6   7   5   80.28    9.32
  -6   7   4    1.30    2.19
  -6   7   3   12.77    4.14
  -6   7   3    8.67    5.63
  -6   7   2   51.61    6.27
  -6   7   2   58.62   16.62
  -6   7   1   18.80    5.35
  -6   7   1   19.73   10.43
  -6   7   0    8.57    4.34
  -6   7   0    7.29    4.90
  -6   7  -1   -0.93    3.62
  -6   7  -1    0.08    2.50
  -6   7  -2    9.18    5.51
  -6   7  -2    4.54    4.62
  -6   7  -3   82.01    8.62
  -6   7  -3   86.10    8.10
  -6   7  -4    2.32    4.09
  -6   7  -4   -2.65    3.22
  -6   7  -5   48.58    7.33
  -6   7  -5   64.15    7.64
  -6   7  -6    7.02    6.25
  -6   7  -6    4.92    4.65
   6  -6  -7   26.98    5.87
   6  -6  -6   15.38    4.06
   6  -6  -5   17.38    4.15
   6  -6  -4   55.97    5.41
  -6   6   4   59.81    5.26
  -6   6   3   15.18    4.24
  -6   6   3   10.16    6.72
  -6   6   2   27.34    4.64
  -6   6   2   25.28   13.24
  -6   6   1   12.44    4.37
  -6   6   1   16.61    9.95
  -6   6   0   20.69    5.67
  -6   6  -1  300.24   13.14
  -6   6  -1  266.52   13.04
  -6   6  -2    7.52    4.57
  -6   6  -2   10.64    5.14
  -6   6  -3   33.65    6.20
  -6   6  -3   39.36    6.48
  -6   6  -4    4.23    4.37
  -6   6  -4    3.37    3.38
  -6   6  -5    2.58    4.76
  -6   6  -6   23.94    6.28
  -6   6  -6   21.62    5.71
  -6   6  -7   53.63    7.70
  -6   6  -7   55.26    7.33
  -6   6  -8  105.82    9.98
  -6   6  -8  111.08    9.60
  -6   6  -9   76.60    8.77
   6  -5  -8   55.94    6.64
   6  -5  -7   20.82    5.06
   6  -5  -6    0.49    2.57
   6  -5  -5    0.94    2.73
   6  -5  -4  131.12    7.69
  -6   5   4  145.82    7.86
   6  -5  -3    3.46    2.31
  -6   5   3    2.51    2.03
   6  -5  -2    0.94    1.79
  -6   5   2    0.65    2.66
  -6   5   2   -1.20    3.05
  -6   5   1  273.70   11.58
  -6   5   1  234.83   16.83
  -6   5   0  119.04    8.12
  -6   5   0   91.12    7.39
  -6   5  -1  254.71   11.76
  -6   5  -1  224.55   11.45
  -6   5  -2   20.39    5.33
  -6   5  -2   21.38    5.77
  -6   5  -3  131.13    8.75
  -6   5  -3  152.99   10.31
  -6   5  -4    3.34    3.98
  -6   5  -4    4.42    4.24
  -6   5  -5    6.68    3.88
  -6   5  -5   10.54    5.77
  -6   5  -6   12.39    5.99
  -6   5  -6    7.86    5.06
  -6   5  -6    8.45    5.23
  -6   5  -7   15.12    5.31
  -6   5  -7   20.51    6.01
  -6   5  -7   18.88    6.29
  -6   5  -8    3.87    4.39
  -6   5  -8    7.00    5.83
  -6   5  -9    0.01    3.68
  -6   5  -9    0.07    3.88
  -6   5 -10   41.37    7.97
  -6   5 -10   29.51    5.70
   6  -4  -9   72.80    7.67
   6  -4  -8   12.83    4.98
   6  -4  -7    2.25    2.97
   6  -4  -6    1.60    2.80
   6  -4  -5    5.73    3.23
   6  -4  -4   41.96    4.56
   6  -4  -3   13.29    3.19
  -6   4   3   13.87    3.42
   6  -4  -2   12.27    2.83
  -6   4   2   10.75    3.28
  -6   4   2   15.49    6.20
   6  -4  -1   14.41    2.70
  -6   4   1   14.64    3.67
  -6   4   1   15.09    8.65
   6  -4   0   67.69    3.95
  -6   4   0   66.97    6.06
  -6   4   0   63.00    6.14
  -6   4  -1   92.59    7.42
  -6   4  -1   85.33    6.79
  -6   4  -1   99.98    8.44
  -6   4  -2   77.78    6.23
  -6   4  -2   75.00    7.19
  -6   4  -2   77.43    7.15
  -6   4  -3   -0.70    3.18
  -6   4  -3   -0.30    3.70
  -6   4  -3    0.87    3.21
  -6   4  -4    6.01    4.78
  -6   4  -4    6.68    3.73
  -6   4  -4    2.45    3.24
  -6   4  -5   71.72    6.95
  -6   4  -5   86.49    7.52
  -6   4  -5   93.59    8.27
  -6   4  -6    8.65    5.78
  -6   4  -6   10.51    5.05
  -6   4  -6    7.76    4.63
  -6   4  -7   12.96    5.38
  -6   4  -7   12.74    4.17
  -6   4  -7   10.59    5.07
  -6   4  -8    9.24    5.35
  -6   4  -8   10.10    5.66
  -6   4  -9    6.33    5.70
  -6   4  -9    3.58    3.82
  -6   4 -10    9.64    5.07
  -6   4 -10    7.52    4.00
  -6   4 -11   37.83    6.63
  -6   4 -11   32.50   11.14
  -6   4 -12  119.69   10.41
   6  -3 -10    1.34    3.55
   6  -3  -9   34.72    6.13
   6  -3  -8    1.36    3.17
   6  -3  -7    8.86    4.50
   6  -3  -6   62.86    6.37
   6  -3  -5   41.50    5.06
   6  -3  -4  174.03    8.28
  -6   3   4  171.74    7.32
   6  -3  -3  105.01    6.25
  -6   3   3  100.00    6.12
   6  -3  -2    4.26    2.43
  -6   3   2    3.80    2.65
   6  -3  -1  157.91    6.55
  -6   3   1  158.44    7.78
  -6   3   1  158.89    8.05
  -6   3   1  168.75    9.61
   6  -3   0   46.66    3.68
  -6   3   0   44.49    5.67
  -6   3   0   39.99    4.98
  -6   3   0   38.20    5.18
   6  -3   1  120.56    4.34
  -6   3  -1  104.89    7.32
  -6   3  -1  108.80    7.25
  -6   3  -1  124.08    8.28
   6  -3   2   11.31    2.96
  -6   3  -2   10.92    4.77
  -6   3  -2    8.33    3.17
  -6   3  -2   11.42    5.80
  -6   3  -3    3.11    3.79
  -6   3  -3    5.03    4.03
  -6   3  -4   18.42    5.07
  -6   3  -4   18.82    4.76
  -6   3  -4   14.78    4.77
  -6   3  -5   55.58    5.93
  -6   3  -5   54.21    6.31
  -6   3  -5   57.59    6.64
  -6   3  -5   58.61    6.69
  -6   3  -6  497.03   16.07
  -6   3  -6  451.29   15.02
  -6   3  -6  532.97   17.31
  -6   3  -6  574.98   17.09
  -6   3  -7    7.03    5.52
  -6   3  -7   11.90    6.40
  -6   3  -7    7.86    4.69
  -6   3  -7    9.29    5.58
  -6   3  -8    1.85    3.67
  -6   3  -8    3.45    3.89
  -6   3  -8   -2.29    3.84
  -6   3  -9    0.82    4.07
  -6   3  -9    7.45    4.04
  -6   3  -9    5.15    3.63
  -6   3 -10   54.94    7.43
  -6   3 -10   58.88    7.42
  -6   3 -11   22.60   15.46
  -6   3 -11   36.60    6.49
  -6   3 -12  172.04   11.25
  -6   3 -12  167.44   11.61
  -6   3 -13   -0.58    3.05
  -6   3 -13    3.45    3.91
   6  -2 -10    1.12    3.78
   6  -2  -9    9.87    4.89
   6  -2  -8  112.30    8.90
   6  -2  -7   41.94    6.27
   6  -2  -6   59.28    6.34
   6  -2  -5  271.22   14.32
  -6   2   5  274.00    8.14
   6  -2  -4   58.58    8.41
  -6   2   4   59.78    4.73
   6  -2  -3   47.90    4.87
  -6   2   3   44.59    4.21
   6  -2  -2   20.72    7.57
  -6   2   2   21.70    4.32
   6  -2  -1    0.98    1.97
  -6   2   1   -1.08    2.71
   6  -2   0   49.69    3.57
  -6   2   0   48.42    3.27
  -6   2   0   43.69    4.75
  -6   2   0   53.95   11.62
   6  -2   1   29.77    2.74
  -6   2  -1   27.58    2.27
  -6   2  -1   29.01    5.11
  -6   2  -1   37.75    9.18
   6  -2   2   23.26    1.74
  -6   2  -2   23.56    1.68
  -6   2  -2   20.22    3.99
  -6   2  -2   29.39    6.28
  -6   2  -2   25.03    5.28
  -6   2  -3    0.86    3.53
  -6   2  -3    2.81    3.17
  -6   2  -3    3.32    5.18
  -6   2  -4  601.69   23.08
  -6   2  -4  589.99   22.94
  -6   2  -4  591.62   22.92
  -6   2  -4  599.36   22.73
  -6   2  -5  229.52   11.91
  -6   2  -5  242.75   12.55
  -6   2  -5  242.99   12.91
  -6   2  -5  260.55   13.13
  -6   2  -6    3.57    4.74
  -6   2  -6    3.10    3.17
  -6   2  -6    4.11    3.06
  -6   2  -7  120.12    8.20
  -6   2  -7  109.51    7.57
  -6   2  -7  116.37    8.31
  -6   2  -7  145.35    8.78
  -6   2  -8   25.33   15.03
  -6   2  -8   24.93    4.76
  -6   2  -8   32.33    6.72
  -6   2  -9   42.96    6.70
  -6   2  -9   47.94    7.48
  -6   2  -9   48.00    6.14
  -6   2 -10   28.07    8.68
  -6   2 -10   26.81    6.02
  -6   2 -10   24.98    5.49
  -6   2 -11  194.80   10.88
  -6   2 -11  206.39   12.16
  -6   2 -11  189.93   10.44
  -6   2 -12    2.81    4.48
  -6   2 -12    1.97    4.18
  -6   2 -12    2.11    3.24
  -6   2 -13    3.51    4.40
   6  -1 -10   64.10   20.28
   6  -1  -9   26.31    6.28
   6  -1  -8  128.79    9.38
   6  -1  -7   53.94    6.75
   6  -1  -6   46.93    5.23
   6  -1  -5   -1.06    3.24
  -6   1   5    0.51    1.27
   6  -1  -4   53.48    6.09
  -6   1   4   44.15    4.20
   6  -1  -3   53.23    6.02
  -6   1   3   62.11    4.87
   6  -1  -2    1.88    2.29
  -6   1   2    0.30    2.30
   6  -1  -1   84.65    5.30
  -6   1   1   79.52    5.96
   6  -1   0   16.31    3.56
  -6   1   0   12.76    2.25
  -6   1   0   11.90    2.86
  -6   1   0   19.37    6.57
   6  -1   1   37.90    2.95
  -6   1  -1   33.57    2.78
  -6   1  -1   35.08    5.02
  -6   1  -1   39.16    6.52
  -6   1  -2    0.18    0.40
  -6   1  -2    0.58    3.81
  -6   1  -2    1.16    1.80
   6  -1   3  104.98    3.40
   6  -1   3  102.22    3.37
  -6   1  -3  105.82    7.08
  -6   1  -3   98.55    7.06
   6  -1   4  256.84    3.67
   6  -1   4  262.36    3.68
  -6   1  -4  286.26   10.99
  -6   1  -4  256.81   10.73
  -6   1  -4  245.84   10.25
  -6   1  -5    0.51    3.34
  -6   1  -5    0.84    3.72
  -6   1  -5    0.53    3.23
  -6   1  -6    4.40    4.57
  -6   1  -6    6.14    4.21
  -6   1  -6    4.91    4.78
  -6   1  -7  628.66   17.32
  -6   1  -7  622.24   17.64
  -6   1  -7  601.09   17.19
  -6   1  -8  490.48   15.12
  -6   1  -8  526.89   16.04
  -6   1  -9  953.02   21.66
  -6   1  -9  885.22   20.76
  -6   1 -10    2.28    4.75
  -6   1 -10    3.19    3.57
  -6   1 -11   -0.81    3.40
  -6   1 -11    3.55    4.66
  -6   1 -12    2.82    4.20
  -6   1 -12   -0.79    3.30
  -6   1 -13    2.29    2.58
  -6   1 -13    2.55    4.63
  -6   1 -14    4.65    5.30
  -6   1 -14    5.37    4.77
   6   0  -9   31.46    6.43
   6   0  -8   49.01    6.93
   6   0  -7    5.03    4.48
   6   0  -6   77.67    6.93
   6   0  -5    5.55    4.54
  -6   0   5    3.35    2.30
   6   0  -4  307.20   11.80
  -6   0   4  287.03   11.41
   6   0  -3  179.36    8.94
  -6   0   3  176.88    8.10
   6   0  -2 1254.92   39.30
  -6   0   2 1285.60   26.36
   6   0  -1   51.71    5.43
  -6   0   1   53.95    5.04
   6   0   0  629.37   13.67
  -6   0   0  632.85   17.69
  -6   0   0  642.41   16.76
   6   0   1   40.58    3.47
  -6   0  -1   38.82    3.00
  -6   0  -1   36.35    8.01
  -6   0  -1   39.04    4.94
   6   0   2    8.35    2.21
   6   0   2    8.76    1.87
  -6   0  -2    9.82    6.90
  -6   0  -2   13.38    4.99
   6   0   3   99.17    4.19
   6   0   3   94.88    3.81
  -6   0  -3   97.81    7.92
  -6   0  -3  105.04    7.62
   6   0   4  264.46    6.32
   6   0   4  285.80    6.17
  -6   0  -4  289.77   10.62
  -6   0  -4  273.55   11.57
  -6   0  -4  264.20   10.09
   6   0   5  370.20    6.67
   6   0   5  327.12    6.50
  -6   0  -5  334.96   12.05
  -6   0  -5  348.84   12.47
  -6   0  -5  388.66   12.81
   6   0   6  493.22   14.63
   6   0   6  507.39   15.01
  -6   0  -6  477.93   18.93
  -6   0  -6  532.51   21.67
  -6   0  -6  519.17   19.76
   6   0   7   43.28    2.37
  -6   0  -7   44.11    5.61
  -6   0  -7   47.95    6.70
  -6   0  -7   41.58    6.13
   6   0   8  312.42    6.20
  -6   0  -8  330.38   12.61
  -6   0  -8  334.42   13.38
  -6   0  -9  511.72   15.49
  -6   0  -9  495.60   15.87
  -6   0 -10  245.14   13.00
  -6   0 -10  246.58   11.28
  -6   0 -11   22.60    7.26
  -6   0 -11   17.60    4.63
  -6   0 -12   -0.00    4.02
  -6   0 -12    0.83    3.37
  -6   0 -13  186.56   13.15
  -6   0 -13  213.03   11.13
  -6   0 -14   77.18    8.37
  -6   0 -14   63.25    6.68
  -6   0 -15    7.33    4.19
   6   1  -9   -2.23    3.64
   6   1  -8   11.27    5.44
   6   1  -7    4.07    3.93
   6   1  -6    8.29    4.62
   6   1  -5   84.90    8.09
   6   1  -4  260.85   11.20
   6   1  -3  287.41   10.90
   6   1  -2   14.11    3.93
   6   1  -1  598.10   21.43
   6   1   0  659.04   14.91
  -6  -1   0  641.48   17.08
   6   1   1  245.45    8.76
  -6  -1  -1  237.63    9.04
   6   1   2  174.69    6.64
  -6  -1  -2  177.96    7.53
   6   1   3   31.55    3.32
   6   1   3   28.90    2.78
  -6  -1  -3   28.75   12.88
   6   1   4   48.75    3.90
   6   1   4   44.56    3.00
  -6  -1  -4   43.24    4.55
  -6  -1  -4   46.32    6.22
  -6  -1  -4   46.76    5.32
   6   1   5   21.01    2.76
   6   1   5   19.71    2.19
  -6  -1  -5   19.06    3.83
  -6  -1  -5   24.99   14.88
  -6  -1  -5   18.65    3.80
   6   1   6    2.67    1.50
   6   1   6    2.69    1.46
  -6  -1  -6    3.71    2.49
  -6  -1  -6    4.39    2.95
  -6  -1  -6    3.97    3.68
   6   1   7    5.21    2.96
   6   1   7    5.55    1.64
  -6  -1  -7    5.62    3.61
  -6  -1  -7    6.19    3.60
  -6  -1  -8    1.01    1.18
  -6  -1  -8   -0.19    2.58
  -6  -1  -8    1.25    2.53
  -6  -1  -9   57.61    3.65
  -6  -1  -9   57.02    6.00
  -6  -1  -9   64.10   19.13
  -6  -1 -10  436.84    9.61
  -6  -1 -10  455.28   16.02
  -6  -1 -10  434.10   14.16
  -6  -1 -11  233.71   10.91
  -6  -1 -11  264.70   11.77
  -6  -1 -12   46.23    7.93
  -6  -1 -12   48.56    5.76
  -6  -1 -13  105.06   12.05
  -6  -1 -13  103.04    8.28
  -6  -1 -14   12.97    4.92
  -6  -1 -14   13.34    4.40
  -6  -1 -15    7.91    6.11
  -6  -1 -15   11.23    4.14
   6   2  -9   42.58    7.89
   6   2  -8   21.32    6.03
   6   2  -7  187.01   12.47
   6   2  -6  106.64    9.73
   6   2  -5   10.99    5.27
   6   2  -4   46.43    5.54
   6   2  -3  114.57    8.02
   6   2  -2   34.60    4.96
   6   2  -1 3999.95   38.03
   6   2   0   18.54    3.93
  -6  -2   0   16.77    6.16
   6   2   1   23.06    3.84
  -6  -2  -1   28.10    8.11
   6   2   2    3.98    3.08
  -6  -2  -2    1.58    2.00
   6   2   3   48.89    4.84
  -6  -2  -3   46.93    4.21
   6   2   4    9.54    2.62
  -6  -2  -4   12.60    3.56
   6   2   5   30.66    6.75
  -6  -2  -5   30.14    4.07
  -6  -2  -5   32.28    3.89
   6   2   6   42.30    3.73
  -6  -2  -6   38.82    4.76
   6   2   7   93.67    5.87
  -6  -2  -7   83.93    6.04
  -6  -2  -7   89.91    8.14
  -6  -2  -8   65.38    4.55
  -6  -2  -8   52.26    5.20
  -6  -2  -8   57.15    6.88
  -6  -2  -9  783.08   13.74
  -6  -2  -9  759.54   17.23
  -6  -2  -9  760.40   20.83
  -6  -2 -10  207.58    7.76
  -6  -2 -10  199.93    9.56
  -6  -2 -10  216.08   10.86
  -6  -2 -11    1.08    1.67
  -6  -2 -11   -0.08    3.05
  -6  -2 -11   -0.70    3.32
  -6  -2 -12   11.39    3.06
  -6  -2 -12   12.21    7.17
  -6  -2 -12   12.39    4.49
  -6  -2 -13   50.01    6.86
  -6  -2 -13   55.67    6.06
  -6  -2 -14    9.22    5.82
  -6  -2 -14   11.50    4.77
  -6  -2 -15  143.65   10.62
  -6  -2 -15  125.01    8.52
   6   3  -8   46.18    7.26
   6   3  -7   26.08    6.63
   6   3  -6   16.54    6.58
   6   3  -5   59.10    7.48
   6   3  -4   29.78    6.35
   6   3  -3   32.06    6.11
   6   3  -2  205.60   10.00
   6   3  -1   29.92    4.78
   6   3   0   89.70    6.78
  -6  -3   0  106.63   10.20
   6   3   1   12.06    2.96
  -6  -3  -1   13.90    5.43
   6   3   2   52.43    5.20
   6   3   2   47.38    3.36
  -6  -3  -2   51.28    3.88
   6   3   3    5.99    3.58
   6   3   3    4.52    2.17
  -6  -3  -3    4.86    2.07
   6   3   4  404.33   16.03
  -6  -3  -4  420.18   14.96
   6   3   5  271.17   13.29
  -6  -3  -5  257.94   10.46
   6   3   6  150.37    8.22
  -6  -3  -6  139.68    7.55
  -6  -3  -7  306.03    9.95
  -6  -3  -7  285.22   12.73
  -6  -3  -8  126.74    6.65
  -6  -3  -8  121.25    6.74
  -6  -3  -9  250.28    8.94
  -6  -3  -9  212.08    9.10
  -6  -3 -10    0.00    2.17
  -6  -3 -10    0.84    2.96
  -6  -3 -10    0.93    2.31
  -6  -3 -11   96.55   14.70
  -6  -3 -11   87.65    7.02
  -6  -3 -11  101.22   14.71
  -6  -3 -12    1.43    2.14
  -6  -3 -12    1.24    2.51
  -6  -3 -12    1.01    2.13
  -6  -3 -13    6.45    3.01
  -6  -3 -13    3.37    2.16
  -6  -3 -13    5.28    2.96
  -6  -3 -14    3.03    2.67
  -6  -3 -14    0.84    2.60
  -6  -3 -15   25.22   22.98
   6   4  -7   31.99    6.77
   6   4  -6   53.58    8.25
   6   4  -5  121.58    9.77
   6   4  -4   48.67    6.88
   6   4  -3   16.94    5.84
   6   4  -2   57.23    7.86
   6   4  -1   22.66    5.74
  -6  -4   1   19.08    2.79
   6   4   0  123.66    8.05
  -6  -4   0  133.50    6.53
   6   4   1    1.07    2.88
  -6  -4  -1    2.73    1.69
   6   4   2 1207.86   22.61
  -6  -4  -2 1193.87   16.74
   6   4   3  196.16    9.23
  -6  -4  -3  191.06    6.11
   6   4   4  295.86   17.03
   6   4   5  149.58    8.18
  -6  -4  -6    1.67    1.70
  -6  -4  -7   61.79    5.35
  -6  -4  -7   62.17    4.85
  -6  -4  -8  340.21   11.30
  -6  -4  -8  347.52   10.19
  -6  -4  -9   41.94    4.89
  -6  -4  -9   45.37    4.47
  -6  -4 -10  213.53    9.32
  -6  -4 -10  209.30    9.10
  -6  -4 -11    2.66    3.07
  -6  -4 -11    3.43    1.39
  -6  -4 -12   71.20   12.76
  -6  -4 -12   68.98    6.13
  -6  -4 -12   62.13   22.63
  -6  -4 -13   38.73    4.97
  -6  -4 -13   41.44    6.37
  -6  -4 -13   40.97    8.39
  -6  -4 -14   42.06    5.71
  -6  -4 -14   30.18   14.48
  -6  -4 -14   32.58   12.65
  -6  -4 -15   10.35    8.76
   6   5  -6   18.45    6.15
   6   5  -5    2.71    4.27
   6   5  -4   25.33    6.94
   6   5  -3    8.32    5.36
   6   5  -2    4.84    5.31
   6   5  -1   31.92    5.33
   6   5   0  176.69   10.53
   6   5   1  141.64    9.53
   6   5   2  443.11   15.75
   6   5   3   10.61    4.44
   6   5   4    9.37    3.67
   6   5   5  142.58    8.49
   6   5   6    4.77    2.84
  -6  -5  -6    4.67    1.62
  -6  -5  -7   15.35    4.17
  -6  -5  -7   14.72    2.66
  -6  -5  -8   47.99    5.30
  -6  -5  -8   50.49    3.91
  -6  -5  -9   33.53    5.44
  -6  -5  -9   29.04    3.76
  -6  -5 -10    7.33    2.93
  -6  -5 -10    8.98    5.82
  -6  -5 -11   11.31    4.05
  -6  -5 -11    9.42    7.30
  -6  -5 -12   85.81    7.24
  -6  -5 -12   94.46    7.64
  -6  -5 -13   36.21    9.38
  -6  -5 -13   37.63    9.36
  -6  -5 -13   32.25   10.32
  -6  -5 -14   61.14    6.78
  -6  -5 -14   43.73   13.30
  -6  -5 -14   44.10   16.89
   6   6  -4   35.00    7.02
   6   6  -3   71.44    8.36
   6   6  -2    7.50    4.16
   6   6  -1   28.67    6.24
   6   6   0    3.22    4.22
   6   6   1    1.02    3.99
   6   6   2   -0.25    3.90
   6   6   3   89.38    8.21
   6   6   4   56.53   21.39
   6   6   5    7.85    4.52
   6   6   6    8.78    3.81
  -6  -6  -8  243.74   11.57
  -6  -6  -9  127.79    8.33
  -6  -6 -10  142.39    8.94
  -6  -6 -11   68.76   14.09
  -6  -6 -12   41.13    6.30
  -6  -6 -13   22.47    6.28
  -6  -6 -14   26.13   12.11
  -6  -6 -14   31.12    5.15
   6   7  -3    9.74    6.06
   6   7  -2   31.09    6.77
   6   7  -1    2.95    4.15
   6   7   0   63.93    8.86
   6   7   1    8.07    4.66
   6   7   2   -0.87    4.52
   6   7   3    2.61    4.63
   6   7   4   -0.59    4.08
   6   7   5   51.35   17.79
   6   7   6    3.87    3.33
   6   7   7  379.91   15.16
  -6  -7  -8   12.41    5.07
  -6  -7  -9   56.59    6.39
  -6  -7 -10   85.82    8.29
  -6  -7 -11   42.82    6.29
  -6  -7 -12    2.02    3.36
  -6  -7 -13    8.60    5.18
   6   8   0    7.13    4.45
   6   8   1   16.58    6.29
   6   8   2    0.41    4.25
   6   8   3   47.79    7.75
   6   8   4   68.79   22.08
   6   8   5   13.32    6.08
   6   8   6   54.55    7.02
   6   8   7    8.52    6.26
  -6  -8  -9   39.37    7.06
  -6  -8 -10    6.36    3.61
  -6  -8 -11    4.23    3.38
  -7   7   2   79.74    7.87
  -7   7   1    6.70    4.96
  -7   7   1    2.31    4.13
  -7   7   0    8.48    5.19
  -7   7   0   11.14    7.00
  -7   7  -1   62.82    8.39
  -7   7  -1   64.62    8.17
  -7   7  -2   10.76    4.93
  -7   7  -2   12.40    5.57
  -7   7  -3   17.05    6.11
  -7   7  -3   14.37    5.61
  -7   6   3   10.60    8.61
  -7   6   2    5.44    4.41
  -7   6   2    3.15    2.83
  -7   6   1   74.44    7.27
  -7   6   1   91.58   12.58
  -7   6   0  142.18   10.02
  -7   6   0  135.85   10.05
  -7   6  -1   16.12    4.91
  -7   6  -1   19.10    5.36
  -7   6  -2   11.68    4.68
  -7   6  -2   13.63    5.24
  -7   6  -3   26.60    6.48
  -7   6  -3   18.37    5.48
  -7   6  -4   -0.40    3.84
  -7   6  -4    4.77    3.69
  -7   6  -5    8.12    4.04
  -7   6  -5    8.75    5.28
  -7   6  -6   29.06    6.44
  -7   6  -6   36.84    6.97
  -7   6  -7  107.76   10.14
   7  -5  -6    1.70    3.65
  -7   5   3   76.42   17.76
  -7   5   2   60.05    6.22
  -7   5   2   39.37   25.42
  -7   5   1   93.20   13.83
  -7   5   1   87.57   16.06
  -7   5   0  431.86   15.46
  -7   5   0  416.03   17.83
  -7   5  -1   57.38    7.44
  -7   5  -1   47.72    7.37
  -7   5  -2   17.79    4.91
  -7   5  -2   23.08    6.01
  -7   5  -3    0.05    3.88
  -7   5  -3    3.00    4.27
  -7   5  -4    2.94    4.38
  -7   5  -4    3.64    6.18
  -7   5  -5   21.95    6.13
  -7   5  -5   22.55    6.79
  -7   5  -6    0.45    3.54
  -7   5  -6    0.24    3.92
  -7   5  -7    0.53    4.15
  -7   5  -7    1.85    3.89
  -7   5  -7   -1.47    3.75
  -7   5  -8  130.19   11.05
  -7   5  -8  121.86    9.85
  -7   5  -9   27.14    6.51
   7  -4  -7    5.97    3.63
   7  -4  -6   22.62    4.56
   7  -4  -5    3.92    2.58
   7  -4  -4  114.58    7.68
   7  -4  -3   57.03    5.50
  -7   4   2   10.11    4.15
  -7   4   1    8.11    3.62
  -7   4   1    7.47    6.74
  -7   4   0   83.96    7.01
  -7   4   0   85.43    7.07
  -7   4   0   96.94   26.22
  -7   4  -1    6.03    4.69
  -7   4  -1    0.88    2.90
  -7   4  -1   -0.93    3.92
  -7   4  -2   33.15    5.45
  -7   4  -2   32.45    5.15
  -7   4  -2   30.38    6.51
  -7   4  -3   45.64    6.16
  -7   4  -3   40.24    6.09
  -7   4  -3   37.53    6.70
  -7   4  -4    9.82    4.00
  -7   4  -4    9.31    5.38
  -7   4  -4    7.91    3.57
  -7   4  -5  297.98   14.07
  -7   4  -5  289.07   13.63
  -7   4  -5  285.32   12.98
  -7   4  -6   49.56    7.32
  -7   4  -6   45.16    7.20
  -7   4  -6   55.14    7.02
  -7   4  -6   48.36    6.00
  -7   4  -7   68.81    7.93
  -7   4  -7   72.33    8.36
  -7   4  -7   65.22    7.78
  -7   4  -8   30.67    5.45
  -7   4  -8   42.37    6.66
  -7   4  -9   80.69    8.75
  -7   4  -9   85.14    8.26
  -7   4 -10  194.41   13.26
  -7   4 -10  171.95   11.45
   7  -3  -8   36.38    6.06
   7  -3  -7   22.93    5.19
   7  -3  -6   45.69    6.51
   7  -3  -5   13.19    4.96
   7  -3  -4   28.60    5.19
  -7   3   4   30.13    4.18
   7  -3  -3   65.52    5.98
  -7   3   3   66.42    5.71
   7  -3  -2    9.95    3.45
  -7   3   2    9.71    3.33
  -7   3   2    7.92    5.22
   7  -3  -1   52.26    4.12
  -7   3   1   53.06    6.32
  -7   3   1   59.73   13.17
   7  -3   0   12.23    2.41
  -7   3   0    5.28    3.23
  -7   3   0   15.41    6.15
  -7   3  -1   27.79    4.92
  -7   3  -1   36.60   13.39
  -7   3  -2   78.33    6.97
  -7   3  -2   76.21    6.89
  -7   3  -2   77.40    7.30
  -7   3  -3  132.96    8.70
  -7   3  -3  119.07    8.93
  -7   3  -3  108.89    8.38
  -7   3  -4   52.89    6.42
  -7   3  -4   51.08    7.08
  -7   3  -4   62.92    7.17
  -7   3  -5  158.65   11.01
  -7   3  -5  160.31    9.87
  -7   3  -5  164.66   10.38
  -7   3  -6   14.09    5.57
  -7   3  -6   16.59    6.21
  -7   3  -6    8.73    4.38
  -7   3  -6   17.22    6.65
  -7   3  -7   28.91    6.59
  -7   3  -7   28.47    5.27
  -7   3  -7   28.17    6.97
  -7   3  -7   26.74    5.31
  -7   3  -8  112.03    8.93
  -7   3  -8  105.13    8.88
  -7   3  -8  106.45    9.09
  -7   3  -8  112.92    9.44
  -7   3  -9   77.20   12.53
  -7   3  -9   97.87   10.48
  -7   3  -9   81.77    8.09
  -7   3 -10   60.41    7.37
  -7   3 -10   57.14    7.82
  -7   3 -10   63.52    8.24
  -7   3 -11    0.46    3.90
  -7   3 -11   -2.62    4.11
  -7   3 -12   48.91    7.45
   7  -2  -8   52.89    7.46
   7  -2  -7    0.66    3.27
   7  -2  -6    0.48    2.71
   7  -2  -5    1.26    2.81
   7  -2  -4    5.96    3.34
  -7   2   4    8.43    2.90
   7  -2  -3   -0.76    2.22
  -7   2   3    2.66    2.24
   7  -2  -2    9.22    2.93
  -7   2   2    7.97    3.07
   7  -2  -1  165.72    8.01
  -7   2   1  171.59    9.05
  -7   2   1  183.45   10.80
   7  -2   0  101.58    5.13
  -7   2   0   93.64    7.19
  -7   2   0  119.54   21.78
   7  -2   1  178.29    5.93
  -7   2  -1  171.48    9.95
  -7   2  -1  185.87   15.78
  -7   2  -2    1.78    3.21
  -7   2  -2    1.35    3.34
  -7   2  -3  458.57   15.58
  -7   2  -3  453.42   15.44
  -7   2  -4    0.58    3.37
  -7   2  -4    6.22    4.95
  -7   2  -5   27.95    5.95
  -7   2  -5   23.38    5.75
  -7   2  -5   31.72    6.82
  -7   2  -6  356.74   14.37
  -7   2  -6  353.23   15.08
  -7   2  -6  323.65   13.00
  -7   2  -7    1.03    3.53
  -7   2  -7    1.22    4.00
  -7   2  -7   -0.58    3.23
  -7   2  -8    1.58    3.30
  -7   2  -8    1.65    3.73
  -7   2  -8    1.30    3.72
  -7   2  -9   16.90    5.80
  -7   2  -9   16.96    6.01
  -7   2 -10    9.06    3.99
  -7   2 -10    6.02    5.62
  -7   2 -11    0.63    4.15
  -7   2 -11   -0.44    3.83
  -7   2 -12    2.71    6.03
  -7   2 -12    3.71    3.65
  -7   2 -13   49.17    6.83
   7  -1  -8   25.38    5.97
   7  -1  -7   18.05    5.02
   7  -1  -6    2.79    3.01
   7  -1  -5   27.02    5.41
   7  -1  -4    8.76    3.58
  -7   1   4    8.04    3.77
   7  -1  -3   76.20    6.30
  -7   1   3   69.50    5.92
   7  -1  -2   21.82    4.07
  -7   1   2   19.37    3.68
   7  -1  -1   65.39    4.83
  -7   1   1   70.80    6.34
  -7   1   1   75.87    7.20
   7  -1   0   -0.10    1.81
  -7   1   0    3.69    2.83
  -7   1   0    1.68    4.46
   7  -1   1   -0.01    1.36
  -7   1  -1    1.04    2.52
  -7   1  -1    1.30    2.84
   7  -1   2  324.73    8.20
  -7   1  -2  344.94   13.48
  -7   1  -2  298.02   12.04
   7  -1   3   77.74    3.47
  -7   1  -3   79.63    7.03
  -7   1  -3   75.94    6.88
  -7   1  -4    4.81    3.14
  -7   1  -4    2.40    3.42
  -7   1  -5   12.89    4.35
  -7   1  -5   16.29    5.22
  -7   1  -5   15.74    4.77
  -7   1  -6   18.67    5.55
  -7   1  -6   12.43    5.88
  -7   1  -6   18.27    5.05
  -7   1  -7    4.32    4.21
  -7   1  -7    6.22    4.08
  -7   1  -7    1.72    3.12
  -7   1  -8   61.71    7.31
  -7   1  -8   61.56    7.17
  -7   1  -9   43.05    6.61
  -7   1  -9   45.57    6.92
  -7   1 -10   24.02    6.34
  -7   1 -10   23.78    5.72
  -7   1 -11  108.50   10.90
  -7   1 -11  102.02    9.42
  -7   1 -12    0.58    4.05
  -7   1 -12    4.75    4.57
  -7   1 -13  154.67   11.49
  -7   1 -13  136.46    9.81
  -7   1 -14   21.28    4.86
   7   0  -8   10.73    5.17
   7   0  -7    2.36    3.20
   7   0  -6   14.88    5.09
   7   0  -5   55.84    7.71
   7   0  -4   17.07    5.20
  -7   0   4   13.05    9.22
   7   0  -3   57.81    6.07
  -7   0   3   59.74    5.17
   7   0  -2    5.42    3.26
  -7   0   2    6.27    4.20
   7   0  -1   10.31    3.46
  -7   0   1   10.54    5.85
   7   0   0    0.37    1.95
  -7   0   0    2.56    2.23
  -7   0   0   -0.61    2.13
   7   0   1    0.34    1.92
  -7   0  -1    2.38    3.01
  -7   0  -1    2.37    3.07
   7   0   2   76.79    5.29
  -7   0  -2   79.20    7.05
  -7   0  -2   74.65    6.67
   7   0   3    6.21    2.23
  -7   0  -3    5.86    3.44
  -7   0  -3    5.52    2.97
   7   0   4    7.98    4.53
  -7   0  -4    8.29    3.99
  -7   0  -4   10.70    4.34
   7   0   5    0.37    0.73
  -7   0  -5    1.06    3.00
  -7   0  -5    0.12    2.43
  -7   0  -5   -1.39    3.25
  -7   0  -6   50.48    5.76
  -7   0  -6   49.60   17.25
  -7   0  -6   43.69    5.75
  -7   0  -7   12.66    4.93
  -7   0  -7   10.92    3.76
  -7   0  -7    9.12    4.64
  -7   0  -8  924.71   21.42
  -7   0  -8  937.11   21.96
  -7   0  -9  125.82    8.83
  -7   0  -9  109.99    8.71
  -7   0 -10    7.59    4.89
  -7   0 -10    3.87    3.26
  -7   0 -11   30.78    6.10
  -7   0 -11   31.34    5.80
  -7   0 -12  129.44    9.46
  -7   0 -12  128.64    9.31
  -7   0 -13   -0.97    3.76
  -7   0 -13    0.01    2.94
  -7   0 -14    4.59    5.76
  -7   0 -14    8.07    5.11
   7   1  -8    5.86    5.68
   7   1  -7   17.32    5.77
   7   1  -6   82.58    7.94
   7   1  -5   45.74    6.52
   7   1  -4    3.63    3.52
  -7  -1   4    2.99    4.41
   7   1  -3   38.93    5.78
  -7  -1   3   36.37    4.51
   7   1  -2   50.43    6.63
  -7  -1   2   50.24    5.26
   7   1  -1   10.06    4.01
  -7  -1   1    4.50    3.68
   7   1   0  140.31    7.85
  -7  -1   0  149.30    8.63
  -7  -1   0  134.64   11.80
   7   1   1   46.79    4.34
  -7  -1  -1   40.07    4.99
  -7  -1  -1   49.46   12.82
   7   1   2  263.21    9.25
  -7  -1  -2  278.44   14.14
  -7  -1  -2  236.22    9.46
   7   1   3    4.41    2.59
  -7  -1  -3    6.44    2.69
  -7  -1  -3    3.31    3.24
   7   1   4   40.61    3.66
  -7  -1  -4   36.60   17.94
  -7  -1  -4   48.37    5.09
   7   1   5   65.00    3.93
  -7  -1  -5   72.54    5.88
  -7  -1  -5   72.42   18.81
  -7  -1  -5   64.08    5.84
   7   1   6   32.31    2.92
  -7  -1  -6   32.05    4.64
  -7  -1  -6   30.03   16.74
  -7  -1  -6   32.36    5.04
   7   1   7  308.15    7.58
  -7  -1  -7  299.40   11.71
  -7  -1  -7  298.24   12.90
  -7  -1  -7  300.06   11.95
  -7  -1  -8  148.83    8.61
  -7  -1  -8  164.42    9.68
  -7  -1  -9   25.75    8.60
  -7  -1  -9   28.75    5.54
  -7  -1 -10  146.85    9.07
  -7  -1 -10  143.55    9.55
  -7  -1 -11  119.47    9.03
  -7  -1 -11  113.99    8.60
  -7  -1 -12   36.24    6.97
  -7  -1 -12   28.30    5.56
  -7  -1 -13   65.00    7.82
  -7  -1 -13   71.45    8.27
  -7  -1 -14   17.70    6.07
  -7  -1 -14   15.44    5.23
   7   2  -7    6.54    5.35
   7   2  -6   31.23    6.00
   7   2  -5    5.96    4.91
   7   2  -4   -0.58    3.43
   7   2  -3   11.51    4.36
   7   2  -2  129.68    8.67
   7   2  -1    3.83    3.28
  -7  -2   1    3.77    3.58
   7   2   0   67.14    5.88
  -7  -2   0   68.73   14.13
   7   2   1   27.12    4.47
  -7  -2  -1   30.68    4.47
   7   2   2   86.81    5.96
  -7  -2  -2   89.68    6.02
   7   2   3   13.07    2.89
  -7  -2  -3   11.38    2.96
   7   2   4   64.17    4.53
  -7  -2  -4   68.39    5.20
   7   2   5    1.11    2.06
  -7  -2  -5   -0.35    2.16
   7   2   6   14.70    3.06
  -7  -2  -6   11.87    3.57
  -7  -2  -6   15.08    4.11
  -7  -2  -6   14.24    3.59
   7   2   7   26.32    8.16
  -7  -2  -7   28.92    5.24
  -7  -2  -7   27.01   13.95
   7   2   8    3.76    2.10
  -7  -2  -8    1.48    3.15
  -7  -2  -8    4.17    3.84
   7   2   9   95.65    5.36
  -7  -2  -9   95.28    7.41
  -7  -2  -9   77.83   12.29
  -7  -2 -10   57.71    6.37
  -7  -2 -10   59.99    7.98
  -7  -2 -11   95.49    7.74
  -7  -2 -11   91.94    9.02
  -7  -2 -12  186.19   10.48
  -7  -2 -12  176.48   10.21
  -7  -2 -13    4.44    3.16
  -7  -2 -13    7.21    4.48
  -7  -2 -14    2.50    3.66
  -7  -2 -14    1.18    3.24
   7   3  -7    0.66    4.01
   7   3  -6   21.71    5.86
   7   3  -5    3.71    3.49
   7   3  -4   20.90    5.65
   7   3  -3   29.95    5.65
   7   3  -2   12.71    4.62
   7   3  -1   45.90    5.77
  -7  -3   1   41.60    4.86
   7   3   0  247.67   11.21
  -7  -3   0  225.68    9.71
   7   3   1    3.06    4.16
  -7  -3  -1    2.25    1.99
   7   3   2  139.54    8.05
  -7  -3  -2  152.32    6.73
   7   3   3  146.73    7.63
  -7  -3  -3  148.35    6.49
   7   3   4  182.25    8.39
  -7  -3  -4  169.71    7.34
   7   3   5  154.51    7.64
  -7  -3  -5  138.77    6.95
   7   3   6   86.84    5.63
  -7  -3  -6   87.76    5.92
   7   3   7  136.62    6.83
  -7  -3  -7  122.19    6.93
   7   3   8    5.09    2.73
  -7  -3  -8    3.73    2.20
  -7  -3  -9   20.52    8.54
  -7  -3  -9   20.93    5.29
  -7  -3 -10  179.82    7.97
  -7  -3 -10  170.57    8.79
  -7  -3 -10  169.58   10.04
  -7  -3 -11   94.15    5.95
  -7  -3 -11   86.05    7.61
  -7  -3 -11   96.70    9.72
  -7  -3 -12   48.24    5.79
  -7  -3 -12   57.33   13.49
  -7  -3 -13   11.18    6.33
  -7  -3 -13   14.16    7.93
  -7  -3 -14  134.44    9.77
  -7  -3 -14  143.56   10.06
   7   4  -6   19.41    5.71
   7   4  -5   11.91    4.11
   7   4  -4  174.27   10.57
   7   4  -3   68.99    7.55
   7   4  -2   43.61    6.26
   7   4  -1   11.72    3.45
   7   4   0    1.64    3.05
  -7  -4   0   -0.70    1.37
   7   4   1   56.39    5.99
  -7  -4  -1   52.66    3.89
   7   4   2  136.57    8.50
  -7  -4  -2  143.06    6.07
   7   4   3   66.77    6.44
  -7  -4  -3   69.09    4.65
   7   4   4   16.86    5.76
  -7  -4  -4   15.26    2.81
   7   4   5  209.95   10.29
   7   4   6   24.55   14.83
   7   4   7   18.66    5.39
  -7  -4  -7   19.52    3.24
   7   4   8   35.31   10.93
  -7  -4  -8   32.70    4.64
  -7  -4  -9    6.81    3.50
  -7  -4  -9    6.79    3.23
  -7  -4 -10   16.49    4.25
  -7  -4 -10   12.47    3.44
  -7  -4 -11   63.70    5.82
  -7  -4 -11   61.35    6.59
  -7  -4 -11   56.98    6.86
  -7  -4 -12   56.34    5.30
  -7  -4 -12   55.05    6.01
  -7  -4 -12   52.19   12.86
  -7  -4 -13  203.66   10.64
  -7  -4 -13  202.11   10.88
  -7  -4 -14    0.90    2.52
  -7  -4 -14    3.38    3.44
   7   5  -4   24.25    5.91
   7   5  -3    2.49    3.53
   7   5  -2    3.48    4.55
   7   5  -1   38.09    6.29
   7   5   0    3.58    3.62
   7   5   1  158.85    9.76
   7   5   2   11.26    3.64
   7   5   3  628.81   18.21
   7   5   4   29.35    5.45
   7   5   5   11.76    4.77
   7   5   6   70.19   10.48
   7   5   7   15.56    9.37
   7   5   8    6.66    5.77
  -7  -5  -9   23.45    4.70
  -7  -5 -10   18.10    4.09
  -7  -5 -11   13.27    4.89
  -7  -5 -12   19.71    4.34
  -7  -5 -13   32.83    5.04
  -7  -5 -13   29.66    9.27
   7   6  -3    3.56    3.79
   7   6  -2   14.71    5.26
   7   6  -1   18.51    5.86
   7   6   0   57.01    7.04
   7   6   1   18.27    5.92
   7   6   2  242.79   12.65
   7   6   3    2.87    3.64
   7   6   4   60.72    7.39
   7   6   5  200.88   11.51
   7   6   6  286.05   12.96
   7   6   7  270.35   17.31
   7   6   8  171.29    9.87
  -7  -6 -10   29.96    5.51
  -7  -6 -11   20.44    5.06
  -7  -6 -12    6.03    4.35
  -7  -6 -13    0.34    3.15
   7   7  -1  183.61   12.01
   7   7   0    3.55    5.17
   7   7   1   49.68    7.21
   7   7   2    2.98    3.73
   7   7   3    7.35    5.07
   7   7   4  260.66   13.15
   7   7   5   65.05   12.66
   7   7   6   11.60    8.26
   7   7   7    1.38    1.75
   7   7   8   24.78   20.00
   7   7   9    0.76    1.94
  -7  -7 -10    0.73    3.39
  -7  -7 -11   48.55    6.91
   7   8   3   35.13    7.29
   7   8   4    9.71    6.28
   7   8   5   93.05    9.45
   7   8   6   42.56   29.29
   7   8   7    5.18    3.93
   7   8   8    0.57    1.93
   7   8   9   25.46   14.56
  -8   6   0   16.77    5.44
  -8   6  -1   12.91    5.51
  -8   6  -2    5.36    5.02
  -8   6  -3   27.63    6.07
  -8   5   2    6.09    5.89
  -8   5   1   44.74   18.96
  -8   5   0   76.55    7.51
  -8   5   0   78.34    8.96
  -8   5  -1  132.40   21.82
  -8   5  -1  155.04   11.25
  -8   5  -2    1.48    3.26
  -8   5  -2   -1.66    3.85
  -8   5  -3    0.54    3.56
  -8   5  -4    6.86    4.93
  -8   5  -4   10.38    5.87
  -8   5  -5   60.75    8.20
  -8   5  -5   78.33    8.96
  -8   5  -6   12.92    5.71
  -8   5  -6   10.32    5.64
  -8   4   4    3.53    3.72
  -8   4   3   12.86    6.91
  -8   4   2    9.71    6.53
  -8   4   1   43.82    5.64
  -8   4   1   36.21   21.81
  -8   4   0  150.41    9.25
  -8   4   0  168.92   12.33
  -8   4  -1    1.92    3.07
  -8   4  -1   -2.19    3.89
  -8   4  -2   -0.77    3.35
  -8   4  -2    2.59    3.31
  -8   4  -2    0.31    3.98
  -8   4  -3   29.55    6.07
  -8   4  -3   34.21    6.29
  -8   4  -3   29.36    6.48
  -8   4  -4   56.17    7.19
  -8   4  -4   60.14    7.01
  -8   4  -4   56.41    7.47
  -8   4  -5   -0.32    3.97
  -8   4  -5    2.10    5.86
  -8   4  -5    0.19    3.83
  -8   4  -6   30.01    6.05
  -8   4  -6   27.64    7.13
  -8   4  -6   29.49    6.87
  -8   4  -7   44.58    7.12
  -8   4  -7   43.30    7.31
  -8   4  -7   50.60    7.72
  -8   4  -8   17.24    5.15
  -8   4  -8   20.11    6.81
  -8   4  -8   19.59    6.24
   8  -3  -6   74.73    8.02
   8  -3  -5   28.46    5.41
  -8   3   3    5.01    4.04
  -8   3   2    0.33    2.63
  -8   3   2    1.99    2.72
  -8   3   1    2.00    2.67
  -8   3   1    1.06    2.62
  -8   3   0    0.18    2.77
  -8   3   0    1.27    1.48
  -8   3  -1  114.41    8.78
  -8   3  -1  110.60   20.93
  -8   3  -2    8.83    5.20
  -8   3  -2    4.17    3.94
  -8   3  -3    0.77    3.29
  -8   3  -3    2.05    3.64
  -8   3  -4    4.62    3.51
  -8   3  -5    6.66    6.38
  -8   3  -5    7.96    5.02
  -8   3  -6   35.68    7.28
  -8   3  -6   28.93    6.10
  -8   3  -7   21.51    6.15
  -8   3  -7   20.04    6.29
  -8   3  -7   25.26    6.13
  -8   3  -8   30.15    5.68
  -8   3  -8   24.12    5.63
  -8   3  -8   27.52    6.37
  -8   3  -9   -0.79    4.18
  -8   3  -9   -0.68    3.55
  -8   3 -10    1.74    4.39
  -8   3 -10    7.88    5.43
   8  -2  -6    6.81    3.92
   8  -2  -5   -1.18    2.39
   8  -2  -4  101.43    7.52
   8  -2  -3   17.20    3.78
  -8   2   3   22.39    4.74
   8  -2  -2    0.13    1.95
  -8   2   2    2.07    3.83
  -8   2   2    1.09    2.15
  -8   2   1   13.68    4.12
  -8   2   1   18.24    6.95
  -8   2   0   12.65    4.44
  -8   2   0   16.72   10.17
  -8   2  -1   16.99    4.76
  -8   2  -1   16.05    4.42
  -8   2  -2    2.88    3.24
  -8   2  -2    1.04    3.31
  -8   2  -3   73.42    7.15
  -8   2  -3   68.32   10.01
  -8   2  -4    8.76    5.25
  -8   2  -5    1.75    3.97
  -8   2  -5   -0.80    3.77
  -8   2  -6   12.64    5.50
  -8   2  -6   16.83    6.17
  -8   2  -7   -3.22    4.12
  -8   2  -7    1.29    3.68
  -8   2  -7    0.29    3.96
  -8   2  -8   -0.25    4.49
  -8   2  -8    3.26    5.59
  -8   2  -8    4.48    4.06
  -8   2  -9   21.88    6.70
  -8   2  -9   33.59    6.75
  -8   2 -10   62.87    7.86
  -8   2 -10   65.36    8.05
  -8   2 -11   51.25    7.71
  -8   2 -11   50.43    7.80
   8  -1  -6   14.65    4.44
   8  -1  -5   79.62    8.06
   8  -1  -4   57.60    6.26
   8  -1  -3   -0.52    2.74
  -8   1   3   -0.65    2.24
   8  -1  -2    4.35    2.92
  -8   1   2    4.42    3.58
  -8   1   2    3.65    4.42
   8  -1  -1    1.60    3.22
  -8   1   1    1.60    3.36
  -8   1   1    2.22    2.89
   8  -1   0    4.52    2.62
  -8   1   0    5.83    4.61
  -8   1   0    2.77    3.05
  -8   1  -1   28.03    5.26
  -8   1  -1   32.44   16.23
  -8   1  -2   77.71    7.62
  -8   1  -2   86.99   16.60
  -8   1  -3   39.84    6.22
  -8   1  -3   36.53   14.50
  -8   1  -4  111.02    8.89
  -8   1  -4  116.52    8.40
  -8   1  -5   40.37    6.71
  -8   1  -5   37.45    5.86
  -8   1  -6   53.40    6.98
  -8   1  -6   61.73    6.78
  -8   1  -7   50.92    6.92
  -8   1  -7   47.78    7.30
  -8   1  -7   41.63    5.32
  -8   1  -8    8.30    5.58
  -8   1  -8    4.17    5.32
  -8   1  -8    6.40    4.76
  -8   1  -9  182.46   11.24
  -8   1  -9  200.36   11.80
  -8   1 -10   42.46    7.74
  -8   1 -10   35.42    7.12
  -8   1 -11    1.72    3.82
  -8   1 -11    1.97    4.18
  -8   1 -12   18.85    5.99
  -8   1 -12   14.90    5.69
   8   0  -6   26.56    5.76
   8   0  -5    1.97    3.42
   8   0  -4    1.12    2.96
   8   0  -3   67.93    6.99
  -8   0   3   66.69    6.05
   8   0  -2   66.77    6.02
  -8   0   2   70.28    6.30
   8   0  -1   41.93    5.07
  -8   0   1   37.58    6.48
  -8   0   1   43.83   10.21
   8   0   0   72.26    5.60
  -8   0   0   78.54    7.51
  -8   0   0   87.23    7.32
   8   0   1   88.02    6.01
  -8   0  -1   83.39    7.17
  -8   0  -1   89.26    7.53
   8   0   2   34.52    3.33
  -8   0  -2   33.96    4.69
  -8   0  -2   29.89   17.32
  -8   0  -3  185.92   10.33
  -8   0  -3  193.31   18.66
  -8   0  -4  209.21   11.56
  -8   0  -4  203.53   10.51
  -8   0  -5   12.81    6.61
  -8   0  -5    8.80    4.53
  -8   0  -6   11.81    5.57
  -8   0  -6   16.00    4.46
  -8   0  -7   63.19    6.49
  -8   0  -7   68.61    8.63
  -8   0  -7   66.58    6.64
  -8   0  -8   48.09    6.36
  -8   0  -8   42.85    5.90
  -8   0  -9  108.50    8.63
  -8   0  -9  111.96    9.61
  -8   0 -10   95.84    8.71
  -8   0 -10   91.07    9.50
  -8   0 -11   20.62    6.45
  -8   0 -11   19.93    7.43
  -8   0 -12    2.48    3.90
  -8   0 -12    8.38    5.39
  -8   0 -13  144.12   12.26
  -8   0 -13  128.85   10.04
   8   1  -6   16.01    5.04
   8   1  -5   40.17    6.56
   8   1  -4    4.56    4.26
   8   1  -3   89.97    8.08
  -8  -1   3   79.29   16.45
   8   1  -2   34.43    5.62
  -8  -1   2   30.21   14.60
   8   1  -1  285.91   11.26
  -8  -1   1  278.47   13.71
  -8  -1   1  275.24   12.72
   8   1   0  157.61    8.38
  -8  -1   0  142.72   19.06
  -8  -1   0  151.40   19.07
   8   1   1   33.79    4.39
  -8  -1  -1   31.20   14.72
  -8  -1  -1   37.24    6.84
   8   1   2  111.75    7.04
  -8  -1  -2  108.16    8.15
  -8  -1  -2  100.75    7.23
   8   1   3   -0.53    1.54
  -8  -1  -3   -1.08    3.27
  -8  -1  -3   -0.31    1.85
   8   1   4    1.88    2.01
  -8  -1  -4    1.54    3.25
  -8  -1  -4    4.04    3.49
  -8  -1  -5   34.11   15.12
  -8  -1  -5   32.12    4.98
  -8  -1  -6   59.85    6.66
  -8  -1  -6   62.81    6.16
  -8  -1  -7   75.38    7.17
  -8  -1  -7   77.66    8.64
  -8  -1  -7   78.93    6.97
  -8  -1  -8   72.39    7.13
  -8  -1  -8   80.36   18.35
  -8  -1  -9   31.51    5.97
  -8  -1  -9   25.33    8.29
  -8  -1 -10  145.92    9.87
  -8  -1 -10  146.33   11.31
  -8  -1 -11    9.87    4.69
  -8  -1 -11   11.46    5.53
  -8  -1 -12   20.17    5.44
  -8  -1 -12   17.19    5.33
  -8  -1 -13   65.11    8.16
  -8  -1 -13   65.53    7.39
   8   2  -6    4.94    3.73
   8   2  -5    9.46    4.89
   8   2  -4   36.02    6.53
   8   2  -3   -1.61    2.87
   8   2  -2  172.56   10.45
  -8  -2   2  181.58    9.73
   8   2  -1  714.37   20.87
  -8  -2   1  681.40   17.78
   8   2   0    0.75    2.33
  -8  -2   0   -0.16    2.02
   8   2   1   21.82    3.78
  -8  -2  -1   22.08    4.31
   8   2   2   20.44    3.79
  -8  -2  -2   21.44    4.29
   8   2   3    1.54    2.02
  -8  -2  -3    0.90    2.54
   8   2   4   36.08    4.07
  -8  -2  -4   31.62    6.53
  -8  -2  -4   31.88    4.43
   8   2   5    0.42    1.70
  -8  -2  -5    1.17    2.32
  -8  -2  -5    3.37    2.86
   8   2   6    0.24    1.13
  -8  -2  -6   -0.10    3.26
  -8  -2  -6    2.80    2.84
  -8  -2  -7  108.51    7.49
  -8  -2  -7   91.26   11.60
  -8  -2  -8   42.24    5.13
  -8  -2  -8   38.04   13.91
  -8  -2  -9  131.04    8.33
  -8  -2  -9  130.66    9.66
  -8  -2 -10    5.86    3.12
  -8  -2 -10    6.75    3.73
  -8  -2 -11    0.37    2.63
  -8  -2 -11   -1.28    3.62
  -8  -2 -12   57.38    6.91
  -8  -2 -13   41.22    7.01
  -8  -2 -13   42.84    6.61
   8   3  -5   46.96    7.91
   8   3  -4   40.36    8.17
   8   3  -3   35.84    6.11
   8   3  -2  102.74    8.43
   8   3  -1   52.63    6.55
  -8  -3   1   49.41   10.29
   8   3   0   17.05    4.47
  -8  -3   0   15.38    9.02
   8   3   1    3.51    3.86
  -8  -3  -1    0.47    2.26
   8   3   2   10.33    3.67
  -8  -3  -2   12.30    3.23
   8   3   3   15.81    3.44
  -8  -3  -3   16.08    3.84
   8   3   4  120.85    7.14
  -8  -3  -4  134.60    7.42
   8   3   5  159.56    8.38
  -8  -3  -5  149.31    7.91
   8   3   6   27.52    4.30
   8   3   7   41.14    4.73
   8   3   8   42.52    4.47
  -8  -3  -8   44.20    5.17
  -8  -3  -8   41.26   19.77
  -8  -3  -9   98.71    7.08
  -8  -3  -9  119.94    9.77
  -8  -3 -10   49.91    5.88
  -8  -3 -10   44.48   18.79
  -8  -3 -11   65.98    6.55
  -8  -3 -11   58.53   19.28
  -8  -3 -12    8.30    7.57
  -8  -3 -12   11.88    5.47
  -8  -3 -13    8.53    4.07
  -8  -3 -13    5.52    3.59
   8   4  -4   32.60    6.60
   8   4  -3   13.26    5.14
   8   4  -2    2.18    3.60
   8   4  -1    6.57    4.30
   8   4   0    2.95    3.30
   8   4   1  103.03    7.99
   8   4   2   88.97    7.26
   8   4   3   43.38    5.36
   8   4   4  294.34   12.04
   8   4   5    0.27    2.31
   8   4   6   15.02    3.80
   8   4   7   80.44    6.70
   8   4   8  219.79   10.49
  -8  -4  -8  219.95    9.01
   8   4   9   31.82    5.84
  -8  -4  -9   38.80    4.67
  -8  -4 -10   87.14    6.56
  -8  -4 -10   87.65    8.25
  -8  -4 -11   33.59    4.70
  -8  -4 -11   25.90   11.12
  -8  -4 -12   41.79    5.58
  -8  -4 -12   30.61   15.40
  -8  -4 -13   21.34    4.74
  -8  -4 -13   18.09    6.73
   8   5  -2   12.38    4.35
   8   5  -1   -0.15    3.64
   8   5   0   12.78    4.98
   8   5   1   52.86    6.67
   8   5   2  133.88    9.14
   8   5   3   17.78    4.62
   8   5   4  119.37    8.54
   8   5   5    6.43    3.72
   8   5   7   74.05    6.85
   8   5   8    2.62    2.23
   8   5   9   26.05   18.55
   8   5  10    5.43    5.44
   8   5  11    4.84    5.05
  -8  -5 -12    3.42    2.80
   8   6  -1    2.75    4.04
   8   6   0   -1.08    3.92
   8   6   1    7.46    4.00
   8   6   2   84.25    8.12
   8   6   3   19.46    5.10
   8   6   4    6.41    4.49
   8   6   5   12.50    5.57
   8   6   6   14.56    5.02
   8   6   7  150.61   10.06
   8   6   8   27.74   19.50
   8   6   9   16.31   16.32
   8   6  10   21.36   17.98
   8   6  11    6.30    4.20
   8   7   2   -0.52    3.89
   8   7   3    4.34    5.61
   8   7   5    6.27    3.70
   8   7   6   22.70    5.86
   8   7   7  645.48   21.97
   8   7   8    9.08    8.15
   8   7   9   -1.17    3.00
  -9   4   0   12.32    4.79
  -9   4  -1   15.98    4.78
  -9   4  -2    3.33    4.83
  -9   4  -3    2.63    3.74
  -9   4  -3   -0.05    3.97
  -9   4  -4    1.62    4.02
  -9   3   2    1.18    2.31
  -9   3   1    8.40    3.71
  -9   3   1    3.15    2.55
  -9   3   0    6.67    3.80
  -9   3   0   15.04    5.63
  -9   3  -1   15.53    5.45
  -9   3  -1    8.34    4.75
  -9   3  -2   48.51    6.79
  -9   3  -2   51.65    7.54
  -9   3  -3    6.60    5.00
  -9   3  -3    5.96    3.78
  -9   3  -4  103.09    9.44
  -9   3  -4  100.23   10.03
  -9   3  -5  214.63   12.93
  -9   3  -5  206.04   12.73
  -9   3  -6   23.36    6.13
  -9   3  -6   16.07    5.48
  -9   3  -7   24.40    6.77
  -9   3  -7   25.51    6.20
  -9   2   3    0.80    3.20
  -9   2   2    0.56    1.71
  -9   2   1   33.21    5.18
  -9   2   1   26.37   15.94
  -9   2   0   24.61    5.18
  -9   2   0   23.66   12.87
  -9   2  -1   32.20   16.94
  -9   2  -1   36.48   19.86
  -9   2  -2   13.30    9.80
  -9   2  -2   17.18    5.80
  -9   2  -3   81.99    8.28
  -9   2  -3   81.95   18.09
  -9   2  -4   -1.07    3.57
  -9   2  -4   -1.76    3.87
  -9   2  -5   38.06    5.61
  -9   2  -5   47.55    7.84
  -9   2  -6    4.42    4.46
  -9   2  -6    5.43    4.15
  -9   2  -7   80.55    9.10
  -9   2  -7   78.04    8.88
  -9   2  -8   45.13    7.63
  -9   2  -8   55.94    7.86
  -9   2  -9   14.34    5.64
  -9   1   3   24.57   13.48
  -9   1   2   65.88    6.72
  -9   1   2   68.53   13.63
  -9   1   1    2.76    2.93
  -9   1   1    0.75    2.24
  -9   1   0    0.97    2.97
  -9   1   0    5.57    3.20
  -9   1  -1    7.42    4.06
  -9   1  -1    1.40    3.02
  -9   1  -2   84.41    7.84
  -9   1  -2   84.01    8.16
  -9   1  -3   73.53    7.74
  -9   1  -3   79.40    7.90
  -9   1  -4   -1.00    3.28
  -9   1  -4    2.88    4.72
  -9   1  -5   11.67    5.74
  -9   1  -5   13.98    5.19
  -9   1  -6   51.79    8.18
  -9   1  -6   53.30    7.98
  -9   1  -7   39.00    7.54
  -9   1  -7   44.69    6.91
  -9   1  -8   65.96    8.25
  -9   1  -8   65.01    8.77
  -9   1  -8   58.95    7.78
  -9   1  -9    2.79    3.94
  -9   1  -9    5.38    5.75
  -9   1 -10   14.56    6.14
  -9   1 -10   16.43    6.21
   9   0  -4   85.74    8.00
   9   0  -3   18.04    4.38
  -9   0   3   19.25    5.59
   9   0  -2   61.22    6.25
  -9   0   2   56.23    6.09
  -9   0   2   59.41   16.50
  -9   0   1    6.06    4.06
  -9   0   1    2.16    2.40
  -9   0   0    4.69    2.96
  -9   0   0    4.83    3.03
  -9   0  -1   13.56    4.45
  -9   0  -1   14.94    4.71
  -9   0  -2   59.70    7.40
  -9   0  -2   65.10    7.14
  -9   0  -3    3.25    5.35
  -9   0  -3    4.32    3.41
  -9   0  -4    1.88    3.39
  -9   0  -4    1.28    3.21
  -9   0  -5    5.40    4.38
  -9   0  -5    5.42    3.10
  -9   0  -6   17.80    5.20
  -9   0  -6   19.78    6.01
  -9   0  -7    2.36    5.81
  -9   0  -7    1.06    3.13
  -9   0  -8  277.02   13.60
  -9   0  -8  251.33   13.86
  -9   0  -8  258.79   12.97
  -9   0  -9   35.17    6.17
  -9   0  -9   32.62    7.03
  -9   0 -10   45.15    7.11
  -9   0 -10   42.02    6.82
  -9   0 -11   39.02    6.63
   9   1  -3    0.83    2.51
  -9  -1   3   -0.28    2.79
   9   1  -2    8.32    3.70
  -9  -1   2    7.77    6.05
  -9  -1   2    8.19    3.89
   9   1  -1   91.22    7.38
  -9  -1   1   88.16    7.54
  -9  -1   1   91.01   12.39
   9   1   0   50.96    5.80
  -9  -1   0   38.60   23.75
  -9  -1   0   37.59   17.95
   9   1   1    6.28    3.82
  -9  -1  -1    6.37    4.08
  -9  -1  -1    9.71    4.49
  -9  -1  -2    8.63    4.66
  -9  -1  -2   10.62    5.04
  -9  -1  -3    0.79    1.87
  -9  -1  -3   -0.20    3.23
  -9  -1  -4   25.00   14.21
  -9  -1  -4   25.78    4.94
  -9  -1  -5    0.20    3.56
  -9  -1  -5    1.20    2.98
  -9  -1  -6    6.72    3.74
  -9  -1  -6    7.73    4.50
  -9  -1  -7   62.20    9.15
  -9  -1  -7   72.74    8.12
  -9  -1  -8  187.78   10.39
  -9  -1  -8  190.05   12.97
  -9  -1  -9   18.61    5.27
  -9  -1  -9   23.24    6.19
  -9  -1 -10   22.19    5.78
  -9  -1 -10   25.86    6.36
  -9  -1 -11   19.90    5.39
  -9  -1 -11   13.81    6.40
   9   2  -3   18.02    5.50
  -9  -2   3    9.12    4.39
   9   2  -2  123.70    9.63
  -9  -2   2  109.54    7.91
  -9  -2   2  112.69    8.09
   9   2  -1  116.32    8.81
  -9  -2   1  114.05    8.80
  -9  -2   1  115.02   23.60
   9   2   0   41.99    5.88
  -9  -2   0   33.01    5.31
  -9  -2   0   35.21    8.17
   9   2   1    0.95    1.80
  -9  -2  -1    1.51    2.15
  -9  -2  -1    2.29    2.73
   9   2   2   19.14    4.56
  -9  -2  -2   15.73    8.41
  -9  -2  -2   17.06    3.80
   9   2   3    3.58    2.81
  -9  -2  -3   -0.03    3.24
  -9  -2  -3    3.28    2.75
  -9  -2  -4   16.42    9.83
  -9  -2  -4   22.07    4.24
  -9  -2  -5    7.46    5.51
  -9  -2  -5    6.00    3.26
  -9  -2  -6    0.42    3.54
  -9  -2  -6   -2.44    3.00
  -9  -2  -7  187.59   11.70
  -9  -2  -7  193.15   10.62
  -9  -2  -8    1.41    3.28
  -9  -2  -9    9.32    4.52
  -9  -2  -9    6.31    3.41
  -9  -2 -10   -2.75    3.01
  -9  -2 -10    0.14    1.72
  -9  -2 -11    3.38    2.88
  -9  -2 -11    4.45    4.19
  -9  -2 -12    4.59    4.53
  -9  -2 -12    1.74    3.66
   9   3  -2    2.41    2.96
   9   3  -1   24.96    6.32
   9   3   0    1.21    2.98
   9   3   1    7.25    3.86
   9   3   2   13.84    3.97
   9   3   3   57.86    6.34
   9   3   4    4.59    3.23
  -9  -3  -4    4.76    2.87
   9   3   5    0.97    2.52
  -9  -3  -6    4.34    5.20
  -9  -3  -6    5.69    3.04
  -9  -3  -7  106.48    9.59
  -9  -3  -8    1.22    1.90
  -9  -3  -9    0.31    2.28
  -9  -3  -9    0.50    2.16
  -9  -3 -10   -1.13    2.18
  -9  -3 -10   -0.40    2.05
  -9  -3 -11   27.14    5.04
  -9  -3 -11   22.93    9.78
   9   4  -1    0.32    2.79
   9   4   0   37.05    5.74
   9   4   1   -0.73    2.83
   9   4   2    3.79    4.23
   9   4   3   17.05    4.28
   9   4   4   15.57    4.81
   9   4   5   68.67    6.43
   9   4   6    2.64    2.16
  -9  -4  -9    8.14    3.57
  -9  -4 -10   97.57   18.36
   9   5   1    1.67    2.88
   9   5   2   23.24    5.04
   9   5   3   15.33    4.41
   9   5   4    2.58    3.82
   9   5   5   10.32    4.00
   9   5   6    6.07    2.73
   9   5   7    0.33    2.46
   9   5   8   90.43    7.37
   9   6   4   -0.05    2.86
   9   6   5  101.69    8.97
   9   6   6   70.29    7.71
   9   6   7   29.17    5.58
 -10   2  -2    7.66    4.88
 -10   2  -3    5.83    3.91
 -10   2  -4    2.39    3.63
 -10   1  -1   23.03    6.30
 -10   1  -1   23.85    7.44
 -10   1  -2   -1.83    3.13
 -10   1  -2   -3.12    3.08
 -10   1  -3   83.93    8.87
 -10   1  -3   84.14    8.63
 -10   1  -4    9.02    5.71
 -10   1  -4    2.72    3.31
 -10   1  -5   10.76    4.66
 -10   1  -5   13.63    5.20
 -10   1  -6    5.66    4.55
 -10   1  -6    3.64    3.52
 -10   1  -7   10.26    5.78
 -10   0   0    2.79    3.24
 -10   0   0    0.74    4.14
 -10   0  -1    9.22    4.69
 -10   0  -1    9.18    5.09
 -10   0  -2   17.16    5.41
 -10   0  -2   17.12    5.52
 -10   0  -3   52.91    7.40
 -10   0  -3   47.11    6.74
 -10   0  -4   40.47    6.99
 -10   0  -4   36.62    6.30
 -10   0  -5    0.47    4.27
 -10   0  -5    2.89    3.24
 -10   0  -6    4.98    3.81
 -10   0  -6    7.95    4.81
 -10   0  -7   45.07    7.29
 -10   0  -8   44.99    7.14
 -10  -1   0   10.81    8.62
 -10  -1   0   11.99    6.29
 -10  -1  -1   16.64    8.23
 -10  -1  -1   21.82    6.30
 -10  -1  -2   13.61    8.22
 -10  -1  -2   15.59    5.90
 -10  -1  -3    0.49    2.55
 -10  -1  -3   -0.98    3.64
 -10  -1  -4   10.22    5.99
 -10  -1  -4   12.24    4.88
 -10  -1  -5    3.01    3.13
 -10  -1  -5    3.72    3.78
 -10  -1  -6   28.13    6.03
 -10  -1  -6   29.58    5.76
 -10  -1  -7   29.87    7.04
 -10  -1  -7   37.01    6.53
 -10  -2  -1   -0.14    2.82
 -10  -2  -2    8.42    8.13
 -10  -2  -3   12.62    7.94
 -10  -2  -3   14.82    4.33
 -10  -2  -4   12.63    8.95
 -10  -2  -4   15.68    5.32
 -10  -2  -5    0.23    3.40
 -10  -2  -5   -0.68    2.91
 -10  -2  -6    4.37    4.19
 -10  -2  -6    4.94    3.73
 -10  -2  -7   22.51    5.45
 -10  -3  -2   11.37   13.25
 -10  -3  -3    0.91    1.95
 -10  -3  -4   71.62   18.89
 -10  -3  -5   23.57   15.34
 -10  -3  -6   -3.06    2.58
;
loop_
_symmetry_equiv_pos_site_id
_space_group_symop_operation_xyz
1 +X,+Y,+Z
2 -X,-Y,-Z
loop_
_atom_site_label
_atom_site_type_symbol
_atom_site_fract_x
_atom_site_fract_y
_atom_site_fract_z
_atom_site_U_iso_or_equiv
_atom_site_adp_type
_atom_site_occupancy
_atom_site_site_symmetry_multiplicity
_atom_site_calc_flag
_atom_site_refinement_flags
S1 S 0.26345(6) 0.38734(6) 0.46257(4) 0.02973(16) Uani 1 2 d .
O1 O 0.25870(16) 0.18844(15) 0.08562(10) 0.0258(3) Uani 1 2 d .
O2 O 0.19279(16) 0.11121(15) 0.34558(11) 0.0289(3) Uani 1 2 d .
O3 O 0.2071(2) 0.46061(17) 0.03128(12) 0.0426(4) Uani 1 2 d .
N20 N 0.1056(2) 0.7713(2) 0.13823(15) 0.0368(4) Uani 1 2 d .
C1 C 0.4909(2) 0.1632(2) 0.26288(14) 0.0210(4) Uani 1 2 d .
C2 C 0.3025(2) 0.1998(2) 0.28015(14) 0.0213(4) Uani 1 2 d .
C3 C 0.1527(2) 0.6485(2) 0.18250(16) 0.0265(4) Uani 1 2 d .
C5 C 0.5466(2) 0.0433(2) 0.34171(15) 0.0257(4) Uani 1 2 d .
C6 C 0.2103(2) 0.5023(2) 0.25050(15) 0.0219(4) Uani 1 2 d .
C7 C 0.8417(2) 0.0878(2) 0.23544(16) 0.0298(4) Uani 1 2 d .
C8 C 0.2469(2) 0.3584(2) 0.21204(14) 0.0212(4) Uani 1 2 d .
C9 C 0.2204(2) 0.5366(2) 0.35622(15) 0.0239(4) Uani 1 2 d .
C10 C 0.7218(3) 0.0087(2) 0.32772(16) 0.0305(4) Uani 1 2 d .
C11 C 0.2342(2) 0.3460(2) 0.09967(15) 0.0246(4) Uani 1 2 d .
C12 C 0.2546(2) 0.1577(3) -0.02240(15) 0.0301(4) Uani 1 2 d .
C13 C 0.7869(2) 0.2059(2) 0.15680(16) 0.0272(4) Uani 1 2 d .
C14 C 0.1999(3) 0.6897(3) 0.38627(18) 0.0341(5) Uani 1 2 d .
C15 C 0.2554(2) 0.5304(3) 0.54488(16) 0.0307(4) Uani 1 2 d .
C16 C 0.4254(3) 0.1940(3) -0.10603(16) 0.0369(5) Uani 1 2 d .
C17 C 0.2192(3) 0.6849(3) 0.49296(18) 0.0377(5) Uani 1 2 d .
C18 C 0.2837(3) 0.4758(3) 0.65800(17) 0.0410(5) Uani 1 2 d .
C19 C 0.6116(2) 0.2444(2) 0.17175(14) 0.0235(4) Uani 1 2 d .
H5 H 0.46481 -0.01374 0.4041 0.0308 Uiso 1 2 calc R
H7 H 0.96148 0.06123 0.22593 0.0358 Uiso 1 2 calc R
H10 H 0.76029 -0.07008 0.38203 0.0366 Uiso 1 2 calc R
H12A H 0.16251 0.22857 -0.04798 0.0362 Uiso 1 2 calc R
H12B H 0.22721 0.04036 -0.01539 0.0362 Uiso 1 2 calc R
H13 H 0.86887 0.25996 0.09324 0.0326 Uiso 1 2 calc R
H14 H 0.17529 0.78891 0.3397 0.0409 Uiso 1 2 calc R
H16A H 0.41977 0.17257 -0.17762 0.0442 Uiso 1 2 calc R
H16B H 0.45167 0.31054 -0.11381 0.0442 Uiso 1 2 calc R
H16C H 0.51629 0.12258 -0.08126 0.0442 Uiso 1 2 calc R
H17 H 0.20804 0.7806 0.5256 0.0453 Uiso 1 2 calc R
H18A H 0.30738 0.35575 0.67124 0.0492 Uiso 1 2 calc R
H18B H 0.38235 0.53311 0.66285 0.0492 Uiso 1 2 calc R
H18C H 0.17988 0.5029 0.71381 0.0492 Uiso 1 2 calc R
H19 H 0.57398 0.32722 0.11907 0.0282 Uiso 1 2 calc R
loop_
_atom_site_aniso_label
_atom_site_aniso_U_11
_atom_site_aniso_U_22
_atom_site_aniso_U_33
_atom_site_aniso_U_12
_atom_site_aniso_U_13
_atom_site_aniso_U_23
S1 0.0425(3) 0.0251(3) 0.0226(3) -0.0046(2) -0.0086(2) -0.00546(18)
O1 0.0342(7) 0.0242(7) 0.0220(7) -0.0034(5) -0.0110(6) -0.0049(5)
O2 0.0308(7) 0.0248(7) 0.0284(7) -0.0065(5) -0.0057(6) 0.0003(6)
O3 0.0693(10) 0.0303(8) 0.0313(8) 0.0094(7) -0.0239(8) -0.0027(6)
N20 0.0387(9) 0.0281(9) 0.0448(11) 0.0049(7) -0.0168(8) -0.0039(8)
C1 0.0272(9) 0.0173(8) 0.0205(9) 0.0012(7) -0.0088(7) -0.0057(7)
C2 0.0273(9) 0.0201(9) 0.0179(9) -0.0034(7) -0.0065(7) -0.0046(7)
C3 0.0234(9) 0.0236(10) 0.0335(10) 0.0005(7) -0.0088(8) -0.0061(8)
C5 0.0335(10) 0.0215(9) 0.0221(9) -0.0017(7) -0.0086(8) -0.0021(7)
C6 0.0174(8) 0.0215(9) 0.0257(9) -0.0023(7) -0.0054(7) -0.0014(7)
C7 0.0282(9) 0.0293(10) 0.0352(11) 0.0060(8) -0.0129(8) -0.0102(8)
C8 0.0198(8) 0.0215(9) 0.0221(9) -0.0028(7) -0.0055(7) -0.0024(7)
C9 0.0206(8) 0.0227(9) 0.0284(10) -0.0010(7) -0.0056(7) -0.0060(7)
C10 0.0391(10) 0.0242(10) 0.0316(10) 0.0053(8) -0.0182(9) -0.0031(8)
C11 0.0240(8) 0.0265(9) 0.0234(9) -0.0003(7) -0.0076(7) -0.0032(7)
C12 0.0373(10) 0.0340(11) 0.0242(10) -0.0056(8) -0.0127(8) -0.0087(8)
C13 0.0264(9) 0.0286(10) 0.0254(10) -0.0013(7) -0.0040(8) -0.0063(8)
C14 0.0378(10) 0.0261(10) 0.0415(12) 0.0018(8) -0.0130(9) -0.0112(9)
C15 0.0264(9) 0.0377(11) 0.0292(10) -0.0100(8) -0.0013(8) -0.0134(9)
C16 0.0420(11) 0.0400(12) 0.0278(11) 0.0008(9) -0.0072(9) -0.0082(9)
C17 0.0412(11) 0.0332(11) 0.0440(13) -0.0021(9) -0.0094(10) -0.0214(10)
C18 0.0459(12) 0.0519(14) 0.0276(11) -0.0113(10) -0.0054(9) -0.0147(10)
C19 0.0285(9) 0.0211(9) 0.0218(9) 0.0007(7) -0.0090(7) -0.0030(7)
loop_
_atom_type_symbol
_atom_type_description
_atom_type_scat_dispersion_real
_atom_type_scat_dispersion_imag
_atom_type_scat_source
C C 0.0033 0.0016
;
International Tables for Crystallography
(Vol. C, Tables 4.2.6.8 and 6.1.1.4)
;
H H 0.0000 0.0000
;
International Tables for Crystallography
(Vol. C, Table 6.1.1.4)
;
N N 0.0061 0.0033
;
International Tables for Crystallography
(Vol. C, Tables 4.2.6.8 and 6.1.1.4)
;
O O 0.0106 0.0060
;
International Tables for Crystallography
(Vol. C, Tables 4.2.6.8 and 6.1.1.4)
;
S S 0.1246 0.1234
;
International Tables for Crystallography
(Vol. C, Tables 4.2.6.8 and 6.1.1.4)
;
loop_
_geom_angle_atom_site_label_1
_geom_angle_atom_site_label_2
_geom_angle_atom_site_label_3
_geom_angle
_geom_angle_publ_flag
C9 S1 C15 92.74(10) yes
C11 O1 C12 116.30(14) yes
C2 C1 C5 118.47(13) yes
C2 C1 C19 121.80(15) yes
C5 C1 C19 119.72(16) yes
O2 C2 C1 123.40(15) yes
O2 C2 C8 119.16(15) yes
C1 C2 C8 117.43(13) yes
N20 C3 C6 172.9(2) yes
C1 C5 C10 119.32(15) yes
C3 C6 C8 119.71(18) yes
C3 C6 C9 111.84(16) yes
C8 C6 C9 128.45(16) yes
C10 C7 C13 120.07(17) yes
C2 C8 C6 122.41(17) yes
C2 C8 C11 116.07(15) yes
C6 C8 C11 121.53(16) yes
S1 C9 C6 124.29(13) yes
S1 C9 C14 109.76(16) yes
C6 C9 C14 125.95(17) yes
C5 C10 C7 120.74(18) yes
O1 C11 O3 124.67(19) yes
O1 C11 C8 110.11(14) yes
O3 C11 C8 125.22(18) yes
O1 C12 C16 110.84(17) yes
C7 C13 C19 119.52(15) yes
C9 C14 C17 113.24(18) yes
S1 C15 C17 110.61(17) yes
S1 C15 C18 120.11(15) yes
C17 C15 C18 129.3(2) yes
C14 C17 C15 113.7(2) yes
C1 C19 C13 120.59(16) yes
C1 C5 H5 120.335 no
C10 C5 H5 120.340 no
C10 C7 H7 119.960 no
C13 C7 H7 119.974 no
C5 C10 H10 119.629 no
C7 C10 H10 119.629 no
O1 C12 H12A 109.474 no
O1 C12 H12B 109.472 no
C16 C12 H12A 109.474 no
C16 C12 H12B 109.473 no
H12A C12 H12B 108.055 no
C7 C13 H13 120.237 no
C19 C13 H13 120.244 no
C9 C14 H14 123.383 no
C17 C14 H14 123.382 no
C12 C16 H16A 109.468 no
C12 C16 H16B 109.474 no
C12 C16 H16C 109.475 no
H16A C16 H16B 109.468 no
H16A C16 H16C 109.470 no
H16B C16 H16C 109.472 no
C14 C17 H17 123.175 no
C15 C17 H17 123.174 no
C15 C18 H18A 109.466 no
C15 C18 H18B 109.466 no
C15 C18 H18C 109.466 no
H18A C18 H18B 109.477 no
H18A C18 H18C 109.472 no
H18B C18 H18C 109.481 no
C1 C19 H19 119.703 no
C13 C19 H19 119.708 no
loop_
_geom_bond_atom_site_label_1
_geom_bond_atom_site_label_2
_geom_bond_distance
_geom_bond_publ_flag
S1 C9 1.7304(18) yes
S1 C15 1.717(2) yes
O1 C11 1.336(2) yes
O1 C12 1.463(3) yes
O2 C2 1.2122(19) yes
O3 C11 1.200(2) yes
N20 C3 1.144(2) yes
C1 C2 1.484(2) yes
C1 C5 1.402(2) yes
C1 C19 1.387(2) yes
C2 C8 1.524(2) yes
C3 C6 1.458(2) yes
C5 C10 1.384(3) yes
C6 C8 1.352(3) yes
C6 C9 1.460(3) yes
C7 C10 1.385(2) yes
C7 C13 1.389(3) yes
C8 C11 1.492(3) yes
C9 C14 1.375(3) yes
C12 C16 1.501(2) yes
C13 C19 1.389(3) yes
C14 C17 1.407(3) yes
C15 C17 1.359(3) yes
C15 C18 1.500(3) yes
C5 H5 0.950 no
C7 H7 0.950 no
C10 H10 0.950 no
C12 H12A 0.990 no
C12 H12B 0.990 no
C13 H13 0.950 no
C14 H14 0.950 no
C16 H16A 0.980 no
C16 H16B 0.980 no
C16 H16C 0.980 no
C17 H17 0.950 no
C18 H18A 0.980 no
C18 H18B 0.980 no
C18 H18C 0.980 no
C19 H19 0.950 no
loop_
_geom_contact_atom_site_label_1
_geom_contact_atom_site_label_2
_geom_contact_distance
_geom_contact_publ_flag
_geom_contact_site_symmetry_2
S1 O2 3.1291(16) no .
S1 C1 3.4660(18) no .
S1 C2 2.981(2) no .
S1 C8 3.299(2) no .
O1 O2 3.1574(19) no .
O1 C1 3.280(2) no .
O1 C2 2.628(2) no .
O1 C6 3.584(2) no .
O1 C19 3.414(3) no .
O2 C5 2.844(2) no .
O2 C6 3.206(2) no .
O2 C9 3.560(2) no .
O2 C11 3.290(2) no .
O3 N20 3.084(2) no .
O3 C3 2.635(3) no .
O3 C6 2.899(3) no .
O3 C12 2.687(3) no .
O3 C16 3.190(3) no .
N20 C8 3.518(2) no .
N20 C9 3.363(3) no .
N20 C14 3.387(3) no .
C1 C6 3.444(2) no .
C1 C7 2.779(3) no .
C1 C11 3.388(3) no .
C2 C9 3.080(3) no .
C3 C11 2.855(3) no .
C3 C14 2.824(3) no .
C5 C13 2.788(2) no .
C8 C19 2.942(2) no .
C10 C19 2.767(3) no .
C11 C16 3.100(3) no .
C11 C19 3.403(3) no .
O1 C7 3.452(2) no 1_455
O2 C7 3.523(3) no 1_455
O2 C14 3.402(2) no 1_545
O3 C13 3.260(2) no 2_665
O3 C19 3.279(2) no 2_665
N20 C7 3.427(3) no 1_465
N20 C12 3.527(2) no 1_565
N20 C12 3.560(3) no 2_565
N20 C13 3.600(3) no 2_665
C3 C16 3.548(3) no 2_665
C7 O1 3.452(2) no 1_655
C7 O2 3.523(3) no 1_655
C7 N20 3.427(3) no 1_645
C12 N20 3.527(2) no 1_545
C12 N20 3.560(3) no 2_565
C13 O3 3.260(2) no 2_665
C13 N20 3.600(3) no 2_665
C14 O2 3.402(2) no 1_565
C16 C3 3.548(3) no 2_665
C19 O3 3.279(2) no 2_665
S1 H14 3.4680 no .
S1 H17 3.4549 no .
S1 H18A 2.7456 no .
S1 H18B 3.4210 no .
S1 H18C 3.4066 no .
O1 H16A 3.2812 no .
O1 H16B 2.6413 no .
O1 H16C 2.6413 no .
O1 H19 3.0373 no .
O2 H5 2.5733 no .
O3 H12A 2.4298 no .
O3 H16B 2.7079 no .
O3 H19 3.4595 no .
N20 H14 2.8168 no .
C1 H10 3.2624 no .
C1 H13 3.2672 no .
C2 H5 2.6341 no .
C2 H19 2.6755 no .
C3 H14 2.5659 no .
C5 H7 3.2614 no .
C5 H19 3.2686 no .
C6 H14 2.7818 no .
C6 H19 3.3179 no .
C7 H5 3.2638 no .
C7 H19 3.2565 no .
C8 H19 2.5869 no .
C9 H17 3.2149 no .
C10 H13 3.2613 no .
C11 H12A 2.5032 no .
C11 H12B 3.1722 no .
C11 H16B 2.8628 no .
C11 H16C 3.4623 no .
C11 H19 2.8023 no .
C13 H10 3.2580 no .
C15 H14 3.2066 no .
C17 H18A 3.3351 no .
C17 H18B 2.8647 no .
C17 H18C 2.8647 no .
C18 H17 2.8518 no .
C19 H5 3.2703 no .
C19 H7 3.2582 no .
H5 H10 2.3335 no .
H7 H10 2.3290 no .
H7 H13 2.3418 no .
H12A H16A 2.3446 no .
H12A H16B 2.3542 no .
H12A H16C 2.8473 no .
H12B H16A 2.3446 no .
H12B H16B 2.8472 no .
H12B H16C 2.3543 no .
H13 H19 2.3380 no .
H14 H17 2.4500 no .
H16B H19 3.4151 no .
H16C H19 3.4849 no .
H17 H18B 2.9379 no .
H17 H18C 2.9403 no .
S1 H10 2.9320 no 2_656
S1 H18B 2.9163 no 2_666
O1 H7 2.7102 no 1_455
O1 H13 3.1211 no 1_455
O1 H16C 3.0078 no 2_655
O2 H7 2.8171 no 1_455
O2 H10 3.5523 no 2_656
O2 H14 2.6867 no 1_545
O2 H17 3.2097 no 1_545
O2 H17 3.3287 no 2_566
O3 H13 3.1345 no 1_455
O3 H13 2.6504 no 2_665
O3 H19 2.6761 no 2_665
N20 H7 2.8609 no 1_465
N20 H12A 2.7141 no 2_565
N20 H12B 2.6990 no 1_565
N20 H12B 3.5611 no 2_565
N20 H13 2.9717 no 2_665
N20 H16B 3.5086 no 2_665
N20 H16C 3.0878 no 2_665
N20 H18C 3.2760 no 2_566
C1 H16A 3.1281 no 2_655
C1 H18B 3.1822 no 2_666
C2 H7 3.3508 no 1_455
C2 H14 3.4934 no 1_545
C3 H12A 3.4191 no 2_565
C3 H13 3.5038 no 2_665
C3 H16B 3.0904 no 2_665
C3 H16C 3.2106 no 2_665
C3 H18C 2.9030 no 2_566
C5 H5 3.1865 no 2_656
C5 H16A 2.9559 no 2_655
C5 H17 3.4955 no 2_666
C5 H18A 3.4133 no 2_656
C5 H18B 3.5694 no 2_666
C6 H16B 3.1377 no 2_665
C6 H18C 3.0495 no 2_566
C7 H12B 3.3905 no 2_655
C7 H16A 3.4418 no 2_655
C7 H17 3.3545 no 2_666
C7 H18C 3.5391 no 2_666
C8 H7 3.4442 no 1_455
C8 H18C 3.4593 no 2_566
C9 H16B 3.5560 no 2_665
C9 H18B 3.1506 no 2_666
C10 H5 3.3495 no 2_656
C10 H16A 3.1408 no 2_655
C10 H17 2.9846 no 2_666
C10 H18A 3.0275 no 2_656
C11 H7 3.2142 no 1_455
C11 H13 3.1105 no 1_455
C11 H19 3.5703 no 2_665
C12 H7 3.3840 no 1_455
C12 H13 3.1708 no 1_455
C12 H16C 3.1418 no 2_655
C13 H12A 3.4002 no 1_655
C13 H12B 3.0039 no 2_655
C13 H16A 3.5868 no 2_655
C13 H18B 3.3981 no 2_666
C13 H18C 3.2414 no 2_666
C14 H5 3.4563 no 1_565
C14 H16A 3.5560 no 2_665
C15 H18B 3.4426 no 2_666
C16 H16C 3.2633 no 2_655
C16 H18A 3.2464 no 1_554
C17 H5 3.1344 no 1_565
C18 H10 3.5411 no 2_656
C18 H16A 3.2468 no 1_556
C18 H16B 3.5297 no 1_556
C19 H12B 3.3333 no 2_655
C19 H16A 3.4487 no 2_655
C19 H18B 3.0759 no 2_666
C19 H18C 3.5311 no 2_666
H5 C5 3.1865 no 2_656
H5 C10 3.3495 no 2_656
H5 C14 3.4563 no 1_545
H5 C17 3.1344 no 1_545
H5 H5 2.7203 no 2_656
H5 H10 3.0078 no 2_656
H5 H14 3.3166 no 1_545
H5 H16A 3.2847 no 2_655
H5 H17 2.7063 no 1_545
H5 H18A 3.3837 no 2_656
H7 O1 2.7102 no 1_655
H7 O2 2.8171 no 1_655
H7 N20 2.8609 no 1_645
H7 C2 3.3508 no 1_655
H7 C8 3.4442 no 1_655
H7 C11 3.2142 no 1_655
H7 C12 3.3840 no 1_655
H7 H12A 3.4780 no 1_655
H7 H12B 3.2608 no 1_655
H7 H14 3.0844 no 1_645
H7 H17 3.5521 no 2_666
H10 S1 2.9320 no 2_656
H10 O2 3.5523 no 2_656
H10 C18 3.5411 no 2_656
H10 H5 3.0078 no 2_656
H10 H14 3.3749 no 1_645
H10 H16A 3.5826 no 2_655
H10 H17 2.9231 no 2_666
H10 H18A 2.7135 no 2_656
H12A N20 2.7141 no 2_565
H12A C3 3.4191 no 2_565
H12A C13 3.4002 no 1_455
H12A H7 3.4780 no 1_455
H12A H13 2.5770 no 1_455
H12A H18A 3.4253 no 1_554
H12A H18C 3.3839 no 1_554
H12B N20 2.6990 no 1_545
H12B N20 3.5611 no 2_565
H12B C7 3.3905 no 2_655
H12B C13 3.0039 no 2_655
H12B C19 3.3333 no 2_655
H12B H7 3.2608 no 1_455
H12B H13 3.3796 no 1_455
H12B H13 3.0738 no 2_655
H12B H16C 2.8030 no 2_655
H13 O1 3.1211 no 1_655
H13 O3 3.1345 no 1_655
H13 O3 2.6504 no 2_665
H13 N20 2.9717 no 2_665
H13 C3 3.5038 no 2_665
H13 C11 3.1105 no 1_655
H13 C12 3.1708 no 1_655
H13 H12A 2.5770 no 1_655
H13 H12B 3.3796 no 1_655
H13 H12B 3.0738 no 2_655
H13 H18C 3.3653 no 2_666
H14 O2 2.6867 no 1_565
H14 C2 3.4934 no 1_565
H14 H5 3.3166 no 1_565
H14 H7 3.0844 no 1_465
H14 H10 3.3749 no 1_465
H14 H16A 3.3474 no 2_665
H14 H16C 3.5253 no 2_665
H16A C1 3.1281 no 2_655
H16A C5 2.9559 no 2_655
H16A C7 3.4418 no 2_655
H16A C10 3.1408 no 2_655
H16A C13 3.5868 no 2_655
H16A C14 3.5560 no 2_665
H16A C18 3.2468 no 1_554
H16A C19 3.4487 no 2_655
H16A H5 3.2847 no 2_655
H16A H10 3.5826 no 2_655
H16A H14 3.3474 no 2_665
H16A H18A 2.5272 no 1_554
H16A H18B 3.2885 no 1_554
H16A H18C 3.4804 no 1_554
H16B N20 3.5086 no 2_665
H16B C3 3.0904 no 2_665
H16B C6 3.1377 no 2_665
H16B C9 3.5560 no 2_665
H16B C18 3.5297 no 1_554
H16B H18A 3.2124 no 1_554
H16B H18B 3.2287 no 1_554
H16B H18C 3.5802 no 1_554
H16B H19 2.9604 no 2_665
H16C O1 3.0078 no 2_655
H16C N20 3.0878 no 2_665
H16C C3 3.2106 no 2_665
H16C C12 3.1418 no 2_655
H16C C16 3.2633 no 2_655
H16C H12B 2.8030 no 2_655
H16C H14 3.5253 no 2_665
H16C H16C 2.5622 no 2_655
H17 O2 3.2097 no 1_565
H17 O2 3.3287 no 2_566
H17 C5 3.4955 no 2_666
H17 C7 3.3545 no 2_666
H17 C10 2.9846 no 2_666
H17 H5 2.7063 no 1_565
H17 H7 3.5521 no 2_666
H17 H10 2.9231 no 2_666
H18A C5 3.4133 no 2_656
H18A C10 3.0275 no 2_656
H18A C16 3.2464 no 1_556
H18A H5 3.3837 no 2_656
H18A H10 2.7135 no 2_656
H18A H12A 3.4253 no 1_556
H18A H16A 2.5272 no 1_556
H18A H16B 3.2124 no 1_556
H18B S1 2.9163 no 2_666
H18B C1 3.1822 no 2_666
H18B C5 3.5694 no 2_666
H18B C9 3.1506 no 2_666
H18B C13 3.3981 no 2_666
H18B C15 3.4426 no 2_666
H18B C19 3.0759 no 2_666
H18B H16A 3.2885 no 1_556
H18B H16B 3.2287 no 1_556
H18B H19 3.3352 no 2_666
H18C N20 3.2760 no 2_566
H18C C3 2.9030 no 2_566
H18C C6 3.0495 no 2_566
H18C C7 3.5391 no 2_666
H18C C8 3.4593 no 2_566
H18C C13 3.2414 no 2_666
H18C C19 3.5311 no 2_666
H18C H12A 3.3839 no 1_556
H18C H13 3.3653 no 2_666
H18C H16A 3.4804 no 1_556
H18C H16B 3.5802 no 1_556
H19 O3 2.6761 no 2_665
H19 C11 3.5703 no 2_665
H19 H16B 2.9604 no 2_665
H19 H18B 3.3352 no 2_666
loop_
_geom_torsion_atom_site_label_1
_geom_torsion_atom_site_label_2
_geom_torsion_atom_site_label_3
_geom_torsion_atom_site_label_4
_geom_torsion
_geom_torsion_publ_flag
C9 S1 C15 C17 0.70(12) no
C9 S1 C15 C18 179.72(12) no
C15 S1 C9 C6 178.77(12) no
C15 S1 C9 C14 -0.45(11) no
C11 O1 C12 C16 81.52(17) no
C12 O1 C11 O3 1.2(2) no
C12 O1 C11 C8 -178.41(12) no
C2 C1 C5 C10 -179.26(16) no
C5 C1 C2 O2 -15.0(3) no
C5 C1 C2 C8 164.43(16) no
C2 C1 C19 C13 -179.03(16) no
C19 C1 C2 O2 165.23(18) no
C19 C1 C2 C8 -15.3(3) no
C5 C1 C19 C13 1.2(3) no
C19 C1 C5 C10 0.5(3) no
O2 C2 C8 C6 85.1(2) no
O2 C2 C8 C11 -94.69(19) no
C1 C2 C8 C6 -94.34(18) no
C1 C2 C8 C11 85.9(2) no
C1 C5 C10 C7 -1.8(3) no
C3 C6 C8 C2 -178.16(13) no
C3 C6 C8 C11 1.6(2) no
C3 C6 C9 S1 173.39(12) no
C3 C6 C9 C14 -7.5(2) no
C8 C6 C9 S1 -6.7(2) no
C8 C6 C9 C14 172.37(15) no
C9 C6 C8 C2 2.0(3) no
C9 C6 C8 C11 -178.23(13) no
C10 C7 C13 C19 0.3(3) no
C13 C7 C10 C5 1.4(3) no
C2 C8 C11 O1 6.35(19) no
C2 C8 C11 O3 -173.25(14) no
C6 C8 C11 O1 -173.46(14) no
C6 C8 C11 O3 6.9(3) no
S1 C9 C14 C17 0.09(18) no
C6 C9 C14 C17 -179.11(14) no
C7 C13 C19 C1 -1.6(3) no
C9 C14 C17 C15 0.4(2) no
S1 C15 C17 C14 -0.8(2) no
C18 C15 C17 C14 -179.68(17) no
