#------------------------------------------------------------------------------
#$Date: 2016-02-25 04:57:05 +0200 (Thu, 25 Feb 2016) $
#$Revision: 176885 $
#$URL: svn://www.crystallography.net/cod/cif/1/54/25/1542541.cif $
#------------------------------------------------------------------------------
#
# This file is available in the Crystallography Open Database (COD),
# http://www.crystallography.net/
#
# All data on this site have been placed in the public domain by the
# contributors.
#
data_1542541
loop_
_publ_author_name
'Mague, Joel T.'
'Mohamed, Shaaban K.'
'Akkurt, Mehmet'
'Bakhite, Etify A.'
'Albayati, Mustafa R.'
_publ_section_title
;
 Diethyl
 3-amino-6-methyl-4-[(<i>E</i>)-2-phenylethenyl]thieno[2,3-<i>b</i>]pyridine-2,5-dicarboxylate
;
_journal_coeditor_code           ZP4002
_journal_issue                   2
_journal_name_full               IUCrData
_journal_page_first              x160270
_journal_paper_doi               10.1107/S2414314616002704
_journal_volume                  1
_journal_year                    2016
_chemical_formula_iupac          'C22 H22 N2 O4 S'
_chemical_formula_moiety         'C22 H22 N2 O4 S'
_chemical_formula_sum            'C22 H22 N2 O4 S'
_chemical_formula_weight         410.47
_chemical_name_systematic
'Diethyl 3-amino-6-methyl-4-[(<i>E</i>)-2-phenylethenyl]thieno[2,3-<i>b</i>]pyridine-2,5-dicarboxylate'
_space_group_crystal_system      monoclinic
_space_group_IT_number           14
_space_group_name_Hall           '-P 2yn'
_space_group_name_H-M_alt        'P 1 21/n 1'
_symmetry_space_group_name_Hall  '-P 2yn'
_symmetry_space_group_name_H-M   'P 1 21/n 1'
_atom_sites_solution_hydrogens   mixed
_atom_sites_solution_primary     direct
_atom_sites_solution_secondary   difmap
_audit_creation_method           SHELXL-2014/7
_cell_angle_alpha                90
_cell_angle_beta                 99.743(2)
_cell_angle_gamma                90
_cell_formula_units_Z            4
_cell_length_a                   5.6473(2)
_cell_length_b                   26.7798(9)
_cell_length_c                   13.3219(4)
_cell_measurement_reflns_used    9033
_cell_measurement_temperature    150.(2)
_cell_measurement_theta_max      71.9828
_cell_measurement_theta_min      3.3006
_cell_volume                     1985.66(11)
_computing_cell_refinement
;
<i>SAINT</i> (Bruker, 2015)
;
_computing_data_collection
;
<i>APEX2</i> (Bruker, 2015)
;
_computing_data_reduction
;
<i>SAINT</i> (Bruker, 2015)
;
_computing_molecular_graphics
;
<i>DIAMOND</i> (Brandenburg & Putz, 2012)
;
_computing_publication_material
;
<i>SHELXTL</i> (Sheldrick, 2008)
;
_computing_structure_refinement
;
<i>SHELXL</i> (Sheldrick, 2015b)
;
_computing_structure_solution
;
<i>SHELXT</i> (Sheldrick, 2015a)
;
_diffrn_ambient_temperature      150(2)
_diffrn_detector_area_resol_mean 10.4167
_diffrn_measured_fraction_theta_full 0.992
_diffrn_measured_fraction_theta_max 0.984
_diffrn_measurement_device_type  'Bruker D8 VENTURE PHOTON 100 CMOS'
_diffrn_measurement_method       '\w scans'
_diffrn_radiation_monochromator  mirror
_diffrn_radiation_type           CuK\a
_diffrn_radiation_wavelength     1.54178
_diffrn_reflns_av_R_equivalents  0.0394
_diffrn_reflns_limit_h_max       6
_diffrn_reflns_limit_h_min       -6
_diffrn_reflns_limit_k_max       31
_diffrn_reflns_limit_k_min       -33
_diffrn_reflns_limit_l_max       14
_diffrn_reflns_limit_l_min       -16
_diffrn_reflns_number            14981
_diffrn_reflns_theta_full        70.000
_diffrn_reflns_theta_max         71.976
_diffrn_reflns_theta_min         3.300
_exptl_absorpt_coefficient_mu    1.717
_exptl_absorpt_correction_T_max  0.93
_exptl_absorpt_correction_T_min  0.81
_exptl_absorpt_correction_type   multi-scan
_exptl_absorpt_process_details
;
(<i>SADABS</i>; Bruker, 2015)
;
_exptl_crystal_colour            yellow
_exptl_crystal_density_diffrn    1.373
_exptl_crystal_density_method    'not measured'
_exptl_crystal_description       column
_exptl_crystal_F_000             864
_exptl_crystal_size_max          0.202
_exptl_crystal_size_mid          0.080
_exptl_crystal_size_min          0.045
_refine_diff_density_max         0.171
_refine_diff_density_min         -0.307
_refine_ls_extinction_method     none
_refine_ls_goodness_of_fit_ref   1.065
_refine_ls_hydrogen_treatment    mixed
_refine_ls_matrix_type           full
_refine_ls_number_parameters     273
_refine_ls_number_reflns         3830
_refine_ls_number_restraints     0
_refine_ls_restrained_S_all      1.065
_refine_ls_R_factor_all          0.0481
_refine_ls_R_factor_gt           0.0372
_refine_ls_shift/su_max          0.001
_refine_ls_shift/su_mean         0.000
_refine_ls_structure_factor_coef Fsqd
_refine_ls_weighting_details
'w=1/[\s^2^(Fo^2^)+(0.0443P)^2^+0.6171P] where P=(Fo^2^+2Fc^2^)/3'
_refine_ls_weighting_scheme      calc
_refine_ls_wR_factor_gt          0.0876
_refine_ls_wR_factor_ref         0.0936
_reflns_number_gt                3158
_reflns_number_total             3830
_reflns_threshold_expression     'I > 2\s(I)'
_cod_data_source_file            zp4002sup1.cif
_cod_data_source_block           I
_cod_database_code               1542541
_shelx_space_group_comment
;
The symmetry employed for this shelxl refinement is uniquely defined
by the following loop, which should always be used as a source of
symmetry information in preference to the above space-group names.
They are only intended as comments.
;
_shelx_estimated_absorpt_t_min   0.723
_shelx_estimated_absorpt_t_max   0.927
_shelx_hkl_file
;
   1   0   0   -0.70    0.20
   2   0   0  345.57   10.60
   3   0   0    1.10    1.00
   3   0   0    2.10    1.00
  -4   0   0   95.49    5.40
  -4   0   0   95.99    5.20
  -4   0   0   96.59    4.90
  -5   0   0    0.20    1.90
  -5   0   0    2.90    2.10
  -5   0   0   -1.50    2.00
  -6   0   0  258.27    9.30
  -6   0   0  262.77    9.20
  -6   0   0  272.27    9.50
   1  -1   0  243.48    7.60
   1   1   0  248.18    7.60
  -1   1   0  262.87    7.60
   2  -1   0   29.90    1.30
   2   1   0   28.60    1.40
   3  -1   0  160.48    5.50
   3  -1   0  164.78    5.60
   3   1   0  167.08    5.70
   3   1   0  163.78    5.80
  -4  -1   0  315.47   11.50
  -4  -1   0  318.67   11.40
  -4  -1   0  301.97   11.90
  -4  -1   0  328.47   11.30
  -4   1   0  318.37   11.30
  -4   1   0  334.77   11.30
  -4   1   0  336.17   11.60
  -5  -1   0   10.90    2.50
  -5  -1   0   11.30    2.20
  -5  -1   0   15.20    3.60
  -5   1   0   16.70    3.60
  -5   1   0    8.70    2.20
  -5   1   0    5.90    2.20
  -6  -1   0   -0.10    1.70
  -6  -1   0    0.90    2.20
  -6  -1   0   -1.90    1.60
  -6   1   0    0.90    1.60
  -6   1   0   -0.60    1.60
  -6   1   0    2.20    1.80
   0   2   0    1.70    0.20
   1  -2   0   34.10    1.20
   1   2   0   33.90    1.30
  -1   2   0   35.50    1.20
   2  -2   0  213.78    6.40
   2   2   0  200.88    6.60
   3  -2   0   74.39    2.90
   3  -2   0   70.49    2.90
   3   2   0   68.69    3.30
   3   2   0   71.09    3.60
  -4  -2   0   57.59    4.50
  -4  -2   0   54.89    4.50
  -4  -2   0   64.19    5.60
  -4  -2   0   58.89    4.40
  -4   2   0   56.59    4.40
  -4   2   0   55.59    4.10
  -4   2   0   59.99    4.10
  -5  -2   0   27.70    4.10
  -5  -2   0   33.40    3.90
  -5  -2   0   29.10    3.40
  -5   2   0   26.30    3.60
  -5   2   0   29.20    3.30
  -5   2   0   28.90    3.40
  -6  -2   0   -2.10    2.20
  -6  -2   0   -2.60    1.60
  -6  -2   0    2.00    1.80
  -6   2   0    2.60    1.60
  -6   2   0   -0.10    1.80
  -6   2   0    0.60    1.60
   0  -3   0   -0.10    0.10
   0   3   0    0.20    0.10
   1  -3   0  658.63   20.30
   1   3   0  669.23   20.50
  -1   3   0  729.93   20.30
   2  -3   0   50.39    1.80
   2   3   0   53.39    2.10
   2   3   0   48.50    2.10
   3  -3   0  329.37   10.20
   3  -3   0  331.87   10.30
   3   3   0  328.07   10.80
   3   3   0  335.87   10.90
  -4  -3   0    3.50    2.40
  -4  -3   0    1.80    2.70
  -4  -3   0   -0.80    2.40
  -4  -3   0    4.20    2.80
  -4   3   0    1.50    1.80
  -4   3   0    2.20    2.10
  -4   3   0    0.00    2.20
  -5  -3   0  332.77   11.70
  -5  -3   0  325.57   11.50
  -5  -3   0  317.97   11.70
  -5   3   0  325.77   11.30
  -5   3   0  322.57   11.50
  -5   3   0  328.77   11.70
  -6  -3   0   38.50    3.70
  -6  -3   0   44.20    3.40
  -6   3   0   34.30    3.40
  -6   3   0   41.60    3.30
  -6   3   0   41.70    3.00
   0  -4   0 1487.25   45.80
   0   4   0 1588.24   45.80
   1  -4   0   28.60    1.10
   1   4   0   32.80    1.30
  -1   4   0   30.10    1.10
   2  -4   0  149.99    4.70
   2   4   0  151.38    5.10
   2   4   0  154.08    5.10
   3  -4   0   11.90    1.40
   3   4   0   13.90    1.90
   3   4   0   10.00    2.50
  -4  -4   0  115.99    6.60
  -4  -4   0  110.29    6.10
  -4  -4   0  109.09    6.30
  -4  -4   0  109.79    5.60
  -4   4   0  110.19    5.20
  -4   4   0  103.69    5.40
  -4   4   0  106.59    5.60
  -5  -4   0   45.50    4.40
  -5  -4   0   43.70    3.70
  -5  -4   0   44.90    4.90
  -5   4   0   45.10    3.90
  -5   4   0   41.90    3.60
  -5   4   0   41.90    3.80
  -6  -4   0   20.80    3.20
  -6  -4   0   16.00    3.10
  -6   4   0   13.40    2.50
  -6   4   0   15.30    2.70
  -6   4   0   15.00    2.70
   0  -5   0   -0.30    0.20
   0   5   0   -0.20    0.20
   1  -5   0   73.49    2.40
  -1   5   0   74.59    2.40
   1   5   0   75.49    2.60
   2  -5   0    0.90    0.30
   2   5   0    0.60    0.60
   2   5   0    1.20    0.70
  -2   5   0    1.30    0.40
   3   5   0  530.55   17.60
   3   5   0  571.04   17.50
  -4  -5   0   39.20    4.70
  -4  -5   0   46.90    5.00
  -4  -5   0   45.10    5.60
  -4  -5   0   40.20    4.10
  -4   5   0   39.50    3.60
  -4   5   0   40.60    3.80
  -4   5   0   40.40    4.20
  -5  -5   0   11.30    2.70
  -5  -5   0   19.90    4.00
  -5  -5   0   14.30    3.20
  -5  -5   0   13.70    3.40
  -5   5   0   14.30    3.00
  -5   5   0    9.70    2.30
  -5   5   0    9.20    2.20
  -6  -5   0   99.79    4.90
  -6  -5   0  107.59    5.20
  -6   5   0  102.69    4.90
  -6   5   0  111.69    4.60
  -6   5   0  105.19    4.80
   0  -6   0   32.70    1.30
   0   6   0   36.20    1.40
   1  -6   0  651.63   20.00
   1   6   0  656.73   20.20
  -1   6   0  700.63   20.00
   2  -6   0   37.40    1.30
   2   6   0   37.60    2.10
  -2   6   0   38.80    1.40
   2   6   0   35.00    1.90
  -3  -6   0   86.29    4.70
   3   6   0   86.29    4.40
  -4  -6   0   83.79    5.10
  -4  -6   0   77.99    5.40
  -4  -6   0   76.09    5.90
  -4   6   0   82.39    5.10
  -4   6   0   75.29    4.60
  -4   6   0   83.79    4.50
  -5  -6   0   -1.20    2.50
  -5  -6   0   -2.20    2.00
  -5  -6   0   -2.90    2.70
  -5   6   0    3.40    2.00
  -5   6   0    1.10    1.70
  -5   6   0    0.10    2.00
  -6  -6   0   24.60    4.00
  -6  -6   0   29.80    3.50
  -6   6   0   32.70    3.10
  -6   6   0   32.40    2.90
   0   7   0   -0.90    0.30
   1  -7   0   66.39    2.30
  -1   7   0   71.09    2.30
   1   7   0   69.89    2.60
   2  -7   0    6.00    0.60
  -2   7   0    6.60    0.70
   2   7   0    6.40    1.10
   2   7   0    5.00    1.30
  -3  -7   0   29.50    3.40
   3   7   0   31.30    3.50
  -4  -7   0  106.39    5.60
  -4  -7   0  102.19    6.00
  -4  -7   0  108.09    6.60
  -4   7   0  103.19    5.80
  -4   7   0  109.49    5.20
  -4   7   0  109.19    5.50
  -5  -7   0    6.40    2.30
  -5  -7   0   11.80    3.00
  -5  -7   0   15.90    3.00
  -5   7   0   12.60    2.40
  -5   7   0    9.40    2.00
  -5   7   0   12.00    2.30
  -6  -7   0    5.80    2.00
  -6   7   0   10.70    2.20
  -6   7   0    4.20    1.60
   0   8   0  523.55   15.90
   1  -8   0  171.18    5.40
   1   8   0  172.78    5.70
  -1   8   0  175.58    5.40
   2  -8   0  675.03   20.20
  -2  -8   0  658.03   20.90
  -2   8   0  696.33   20.20
   2   8   0  698.93   21.00
   2   8   0  671.83   21.00
  -3  -8   0    5.40    1.90
  -3   8   0    4.10    2.10
   3   8   0    5.20    2.00
  -3   8   0    6.20    2.40
  -4  -8   0   -1.60    2.60
  -4  -8   0    2.20    2.30
  -4  -8   0    6.60    3.40
  -4   8   0    4.80    2.90
  -4   8   0    1.70    2.30
  -5  -8   0   -2.40    2.00
  -5  -8   0    2.40    2.90
  -5  -8   0    3.30    2.60
  -5   8   0   -0.50    1.70
  -5   8   0    1.90    1.90
  -5   8   0    0.80    1.80
  -6  -8   0   69.79    4.50
  -6   8   0   73.79    3.90
  -6   8   0   72.19    3.80
   1  -9   0   65.19    2.30
   1   9   0   66.49    2.70
  -1   9   0   63.49    2.40
  -2  -9   0   89.99    4.00
   2   9   0   93.89    4.10
  -2   9   0   94.59    3.00
   2   9   0   96.59    4.00
  -3  -9   0   93.79    5.70
  -3  -9   0   97.29    4.60
  -3   9   0   89.19    5.20
  -3   9   0   99.19    4.90
  -3   9   0   94.99    5.90
  -4  -9   0   16.20    3.10
  -4  -9   0   26.40    4.80
  -4   9   0   17.00    3.90
  -4   9   0   17.00    3.10
  -4   9   0   17.70    3.40
  -5  -9   0    6.70    2.30
  -5  -9   0   10.10    2.70
  -5   9   0    3.20    1.80
  -5   9   0    2.80    1.70
  -5   9   0    4.50    2.10
  -6   9   0    3.50    1.40
  -6   9   0    1.90    1.30
   0  10   0  139.99    4.70
  -1 -10   0    9.40    1.90
  -1  10   0   10.70    1.10
   1  10   0    7.00    1.30
  -2 -10   0    8.80    2.20
   2  10   0    9.50    1.50
  -2  10   0    7.40    1.10
  -3 -10   0    7.00    2.80
  -3 -10   0    6.60    2.80
  -3 -10   0    6.80    2.20
  -3  10   0    6.80    2.40
  -3  10   0    9.10    3.00
  -4 -10   0   25.00    4.10
  -4 -10   0   25.90    4.20
  -4  10   0   25.00    3.50
  -4  10   0   23.60    3.10
  -4  10   0   22.10    3.90
  -5 -10   0   10.90    2.40
  -5 -10   0   10.50    2.70
  -5  10   0    9.20    1.90
  -5  10   0   13.20    3.20
  -5  10   0    7.90    2.00
  -6  10   0   10.10    2.10
  -6  10   0    9.90    2.30
   0 -11   0   -0.20    1.20
   0  11   0    0.70    0.70
  -1 -11   0   33.60    2.40
   1  11   0   28.90    2.00
  -2 -11   0   12.30    2.30
   2  11   0   13.50    2.50
  -2  11   0   13.20    3.30
  -3 -11   0  167.08    6.50
  -3 -11   0  150.48    7.10
  -3 -11   0  158.68    7.10
   3 -11   0  167.38    9.10
  -3  11   0  151.98    6.80
  -3  11   0  163.48    6.50
  -3  11   0  164.78    7.70
  -4 -11   0    7.60    2.60
  -4 -11   0    5.30    2.70
  -4  11   0    5.70    2.20
  -4  11   0    7.60    2.00
  -4  11   0    6.20    2.40
  -5 -11   0  111.29    5.90
  -5 -11   0  109.09    5.50
  -5  11   0  114.59    5.30
  -5  11   0  113.19    5.70
  -6  11   0    3.40    1.40
  -6  11   0    1.60    1.40
   0 -12   0  425.46   13.70
   0  12   0  433.26   13.50
  -1 -12   0  325.17   10.50
   1  12   0  321.57   10.50
   1  12   0  324.97   10.50
  -1  12   0  309.47   10.10
  -2 -12   0  338.87   11.20
   2  12   0  361.16   11.70
  -2  12   0  318.37   11.30
   3 -12   0   40.90    5.80
  -3 -12   0   52.49    4.70
  -3 -12   0   49.10    4.60
  -3 -12   0   51.49    3.80
  -3  12   0   50.19    4.20
  -3  12   0   55.49    5.60
  -3  12   0   51.59    3.70
  -4 -12   0    1.80    2.40
  -4 -12   0    1.80    2.50
  -4  12   0    1.10    1.90
  -4  12   0    4.10    1.80
  -4  12   0    0.00    2.30
  -5 -12   0  121.49    7.00
  -5  12   0  134.89    5.90
  -5  12   0  139.89    6.20
  -6  12   0   -1.80    1.20
  -6  12   0   -0.70    1.40
   0 -13   0   -1.10    1.30
   0  13   0   -0.50    1.10
  -1 -13   0  472.35   14.80
  -1  13   0  455.75   14.50
   1  13   0  463.85   14.90
  -2 -13   0    4.60    1.70
  -2  13   0    3.30    2.10
   3 -13   0   22.70    5.00
  -3 -13   0   16.70    3.90
  -3 -13   0   16.60    3.00
  -3 -13   0   18.70    3.20
  -3  13   0   19.10    3.80
  -3  13   0   17.60    3.50
  -4 -13   0    1.40    2.30
  -4 -13   0    0.60    2.60
  -4  13   0    0.70    2.10
  -4  13   0   -1.00    2.40
  -5 -13   0  153.28    6.50
  -5 -13   0  143.19    6.70
  -5  13   0  153.68    6.40
  -6  13   0    6.70    1.30
  -6  13   0   10.40    2.50
   0 -14   0  575.24   17.50
   0  14   0  530.35   17.40
  -1 -14   0    3.40    1.30
   1  14   0    3.70    1.50
  -1  14   0    5.30    1.50
  -2 -14   0  126.39    6.20
  -2 -14   0  138.79    5.30
  -2  14   0  121.59    5.80
  -3 -14   0   26.30    4.00
  -3 -14   0   31.80    3.30
   3 -14   0   24.70    4.60
  -3 -14   0   20.80    3.20
  -3  14   0   26.40    4.00
  -3  14   0   24.00    4.00
  -4 -14   0   41.60    4.30
  -4 -14   0   36.10    4.00
  -4  14   0   31.30    3.70
  -4  14   0   48.30    4.70
  -5 -14   0   22.40    3.60
  -5 -14   0   19.30    3.70
  -5  14   0   21.40    3.60
  -5  14   0   16.80    2.80
   6 -14   0    1.50    1.20
  -6  14   0    0.30    1.40
  -6  14   0   -2.10    1.10
   0 -15   0   -0.20    1.30
   1  15   0   14.10    2.20
  -2 -15   0   16.20    3.30
  -2 -15   0   13.80    2.40
  -2 -15   0   18.00    3.80
   2 -15   0   21.30    4.50
  -2  15   0   15.20    3.50
  -2  15   0   20.00    2.60
  -3 -15   0   20.90    3.20
  -3 -15   0   19.40    3.80
  -3 -15   0   23.50    3.10
   3 -15   0   24.70    4.80
  -3  15   0   27.00    4.10
  -3  15   0   24.60    6.30
  -4 -15   0   26.00    4.50
  -4 -15   0   22.80    3.70
  -4  15   0   22.90    3.40
  -4  15   0   27.30    4.50
  -5 -15   0   12.60    2.50
  -5 -15   0   21.60    3.60
  -5  15   0   16.40    3.40
  -5  15   0   14.90    2.50
   6 -15   0    1.20    1.00
  -6  15   0    0.50    1.20
  -6  15   0    2.20    1.80
   0  16   0  368.76   12.50
  -1 -16   0  194.78    7.80
  -1 -16   0  194.08    7.20
   1 -16   0  190.18    7.50
  -2 -16   0   -0.40    2.90
   2 -16   0    7.90    2.80
  -2 -16   0    6.10    1.50
  -2 -16   0    8.50    2.20
  -2  16   0    1.90    3.30
  -2  16   0    9.00    2.30
   3 -16   0    9.30    2.90
  -3 -16   0   14.70    3.50
  -3 -16   0   10.70    2.40
  -3 -16   0    9.30    2.30
  -3  16   0   11.40    2.90
  -4 -16   0   40.00    4.60
  -4 -16   0   39.00    4.10
  -4  16   0   39.50    5.20
  -4  16   0   40.90    3.80
  -5 -16   0   90.79    4.90
  -5  16   0   86.69    4.30
  -5  16   0   89.59    4.80
   6 -16   0   -1.80    1.00
   0 -17   0    3.00    2.40
   0 -17   0   -5.00    2.10
   0  17   0    0.10    2.20
   1 -17   0  100.99    5.00
  -1 -17   0   91.59    5.40
   1 -17   0   94.49    5.30
  -1 -17   0  107.09    4.60
  -1 -17   0   96.19    5.10
  -2 -17   0   16.20    3.30
  -2 -17   0   19.70    2.80
   2 -17   0   19.70    4.20
  -2 -17   0   22.90    3.60
  -2  17   0   24.00    3.80
  -2  17   0   16.10    2.50
  -3 -17   0   94.79    5.20
   3 -17   0   91.99    5.80
  -3 -17   0   86.09    5.00
  -3 -17   0   88.59    5.60
  -3  17   0  100.49    5.50
  -4 -17   0   13.60    3.40
  -4 -17   0   22.70    4.30
  -4  17   0   13.60    3.30
  -4  17   0   11.30    3.20
  -5 -17   0  117.29    5.50
  -5  17   0  116.79    5.70
  -5  17   0  116.69    4.90
   0 -18   0    2.90    2.30
   0 -18   0    8.60    2.40
  -1 -18   0   17.00    2.60
   1 -18   0   19.60    3.30
   1 -18   0   22.70    3.80
  -1 -18   0   21.60    4.10
  -1 -18   0   18.60    3.20
  -1  18   0   18.10    2.40
   2 -18   0  102.79    5.60
  -2 -18   0  105.09    4.90
   2 -18   0  102.59    5.00
  -2 -18   0  102.99    5.30
  -2 -18   0   94.99    5.90
  -2  18   0  103.79    5.30
  -2  18   0   98.69    6.80
  -3 -18   0    6.30    2.30
   3 -18   0    6.30    2.80
  -3 -18   0    5.40    2.60
  -3 -18   0    6.50    2.10
  -3  18   0    8.80    2.70
  -4 -18   0   -3.90    1.90
  -4 -18   0   -1.20    2.40
  -4  18   0    2.00    1.90
  -5 -18   0    4.40    2.00
   5 -18   0    5.30    1.20
  -5  18   0   11.40    2.10
   0 -19   0   -0.80    2.20
   0 -19   0    2.10    2.00
   1 -19   0   77.69    4.40
  -1 -19   0   84.09    5.00
   1 -19   0   80.19    4.90
  -1 -19   0   76.79    4.50
  -1  19   0   76.49    4.00
  -2 -19   0  244.08    8.70
  -2 -19   0  227.08    8.80
   2 -19   0  221.48    8.50
   2 -19   0  212.78    8.90
  -2  19   0  234.18    8.60
  -3 -19   0   47.30    4.80
   3 -19   0   50.19    3.60
   3 -19   0   41.80    5.00
  -3 -19   0   44.20    4.10
  -3  19   0   42.60    4.70
  -4 -19   0   90.99    4.90
   4 -19   0   99.79    4.60
  -4 -19   0   84.89    5.40
  -4  19   0   97.09    4.90
   5 -19   0   81.29    3.70
  -5 -19   0   79.19    4.40
  -5  19   0   80.39    3.80
   0 -20   0  109.19    5.30
   0 -20   0  105.79    5.40
   1 -20   0  573.34   18.40
  -1 -20   0  568.24   18.40
   1 -20   0  559.64   18.30
  -1 -20   0  549.05   18.40
  -1  20   0  581.44   18.20
   2 -20   0   28.40    3.80
  -2 -20   0   25.30    3.80
  -2 -20   0   17.10    3.40
   2 -20   0   20.40    3.00
  -2  20   0   19.70    3.70
  -3 -20   0   21.50    4.00
   3 -20   0   18.20    4.60
  -3 -20   0   23.10    3.50
   3 -20   0   19.40    2.90
  -3  20   0   23.40    3.20
  -4 -20   0   46.70    3.60
  -4 -20   0   46.30    4.30
   4 -20   0   40.00    4.00
  -4  20   0   43.90    3.60
   5 -20   0    3.10    1.10
  -5 -20   0    3.70    1.80
  -5  20   0    1.80    1.40
   0 -21   0    1.20    3.10
   1 -21   0   69.99    4.20
   1 -21   0   65.19    4.50
  -1 -21   0   71.99    4.40
  -1 -21   0   77.69    4.60
  -1  21   0   76.39    4.10
   2 -21   0   68.89    4.90
  -2 -21   0   74.89    4.90
   2 -21   0   72.79    4.30
  -2 -21   0   78.19    4.60
  -2  21   0   79.19    4.90
  -3 -21   0   26.60    3.90
  -3 -21   0   33.80    3.70
   3 -21   0   35.30    4.40
   3 -21   0   28.00    3.00
  -3  21   0   23.20    4.50
  -4 -21   0    5.00    3.40
  -4 -21   0    2.70    1.60
   4 -21   0    1.90    1.40
  -4  21   0    6.30    2.00
  -5 -21   0    3.60    1.80
   5 -21   0    2.20    1.00
  -5  21   0    2.20    1.50
   0 -22   0  171.88    7.00
   0 -22   0  165.38    7.00
   1 -22   0  100.09    5.30
  -1 -22   0  101.29    5.20
   1 -22   0   96.69    4.90
  -1 -22   0  101.49    5.10
  -1  22   0   99.19    4.90
  -2 -22   0   86.69    4.80
   2 -22   0   95.69    4.70
  -2 -22   0   88.19    5.10
   2 -22   0   87.69    5.10
  -2  22   0   86.29    5.20
   3 -22   0    1.20    1.70
   3 -22   0    0.10    2.40
  -3 -22   0    0.70    1.80
  -3 -22   0   -0.60    2.20
  -3  22   0    0.80    2.90
   4 -22   0   54.69    3.20
  -4 -22   0   59.99    3.60
  -4  22   0   54.19    3.80
   5 -22   0    7.60    1.50
   0 -23   0    0.00    2.00
   0 -23   0   -1.00    1.70
   1 -23   0   21.00    3.20
   1 -23   0   24.70    3.60
  -1 -23   0   24.90    3.70
  -1 -23   0   22.70    3.30
  -1  23   0   18.90    4.00
  -2 -23   0    0.00    2.10
   2 -23   0    1.20    2.20
  -2 -23   0    0.40    2.10
   2 -23   0   -0.20    1.60
  -2  23   0    0.60    2.30
   3 -23   0   64.79    3.70
  -3 -23   0   59.69    4.40
   3 -23   0   61.19    4.80
  -3 -23   0   67.99    4.10
  -4 -23   0   36.70    3.00
   4 -23   0   34.40    2.40
  -4  23   0   35.90    3.70
   0 -24   0   29.00    3.40
   0 -24   0   21.40    3.30
   0  24   0   22.90    2.70
  -1 -24   0   99.49    5.10
  -1 -24   0  102.29    5.10
   1 -24   0  101.69    5.00
   1 -24   0   90.99    5.10
  -1  24   0   97.19    4.90
   2 -24   0  163.88    6.70
   2 -24   0  164.28    7.00
  -2 -24   0  173.08    7.00
  -2 -24   0  167.58    6.90
  -2  24   0  160.48    7.20
  -3 -24   0   13.00    2.80
  -3 -24   0   17.10    3.70
   3 -24   0    9.80    2.50
   3 -24   0   10.40    2.40
   4 -24   0   13.60    1.90
  -4 -24   0   14.30    2.30
   0 -25   0    1.90    1.80
   0 -25   0   -0.60    1.90
   0  25   0   -0.80    1.30
  -1 -25   0    6.70    2.10
   1 -25   0    4.90    2.10
   1 -25   0    2.90    1.70
  -1 -25   0    5.70    2.00
  -1  25   0    2.80    1.90
  -2 -25   0   75.89    4.40
   2 -25   0   74.49    4.70
   2 -25   0   81.19    4.20
  -3 -25   0   16.30    2.60
   3 -25   0   17.70    2.40
   3 -25   0   14.90    3.00
  -3 -25   0   20.00    3.80
   4 -25   0    0.60    1.00
  -4 -25   0    1.50    1.30
   0 -26   0    4.60    1.90
   0 -26   0    5.50    1.90
   0  26   0    6.60    1.70
   1 -26   0   11.50    2.20
   1 -26   0    6.60    1.80
  -1 -26   0    6.70    2.00
  -1 -26   0    4.70    1.80
  -1  26   0    4.50    1.90
   1  26   0    4.20    1.50
   2 -26   0    5.30    1.60
   2 -26   0    2.60    2.00
  -2 -26   0    7.00    2.10
  -3 -26   0    0.20    1.40
   3 -26   0    2.20    1.20
   3  26   0    1.30    1.60
   4 -26   0    0.60    1.00
  -4 -26   0    0.10    1.20
   0 -27   0   -1.40    1.60
   0 -27   0    4.10    1.80
   0  27   0    1.60    1.60
  -1 -27   0    1.90    1.60
  -1 -27   0    2.00    1.90
   1  27   0    1.20    1.40
  -1  27   0   -1.90    1.80
   2 -27   0   44.60    3.60
  -2 -27   0   45.30    3.80
  -2 -27   0   41.30    3.20
   2 -27   0   47.70    3.00
   2  27   0   44.80    3.10
  -3 -27   0  128.59    5.10
   3 -27   0  121.69    4.90
   3  27   0  132.59    5.40
   0 -28   0   22.70    2.90
   0 -28   0   28.70    2.90
   0  28   0   29.40    3.00
   1 -28   0   23.90    2.80
  -1 -28   0   23.80    3.00
  -1 -28   0   28.10    2.80
   1 -28   0   25.90    2.90
  -1  28   0   22.30    3.30
   1  28   0   23.30    2.70
  -2 -28   0   84.29    4.60
   2 -28   0   84.39    4.00
  -2 -28   0   84.49    4.00
   2 -28   0   88.29    4.40
  -3 -28   0    6.80    1.30
   3 -28   0    9.50    1.80
   3  28   0    7.10    2.00
   0 -29   0    0.10    1.40
   0 -29   0   -0.90    1.50
   0  29   0   -0.10    1.60
  -1 -29   0   83.29    4.10
   1 -29   0   85.19    4.10
   1 -29   0   81.39    4.10
  -1 -29   0   83.19    4.20
  -1  29   0   89.29    4.60
   1  29   0   82.69    4.20
   2 -29   0   20.50    3.20
   2 -29   0   25.30    2.40
  -2 -29   0   27.00    2.50
   2  29   0   26.00    2.60
  -3 -29   0   33.10    2.20
   3 -29   0   28.70    2.00
   0 -30   0  240.88    8.30
   0 -30   0  235.88    8.40
   0  30   0  242.58    8.60
   1 -30   0   49.50    2.90
   1 -30   0   47.20    3.20
  -1 -30   0   45.10    2.90
  -1 -30   0   45.50    3.40
  -1  30   0   49.70    4.20
   1  30   0   45.70    3.30
   2 -30   0    3.70    1.20
  -2 -30   0    2.10    1.10
   2 -30   0    4.50    2.10
   2  30   0    3.30    1.70
   0 -31   0   -0.50    1.30
   0  31   0    0.20    1.70
  -1 -31   0    0.60    2.10
  -1 -31   0    1.70    1.20
   1 -31   0    2.90    1.50
   1 -31   0   -0.10    2.00
   1  31   0    3.30    1.60
  -2 -31   0   17.90    1.90
   2 -31   0   14.70    1.90
   0 -32   0  282.07    9.90
  -1 -32   0   32.20    2.30
   1 -32   0   27.40    2.80
   1 -32   0   33.60    2.60
   0 -33   0   -2.40    1.30
  -6   0   1    3.00    1.90
  -6   0   1    0.60    1.70
  -6   0   1   -1.00    1.80
  -5   0   1    4.70    2.10
  -5   0   1    8.30    2.20
  -5   0   1    6.70    2.10
  -4   0   1   -4.30    2.10
  -4   0   1    3.30    2.30
  -4   0   1    4.40    2.30
   3   0  -1  152.48    5.30
   3   0  -1  162.58    5.40
   2   0  -1    0.40    0.30
   2   0  -1    0.20    0.30
   1   0  -1  593.94   17.60
  -1   0  -1    6.70    0.50
   1   0   1    6.60    0.50
   2   0   1    0.00    0.40
  -2   0  -1   -0.20    0.50
   3   0   1   42.60    2.70
  -4   0  -1   -2.90    2.10
  -4   0  -1    5.20    2.70
  -4   0  -1    2.10    2.30
  -4   0  -1   -0.50    1.80
  -5   0  -1  141.49    6.50
  -5   0  -1  137.29    6.50
  -5   0  -1  148.09    6.90
  -5   0  -1  145.99    6.10
  -6   0  -1   -1.20    1.50
  -6   0  -1    0.40    2.00
  -6   0  -1    0.30    1.40
  -6  -1   1    4.10    1.80
  -6  -1   1    5.40    2.00
  -6  -1   1    5.50    2.00
  -6   1   1    2.30    1.70
  -6   1   1    3.70    1.80
  -6   1   1    5.00    1.80
  -5  -1   1   -3.70    2.00
  -5  -1   1   -1.90    2.00
  -5  -1   1   -1.90    1.90
  -5   1   1   -0.30    1.80
  -5   1   1    1.30    1.90
  -5   1   1    2.20    2.00
  -4  -1   1   41.60    4.30
  -4  -1   1   39.70    4.10
  -4  -1   1   35.10    4.10
  -4   1   1   36.30    4.10
  -4   1   1   37.20    4.10
  -4   1   1   40.70    3.80
   3  -1  -1   25.20    1.70
   3  -1  -1   24.70    1.70
   3   1  -1   21.60    2.10
   3   1  -1   25.00    1.90
   2  -1  -1    5.70    0.60
   2  -1  -1    5.60    0.60
   2   1  -1    6.00    0.80
   2   1  -1    5.60    0.70
   1  -1  -1  199.98    5.90
   1   1  -1  195.38    6.00
   0  -1   1  408.86   12.90
   0  -1  -1  469.55   12.90
   0   1  -1  456.35   12.90
   0   1   1  405.46   12.90
   1  -1   1  850.01   26.00
  -1  -1  -1  868.41   26.00
  -1   1  -1  875.41   26.00
   1   1   1  896.91   26.00
   2  -1   1    6.50    0.80
  -2   1  -1    6.90    1.00
   2   1   1    5.70    0.90
   3  -1   1    1.60    1.10
   3   1   1    1.70    1.20
  -4  -1  -1    7.40    2.70
  -4  -1  -1   13.00    2.70
  -4  -1  -1    6.40    2.00
  -4  -1  -1    6.10    2.40
  -4   1  -1   12.40    2.50
  -4   1  -1   12.50    2.90
  -4   1  -1    8.50    2.30
  -4   1  -1    6.50    2.00
  -5  -1  -1  131.69    6.30
  -5  -1  -1  129.69    6.30
  -5  -1  -1  138.89    5.90
  -5  -1  -1  128.99    6.60
  -5   1  -1  129.69    6.70
  -5   1  -1  132.39    6.30
  -5   1  -1  130.29    6.10
  -5   1  -1  127.19    5.70
  -6  -1  -1    0.60    1.60
  -6  -1  -1    2.20    1.50
  -6  -1  -1    2.70    2.50
  -6   1  -1    2.10    2.00
  -6   1  -1    4.00    1.50
  -6   1  -1    4.00    1.70
  -6  -2   1   74.19    4.30
  -6  -2   1   63.19    4.00
  -6  -2   1   66.59    4.10
  -6   2   1   67.39    3.90
  -6   2   1   65.19    4.00
  -6   2   1   72.19    3.90
  -5  -2   1    9.60    2.40
  -5  -2   1   12.20    2.40
  -5  -2   1    8.30    2.40
  -5   2   1    6.90    2.10
  -5   2   1   14.80    3.30
  -5   2   1    9.60    2.10
  -4  -2   1  160.38    7.10
  -4  -2   1  155.98    7.00
  -4  -2   1  162.48    7.20
  -4   2   1  164.98    6.90
  -4   2   1  171.08    6.80
  -4   2   1  163.58    7.10
   3  -2  -1  263.07    8.00
   3  -2  -1  263.07    8.00
   3   2  -1  252.27    8.50
   3   2  -1  265.37    8.60
   2  -2  -1  303.37    9.50
   2  -2  -1  336.37    9.50
   2   2  -1  327.87    9.80
   2   2  -1  298.47    9.80
   1   2  -1  600.44   17.90
   0  -2   1 1101.89   35.10
   0  -2  -1 1295.27   35.20
   0   2   1 1166.38   35.30
   1  -2   1 2264.47   69.09
  -1  -2  -1 2385.16   69.19
   1   2   1 2295.77   69.79
  -1   2  -1 2397.06   69.09
   2  -2   1   17.10    1.10
  -2   2  -1   16.20    1.20
   2   2   1   16.20    1.30
   3  -2   1   71.49    3.20
   3   2   1   70.09    3.80
   3   2   1   71.39    3.50
  -4  -2  -1   42.80    4.80
  -4  -2  -1   45.40    3.80
  -4  -2  -1   40.20    4.40
  -4  -2  -1   43.10    4.50
  -4   2  -1   46.00    4.00
  -4   2  -1   42.40    3.70
  -4   2  -1   44.70    4.20
  -4   2  -1   46.60    4.90
  -5  -2  -1   17.50    4.00
  -5  -2  -1   21.90    4.30
  -5  -2  -1   14.30    2.30
  -5  -2  -1   24.40    3.70
  -5   2  -1   22.60    4.60
  -5   2  -1   14.50    3.50
  -5   2  -1   20.20    3.10
  -5   2  -1   15.90    3.40
  -6  -2  -1    4.60    1.60
  -6  -2  -1    4.10    1.90
  -6   2  -1    4.80    1.60
  -6   2  -1    0.10    1.90
  -6   2  -1    3.40    1.50
  -6  -3   1    4.60    1.90
  -6  -3   1    3.70    2.10
  -6  -3   1    3.20    2.10
  -6   3   1    3.00    1.70
  -6   3   1    1.10    1.60
  -6   3   1    2.70    1.70
  -5  -3   1   27.30    4.10
  -5  -3   1   14.90    2.70
  -5  -3   1   11.80    2.40
  -5   3   1   10.70    2.20
  -5   3   1   16.40    3.40
  -5   3   1   13.50    2.50
  -4  -3   1   47.90    4.70
  -4  -3   1   50.09    4.80
  -4  -3   1   44.20    4.50
  -4   3   1   47.30    3.80
  -4   3   1   46.40    4.30
  -4   3   1   49.60    3.90
  -3  -3   1    6.30    1.90
   3   3  -1    7.70    1.30
   3   3  -1    6.30    1.50
   2   3  -1  100.09    3.40
   2   3  -1   91.59    3.40
   1   3  -1    6.30    0.60
   0  -3  -1 1377.86   39.30
   0  -3   1 1295.77   39.10
   0   3   1 1269.57   38.90
   1  -3   1  202.18    6.20
   1   3   1  199.98    6.40
  -1   3  -1  209.08    6.30
   2  -3   1  137.49    4.50
  -2   3  -1  145.89    4.60
   2   3   1  136.29    4.80
   3  -3   1  192.58    6.20
   3   3   1  162.98    6.80
   3   3   1  184.28    6.70
  -4  -3  -1   56.89    4.50
  -4  -3  -1   51.99    5.10
  -4  -3  -1   53.69    4.70
  -4  -3  -1   47.70    4.00
  -4   3  -1   41.20    3.70
  -4   3  -1   49.99    4.90
  -4   3  -1   49.80    4.30
  -4   3  -1   51.29    4.20
  -5  -3  -1  100.19    5.10
  -5  -3  -1  103.49    5.60
  -5  -3  -1  103.79    5.80
  -5  -3  -1   96.59    5.90
  -5   3  -1   99.09    4.90
  -5   3  -1  104.39    5.50
  -5   3  -1   99.19    5.30
  -6  -3  -1   26.00    3.10
  -6  -3  -1   24.80    3.40
  -6   3  -1   23.90    2.60
  -6   3  -1   26.20    2.90
  -6   3  -1   31.20    3.30
  -6  -4   1   70.59    4.20
  -6  -4   1   77.89    6.50
  -6  -4   1   58.79    4.40
  -6   4   1   68.69    3.80
  -6   4   1   63.49    3.80
  -6   4   1   69.79    4.10
  -5  -4   1   25.50    3.90
  -5  -4   1   24.80    3.90
  -5  -4   1   25.50    4.20
  -5   4   1   23.70    3.30
  -5   4   1   22.00    3.10
  -5   4   1   18.80    3.50
  -4  -4   1  205.68    8.30
  -4  -4   1  211.88    8.50
  -4  -4   1  195.68    8.40
  -4   4   1  203.38    8.00
  -4   4   1  205.18    7.90
  -4   4   1  202.08    8.20
  -3  -4   1    8.10    2.00
   3   4  -1    7.90    1.60
   3   4  -1    6.20    1.30
   2   4  -1  237.98    7.40
   2   4  -1  223.08    7.40
   1   4  -1  133.19    4.30
   0  -4   1 1314.07   39.80
   0   4   1 1302.77   39.80
   0   4  -1 1405.56   39.80
   1  -4   1  322.27    9.90
  -1   4  -1  337.77    9.90
   1   4   1  324.87   10.10
   2  -4   1 1114.59   33.00
  -2   4  -1 1102.79   33.10
   2   4   1 1109.49   33.40
   3  -4   1   42.70    2.40
   3   4   1   43.30    3.20
  -4  -4  -1  424.06   14.60
  -4  -4  -1  418.96   14.30
  -4  -4  -1  433.26   14.60
  -4  -4  -1  431.16   14.80
  -4   4  -1  412.96   14.50
  -4   4  -1  439.76   14.50
  -4   4  -1  429.66   14.50
  -4   4  -1  419.76   14.10
  -5  -4  -1    7.50    2.40
  -5  -4  -1    5.00    2.20
  -5  -4  -1    4.80    3.50
  -5  -4  -1    5.90    2.10
  -5   4  -1    4.50    2.10
  -5   4  -1    4.30    2.10
  -5   4  -1    8.10    1.90
  -6  -4  -1   18.40    3.50
  -6  -4  -1   26.30    2.90
  -6   4  -1   26.10    2.70
  -6   4  -1   26.60    2.90
  -6   4  -1   21.10    2.40
  -6  -5   1    2.70    2.10
  -6   5   1    1.50    1.50
  -6   5   1    0.70    1.60
  -5  -5   1   37.40    4.40
  -5  -5   1   29.40    4.00
  -5  -5   1   24.80    4.60
  -5   5   1   28.70    3.80
  -5   5   1   37.40    3.50
  -5   5   1   33.00    3.30
  -4  -5   1   12.30    2.90
  -4  -5   1    9.60    3.20
  -4  -5   1    9.50    2.80
  -4   5   1    8.80    2.20
  -4   5   1    9.90    2.30
  -4   5   1   10.70    2.20
  -3  -5   1   58.49    3.70
   3   5  -1   62.19    3.30
   3   5  -1   61.49    3.90
   2   5  -1   96.79    3.60
   2   5  -1  102.19    3.60
   1   5  -1  994.90   29.00
  -1   5   1  943.81   28.70
  -1   5   1  971.10   28.70
   0  -5   1  361.96   11.80
   0   5  -1  408.66   11.80
   0   5   1  394.46   11.80
   1  -5   1   56.29    2.00
   1   5   1   54.29    2.10
  -1   5  -1   57.19    2.00
   2  -5   1   47.40    1.90
   2   5   1   45.10    2.30
  -2   5  -1   49.20    2.00
   3   5   1   27.10    3.30
  -4  -5  -1   51.89    4.10
  -4  -5  -1   47.00    4.50
  -4  -5  -1   58.79    4.60
  -4   5  -1   47.60    5.10
  -4   5  -1   52.29    4.40
  -4   5  -1   47.90    4.20
  -4   5  -1   53.69    3.60
  -5  -5  -1   -1.20    2.10
  -5  -5  -1    0.50    2.30
  -5  -5  -1   -2.00    1.80
  -5   5  -1    3.50    2.10
  -5   5  -1   -0.80    1.90
  -5   5  -1   -1.70    1.60
  -6  -5  -1    8.20    2.20
  -6  -5  -1   11.70    2.80
  -6   5  -1    9.70    2.10
  -6   5  -1   11.10    2.40
  -6   5  -1    4.70    1.70
  -6  -6   1   23.40    4.10
  -6   6   1   30.20    2.80
  -6   6   1   28.40    2.70
  -5  -6   1   44.30    5.00
  -5  -6   1   40.40    4.60
  -5  -6   1   47.40    4.20
  -5   6   1   36.50    3.50
  -5   6   1   34.10    3.60
  -5   6   1   38.80    3.80
  -4  -6   1   18.50    3.60
  -4  -6   1   15.80    3.10
  -4  -6   1   11.90    3.50
  -4  -6   1   14.60    2.90
  -4   6   1   11.90    2.40
  -4   6   1   16.50    2.70
  -4   6   1   12.70    2.40
  -3  -6   1  305.77   10.30
   3   6  -1  310.37   10.40
   2   6  -1   31.40    1.80
   2   6  -1   33.80    1.90
  -1   6   1  335.87   10.40
   1   6  -1  340.37   10.70
  -1   6   1  365.76   10.40
   0  -6   1  220.18    7.30
   0   6  -1  244.88    7.30
   0   6   1  252.27    7.30
   0   6   1  228.98    7.30
   1  -6   1  105.39    3.50
  -1   6  -1  109.49    3.50
   1   6   1  106.19    3.70
   2  -6   1   55.09    2.10
   2   6   1   52.29    2.50
  -2   6  -1   53.99    2.20
   3   6   1   55.49    4.30
  -4  -6  -1   19.50    3.20
  -4  -6  -1   17.00    3.40
  -4  -6  -1   11.70    2.70
  -4   6  -1   16.50    3.40
  -4   6  -1   16.00    2.70
  -4   6  -1   15.50    2.80
  -5  -6  -1   37.00    4.50
  -5  -6  -1   42.20    3.60
  -5  -6  -1   36.00    4.30
  -5   6  -1   42.30    3.40
  -5   6  -1   38.30    3.70
  -5   6  -1   43.30    3.90
  -6  -6  -1   -1.00    1.60
  -6  -6  -1    0.60    2.20
  -6   6  -1    2.10    1.50
  -6   6  -1    1.40    1.40
  -6   6  -1   -0.30    1.20
  -6   7   1   81.29    4.20
  -6   7   1   78.09    4.00
  -5  -7   1   49.80    5.30
  -5  -7   1   52.79    4.50
  -5   7   1   52.29    3.90
  -5   7   1   48.40    3.90
  -5   7   1   46.50    4.00
  -4  -7   1  104.29    6.70
  -4  -7   1  122.09    6.90
  -4  -7   1  114.49    6.10
  -4   7   1  109.39    5.40
  -4   7   1  123.69    5.70
  -4   7   1  116.69    5.90
  -3  -7   1  142.09    5.50
   3   7  -1  131.49    5.80
  -2  -7   1    9.00    1.60
   2   7  -1   12.80    1.50
  -1   7   1 1212.58   37.60
   1   7  -1 1271.57   38.00
  -1   7   1 1324.77   37.60
   0  -7   1   43.40    1.80
   0   7  -1   45.50    1.80
   0   7   1   49.40    1.80
   0   7   1   44.50    1.80
   1  -7   1 1659.43   49.50
   1   7   1 1600.24   49.70
  -1   7  -1 1679.83   49.50
   1   7   1 1725.83   49.70
   2  -7   1  497.65   15.40
   2   7   1  500.75   15.90
  -2   7  -1  511.95   15.40
   2   7   1  521.45   15.90
  -3   7  -1   85.19    6.50
   3   7   1   69.19    4.80
  -3   7  -1   71.29    4.10
  -3   7  -1   72.39    4.60
  -4  -7  -1    9.20    2.40
  -4  -7  -1    7.10    3.10
  -4  -7  -1   14.60    3.30
  -5  -7  -1    2.80    2.30
  -5  -7  -1    3.50    2.00
  -5  -7  -1    3.40    2.70
  -5   7  -1   -0.80    1.80
  -5   7  -1    1.80    2.10
  -5   7  -1    0.90    1.60
  -6  -7  -1    5.10    1.80
  -6   7  -1   -0.30    1.40
  -6   7  -1    2.20    1.50
  -6   8   1    2.60    1.50
  -6   8   1    4.90    1.60
  -5  -8   1   23.80    4.10
  -5  -8   1   43.70    5.60
  -5   8   1   24.70    3.30
  -5   8   1   27.20    3.60
  -5   8   1   28.30    3.30
  -4  -8   1    8.80    2.80
  -4  -8   1    6.80    3.30
  -4   8   1    8.00    2.40
  -4   8   1   11.60    2.60
  -4   8   1   10.20    2.00
  -3  -8   1    1.90    1.60
  -3   8   1    4.10    2.60
   3   8  -1    4.00    2.00
  -2  -8   1  106.99    4.40
   2   8  -1  113.09    4.30
   2   8  -1  107.79    4.20
   1   8  -1  142.49    4.90
  -1   8   1  149.99    4.50
  -1   8   1  138.69    4.50
   0  -8   1    6.10    0.70
   0   8  -1    5.60    0.80
   0   8   1    5.60    0.70
   0   8   1    5.30    0.70
   1  -8   1  145.39    4.70
   1   8   1  137.09    5.00
  -1   8  -1  152.68    4.80
   1   8   1  148.09    5.00
  -2  -8  -1    4.00    1.70
   2  -8   1    2.40    0.60
   2   8   1    4.20    1.00
  -2   8  -1    2.90    0.80
   2   8   1    2.70    1.10
  -3  -8  -1    1.20    2.40
  -3  -8  -1    7.60    2.60
   3   8   1   -2.40    2.80
  -3   8  -1    4.90    2.40
  -3   8  -1    2.50    2.70
  -3   8  -1    3.00    1.90
  -4  -8  -1   54.59    6.10
  -4  -8  -1   57.89    4.90
  -4   8  -1   53.69    4.40
  -4   8  -1   61.79    4.20
  -4   8  -1   64.79    3.80
  -5  -8  -1   49.00    5.20
  -5  -8  -1   48.60    4.30
  -5  -8  -1   41.00    3.70
  -5   8  -1   49.90    3.60
  -5   8  -1   52.29    3.90
  -5   8  -1   45.10    3.90
  -6  -8  -1   16.20    3.10
  -6   8  -1   16.20    2.40
  -6   8  -1   13.00    2.30
  -6   9   1    1.10    1.40
  -6   9   1   -0.10    1.30
  -5  -9   1   18.00    4.10
  -5   9   1   18.80    3.00
  -5   9   1   19.90    3.10
  -5   9   1   25.50    3.50
  -4  -9   1   18.40    3.30
  -4  -9   1   22.10    4.30
  -4   9   1   19.20    3.30
  -3  -9   1   18.70    2.80
  -3   9   1   20.20    3.80
  -3   9   1   23.90    4.50
   3   9  -1   18.80    3.00
  -3   9   1   22.40    3.50
  -2  -9   1  109.19    4.40
   2   9  -1  112.79    4.60
   2   9  -1  111.79    4.40
  -1   9   1  118.59    3.80
  -1   9   1  117.29    3.80
   1   9  -1  114.09    4.10
   0  -9   1    3.30    0.70
   0   9   1    3.40    0.80
   0   9  -1    3.70    0.80
   1  -9   1  335.87   10.40
  -1   9  -1  349.67   10.40
   1   9   1  341.97   10.70
   1   9   1  317.77   10.60
   2  -9   1  186.08    6.00
  -2  -9  -1  180.48    6.80
   2   9   1  194.48    6.70
  -2   9  -1  192.18    6.20
  -3  -9  -1   16.80    4.30
  -3  -9  -1   15.40    3.60
  -3  -9  -1   14.30    2.80
  -3   9  -1   10.90    2.80
  -3   9  -1   17.60    2.80
  -3   9  -1   14.80    3.10
  -4  -9  -1    1.40    2.30
  -4  -9  -1   -0.50    2.30
  -4   9  -1    2.10    2.20
  -4   9  -1    0.50    2.10
  -4   9  -1   -1.20    1.60
  -5  -9  -1    3.70    2.00
  -5  -9  -1    0.90    2.10
  -5   9  -1    0.20    1.90
  -5   9  -1    2.60    1.60
  -5   9  -1   -1.80    1.80
  -6  -9  -1   34.00    4.80
  -6   9  -1   31.60    2.60
  -6   9  -1   33.30    2.80
  -6  10   1   68.19    3.60
  -6  10   1   70.69    3.80
  -5 -10   1   -1.30    2.40
  -5  10   1    2.40    1.70
  -5  10   1    1.20    2.00
  -4 -10   1  189.48    8.10
  -4 -10   1  179.28    9.90
  -4 -10   1  190.98    7.80
  -4  10   1  186.58    7.60
  -4  10   1  191.08    7.40
  -4  10   1  182.68    8.00
  -3 -10   1   83.39    5.80
  -3 -10   1   82.89    4.10
  -3  10   1   78.39    5.00
  -3  10   1   87.79    4.30
  -3  10   1   72.39    5.70
  -2 -10   1   46.50    2.80
  -2  10   1   47.10    3.20
   2  10  -1   47.10    2.90
  -1 -10   1  113.09    4.40
   1  10  -1  117.69    4.30
  -1  10   1  118.69    3.90
  -1  10   1  116.39    3.90
   0 -10   1    8.90    1.00
   0  10  -1    9.50    1.10
   0  10   1    9.30    1.00
   0  10   1    7.10    1.00
   1 -10   1   29.10    1.60
  -1 -10  -1   30.70    2.40
   1  10   1   32.40    2.00
   1  10   1   30.80    1.90
  -1  10  -1   30.20    1.70
  -2 -10  -1 1443.36   43.30
   2 -10   1 1378.76   42.80
  -2  10  -1 1432.96   42.90
   2  10   1 1489.55   43.60
  -3 -10  -1  151.48    6.80
  -3 -10  -1  168.68    7.00
  -3 -10  -1  153.08    6.60
  -3  10  -1  163.58    6.50
  -3  10  -1  157.88    6.90
  -3  10  -1  163.18    7.20
  -4 -10  -1   -2.50    2.20
  -4 -10  -1   -0.50    2.10
  -4  10  -1   -0.20    2.40
  -4  10  -1    1.30    2.10
  -4  10  -1    4.00    1.70
  -5 -10  -1    2.70    1.90
  -5 -10  -1    3.30    2.20
  -5  10  -1   -1.00    1.80
  -5  10  -1    2.30    1.90
  -5  10  -1    2.50    1.50
  -6 -10  -1   55.69    3.90
  -6  10  -1   57.39    3.20
  -6  10  -1   58.89    3.30
  -6  11   1   14.90    2.20
  -6  11   1   12.60    2.60
  -5 -11   1   84.39    6.40
  -5 -11   1   80.79    5.50
  -5  11   1   75.49    4.90
  -5  11   1   81.99    4.50
  -4 -11   1   14.90    3.00
  -4 -11   1   24.20    4.70
  -4 -11   1   22.00    4.40
  -4  11   1   20.50    3.10
  -4  11   1   21.10    3.80
  -4  11   1   23.30    3.50
  -3 -11   1   -1.70    3.10
  -3 -11   1   -0.70    1.50
  -3 -11   1   -3.20    2.70
  -3  11   1    2.00    2.60
  -3  11   1   -1.40    3.00
  -3  11   1    5.80    2.10
  -2 -11   1  278.57    9.20
  -2  11   1  262.07    9.20
   2  11  -1  280.37    9.50
  -1 -11   1    3.70    1.10
  -1  11   1    4.30    0.70
  -1  11   1    2.80    0.70
   1  11  -1    3.80    0.90
  -1  11   1    4.10    1.30
   0 -11   1   67.89    2.90
   0 -11   1   68.99    3.50
   0  11   1   76.89    3.00
   0  11   1   77.09    3.00
   0  11  -1   76.89    3.00
  -1 -11  -1   53.89    3.00
   1 -11   1   54.39    2.40
   1  11   1   59.99    2.90
  -1  11  -1   58.19    2.60
   1  11   1   57.09    2.70
   2 -11   1  621.94   19.00
  -2 -11  -1  645.24   19.60
   2  11   1  610.64   19.80
  -3 -11  -1   16.00    3.60
  -3 -11  -1   20.30    3.80
  -3 -11  -1   15.60    2.40
  -3  11  -1   13.90    3.10
  -3  11  -1   18.20    3.30
  -3  11  -1   18.00    3.50
  -4 -11  -1    3.60    2.30
  -4 -11  -1    2.70    2.20
   4 -11   1    3.80    2.80
  -4  11  -1   -1.00    1.90
  -4  11  -1   -1.20    2.30
  -4  11  -1    2.00    1.70
  -5 -11  -1   41.40    5.20
  -5 -11  -1   39.80    3.50
  -5  11  -1   40.40    3.70
  -5  11  -1   39.40    3.10
  -5  11  -1   37.50    3.50
  -6 -11  -1   18.80    2.80
  -6  11  -1   16.00    2.10
  -6  11  -1   17.40    2.30
  -6  12   1   20.00    2.40
  -6  12   1   18.20    2.20
  -5 -12   1  110.59    8.70
  -5  12   1  153.18    6.50
  -5  12   1  141.49    6.10
  -4 -12   1   74.39    5.00
  -4 -12   1   69.09    5.50
  -4 -12   1   58.69    5.00
  -4  12   1   75.49    4.50
  -4  12   1   75.49    5.30
  -3 -12   1   26.70    5.10
  -3 -12   1   18.00    4.30
  -3 -12   1   19.20    2.80
  -3  12   1   15.40    3.60
  -3  12   1   21.70    3.60
  -2 -12   1  272.07    9.10
   2  12  -1  276.17    9.50
  -2  12   1  252.97    9.10
  -1 -12   1  301.57    9.70
   1  12  -1  290.17    9.80
  -1  12   1  301.97    9.40
  -1  12   1  290.07    9.60
  -1  12   1  292.47    9.30
   0 -12   1   10.00    2.20
   0  12   1    7.70    1.40
   0  12   1    8.80    1.50
   0  12  -1    9.60    1.60
  -1 -12  -1   40.00    2.60
   1 -12   1   35.90    2.00
   1  12   1   41.70    2.50
   1  12   1   34.60    2.60
  -1  12  -1   35.00    2.30
  -2 -12  -1  294.17    9.70
   2 -12   1  281.37    9.20
   2  12   1  284.67   10.20
  -3 -12  -1   22.20    3.80
   3 -12   1   15.40    3.00
  -3 -12  -1   13.70    3.40
  -3 -12  -1   14.00    2.60
  -3  12  -1   17.90    3.20
  -3  12  -1   19.40    3.00
  -3  12  -1   19.00    3.50
  -4 -12  -1   32.50    3.90
  -4 -12  -1   28.20    3.90
   4 -12   1   22.80    4.80
  -4  12  -1   27.80    4.30
  -4  12  -1   32.00    3.60
  -4  12  -1   29.50    3.10
  -5 -12  -1    0.60    2.00
  -5 -12  -1    0.30    1.80
  -5  12  -1    5.00    2.30
  -5  12  -1    1.40    1.70
  -6  12  -1   61.19    3.10
  -6  12  -1   63.99    3.30
   6 -13  -1   46.90    2.70
  -6  13   1   44.40    2.90
  -6  13   1   45.70    2.70
  -5 -13   1    3.20    2.80
  -5  13   1   11.90    2.40
  -5  13   1   14.60    2.70
  -4 -13   1   52.49    4.70
  -4 -13   1   55.99    4.70
  -4 -13   1   44.90    5.20
  -4  13   1   63.09    4.80
  -4  13   1   58.39    4.20
  -3 -13   1    1.00    3.10
  -3 -13   1   10.50    2.70
  -3 -13   1   10.30    2.60
  -3  13   1    8.10    3.30
  -3  13   1    6.70    2.50
  -2  13   1  111.99    4.90
  -1 -13   1 1221.88   36.80
  -1  13   1 1197.28   36.60
  -1  13   1 1216.08   36.40
  -1  13   1 1212.88   36.40
   0 -13   1  984.40   29.20
   0  13   1  977.30   29.10
   0  13   1  933.31   29.10
   0  13  -1  932.31   29.10
   1 -13   1   49.40    2.50
  -1 -13  -1   50.39    3.00
   1  13   1   48.20    3.00
  -1  13  -1   47.80    3.00
  -2 -13  -1   59.59    5.00
  -2 -13  -1   59.79    4.40
   3 -13   1   -0.70    2.70
  -3 -13  -1    0.40    2.10
  -3 -13  -1   -2.10    2.00
  -3 -13  -1    1.50    2.40
  -3  13  -1    3.60    1.90
  -3  13  -1   -4.00    2.20
  -3  13  -1    1.40    3.30
   4 -13   1    0.50    2.60
  -4 -13  -1    3.80    2.10
  -4 -13  -1    3.40    2.40
  -4  13  -1    4.80    1.80
  -4  13  -1    5.40    2.20
  -4  13  -1    3.70    2.60
  -5 -13  -1   21.30    3.50
  -5 -13  -1   23.80    3.20
  -5  13  -1   23.80    3.20
  -6  13  -1    4.60    1.60
  -6  13  -1    6.60    1.40
  -6  14   1    3.90    1.20
  -6  14   1    3.50    1.40
  -5 -14   1   87.29    5.60
  -5  14   1   93.29    5.00
  -4 -14   1   34.90    4.50
  -4 -14   1   27.10    5.10
  -4 -14   1   29.00    4.40
  -4  14   1   28.10    4.60
  -4  14   1   25.80    3.40
  -3 -14   1   34.20    5.00
  -3 -14   1   48.10    3.50
  -3 -14   1   44.70    4.30
  -3  14   1   46.60    6.20
  -3  14   1   47.90    4.40
  -2 -14   1   33.20    4.10
  -2 -14   1   32.70    2.70
  -2  14   1   30.50    3.10
  -1 -14   1    7.10    1.50
  -1  14   1    8.80    1.60
  -1  14   1    9.40    2.00
  -1  14   1   10.20    1.50
   0 -14   1  517.95   15.90
   0  14   1  516.85   15.80
   0  14   1  504.15   15.80
   0  14  -1  453.95   15.80
  -1 -14  -1   67.09    3.40
   1  14   1   61.39    3.70
  -1  14  -1   60.99    3.70
  -2 -14  -1   14.00    2.50
   2 -14   1   13.50    2.60
  -2 -14  -1   12.90    3.00
  -2 -14  -1   10.60    2.40
  -2  14  -1   10.70    2.90
   3 -14   1    8.10    2.60
  -3 -14  -1    9.70    2.30
  -3 -14  -1    8.30    2.30
  -3 -14  -1    9.50    2.60
  -3  14  -1   12.50    2.60
  -3  14  -1   12.10    3.50
  -4 -14  -1  222.28    8.80
  -4 -14  -1  237.48    8.80
   4 -14   1  213.98    8.90
  -4  14  -1  230.38    9.20
  -4  14  -1  224.58    8.80
  -5 -14  -1   12.60    3.00
  -5 -14  -1   15.50    3.30
  -5  14  -1   18.70    3.40
  -5  14  -1   10.40    2.50
   6 -14   1   -0.30    0.90
  -6  14  -1    0.60    1.50
  -6  14  -1    0.50    1.10
   6 -15  -1    1.00    1.10
  -6  15   1   -0.80    1.60
  -6  15   1    0.60    1.20
  -5 -15   1   -2.10    2.50
  -5  15   1    3.30    1.50
  -5  15   1    3.90    2.10
  -4 -15   1   43.10    4.40
  -4 -15   1   44.50    5.30
  -4 -15   1   46.00    4.50
  -4  15   1   50.39    3.90
  -4  15   1   61.09    5.30
  -3 -15   1    5.80    1.90
  -3 -15   1    4.00    3.10
  -3 -15   1   10.70    2.40
  -3  15   1    8.10    3.90
  -3  15   1    7.70    2.70
  -2 -15   1   15.60    4.40
  -2 -15   1   13.60    2.30
  -2 -15   1   11.40    2.50
  -2  15   1    8.50    2.00
  -1  15   1  342.77   11.20
  -1  15   1  341.77   11.10
   0 -15   1  154.98    5.90
   0  15   1  151.18    6.00
  -1 -15  -1  670.63   21.10
   1  15   1  656.03   21.10
  -2 -15  -1  149.09    6.50
  -2 -15  -1  148.39    6.90
   2 -15   1  141.89    6.60
  -2 -15  -1  159.08    6.10
  -2  15  -1  147.59    7.00
  -3 -15  -1   38.20    3.80
  -3 -15  -1   35.80    3.80
   3 -15   1   34.80    4.30
  -3  15  -1   49.40    6.30
  -4 -15  -1   24.30    3.50
  -4 -15  -1   16.30    3.90
   4 -15   1   15.10    2.90
  -4  15  -1   19.10    3.20
  -4  15  -1   22.70    4.60
  -5 -15  -1  118.29    5.40
  -5 -15  -1  118.79    5.30
  -5  15  -1  116.39    5.50
  -5  15  -1  112.09    5.10
   6 -15   1   35.50    2.10
  -6  15  -1   31.30    2.10
   6 -16  -1    9.40    1.80
  -6  16   1    2.40    1.10
  -5 -16   1   39.80    4.50
  -5  16   1   42.00    3.10
  -5  16   1   45.00    3.80
  -4 -16   1   21.10    4.90
  -4 -16   1   21.20    4.00
  -4 -16   1   16.00    4.10
  -4  16   1   23.30    3.40
  -4  16   1   22.10    3.30
  -3 -16   1  530.85   17.90
  -3 -16   1  529.05   17.70
  -3 -16   1  573.54   17.60
  -3  16   1  516.75   18.70
   2 -16  -1   35.00    5.40
  -2 -16   1   40.60    3.00
  -2 -16   1   37.30    5.90
  -2 -16   1   36.20    4.00
  -2  16   1   38.60    6.40
  -2  16   1   35.20    3.40
   1 -16  -1   29.30    3.60
  -1 -16   1   30.70    3.90
  -1 -16   1   31.90    2.60
  -1  16   1   30.90    2.50
   0  16   1   51.59    4.00
   1 -16   1    9.20    2.40
   1 -16   1    6.80    2.30
  -1 -16  -1    8.80    2.40
  -1 -16  -1    9.20    2.30
  -1 -16  -1    8.10    2.50
   2 -16   1   -0.80    2.30
  -2 -16  -1    3.50    1.60
  -2 -16  -1    2.00    2.00
  -2 -16  -1   -1.50    2.60
  -2  16  -1   -2.00    2.80
  -3 -16  -1  179.88    7.60
   3 -16   1  165.38    7.30
  -3 -16  -1  175.98    7.30
  -3  16  -1  176.28    7.50
  -4 -16  -1   30.60    3.80
   4 -16   1   26.00    4.40
  -4 -16  -1   28.10    4.10
  -4  16  -1   28.10    3.50
  -4  16  -1   45.50    4.90
  -5 -16  -1   16.60    3.10
  -5 -16  -1   25.40    3.20
  -5  16  -1   18.30    3.60
  -5  16  -1   25.30    2.60
   5 -17  -1   93.29    4.30
  -5 -17   1   92.59    5.30
  -5  17   1   94.19    4.90
  -5  17   1  100.99    4.40
  -4 -17   1   57.69    4.70
  -4 -17   1   54.39    4.40
  -4  17   1   56.39    5.50
  -4  17   1   58.79    4.20
  -3 -17   1   17.60    3.40
  -3 -17   1   18.70    3.90
  -3 -17   1   16.70    2.90
  -3  17   1   19.50    4.20
   2 -17  -1  105.79    5.10
   2 -17  -1  109.19    6.30
  -2 -17   1  105.29    4.90
  -2 -17   1  110.99    5.50
  -2 -17   1  105.89    6.60
  -2  17   1  109.99    5.10
  -1 -17   1  380.56   14.00
  -1 -17   1  413.06   13.30
  -1 -17   1  408.16   13.60
   1 -17  -1  393.16   13.70
   1 -17  -1  411.46   13.50
  -1  17   1  409.26   13.10
   0 -17  -1  252.87    9.10
   0 -17   1  232.78    9.30
   0 -17  -1  245.28    9.30
   0 -17   1  258.57    9.30
   0 -17   1  269.07    9.00
   0  17   1  249.28    9.60
  -1 -17  -1   -0.30    2.40
   1 -17   1    4.00    2.20
   1 -17   1   -1.20    2.10
  -1 -17  -1    3.10    2.10
  -2 -17  -1    0.80    2.10
  -2 -17  -1   -3.50    2.50
   2 -17   1    0.00    2.30
  -2 -17  -1    2.00    1.60
  -2  17  -1    1.90    3.00
  -3 -17  -1   32.80    3.70
  -3 -17  -1   28.70    4.20
   3 -17   1   38.20    4.00
  -3  17  -1   28.80    3.80
   4 -17   1   43.50    4.70
  -4 -17  -1   32.10    3.70
  -4 -17  -1   31.70    4.00
  -4  17  -1   32.40    3.40
  -4  17  -1   29.60    3.80
  -5 -17  -1   92.69    4.60
  -5 -17  -1   88.99    4.50
  -5  17  -1   90.59    4.20
  -5  17  -1   88.49    5.20
  -5 -18   1   20.10    3.80
   5 -18  -1   24.70    2.40
  -5  18   1   23.40    2.50
   4 -18  -1  208.68    7.90
  -4 -18   1  213.28    8.40
  -4  18   1  211.58    8.20
  -3 -18   1   72.29    5.50
  -3 -18   1   70.39    4.70
  -3 -18   1   80.59    4.50
   3 -18  -1   78.59    4.20
  -3  18   1   72.69    5.20
  -2 -18   1  123.39    5.80
   2 -18  -1  116.69    6.40
  -2 -18   1  121.09    5.40
   2 -18  -1  123.19    5.50
  -2 -18   1  114.49    6.60
  -2  18   1  117.49    5.40
  -1 -18   1   13.80    2.40
  -1 -18   1   21.90    3.30
   1 -18  -1   18.50    4.00
   1 -18  -1   16.50    3.10
  -1 -18   1   12.90    3.30
  -1  18   1   15.40    2.30
   0 -18  -1   -1.20    2.20
   0 -18   1   -4.10    2.20
   0 -18   1   -1.20    1.80
   0 -18  -1    3.80    2.00
  -1 -18  -1   11.60    2.50
   1 -18   1   15.70    3.40
   1 -18   1    6.30    2.40
  -1 -18  -1   11.90    2.30
  -2 -18  -1    2.80    2.50
   2 -18   1    1.10    2.30
  -2 -18  -1   -0.10    2.10
  -2  18  -1   -2.40    3.00
  -3 -18  -1    9.70    2.20
  -3 -18  -1    3.00    2.50
   3 -18   1    7.20    2.50
  -3  18  -1    7.30    2.60
  -4 -18  -1  135.29    6.20
  -4 -18  -1  147.09    6.50
  -4  18  -1  136.19    6.20
  -5 -18  -1    7.00    2.50
   5 -18   1    4.20    1.20
  -5 -18  -1    2.70    1.70
  -5  18  -1    4.90    1.40
   5 -19  -1   26.40    2.40
  -5  19   1   24.50    2.60
  -4 -19   1   76.09    4.70
   4 -19  -1   82.59    4.20
  -4  19   1   75.49    4.70
  -3 -19   1  132.19    7.90
  -3 -19   1  154.48    6.70
   3 -19  -1  155.78    6.40
  -3 -19   1  153.68    7.30
  -3  19   1  154.98    7.20
   2 -19  -1   32.80    4.40
   2 -19  -1   27.00    3.10
  -2 -19   1   31.20    3.00
  -2 -19   1   29.80    4.60
  -2 -19   1   28.60    3.70
  -2  19   1   35.50    3.50
   1 -19  -1    3.00    2.40
   1 -19  -1    2.60    2.00
  -1 -19   1    2.00    1.50
  -1 -19   1    1.80    2.10
  -1 -19   1    7.10    2.80
  -1  19   1    4.90    1.50
   0 -19   1    7.80    2.30
   0 -19  -1    2.10    2.10
   0 -19  -1    7.70    2.20
   0 -19   1    5.50    2.30
   1 -19   1   13.40    3.10
   1 -19   1   10.40    2.50
  -1 -19  -1    8.80    2.30
  -1 -19  -1   10.30    2.30
   2 -19   1   27.50    3.80
   2 -19   1   25.40    3.30
  -2 -19  -1   22.30    3.50
  -2 -19  -1   23.20    3.50
  -2  19  -1   20.60    3.60
  -3 -19  -1   26.40    3.30
  -3 -19  -1   16.40    4.00
   3 -19   1   19.30    4.00
  -3  19  -1   18.50    3.90
   4 -19   1   68.09    5.30
  -4 -19  -1   66.19    4.30
  -5 -19  -1   37.90    2.90
   5 -19   1   34.90    2.50
  -5  19  -1   35.10    2.50
   5 -20  -1   10.40    1.80
  -5 -20   1   10.70    2.40
  -5  20   1   14.40    2.40
  -4 -20   1    4.20    2.00
  -4  20   1    5.60    1.90
  -3 -20   1  510.85   18.00
   3 -20  -1  552.34   17.90
  -3 -20   1  583.04   18.20
  -3 -20   1  563.04   18.20
  -3  20   1  545.05   18.20
  -2 -20   1   37.40    3.80
  -2 -20   1   45.40    3.50
  -2 -20   1   44.70    4.80
   2 -20  -1   44.70    3.60
   2 -20  -1   45.80    4.50
  -2  20   1   46.50    3.80
  -1 -20   1   26.40    3.50
   1 -20  -1   29.60    3.30
  -1 -20   1   27.40    3.00
  -1 -20   1   29.60    4.20
   1 -20  -1   35.40    4.10
  -1  20   1   34.50    2.90
   0 -20  -1   69.49    4.30
   0 -20  -1   70.79    4.70
   0 -20   1   73.49    4.50
   0 -20   1   72.19    4.60
   1 -20   1   38.70    3.80
  -1 -20  -1   35.00    3.60
   1 -20   1   39.70    3.50
  -1 -20  -1   38.70    4.10
  -1  20  -1   34.20    3.20
  -2 -20  -1   30.80    3.70
   2 -20   1   27.70    3.10
   2 -20   1   24.90    3.80
  -2 -20  -1   30.50    3.70
  -2  20  -1   30.10    5.30
  -3 -20  -1  199.98    7.90
   3 -20   1  197.68    7.70
  -3 -20  -1  203.48    8.10
   3 -20   1  191.18    7.90
  -3  20  -1  196.48    8.10
  -4 -20  -1   73.09    4.50
   4 -20   1   69.59    3.80
  -4 -20  -1   71.19    4.10
  -4  20  -1   65.09    4.20
  -5 -20  -1   -0.90    1.40
   5 -20   1    1.20    1.00
  -5  20  -1    0.80    1.30
   5 -21  -1    1.90    1.00
  -5  21   1    0.60    1.80
  -4 -21   1    0.60    1.70
   4 -21  -1   -0.20    1.30
  -4  21   1    0.20    1.90
   3 -21  -1    8.40    1.90
  -3 -21   1    9.90    2.30
  -3 -21   1    8.80    2.90
  -3  21   1    8.10    3.10
   2 -21  -1    1.40    2.60
   2 -21  -1    2.90    1.80
  -2 -21   1   -1.10    2.00
  -2 -21   1    2.30    1.80
  -2 -21   1   -0.10    2.60
  -2  21   1   -0.50    1.90
   1 -21  -1    7.20    2.00
  -1 -21   1   10.20    2.10
   1 -21  -1   10.00    2.40
  -1 -21   1    8.60    2.70
  -1  21   1   15.10    2.60
   0 -21   1   44.10    3.90
   0 -21  -1   38.20    3.60
   0 -21   1   46.40    4.20
  -1 -21  -1  195.68    7.70
   1 -21   1  195.58    7.80
  -1 -21  -1  202.08    7.70
   1 -21   1  188.08    7.60
  -1  21  -1  198.68    7.50
  -2 -21  -1  423.06   14.40
   2 -21   1  415.16   14.30
  -2 -21  -1  429.06   14.40
   2 -21   1  429.76   14.30
   3 -21   1   -0.60    1.50
  -3 -21  -1    3.60    2.20
  -3 -21  -1   -1.20    1.80
   3 -21   1    2.20    2.20
  -3  21  -1   -0.20    2.50
   4 -21   1   49.00    3.10
  -4 -21  -1   49.40    3.90
  -4 -21  -1   48.00    3.30
  -4  21  -1   50.49    3.50
  -5 -21  -1    4.80    1.50
  -5  21  -1    3.10    1.50
   5 -22  -1   14.70    1.80
   4 -22  -1    3.70    1.40
  -4 -22   1    3.10    1.70
  -4  22   1    1.50    2.20
  -3 -22   1   -2.90    1.90
   3 -22  -1   -1.70    1.50
  -2 -22   1    8.50    2.70
  -2 -22   1    1.60    1.90
   2 -22  -1    4.60    1.90
   2 -22  -1    1.70    2.50
  -2  22   1    8.60    2.10
   1 -22  -1   11.50    2.40
  -1 -22   1   11.40    2.30
  -1 -22   1   16.30    3.70
   1 -22  -1   19.50    2.90
  -1  22   1   10.90    2.60
   0 -22   1  154.78    6.30
   0 -22   1  136.99    6.30
   0 -22  -1  144.39    6.40
   0 -22  -1  140.59    6.10
   0  22   1  140.79    6.00
   1 -22   1  277.17   10.00
   1 -22   1  283.97   10.00
  -1 -22  -1  268.77   10.00
  -1 -22  -1  263.37    9.90
  -1  22  -1  277.37    9.80
   2 -22   1  144.79    6.30
  -2 -22  -1  142.89    6.30
  -2 -22  -1  145.39    6.40
   2 -22   1  135.59    6.00
  -3 -22  -1   66.49    4.20
   3 -22   1   63.79    3.90
  -3 -22  -1   62.99    4.20
   3 -22   1   58.39    4.40
  -3  22  -1   63.79    4.80
  -4 -22  -1   24.50    3.20
   4 -22   1   19.60    2.30
  -4 -22  -1   19.50    2.50
  -4  22  -1   11.90    2.90
   5 -22   1    2.30    0.90
  -4 -23   1    0.80    1.60
   4 -23  -1    0.40    1.20
   3 -23  -1  120.69    5.30
  -3 -23   1  122.69    5.70
  -2 -23   1   19.80    3.10
  -2 -23   1   12.00    2.80
   2 -23  -1   13.10    2.60
   2 -23  -1   11.30    2.70
  -2  23   1   12.70    2.30
  -1 -23   1  321.87   11.40
   1 -23  -1  325.77   11.50
   1 -23  -1  321.67   11.30
  -1 -23   1  327.67   11.50
   0 -23   1  251.97    9.40
   0 -23   1  248.38    9.20
   0 -23  -1  257.37    9.30
   0 -23  -1  244.08    9.40
   0  23   1  258.47    9.20
   1 -23   1  138.59    6.00
   1 -23   1  135.19    6.20
  -1 -23  -1  136.09    6.20
  -1 -23  -1  138.29    6.10
  -2 -23  -1    1.40    1.90
   2 -23   1    3.60    1.80
  -2 -23  -1   -0.40    1.70
   2 -23   1   -1.80    1.80
  -3 -23  -1    4.80    2.00
  -3 -23  -1   -1.70    1.80
   3 -23   1    0.60    2.00
   3 -23   1   -0.10    2.10
  -3  23  -1    3.20    2.90
  -4 -23  -1   22.90    2.60
   4 -23   1   22.60    2.10
  -4  23  -1   20.40    3.00
   4 -24  -1   11.10    1.90
  -4 -24   1    6.80    1.50
   4  24  -1    4.10    2.30
   3 -24  -1   16.00    2.50
  -3 -24   1   26.50    3.10
  -2 -24   1  115.29    5.90
   2 -24  -1  115.09    5.80
  -2 -24   1  112.99    5.50
   2 -24  -1  116.79    5.20
  -2  24   1  111.09    5.50
  -1 -24   1    5.10    1.90
   1 -24  -1    6.50    2.30
   1 -24  -1    3.20    1.90
  -1 -24   1    1.90    2.30
  -1  24   1    2.00    1.70
   0 -24  -1    2.20    2.00
   0 -24  -1    1.90    1.80
   0 -24   1    1.90    2.00
   0 -24   1    0.40    1.90
   0  24   1    3.90    1.50
  -1 -24  -1   18.60    3.20
   1 -24   1   15.20    3.10
   1 -24   1   14.30    3.10
  -1 -24  -1   18.30    3.20
  -1  24  -1   14.70    3.20
   2 -24   1    8.50    2.20
   2 -24   1    7.60    1.90
  -2 -24  -1    7.90    1.90
  -2 -24  -1    8.60    2.10
   3 -24   1  196.38    7.40
  -3 -24  -1  212.88    7.60
  -3 -24  -1  201.08    7.60
   3 -24   1  185.68    7.50
   3  24   1  193.18    7.50
  -4 -24  -1   20.60    2.40
   4 -24   1   24.60    2.00
   4 -25  -1    3.60    1.10
  -4 -25   1    2.60    1.60
  -3 -25   1    1.10    1.50
   3 -25  -1    1.00    1.20
   2 -25  -1   18.00    3.80
  -2 -25   1   16.70    3.40
  -2 -25   1   14.80    3.10
   2 -25  -1   19.80    2.70
  -2  25   1   15.70    2.60
  -1 -25   1  165.88    6.80
  -1 -25   1  163.08    7.00
   1 -25  -1  168.48    7.00
   1 -25  -1  164.68    6.70
  -1  25   1  157.48    6.70
   0 -25  -1   28.30    3.50
   0 -25  -1   25.30    3.20
   0 -25   1   26.90    3.40
   0 -25   1   33.50    3.70
   0  25   1   27.50    2.90
   0  25  -1   29.40    2.90
   1 -25   1   -1.30    1.80
   1 -25   1    1.30    1.80
  -1 -25  -1    1.80    1.80
  -1 -25  -1   -2.00    1.80
  -1  25  -1   -0.80    2.00
   1  25   1    2.10    1.40
   2 -25   1   13.30    3.20
  -2 -25  -1   10.20    2.00
   2 -25   1   14.60    2.70
   2  25   1   11.00    2.60
  -3 -25  -1   67.79    3.70
   3 -25   1   62.89    3.40
   3 -25   1   66.89    4.10
  -3 -25  -1   59.69    4.00
   4 -25   1   28.00    2.10
  -4 -25  -1   31.60    2.30
   4 -26  -1   35.00    2.50
  -3 -26   1    2.20    1.50
   3 -26  -1    1.00    1.10
   2 -26  -1   67.59    4.80
  -2 -26   1   68.49    4.90
   2 -26  -1   73.99    4.60
  -2  26   1   64.19    4.90
  -1 -26   1    4.10    1.70
  -1 -26   1   11.40    2.30
   1 -26  -1    5.30    1.70
   1 -26  -1    7.70    2.10
  -1  26   1    3.50    1.90
   0 -26   1   -0.70    1.70
   0 -26  -1   -0.60    1.60
   0 -26   1    2.10    2.00
   0 -26  -1   -1.00    1.70
   0  26   1   -0.90    1.40
   0  26  -1   -0.80    1.40
  -1 -26  -1   48.80    3.70
   1 -26   1   54.59    3.80
   1 -26   1   57.29    3.80
  -1 -26  -1   49.99    3.70
  -1  26  -1   50.69    3.90
   1  26   1   43.10    3.20
  -2 -26  -1   27.90    3.10
   2 -26   1   30.50    3.30
   2 -26   1   33.80    2.90
  -2 -26  -1   27.50    3.00
   2  26   1   28.40    2.70
  -3 -26  -1    2.30    1.80
   3 -26   1    4.00    1.20
   3 -26   1    1.40    2.10
  -3 -26  -1    3.90    1.30
   3  26   1    5.00    1.80
   4 -26   1   11.60    1.60
  -4 -26  -1    8.60    1.90
   4 -27  -1    1.40    0.90
   3 -27  -1    3.70    1.20
  -3 -27   1    0.90    1.30
   3  27  -1    2.10    1.50
  -2 -27   1   10.10    2.30
   2 -27  -1    8.00    2.20
   2 -27  -1   10.60    2.30
   1 -27  -1    1.10    2.30
  -1 -27   1    1.20    1.60
  -1 -27   1    2.60    2.10
   1  27  -1    2.70    1.40
  -1  27   1    3.00    1.70
   0 -27  -1    2.40    1.70
   0 -27   1    2.70    1.60
   0 -27  -1    3.40    1.60
   0  27  -1    0.60    1.60
   0  27   1    3.00    1.60
  -1 -27  -1   11.00    2.00
   1 -27   1    8.90    1.80
  -1  27  -1    5.40    2.30
   1  27   1    8.10    1.70
  -2 -27  -1   73.39    4.00
  -2 -27  -1   74.89    4.20
   2 -27   1   77.59    3.80
   2 -27   1   71.09    4.10
   2  27   1   74.59    4.00
   3 -27   1    8.30    3.00
  -3 -27  -1   15.20    3.30
   3 -27   1    6.90    1.30
  -3 -27  -1    9.70    2.00
   3  27   1    8.80    2.10
   3 -28  -1   12.00    1.90
  -3 -28   1   12.60    2.10
   3  28  -1   14.30    2.70
   2 -28  -1   86.29    3.80
  -2 -28   1   85.09    4.10
   2 -28  -1   76.19    4.90
   2  28  -1   85.69    4.70
   1 -28  -1    5.60    1.80
   1 -28  -1    9.90    2.30
  -1 -28   1    6.90    2.10
  -1 -28   1    3.20    1.40
   1  28  -1    4.80    1.50
  -1  28   1    2.80    1.80
   0 -28  -1   53.19    3.30
   0 -28  -1   47.90    3.50
   0 -28   1   47.30    3.30
   0 -28   1   44.00    3.50
   0  28   1   48.80    3.50
   0  28  -1   48.20    3.50
   1 -28   1   21.00    2.90
  -1 -28  -1   18.80    2.60
  -1 -28  -1   20.50    2.70
   1 -28   1   23.50    2.90
   1  28   1   18.00    2.50
  -1  28  -1   22.70    5.20
   2 -28   1   69.59    3.60
  -2 -28  -1   76.89    3.80
   2 -28   1   78.29    4.00
  -2 -28  -1   77.49    4.10
   2  28   1   75.69    3.90
  -3 -28  -1   18.80    2.00
   3 -28   1   13.50    2.00
   3 -29  -1    4.40    1.10
  -3 -29   1    5.10    1.20
   2 -29  -1    3.50    1.20
  -2 -29   1    8.40    1.90
   2  29  -1    4.70    1.50
   1 -29  -1   29.10    3.20
   1 -29  -1   23.80    2.50
  -1 -29   1   23.40    2.60
  -1 -29   1   26.50    3.60
   1  29  -1   25.60    3.10
  -1  29   1   26.50    3.10
   0 -29   1    9.00    2.00
   0 -29  -1   13.50    2.70
   0 -29  -1   12.30    2.50
   0 -29   1   13.90    2.40
   0  29   1   14.60    2.60
   0  29  -1   13.90    3.50
   1 -29   1   24.00    2.80
   1 -29   1   26.30    2.70
  -1 -29  -1   26.20    2.50
  -1  29  -1   26.00    4.20
   1  29   1   22.90    3.00
   2 -29   1   16.20    2.60
   2 -29   1   13.90    2.20
  -2 -29  -1   13.70    2.20
  -2 -29  -1   11.70    2.50
   2  29   1   13.00    2.60
   3 -29   1   25.00    2.10
  -3 -29  -1   27.10    2.00
  -2 -30   1    5.60    1.20
   2 -30  -1    3.70    1.10
   2  30  -1    5.80    1.60
   1 -30  -1    6.20    1.80
   1 -30  -1    2.40    1.20
  -1 -30   1    0.50    1.30
  -1  30   1    5.80    2.10
   1  30  -1    2.50    1.60
   0 -30  -1   20.20    2.60
   0 -30  -1   25.10    2.60
   0 -30   1   26.00    3.00
   0 -30   1   18.60    2.40
   0  30   1   22.20    2.70
   0  30  -1   20.40    3.00
   1 -30   1    0.10    1.40
  -1 -30  -1    0.70    1.30
  -1 -30  -1    3.50    1.40
   1 -30   1    2.10    1.30
   1  30   1    2.80    1.50
   2 -30   1    5.10    1.30
  -2 -30  -1    2.20    1.90
  -2 -30  -1    1.30    1.10
   2 -30   1    2.80    1.60
   2  30   1    3.40    1.70
   2 -31  -1   -0.10    1.00
  -2 -31   1   -0.60    1.00
  -1 -31   1   99.39    4.10
   1 -31  -1   97.89    4.00
   1 -31  -1   94.59    4.40
   1  31  -1  103.39    4.60
   0 -31  -1   29.80    2.60
   0 -31   1   32.40    2.60
   0 -31  -1   30.40    2.60
   0 -31   1   31.90    3.50
   0  31  -1   24.90    3.40
   0  31   1   32.80    3.00
  -1 -31  -1   47.20    3.10
  -1 -31  -1   42.80    2.70
   1 -31   1   42.10    2.90
   1 -31   1   40.40    3.10
   1  31   1   40.30    3.00
   2 -31   1    6.70    1.40
  -2 -31  -1    2.50    1.00
  -1 -32   1    7.00    1.40
   1 -32  -1   12.80    2.00
   0 -32   1    1.30    1.60
   0 -32  -1    1.40    1.30
   0 -32  -1    0.70    1.30
   1 -32   1    7.00    1.50
  -1 -32  -1    7.80    1.90
  -6   0   2  127.59    5.70
  -6   0   2  132.59    5.60
  -5   0   2    1.20    2.40
  -5   0   2    1.30    2.00
  -5   0   2    2.90    2.10
  -4   0   2    7.70    2.50
  -4   0   2    6.50    2.30
  -4   0   2    5.50    2.60
   3   0  -2    0.80    0.80
  -3   0   2    2.10    1.60
   3   0  -2   -0.70    0.80
   2   0  -2  148.19    4.70
   2   0  -2  150.18    4.70
   1   0  -2    0.20    0.20
  -1   0   2   -0.10    0.20
   0   0   2  185.18    5.80
   0   0  -2  196.38    5.90
  -1   0  -2   -0.20    0.30
   1   0   2   -0.50    0.30
   2   0   2   53.29    2.30
  -2   0  -2   54.59    2.50
   3   0   2   -0.30    1.50
  -4   0  -2   15.40    2.80
  -4   0  -2   13.80    2.80
  -4   0  -2   17.40    3.80
  -4   0  -2   11.50    2.30
  -5   0  -2   -1.00    2.20
  -5   0  -2    1.70    1.60
  -5   0  -2   -1.70    2.30
  -5   0  -2   -0.10    2.20
  -6   0  -2    1.60    3.00
  -6   0  -2    1.60    1.30
  -6   0  -2    0.00    1.60
  -6  -1   2   -0.30    1.60
  -6  -1   2    1.30    1.70
  -6   1   2   -1.80    1.60
  -6   1   2    1.50    2.10
  -6   1   2   -0.90    1.60
  -5  -1   2    0.90    2.40
  -5  -1   2    0.00    2.00
  -5  -1   2    1.20    2.00
  -5   1   2    1.30    2.30
  -5   1   2    0.20    1.90
  -5   1   2    1.50    2.00
  -4  -1   2  226.68    8.70
  -4  -1   2  226.98    8.60
  -4  -1   2  206.28    8.80
  -4   1   2  219.08    8.60
  -4   1   2  234.88    8.50
  -4   1   2  212.68    8.60
   3  -1  -2    0.40    0.60
   3  -1  -2    0.10    0.70
  -3  -1   2   -1.10    1.60
  -3   1   2    1.20    1.70
   3   1  -2    1.70    1.60
   3   1  -2    0.40    0.80
   2  -1  -2    1.10    0.30
   2  -1  -2    0.70    0.30
   2   1  -2    0.70    0.40
   1  -1  -2   95.29    3.00
  -1  -1   2   92.59    3.00
  -1   1   2   92.99    3.00
   1   1  -2   98.99    3.10
   0  -1   2   24.70    1.00
   0  -1  -2   26.80    1.00
   0   1  -2   25.60    1.00
   0   1   2   23.40    1.00
   1  -1   2 3049.09   93.39
  -1  -1  -2 3169.48   93.49
   1   1   2 3040.30   93.79
  -1   1  -2 3371.16   93.59
  -2  -1  -2   26.10    1.90
   2  -1   2   27.50    1.50
   2   1   2   25.40    1.60
  -2   1  -2   27.40    1.80
   3  -1   2    5.90    1.40
   3   1   2    6.00    1.70
  -4  -1  -2  118.69    5.40
  -4  -1  -2  124.69    6.10
  -4  -1  -2  115.49    6.10
  -4  -1  -2  113.89    5.70
  -4   1  -2  116.39    6.10
  -4   1  -2  120.49    5.40
  -4   1  -2  112.59    5.80
  -4   1  -2  109.59    5.90
  -5  -1  -2   64.29    4.80
  -5  -1  -2   56.29    4.70
  -5  -1  -2   56.99    3.90
  -5  -1  -2   60.19    4.70
  -5   1  -2   69.59    4.00
  -5   1  -2   66.59    4.60
  -5   1  -2   58.69    4.50
  -5   1  -2   60.19    4.80
  -6  -1  -2   11.40    2.80
  -6  -1  -2    9.30    1.60
  -6   1  -2    7.00    1.70
  -6   1  -2   10.70    2.30
  -6   1  -2    3.40    2.30
  -6  -2   2    0.50    1.80
  -6  -2   2   -1.60    1.70
  -6   2   2    1.80    1.50
  -6   2   2   -1.50    1.60
  -5  -2   2  189.08    7.60
  -5  -2   2  184.08    7.70
  -5  -2   2  185.78    7.70
  -5   2   2  188.78    7.60
  -5   2   2  186.78    7.70
  -5   2   2  192.18    7.70
  -4  -2   2   38.30    5.00
  -4  -2   2   40.60    4.30
  -4  -2   2   51.69    4.20
  -4   2   2   54.89    4.30
  -4   2   2   52.99    3.80
  -4   2   2   52.19    4.50
  -3  -2   2    2.70    1.70
  -3   2   2    1.10    1.70
   3   2  -2    2.80    1.00
   3   2  -2    1.50    1.20
   2   2  -2    0.80    0.40
   1  -2  -2   55.09    1.70
  -1  -2   2   53.89    1.90
   1   2  -2   52.19    1.90
  -1   2   2   50.89    1.70
   0  -2   2   24.30    1.00
   0  -2  -2   24.60    1.00
   0   2  -2   25.60    1.00
   0   2   2   22.80    1.00
   1  -2   2 9036.40  280.17
  -1  -2  -2 9819.32  280.87
   1   2   2 8958.10  280.47
  -1   2  -2 9999.00  280.57
  -2  -2  -2   44.80    2.30
   2  -2   2   43.00    1.90
  -2   2  -2   44.80    2.20
   2   2   2   41.50    2.00
   3  -2   2   57.19    3.40
   3   2   2   48.20    3.50
  -4  -2  -2   45.70    4.70
  -4  -2  -2   53.09    4.10
  -4  -2  -2   53.89    3.80
  -4  -2  -2   53.79    5.20
  -4   2  -2   50.69    3.70
  -4   2  -2   50.09    4.40
  -4   2  -2   45.00    4.30
  -4   2  -2   48.10    4.30
  -5  -2  -2   29.10    3.20
  -5  -2  -2   38.00    4.50
  -5  -2  -2   32.90    4.30
  -5  -2  -2   39.70    4.00
  -5   2  -2   30.70    4.00
  -5   2  -2   37.10    4.20
  -5   2  -2   40.60    3.90
  -5   2  -2   37.60    3.10
  -6  -2  -2   12.30    2.40
  -6  -2  -2   13.40    2.90
  -6   2  -2   14.10    2.20
  -6   2  -2   11.50    2.60
  -6   2  -2   10.80    2.30
  -6  -3   2   32.30    3.40
  -6  -3   2   26.00    3.20
  -6   3   2   32.10    2.90
  -6   3   2   30.50    3.10
  -5  -3   2  106.09    5.70
  -5  -3   2   97.79    5.60
  -5  -3   2   96.69    5.40
  -5   3   2  102.59    5.20
  -5   3   2   94.49    5.30
  -5   3   2   99.89    5.30
  -4  -3   2   15.80    3.10
  -4  -3   2   18.50    4.00
  -4  -3   2   16.20    3.90
  -4   3   2   18.90    3.30
  -4   3   2   16.10    3.80
  -4   3   2   16.00    3.50
  -3  -3   2 1568.74   46.40
  -3   3   2 1511.05   46.40
   3   3  -2 1525.45   46.30
   3   3  -2 1568.04   46.30
   2   3  -2 1641.64   48.90
   1  -3  -2   97.79    2.90
  -1  -3   2   97.99    3.20
   1   3  -2   99.79    3.20
  -1   3   2   86.89    2.90
   0  -3  -2   76.19    2.50
   0  -3   2   75.49    2.50
   0   3  -2   75.99    2.50
   0   3   2   72.99    2.50
  -1  -3  -2  911.51   26.80
   1  -3   2  874.81   26.70
   1   3   2  871.31   26.80
  -1   3  -2  917.71   26.70
   2  -3   2  255.97    8.20
  -2   3  -2  268.67    8.30
   2   3   2  258.07    8.40
   3  -3   2  371.76   12.00
   3   3   2  367.36   12.30
  -4  -3  -2   17.00    3.50
  -4  -3  -2   14.10    2.30
  -4  -3  -2   11.70    2.90
  -4  -3  -2    5.70    2.30
  -4   3  -2   21.40    3.70
  -4   3  -2   12.80    2.70
  -4   3  -2    9.10    2.50
  -4   3  -2   10.80    2.20
  -5  -3  -2   31.70    3.20
  -5  -3  -2   33.90    3.90
  -5  -3  -2   32.60    4.20
  -5   3  -2   29.00    3.60
  -5   3  -2   27.10    4.00
  -5   3  -2   23.30    3.00
  -6  -3  -2    1.10    1.40
  -6  -3  -2    4.30    1.80
  -6   3  -2   -0.60    1.20
  -6   3  -2    1.60    1.90
  -6   3  -2    1.00    1.50
  -6  -4   2   18.10    3.50
  -6  -4   2   23.00    3.40
  -6   4   2   22.80    2.60
  -6   4   2   22.70    2.80
  -5  -4   2    5.10    2.70
  -5  -4   2    9.90    2.50
  -5  -4   2   17.50    3.80
  -5   4   2   15.20    2.60
  -5   4   2   11.40    2.40
  -5   4   2   14.30    3.10
  -4  -4   2   20.10    4.40
  -4  -4   2   22.70    4.80
  -4  -4   2   22.60    4.30
  -4   4   2   19.20    2.80
  -4   4   2   30.10    3.80
  -4   4   2   28.50    3.30
  -3  -4   2   13.50    2.40
  -3   4   2   16.00    2.90
   3   4  -2   19.40    2.50
   3   4  -2   16.60    2.30
   2   4  -2   38.40    1.80
  -1  -4   2  670.43   19.70
  -1   4   2  594.24   19.50
   1   4  -2  702.83   19.70
   0  -4   2    4.80    0.60
   0  -4  -2    5.30    0.60
   0   4   2    5.40    0.60
   0   4  -2    5.70    0.60
   1  -4   2 1088.79   33.10
  -1   4  -2 1171.78   33.20
   1   4   2 1073.59   33.20
   2  -4   2   58.29    2.40
  -2   4  -2   59.59    2.60
   3  -4   2   13.30    2.50
   3   4   2   14.80    3.20
  -3   4  -2   17.00    3.50
  -4  -4  -2   -2.10    1.70
  -4  -4  -2    0.50    2.10
  -4  -4  -2    0.30    2.60
  -4   4  -2    1.20    2.00
  -4   4  -2    1.20    2.30
  -4   4  -2   -0.90    2.10
  -4   4  -2    4.70    2.40
  -5  -4  -2  102.19    5.00
  -5  -4  -2  105.99    5.40
  -5  -4  -2  108.49    5.80
  -5   4  -2  100.59    5.30
  -5   4  -2   96.39    4.80
  -5   4  -2  104.39    5.70
  -6  -4  -2    6.20    1.60
  -6  -4  -2    8.30    2.10
  -6   4  -2    6.60    1.90
  -6   4  -2    8.80    2.00
  -6   4  -2    6.50    1.70
  -6  -5   2   41.50    3.60
  -6  -5   2   32.00    4.10
  -6   5   2   34.50    3.00
  -6   5   2   34.10    3.00
  -5  -5   2  256.07    9.50
  -5  -5   2  238.88    9.40
  -5   5   2  252.07    9.20
  -5   5   2  239.58    9.30
  -5   5   2  236.98    9.20
  -4  -5   2   24.70    3.90
  -4  -5   2   24.30    4.70
  -4  -5   2   26.00    4.30
  -4   5   2   28.50    3.80
  -4   5   2   37.40    3.90
  -4   5   2   31.90    3.40
  -3  -5   2   49.80    3.00
   3   5  -2   40.20    3.30
   3   5  -2   47.50    3.20
  -3   5   2   43.20    3.40
   2   5  -2  299.07    9.50
  -1  -5   2 1031.30   32.50
  -1   5   2 1052.39   32.20
  -1   5   2 1147.59   32.20
   1   5  -2 1121.89   32.50
   0  -5   2  975.80   30.70
   0  -5  -2 1060.99   30.70
   0   5   2 1006.90   30.60
   0   5  -2 1070.89   30.70
   1  -5   2   34.20    1.40
   1   5   2   30.90    1.50
  -1   5  -2   32.00    1.50
   2  -5   2  321.17    9.80
   2   5   2  312.27   10.10
  -2   5  -2  307.67    9.90
  -3  -5  -2    1.60    2.20
  -3   5  -2    3.30    2.50
  -3   5  -2   -0.20    2.30
  -3   5  -2   -1.30    1.90
   3   5   2    0.80    2.10
  -4  -5  -2    7.60    2.80
  -4  -5  -2    5.80    2.40
  -4   5  -2    5.30    4.30
  -4   5  -2    0.10    1.60
  -4   5  -2    3.80    2.30
  -5  -5  -2  102.89    5.30
  -5  -5  -2  100.79    5.10
  -5  -5  -2  105.59    5.70
  -5   5  -2  107.69    5.60
  -5   5  -2  101.19    5.00
  -5   5  -2  108.39    5.30
  -6  -5  -2    3.30    1.50
  -6  -5  -2    1.20    2.10
  -6   5  -2    0.40    1.40
  -6   5  -2    0.60    1.60
  -6   5  -2   -0.60    1.10
  -6  -6   2   54.49    4.30
  -6   6   2   58.59    3.60
  -6   6   2   59.79    3.40
  -5  -6   2  315.37   11.40
  -5  -6   2  315.77   11.70
  -5   6   2  306.27   11.40
  -5   6   2  330.67   11.20
  -5   6   2  328.57   11.40
  -4  -6   2   55.59    5.70
  -4  -6   2   70.39    5.30
  -4  -6   2   70.19    4.60
  -4   6   2   63.49    4.20
  -4   6   2   66.59    4.50
  -4   6   2   69.59    4.60
  -3  -6   2   38.60    2.90
   3   6  -2   38.70    3.00
  -3   6   2   35.60    3.20
   3   6  -2   33.90    3.50
  -2  -6   2  405.76   13.30
   2   6  -2  440.96   13.30
  -1  -6   2   92.49    3.30
   1   6  -2   97.99    3.30
  -1   6   2   99.89    3.00
  -1   6   2   90.99    3.00
   0  -6   2    1.30    0.40
   0   6   2    1.70    0.50
   0   6  -2    0.80    0.40
   1  -6   2   22.50    1.20
   1   6   2   22.70    1.40
  -1   6  -2   23.00    1.30
   2  -6   2    3.40    0.80
  -2   6  -2    6.30    1.50
   2   6   2    6.20    1.60
  -3  -6  -2  235.38    9.20
  -3  -6  -2  247.68    9.20
   3   6   2  256.47    9.50
  -3   6  -2  240.18    9.30
  -3   6  -2  253.77    9.30
  -3   6  -2  246.08    8.90
  -4  -6  -2  134.69    6.00
  -4  -6  -2  124.69    6.70
  -4   6  -2  129.49    6.20
  -4   6  -2  131.69    6.30
  -4   6  -2  125.49    5.70
  -4   6  -2  137.59    6.40
  -5  -6  -2   26.70    3.80
  -5  -6  -2   20.60    4.30
  -5  -6  -2   31.00    3.20
  -5   6  -2   26.60    3.00
  -5   6  -2   29.70    3.80
  -5   6  -2   26.10    3.40
  -6  -6  -2   30.40    2.80
  -6   6  -2   29.00    2.40
  -6   6  -2   30.20    2.70
  -6   6  -2   28.30    2.70
  -6   7   2   28.80    2.90
  -6   7   2   28.40    2.60
  -5  -7   2   22.50    4.70
  -5  -7   2    9.80    3.00
  -5   7   2   22.80    3.50
  -5   7   2   18.80    2.90
  -5   7   2   18.70    3.20
  -4  -7   2   87.99    4.80
  -4  -7   2   71.49    6.30
  -4  -7   2   77.09    6.00
  -4   7   2   82.29    4.60
  -4   7   2   86.29    5.10
  -4   7   2   91.39    4.90
  -3  -7   2  216.28    7.60
   3   7  -2  217.78    8.00
  -3   7   2  210.38    7.80
  -2  -7   2   10.00    2.00
   2   7  -2   13.30    1.60
  -1  -7   2   62.79    2.60
  -1   7   2   67.99    2.30
   1   7  -2   69.59    2.70
  -1   7   2   73.89    2.30
   0  -7   2   63.99    2.40
   0   7   2   66.29    2.40
   1  -7   2   58.49    2.20
   1   7   2   56.29    2.40
  -1   7  -2   59.49    2.30
   2  -7   2  387.66   12.40
  -2   7  -2  398.16   12.50
   2   7   2  414.06   12.80
  -3  -7  -2   37.00    4.30
  -3  -7  -2   30.90    3.40
  -3   7  -2   28.50    4.40
  -3   7  -2   35.80    4.00
  -3   7  -2   27.00    4.20
  -3   7  -2   34.10    3.10
  -4  -7  -2   25.20    3.80
  -4  -7  -2   24.20    3.30
  -4   7  -2   24.80    3.80
  -4   7  -2   21.70    2.80
  -4   7  -2   15.20    3.60
  -5  -7  -2   42.80    3.60
  -5  -7  -2   43.20    4.70
  -5  -7  -2   45.50    3.80
  -5   7  -2   47.30    3.50
  -5   7  -2   50.29    4.00
  -5   7  -2   47.00    3.80
  -6  -7  -2   10.20    2.30
  -6   7  -2    1.80    1.50
  -6   7  -2    5.90    1.50
  -6   8   2    8.60    1.70
  -6   8   2   13.40    2.30
  -5  -8   2    2.60    3.20
  -5   8   2    2.30    1.70
  -5   8   2    2.20    2.20
  -4  -8   2  135.19    9.50
  -4  -8   2  141.59    6.30
  -4   8   2  135.39    6.50
  -4   8   2  132.59    6.10
  -4   8   2  141.79    6.10
  -3  -8   2   28.70    2.70
  -3   8   2   28.70    3.50
  -3   8   2   33.50    4.00
   3   8  -2   23.50    3.70
  -2  -8   2    1.70    1.20
  -2   8   2    3.50    1.30
   2   8  -2    1.80    0.90
  -1  -8   2   45.30    2.00
  -1   8   2   49.60    1.70
   1   8  -2   50.29    2.20
  -1   8   2   45.30    1.70
   0  -8   2 1726.83   52.99
   0   8  -2 1864.51   52.99
   0   8   2 1747.53   52.89
   1  -8   2   52.09    2.10
  -1   8  -2   53.19    2.30
   1   8   2   51.69    2.30
   2  -8   2    1.20    0.80
  -2  -8  -2    1.10    1.90
  -2   8  -2    2.20    1.10
   2   8   2    3.30    1.10
  -3  -8  -2  126.09    5.70
  -3  -8  -2  122.99    5.90
  -3   8  -2  136.59    5.70
  -3   8  -2  122.69    6.60
  -3   8  -2  143.09    6.30
  -4  -8  -2   21.60    5.10
  -4  -8  -2   27.50    3.50
  -4  -8  -2   29.60    3.80
  -4   8  -2   28.30    3.80
  -4   8  -2   24.50    3.60
  -4   8  -2   26.80    2.90
  -5  -8  -2   49.80    3.60
  -5  -8  -2   55.19    4.20
  -5  -8  -2   44.40    5.00
  -5   8  -2   48.20    3.50
  -5   8  -2   53.59    4.20
  -5   8  -2   50.39    3.90
  -6  -8  -2   70.89    3.50
  -6   8  -2   70.99    3.70
  -6   8  -2   64.69    3.50
  -6   9   2   -0.40    1.40
  -6   9   2    1.50    1.30
  -5   9   2  151.88    6.50
  -5   9   2  154.98    6.90
  -4  -9   2  123.99    5.80
  -4   9   2  117.99    6.60
  -4   9   2  152.18    7.30
  -3  -9   2   53.59    3.50
  -3   9   2   47.90    4.20
  -3   9   2   49.30    5.00
   3   9  -2   43.00    4.60
  -3   9   2   52.29    3.90
  -3   9   2   52.89    4.30
  -2  -9   2  117.89    4.60
  -2   9   2  112.79    4.60
   2   9  -2  113.29    4.60
  -1  -9   2    3.90    0.90
  -1  -9   2    2.90    1.20
  -1   9   2    4.30    0.70
   1   9  -2    5.60    1.30
  -1   9   2    3.50    0.70
   0  -9   2    0.60    0.40
   0   9  -2    0.40    0.50
   0   9   2    1.20    0.50
   0   9   2    0.10    0.50
   1  -9   2  416.06   12.60
  -1   9  -2  407.66   12.60
   1   9   2  398.36   12.80
   2  -9   2   52.19    2.50
  -2  -9  -2   50.29    3.60
   2   9   2   50.59    3.10
  -2   9  -2   53.69    3.10
  -3  -9  -2   30.30    3.70
  -3  -9  -2   28.80    3.90
  -3   9  -2   34.10    4.80
  -3   9  -2   34.10    3.90
  -3   9  -2   29.30    3.30
  -4  -9  -2    0.50    2.10
  -4  -9  -2   -1.80    2.00
  -4   9  -2    0.80    2.10
  -4   9  -2    1.70    2.10
  -4   9  -2   -2.40    1.60
  -5  -9  -2   18.70    3.00
   5  -9   2   20.60    4.50
  -5  -9  -2   20.00    3.40
  -5   9  -2   17.80    3.40
  -5   9  -2   12.90    3.10
  -5   9  -2   16.90    2.70
  -6  -9  -2    2.50    2.00
  -6   9  -2    0.60    1.20
  -6   9  -2    0.80    1.30
  -6  10   2   17.40    2.30
  -6  10   2   20.90    2.50
  -5  10   2    0.40    2.00
  -5  10   2   -0.30    1.70
  -4 -10   2   40.00    3.90
  -4 -10   2   34.20    5.90
  -4  10   2   34.60    4.30
  -4  10   2   35.90    3.60
  -4  10   2   33.40    3.70
  -3 -10   2   10.30    2.30
  -3  10   2    6.10    2.40
  -3  10   2    4.40    2.10
  -3  10   2    3.70    2.80
  -3  10   2   11.80    2.70
  -2 -10   2  158.98    5.60
  -2  10   2  143.19    5.60
  -1 -10   2 1392.76   41.30
  -1 -10   2 1397.66   41.30
  -1  10   2 1350.36   40.80
  -1  10   2 1401.36   40.80
  -1  10   2 1306.57   41.20
   1  10  -2 1382.46   41.30
   0 -10   2 1092.99   33.80
   0  10   2 1131.79   33.80
   0  10   2 1089.69   33.80
   0  10  -2 1185.48   33.90
   1 -10   2   10.70    1.30
  -1 -10  -2   12.70    2.30
   1  10   2   12.10    1.50
   1  10   2    8.10    1.60
  -1  10  -2   10.60    1.60
   2 -10   2   51.79    2.70
  -2 -10  -2   53.59    3.60
   2  10   2   51.89    3.30
  -2  10  -2   52.89    3.30
  -3 -10  -2   54.99    4.30
  -3 -10  -2   55.59    4.20
  -3  10  -2   61.39    5.30
  -3  10  -2   63.49    4.40
  -3  10  -2   59.59    3.80
  -4 -10  -2    6.80    2.30
  -4 -10  -2    8.50    2.20
  -4  10  -2   12.10    2.60
  -4  10  -2    8.90    2.50
  -4  10  -2    8.30    1.90
  -5 -10  -2    2.00    1.70
   5 -10   2    6.90    2.70
  -5 -10  -2    4.00    2.60
  -5  10  -2    2.00    1.90
  -5  10  -2    5.10    1.50
  -5  10  -2    3.80    1.90
  -6 -10  -2   11.70    2.50
  -6  10  -2   10.10    2.30
  -6  10  -2   14.40    2.00
  -6  11   2   12.80    2.30
  -6  11   2   14.00    2.20
  -5  11   2   78.29    4.40
  -5  11   2   85.49    5.00
  -4 -11   2   94.79    6.50
  -4 -11   2   99.79    5.20
  -4  11   2   98.79    5.50
  -4  11   2   97.39    5.20
  -3 -11   2    2.50    1.50
  -3 -11   2    4.30    3.20
  -3  11   2    3.90    3.20
  -3  11   2   -4.50    2.30
  -3  11   2    5.00    2.20
  -2 -11   2   61.89    3.10
  -2  11   2   55.79    3.20
  -1 -11   2  142.29    5.20
  -1  11   2  143.79    4.70
   1  11  -2  131.69    5.10
  -1  11   2  132.89    5.10
  -1  11   2  154.28    4.80
   0 -11   2    4.90    1.30
   0  11   2    8.50    1.40
   0  11  -2    6.60    1.60
   0  11   2   10.30    1.40
   1 -11   2  111.99    4.10
  -1 -11  -2  111.49    4.60
   1  11   2  110.89    4.50
  -1  11  -2  108.39    4.30
   1  11   2  118.39    4.40
  -2 -11  -2   44.50    3.30
   2 -11   2   42.40    2.70
   2  11   2   40.70    3.50
  -3 -11  -2  129.59    6.00
  -3 -11  -2  127.59    5.90
  -3  11  -2  125.59    5.40
  -3  11  -2  127.69    6.10
  -3  11  -2  128.49    6.70
  -4 -11  -2    0.50    2.00
  -4 -11  -2    3.20    2.00
  -4  11  -2    1.60    1.70
  -4  11  -2    3.30    2.30
  -4  11  -2    2.00    2.20
   5 -11   2   48.80    4.60
  -5 -11  -2   48.30    3.60
  -5 -11  -2   37.60    4.50
  -5  11  -2   57.79    3.70
  -5  11  -2   65.19    6.60
  -5  11  -2   54.39    3.30
  -6 -11  -2    3.10    1.60
  -6  11  -2    0.10    1.20
  -6  11  -2   -0.50    1.20
   6 -12  -2    9.70    2.30
  -6  12   2    8.10    1.50
  -6  12   2   11.60    2.10
  -5  12   2    0.40    1.60
  -5  12   2   -1.10    1.90
  -4 -12   2   74.99    4.70
  -4 -12   2   70.49    5.80
  -4  12   2   75.09    4.60
  -4  12   2   74.29    5.20
  -3 -12   2   20.90    4.70
  -3 -12   2   10.60    2.40
  -3  12   2   16.50    2.70
  -3  12   2   13.00    3.30
  -3  12   2   18.20    3.50
  -2 -12   2  353.36   11.80
  -2  12   2  372.06   11.90
  -1 -12   2   80.59    3.50
  -1  12   2   75.59    3.00
  -1  12   2   72.49    3.40
   0 -12   2    4.30    1.40
   0 -12   2    0.90    0.70
   0  12   2    2.80    0.90
   0  12   2    3.40    1.40
   0  12  -2    6.00    1.20
   1 -12   2  180.28    6.30
  -1  12  -2  178.98    6.50
   1  12   2  185.18    6.50
  -2 -12  -2   21.00    3.00
   2 -12   2   23.40    2.80
  -2 -12  -2   26.90    3.80
  -3 -12  -2   17.80    3.50
  -3 -12  -2   24.90    3.60
  -3  12  -2   17.80    2.80
  -3  12  -2   19.90    3.40
  -3  12  -2   18.90    4.50
  -4 -12  -2   -1.60    2.00
  -4 -12  -2   -0.50    2.10
   4 -12   2    2.10    2.40
  -4  12  -2    1.00    2.10
  -4  12  -2    3.60    2.50
  -4  12  -2    0.60    1.50
  -5 -12  -2    4.20    1.80
  -5 -12  -2    0.70    1.60
   5 -12   2    6.30    2.50
  -5  12  -2    1.20    2.00
  -5  12  -2    1.20    1.80
  -6 -12  -2   14.60    3.30
  -6  12  -2   10.50    2.60
  -6  12  -2   14.50    2.20
   6 -13  -2   -0.20    1.50
  -6  13   2    2.10    1.30
  -6  13   2   -0.70    1.20
  -5  13   2    9.20    2.20
  -5  13   2    5.30    1.70
  -4 -13   2   50.89    5.50
  -4 -13   2   61.69    4.40
  -4  13   2   53.29    4.10
  -4  13   2   51.59    4.90
  -3 -13   2   22.50    4.40
  -3 -13   2   22.00    2.80
  -3  13   2   16.70    4.00
  -3  13   2   22.80    3.70
  -3  13   2   20.70    5.30
  -2 -13   2   33.50    2.50
  -2  13   2   32.60    2.70
  -1 -13   2    8.70    1.90
  -1  13   2    5.30    1.20
  -1  13   2    8.30    1.90
  -1  13   2    7.30    1.60
   0 -13   2  127.79    5.20
   0 -13   2  137.89    5.00
   0  13   2  137.29    5.00
   0  13  -2  125.89    5.30
   0  13   2  135.89    5.10
   1 -13   2  576.34   17.50
  -1  13  -2  531.55   17.60
   1  13   2  569.04   17.70
  -2 -13  -2  142.59    6.50
  -2 -13  -2  151.48    6.50
   2 -13   2  145.89    6.70
  -2  13  -2  146.19    6.70
  -2  13  -2  150.28    6.30
  -3 -13  -2   74.19    4.70
   3 -13   2   73.59    4.90
  -3 -13  -2   74.59    4.70
  -3  13  -2   81.39    4.30
  -3  13  -2   84.69    5.00
  -3  13  -2   84.09    5.90
  -4 -13  -2    4.90    2.00
  -4 -13  -2    6.10    2.10
   4 -13   2    3.40    2.30
  -4  13  -2    1.90    1.70
  -4  13  -2   10.20    2.60
  -4  13  -2    3.50    2.20
  -5 -13  -2    0.30    1.70
  -5 -13  -2    0.50    1.60
  -5  13  -2   -1.30    1.80
  -5  13  -2   -1.00    1.50
  -6  13  -2   -0.70    1.60
  -6  13  -2    2.20    1.20
   6 -14  -2   15.80    2.30
  -6  14   2   14.60    1.80
  -6  14   2    7.80    1.90
  -5  14   2    0.50    2.00
  -4 -14   2   51.69    6.90
  -4 -14   2   56.69    5.20
  -4  14   2   56.89    4.80
  -4  14   2   57.49    4.20
  -3 -14   2   41.50    4.40
  -3 -14   2   41.20    3.20
  -3  14   2   39.60    5.70
  -3  14   2   32.40    4.40
  -3  14   2   40.90    4.10
  -2 -14   2    1.90    2.50
  -2 -14   2    1.20    1.20
  -2  14   2   -1.30    1.60
  -1 -14   2   86.99    3.80
  -1  14   2   79.39    3.60
  -1  14   2   78.69    3.60
   0 -14   2  416.56   14.30
   0 -14   2  463.45   14.40
   0  14   2  467.55   14.40
   0  14   2  449.86   14.50
   1 -14   2   77.19    3.70
  -1  14  -2   70.09    4.70
   1  14   2   77.29    4.20
  -2 -14  -2   20.60    3.60
  -2 -14  -2   17.90    3.60
   2 -14   2   16.30    3.70
  -2  14  -2   18.70    3.90
   3 -14   2    4.50    2.30
  -3 -14  -2    2.60    2.30
  -3  14  -2    2.40    3.20
  -4 -14  -2   48.20    4.10
  -4 -14  -2   39.20    3.80
   4 -14   2   48.50    4.10
  -4  14  -2   45.30    4.70
  -4  14  -2   49.90    3.80
  -5 -14  -2   86.39    4.50
  -5 -14  -2   91.49    4.40
  -5  14  -2   91.49    4.70
  -5  14  -2   86.89    4.40
   6 -14   2  114.29    4.20
   6 -15  -2   -0.20    1.30
  -6  15   2   -0.20    1.30
  -6  15   2   -3.00    1.50
  -5  15   2   40.60    3.20
  -5  15   2   50.79    4.00
  -4 -15   2  649.64   21.00
  -4 -15   2  611.34   20.70
  -4  15   2  652.63   20.90
  -4  15   2  660.93   21.00
  -3 -15   2  103.09    4.70
  -3 -15   2  103.99    5.70
  -3  15   2   87.69    6.90
  -3  15   2   85.49    5.50
  -3  15   2   88.69    5.40
  -2 -15   2    5.80    1.50
   2 -15  -2    4.50    1.80
  -2 -15   2    5.10    2.40
  -2  15   2    4.90    1.60
  -1 -15   2   99.69    4.30
   0 -15   2  326.17   10.60
   0  15   2  305.57   10.70
  -1 -15  -2   17.70    3.30
   1 -15   2   25.90    3.10
   1 -15   2   20.30    3.70
  -1 -15  -2   22.50    3.80
  -2 -15  -2  206.48    8.10
   2 -15   2  200.58    8.10
  -2 -15  -2  216.48    8.10
  -2  15  -2  211.18    8.40
  -3 -15  -2    0.40    2.20
  -3 -15  -2    3.20    2.10
   3 -15   2    0.60    2.20
  -3  15  -2    0.50    2.20
  -3  15  -2   -3.10    3.50
  -4 -15  -2    2.30    1.80
  -4 -15  -2    5.40    2.20
   4 -15   2    4.00    2.20
  -4  15  -2    5.60    2.10
  -4  15  -2    3.70    2.60
  -5 -15  -2    8.50    1.90
  -5 -15  -2    6.30    1.70
  -5  15  -2    7.00    1.60
  -5  15  -2   14.40    3.40
   6 -16  -2   -0.40    1.20
  -6  16   2    0.70    1.30
   5 -16  -2    0.10    1.30
  -5  16   2    0.70    1.90
  -5  16   2   -0.80    1.40
  -4 -16   2    1.40    2.60
  -4 -16   2    4.50    2.00
  -4  16   2   -0.10    2.10
  -4  16   2    3.70    2.80
  -3 -16   2   38.70    4.30
  -3 -16   2   44.60    3.50
  -3  16   2   38.80    4.60
  -3  16   2   39.30    4.50
   2 -16  -2  626.54   19.80
  -2 -16   2  596.74   19.90
  -2 -16   2  605.64   19.60
  -2  16   2  641.14   19.60
   1 -16  -2   47.50    3.70
  -1 -16   2   48.50    4.40
  -1 -16   2   48.80    3.10
  -1  16   2   46.30    2.90
   0 -16  -2  146.59    6.00
   0 -16   2  128.29    6.40
   0 -16   2  149.79    6.40
   0  16   2  153.48    6.30
   1 -16   2   33.70    3.60
  -1 -16  -2   31.40    3.50
  -1 -16  -2   28.60    3.40
   1 -16   2   26.60    3.90
   2 -16   2   12.90    2.30
  -2 -16  -2   10.90    2.20
  -2 -16  -2   10.10    2.10
  -2  16  -2   13.50    2.70
   3 -16   2    1.00    2.00
  -3 -16  -2    0.70    2.00
  -3 -16  -2    2.90    2.30
  -3  16  -2   -1.20    2.20
   4 -16   2  165.48    7.10
  -4 -16  -2  164.78    7.20
  -4 -16  -2  177.48    7.10
  -4  16  -2  178.48    7.80
  -4  16  -2  173.58    7.20
  -5 -16  -2   24.30    2.80
  -5 -16  -2   21.80    2.80
  -5  16  -2   25.10    3.40
  -5  16  -2   26.10    2.50
   5 -17  -2    5.40    1.50
  -5  17   2    5.80    2.10
  -5  17   2    6.60    1.70
  -4 -17   2   58.99    4.30
   4 -17  -2   64.19    3.80
  -4 -17   2   62.59    5.00
  -4  17   2   56.79    4.10
  -4  17   2   54.89    5.30
   3 -17  -2  116.09    5.40
  -3 -17   2  120.39    5.50
  -3 -17   2  125.19    6.10
  -3  17   2  122.19    6.30
  -3  17   2  116.29    6.20
  -2 -17   2   17.70    2.60
  -2 -17   2   19.90    3.40
   2 -17  -2   18.40    3.00
  -2  17   2   19.90    2.90
   1 -17  -2   13.20    3.20
  -1 -17   2   11.90    2.60
   1 -17  -2   12.50    2.10
  -1 -17   2   13.50    2.30
  -1  17   2   10.60    2.00
   0 -17   2    3.50    2.30
   0 -17   2   -0.20    2.90
   0 -17  -2    2.80    2.50
   0 -17   2    1.20    1.50
   0 -17  -2    3.90    2.00
   0  17   2    2.10    2.60
   1 -17   2   80.69    4.80
   1 -17   2   87.39    4.80
  -1 -17  -2   84.29    4.80
  -1 -17  -2   84.59    4.70
  -1  17  -2   68.29    6.50
  -2 -17  -2   30.90    3.70
  -2 -17  -2   34.30    3.70
   2 -17   2   38.30    3.80
  -2  17  -2   20.00    4.30
  -3 -17  -2   33.90    3.80
  -3 -17  -2   35.50    4.00
   3 -17   2   39.70    3.90
  -3  17  -2   34.90    3.80
  -4 -17  -2  150.58    6.50
   4 -17   2  148.99    6.40
  -4 -17  -2  146.29    6.40
  -4  17  -2  147.49    7.40
  -4  17  -2  147.99    6.50
  -5 -17  -2    0.70    1.40
  -5 -17  -2   -1.10    1.50
  -5  17  -2    2.80    1.30
   5 -18  -2    9.60    2.20
  -5  18   2    7.20    1.70
  -5  18   2    4.20    2.80
  -4 -18   2   25.80    4.30
   4 -18  -2   25.20    3.00
  -4 -18   2   19.00    3.70
  -4  18   2   28.00    3.50
   3 -18  -2    0.80    1.70
  -3 -18   2    2.40    2.20
  -3 -18   2    1.70    1.70
  -3  18   2    4.00    2.80
  -3  18   2    0.00    2.60
  -2 -18   2    2.50    1.50
  -2 -18   2    2.30    2.10
   2 -18  -2    0.60    1.80
   2 -18  -2    3.20    3.20
  -2  18   2   -0.10    1.50
   1 -18  -2   59.49    5.20
  -1 -18   2   68.79    3.80
   1 -18  -2   71.79    4.20
  -1 -18   2   68.89    4.40
  -1 -18   2   75.19    6.10
  -1  18   2   65.59    3.60
   0 -18  -2   32.90    4.20
   0 -18   2   44.80    3.30
   0 -18  -2   37.70    3.50
   0 -18   2   40.40    3.70
   0 -18   2   34.70    4.40
  -1 -18  -2   21.90    3.30
  -1 -18  -2   27.40    3.70
   1 -18   2   20.60    3.40
   1 -18   2   22.10    3.60
  -1  18  -2   26.10    6.60
  -2 -18  -2    3.90    2.00
  -2 -18  -2    4.90    2.20
  -2  18  -2    7.30    2.70
  -3 -18  -2    8.10    2.40
   3 -18   2    8.60    2.20
  -3 -18  -2   13.40    3.30
  -3  18  -2    9.70    2.60
   4 -18   2   -0.90    2.70
  -4 -18  -2   -1.90    1.60
  -4  18  -2    0.50    1.80
  -5 -18  -2   48.10    3.10
   5 -18   2   50.79    2.70
  -5  18  -2   44.80    2.80
   5 -19  -2    1.20    1.20
  -5  19   2    1.90    1.60
  -4 -19   2   31.70    4.00
   4 -19  -2   38.30    3.10
  -4  19   2   40.90    3.80
  -3 -19   2  126.69    7.00
   3 -19  -2  144.19    6.00
  -3 -19   2  143.89    6.50
  -3  19   2  139.69    7.10
   2 -19  -2   99.79    6.80
  -2 -19   2  110.69    5.60
  -2 -19   2  120.59    5.30
   2 -19  -2  109.19    5.40
  -2  19   2  123.59    5.40
   1 -19  -2  212.78    7.80
   1 -19  -2  209.98    8.30
  -1 -19   2  195.08    8.90
  -1 -19   2  198.38    8.00
  -1 -19   2  203.48    7.80
  -1  19   2  212.38    7.70
   0 -19   2   47.30    3.80
   0 -19  -2   51.49    3.80
   0 -19   2   52.19    4.60
   0 -19  -2   49.40    4.30
  -1 -19  -2  103.69    4.90
  -1 -19  -2   93.19    5.20
   1 -19   2   88.09    4.90
   1 -19   2   89.69    5.00
  -2 -19  -2   31.80    3.60
   2 -19   2   31.90    3.70
   2 -19   2   27.50    3.30
  -2 -19  -2   28.00    3.40
  -2  19  -2   29.00    4.50
  -3 -19  -2   80.49    4.90
  -3 -19  -2   78.89    4.90
   3 -19   2   81.19    4.70
  -3  19  -2   79.79    5.00
  -4 -19  -2   13.60    2.30
  -4 -19  -2   11.90    2.80
   4 -19   2   17.50    3.50
  -4  19  -2   19.90    2.90
  -5 -19  -2    2.90    1.40
  -5 -19  -2    3.60    1.80
   5 -19   2    3.20    1.10
  -5  19  -2   -0.50    1.10
   5 -20  -2    4.90    1.10
  -5  20   2    5.20    2.80
  -4 -20   2   -1.70    2.00
  -4  20   2   -0.50    2.00
  -3 -20   2   -0.90    2.00
   3 -20  -2   -1.00    1.60
  -3 -20   2   -0.70    1.80
   2 -20  -2  163.88    7.90
  -2 -20   2  170.08    7.00
   2 -20  -2  175.78    6.90
  -2 -20   2  167.48    7.20
  -2  20   2  185.38    7.10
  -1 -20   2    4.50    3.00
   1 -20  -2   -0.80    2.50
  -1 -20   2    1.80    1.50
  -1  20   2    1.60    1.40
   0 -20  -2   43.00    4.00
   0 -20   2   44.50    3.70
   0 -20   2   41.40    4.30
   0 -20  -2   39.10    3.40
   0  20   2   47.10    3.00
   1 -20   2   10.40    2.20
  -1 -20  -2    8.10    2.30
  -1 -20  -2    7.90    2.10
   2 -20   2   86.69    4.90
  -2 -20  -2   81.59    4.90
   2 -20   2   84.29    4.60
  -2 -20  -2   86.09    4.80
  -2  20  -2   80.49    5.70
   3 -20   2   19.50    2.90
  -3 -20  -2   18.90    3.60
  -3 -20  -2   18.00    3.30
   3 -20   2   17.90    3.30
  -3  20  -2   20.80    3.70
   4 -20   2   64.39    3.60
  -4 -20  -2   66.29    3.90
   4 -20   2   66.59    4.40
  -4 -20  -2   70.29    4.00
  -4  20  -2   70.49    4.00
   5 -20   2    2.00    1.00
  -5 -20  -2    1.20    1.30
  -5  20  -2    0.60    1.20
   5 -21  -2   70.99    3.20
   4 -21  -2   29.80    2.70
  -4 -21   2   30.30    3.60
  -4  21   2   28.40    4.10
  -3 -21   2   98.29    5.10
   3 -21  -2  109.19    5.00
  -3 -21   2   99.19    5.40
  -2 -21   2    2.60    1.90
   2 -21  -2   -0.40    1.70
  -2 -21   2    1.30    1.70
   2 -21  -2    5.40    2.90
  -2  21   2    0.10    1.70
   1 -21  -2   18.40    3.00
  -1 -21   2   16.90    3.40
  -1 -21   2   17.90    5.00
  -1 -21   2   18.90    3.00
   1 -21  -2   20.90    4.30
  -1  21   2   16.30    2.80
   0 -21   2   33.30    6.00
   0 -21   2   35.80    3.60
   0 -21  -2   25.10    3.70
   0 -21  -2   33.70    3.30
   0  21   2   37.80    2.80
   1 -21   2  314.07   11.00
   1 -21   2  309.57   11.00
  -1 -21  -2  314.17   11.20
  -1  21  -2  310.77   10.80
   2 -21   2   44.90    3.70
   2 -21   2   45.90    3.90
  -2 -21  -2   43.00    3.90
  -2 -21  -2   48.00    3.90
  -2  21  -2   51.19    5.00
  -3 -21  -2   44.30    3.80
   3 -21   2   60.39    4.20
  -3 -21  -2   51.59    4.00
   3 -21   2   51.59    3.60
  -3  21  -2   49.99    4.30
  -4 -21  -2   41.30    3.10
   4 -21   2   47.40    2.90
   4 -21   2   39.70    4.00
  -4 -21  -2   41.40    3.50
  -4  21  -2   36.90    3.10
  -5 -21  -2    5.20    1.30
   5 -21   2    6.20    1.40
  -5  21  -2    4.10    1.40
   5 -22  -2   -0.70    1.00
   4 -22  -2    0.70    1.20
  -4 -22   2   -1.20    1.80
  -3 -22   2   15.10    3.20
   3 -22  -2    5.80    1.60
  -3 -22   2    7.40    2.00
  -2 -22   2   -2.50    1.90
   2 -22  -2    1.10    2.80
   2 -22  -2    2.20    1.70
  -2 -22   2    1.30    1.70
  -2  22   2    1.60    1.70
   1 -22  -2   38.70    4.50
   1 -22  -2   37.80    3.40
  -1 -22   2   35.30    4.40
  -1 -22   2   38.10    3.60
  -1  22   2   37.50    3.30
   0 -22   2  683.63   21.40
   0 -22  -2  644.64   21.10
   0 -22  -2  668.23   21.30
   0 -22   2  648.44   21.20
   0  22   2  667.73   21.20
   1 -22   2  113.29    5.20
  -1 -22  -2  100.19    5.30
   1 -22   2   97.99    5.10
  -1 -22  -2   99.49    5.10
  -1  22  -2   96.19    5.10
   2 -22   2  148.49    6.60
   2 -22   2  153.18    6.30
  -2 -22  -2  153.88    6.50
  -2 -22  -2  148.39    6.50
  -2  22  -2  145.69    7.30
   3 -22   2    3.80    1.60
  -3 -22  -2    5.00    2.00
  -3 -22  -2    2.60    1.70
   3 -22   2    4.80    2.10
   3  22   2    1.50    1.80
   4 -22   2    1.00    2.20
  -4 -22  -2    5.60    1.70
   4 -22   2    2.90    1.30
  -4 -22  -2    1.90    1.30
  -4  22  -2    2.30    1.70
   4 -23  -2   70.79    3.50
  -4 -23   2   76.99    4.10
   3 -23  -2   14.00    2.60
  -3 -23   2   14.10    3.20
   2 -23  -2   75.09    4.20
  -2 -23   2   72.39    4.40
   2 -23  -2   66.89    5.70
  -2  23   2   68.59    4.30
   1 -23  -2    4.20    1.80
   1 -23  -2    0.60    2.30
  -1 -23   2    5.70    2.80
  -1 -23   2    5.70    1.80
   0 -23   2   45.20    3.80
   0 -23  -2   45.30    3.70
   0 -23  -2   47.70    4.00
   0 -23   2   47.10    4.00
   0  23   2   44.50    3.40
   1 -23   2   44.50    3.70
   1 -23   2   47.50    3.80
  -1 -23  -2   49.70    3.80
  -1 -23  -2   46.40    3.60
  -1  23  -2   33.70    3.80
   1  23   2   37.90    3.10
  -2 -23  -2    1.90    1.90
   2 -23   2    3.10    1.70
  -2 -23  -2    5.40    1.80
   2 -23   2    2.10    2.00
   2  23   2    1.60    1.50
   3 -23   2   26.60    2.80
  -3 -23  -2   29.70    3.10
  -3 -23  -2   26.60    3.20
   3 -23   2   29.00    3.30
  -3  23  -2   30.00    3.90
   3  23   2   26.20    3.30
   4 -23   2   22.70    2.10
  -4 -23  -2   20.80    2.40
  -4 -23  -2   20.30    2.90
  -4  23  -2   23.40    2.70
  -4 -24   2   75.19    3.90
   4 -24  -2   74.59    3.50
  -3 -24   2  113.69    5.30
   3 -24  -2  115.89    5.00
  -2 -24   2   25.00    3.30
   2 -24  -2   35.00    4.60
   2 -24  -2   31.70    3.10
  -2  24   2   25.20    3.40
  -1 -24   2   16.30    2.90
  -1 -24   2   17.00    3.10
   1 -24  -2   16.30    2.90
   1 -24  -2   19.00    3.90
  -1  24   2   13.90    2.70
   0 -24  -2  157.28    6.50
   0 -24  -2  156.48    6.80
   0 -24   2  157.58    6.80
   0 -24   2  160.78    6.70
   0  24   2  152.88    6.40
  -1 -24  -2  122.89    5.70
  -1 -24  -2  122.69    5.80
   1 -24   2  121.89    5.70
   1 -24   2  126.59    5.60
  -1  24  -2  125.39    5.80
   1  24   2  115.09    5.30
   2 -24   2    9.20    2.00
  -2 -24  -2    4.00    1.90
  -2 -24  -2    5.80    1.80
   2 -24   2    7.50    2.00
   2  24   2    5.30    1.60
   3 -24   2    1.00    1.70
   3 -24   2    0.70    1.40
  -3 -24  -2    0.70    1.40
  -3 -24  -2    0.80    1.60
   3  24   2   -0.20    1.80
  -3  24  -2    0.40    2.70
  -4 -24  -2    5.60    1.80
   4 -24   2    2.80    1.10
  -4 -24  -2    1.70    1.20
  -4  24  -2   12.90    3.10
   4 -25  -2    9.40    1.80
  -4 -25   2   11.10    2.50
   3 -25  -2   19.90    2.40
  -3 -25   2   24.10    2.80
   2 -25  -2   27.70    6.80
   2 -25  -2   37.00    3.20
  -2 -25   2   43.70    3.60
  -2  25   2   39.30    3.70
   1 -25  -2   15.20    2.70
   1 -25  -2   17.70    3.70
  -1 -25   2   19.30    4.20
  -1 -25   2   15.40    2.90
  -1  25   2   12.30    2.80
   0 -25   2   18.00    3.00
   0 -25   2   18.30    3.80
   0 -25  -2   12.90    2.20
   0 -25  -2    9.40    2.20
   0  25   2   16.90    2.60
  -1 -25  -2    3.70    1.70
   1 -25   2    2.80    2.00
   1 -25   2    2.00    1.80
  -1 -25  -2   -2.00    1.90
   1  25   2    1.90    1.40
  -1  25  -2    1.60    2.20
  -2 -25  -2   32.90    3.20
   2  25   2   27.80    2.90
  -3 -25  -2    2.50    1.30
   3 -25   2    1.40    1.70
  -3 -25  -2    4.00    1.60
   3 -25   2    4.80    1.40
   3  25   2    6.00    2.10
   4 -25   2    6.60    1.60
  -4 -25  -2   10.40    2.20
   4 -26  -2   16.20    2.10
  -4 -26   2   14.50    2.70
  -3 -26   2    0.60    1.50
   3 -26  -2    0.10    1.20
   2 -26  -2   26.50    3.10
   2 -26  -2   25.50    4.80
  -2 -26   2   25.40    3.00
  -2  26   2   28.20    3.80
   1 -26  -2  142.79    5.80
  -1 -26   2  133.19    5.90
   1 -26  -2  145.09    6.30
  -1 -26   2  111.39    8.90
  -1  26   2  138.29    5.90
   0 -26   2   58.09    3.90
   0 -26   2   57.49    4.40
   0 -26  -2   57.39    3.60
   0 -26  -2   54.09    4.20
   0  26  -2   58.59    3.70
   0  26   2   59.79    3.80
  -1 -26  -2    1.40    1.80
   1 -26   2    5.10    1.70
  -1 -26  -2    0.50    1.70
   1 -26   2    7.20    2.30
  -1  26  -2    6.60    2.40
   1  26   2    1.50    1.50
  -2 -26  -2    0.30    1.60
   2 -26   2    1.70    1.50
   2 -26   2    0.20    1.60
  -2 -26  -2   -0.20    1.40
   2  26   2    3.30    1.50
  -3 -26  -2    2.60    1.20
   3 -26   2    5.00    1.30
  -3 -26  -2    5.10    1.60
   3 -26   2    2.90    1.60
   3  26   2   -0.60    2.30
   4 -26   2    1.90    1.00
   4 -27  -2   15.20    1.60
  -3 -27   2   -2.40    1.30
   3 -27  -2    0.30    1.00
  -2 -27   2   23.20    2.70
   2 -27  -2   16.70    2.40
  -2  27   2   26.10    3.80
   1 -27  -2    2.90    2.00
  -1  27   2    0.80    1.50
   0 -27  -2   36.50    3.20
   0 -27   2   32.80    3.50
   0 -27   2   29.40    3.20
   0  27   2   32.20    2.90
   0  27  -2   34.80    3.20
   1 -27   2  159.98    6.40
  -1 -27  -2  151.88    6.40
  -1 -27  -2  163.58    6.40
   1 -27   2  156.98    6.30
  -1  27  -2  162.18    7.00
   1  27   2  160.88    6.40
   2 -27   2    2.00    1.50
  -2 -27  -2   -0.10    1.40
  -2 -27  -2   -0.80    1.50
   2 -27   2   -0.80    1.40
   2  27   2   -0.60    1.50
  -3 -27  -2  133.29    5.30
   3 -27   2  138.99    5.10
   3 -27   2  134.59    5.60
   3 -28  -2   33.30    2.20
  -3 -28   2   29.50    2.60
   3  28  -2   35.10    2.90
  -2 -28   2    0.80    1.20
   2 -28  -2    0.80    1.20
  -2  28   2   -1.50    2.70
   1 -28  -2   66.09    4.20
  -1 -28   2   64.49    3.70
   1 -28  -2   69.79    3.60
   1  28  -2   65.49    3.70
  -1  28   2   65.49    3.80
   0 -28   2   -0.20    2.00
   0 -28  -2    0.50    1.70
   0 -28   2    0.30    1.30
   0 -28  -2    0.90    1.30
   0  28   2    1.90    1.50
   0  28  -2    2.10    1.70
  -1 -28  -2  135.99    5.40
  -1 -28  -2  133.49    5.60
   1 -28   2  130.09    5.60
   1 -28   2  128.79    5.60
   1  28   2  129.59    5.60
   2 -28   2   53.89    3.40
   2 -28   2   52.79    3.20
  -2 -28  -2   48.70    3.40
  -2 -28  -2   51.89    3.20
   2  28   2   51.99    3.50
   3 -28   2    1.60    1.20
  -3 -28  -2   -0.60    1.00
  -3 -28  -2    2.20    1.90
   3 -29  -2   15.90    2.00
  -3 -29   2   11.50    2.00
  -2 -29   2   48.70    2.90
   2 -29  -2   47.50    2.90
   2  29  -2   50.09    3.10
   1 -29  -2    0.10    1.20
  -1 -29   2   -0.90    1.20
   1 -29  -2   -0.60    1.90
   1  29  -2   -0.40    1.60
  -1  29   2   -3.50    1.60
   0 -29   2    9.20    2.20
   0 -29   2    8.80    2.20
   0 -29  -2    6.50    1.60
   0 -29  -2    7.30    1.60
   0  29   2   10.60    2.60
   0  29  -2    7.20    2.00
   1 -29   2    0.10    1.80
  -1 -29  -2    6.30    1.50
   1 -29   2    2.50    1.40
  -1 -29  -2    3.10    1.30
   1  29   2    2.20    1.40
   2 -29   2    5.60    1.60
  -2 -29  -2    5.10    1.50
   2 -29   2    9.80    2.30
  -2 -29  -2    7.70    2.00
   2  29   2    6.40    1.80
   3 -29   2    5.10    1.70
  -3 -29  -2    3.10    1.10
  -2 -30   2   69.09    3.30
   2 -30  -2   70.69    3.20
   2  30  -2   65.09    3.60
  -1 -30   2   24.70    2.40
   1 -30  -2   26.50    3.30
   1 -30  -2   20.50    2.20
   1  30  -2   26.40    2.80
  -1  30   2   23.90    3.10
   0 -30   2   80.39    3.80
   0 -30  -2   82.69    3.90
   0 -30  -2   86.59    4.10
   0  30   2   83.49    4.00
   0  30  -2   83.89    4.50
   1 -30   2   19.50    3.10
   1 -30   2   20.90    2.20
  -1 -30  -2   21.40    2.40
  -1 -30  -2   22.40    2.30
   1  30   2   24.40    2.50
  -2 -30  -2   10.50    2.40
  -2 -30  -2    4.90    1.20
   2 -30   2    5.90    1.50
   2 -30   2    5.80    1.50
  -2 -31   2   37.10    2.30
   1 -31  -2   19.00    2.10
  -1 -31   2   19.20    2.00
   1  31  -2   15.90    3.00
   0 -31  -2    0.80    1.50
   0 -31  -2   -0.30    1.10
   0 -31   2    1.60    1.20
   0  31   2   -0.80    1.50
  -1 -31  -2    1.50    1.30
  -1 -31  -2    3.80    1.30
   1 -31   2    2.50    1.20
   1  31   2    1.20    1.60
  -2 -31  -2   14.20    1.80
  -1 -32   2   10.40    1.80
   1 -32  -2   10.40    1.90
   0 -32  -2    9.50    1.90
   0 -32  -2   12.80    2.60
  -1 -32  -2   34.80    2.40
  -1 -32  -2   37.60    2.80
  -6   0   3    2.30    1.60
  -6   0   3   -1.00    1.70
  -5   0   3  246.98    9.30
  -5   0   3  255.07    9.50
  -4   0   3   -0.50    1.90
  -4   0   3   -1.60    2.20
  -4   0   3   -1.50    2.20
   3   0  -3  652.93   19.40
   3   0  -3  642.74   19.40
  -3   0   3  634.04   19.90
   2   0  -3   -0.80    0.30
  -1   0   3  210.68    6.60
   1   0  -3  218.58    6.60
   0   0  -3    0.00    0.30
   0   0   3   -0.10    0.30
  -1   0  -3 9383.46  266.17
   1   0   3 8563.54  266.27
  -2   0  -3    0.60    1.10
   2   0   3    0.10    0.70
   3   0   3  208.98    7.80
  -3   0  -3  201.68    8.30
  -3   0  -3  200.88    8.00
  -3   0  -3  202.78    7.80
  -4   0  -3    3.40    2.80
  -4   0  -3   -0.50    2.40
  -4   0  -3   -1.60    1.70
  -5   0  -3   10.20    2.60
  -5   0  -3    3.20    2.00
  -5   0  -3    5.40    2.10
  -5   0  -3    6.00    1.80
  -6   0  -3    0.50    1.20
  -6   0  -3    1.60    1.50
  -6  -1   3  103.49    4.90
  -6  -1   3  106.19    4.80
  -6   1   3  109.29    4.80
  -6   1   3  109.29    5.10
  -5  -1   3   12.20    2.40
  -5  -1   3    7.70    2.40
  -5   1   3   10.10    3.20
  -5   1   3    6.60    2.20
  -5   1   3   10.60    2.20
  -4  -1   3   -3.60    1.80
  -4  -1   3    2.10    2.00
  -4  -1   3    2.40    2.30
  -4   1   3    4.10    1.80
  -4   1   3    1.00    2.30
  -4   1   3   -0.30    2.30
  -3  -1   3  424.56   13.30
   3   1  -3  410.76   13.00
  -3   1   3  413.76   13.30
   3   1  -3  417.06   12.90
   2  -1  -3  154.38    4.80
   2   1  -3  151.28    4.90
  -1  -1   3  815.42   24.70
   1  -1  -3  849.32   24.60
   1   1  -3  832.62   24.70
  -1   1   3  807.82   24.60
   0  -1  -3  483.25   14.20
   0  -1   3  449.36   14.10
   0   1  -3  480.45   14.20
   0   1   3  461.15   14.10
  -1  -1  -3 2261.47   65.19
   1  -1   3 2163.58   65.09
  -1   1  -3 2197.88   65.19
   1   1   3 2145.09   65.09
  -2  -1  -3   72.59    3.40
   2  -1   3   71.59    3.00
   2   1   3   77.89    3.20
  -2   1  -3   71.99    3.20
  -3  -1  -3   67.89    4.70
  -3  -1  -3   65.69    5.10
   3  -1   3   64.49    4.40
  -3  -1  -3   66.09    4.20
  -3   1  -3   62.89    4.30
   3   1   3   72.59    4.50
  -3   1  -3   70.99    4.10
  -3   1  -3   69.09    4.90
  -4  -1  -3  334.27   11.80
  -4  -1  -3  324.47   11.80
  -4  -1  -3  324.67   11.40
  -4   1  -3  328.27   11.80
  -4   1  -3  327.17   11.40
  -4   1  -3  320.47   12.00
  -5  -1  -3   87.99    4.70
  -5  -1  -3   85.79    4.50
  -5  -1  -3   84.39    4.90
  -5  -1  -3   85.89    5.20
  -5   1  -3   78.09    4.30
  -5   1  -3   84.19    5.10
  -5   1  -3   87.39    4.90
  -5   1  -3   90.59    5.20
  -6  -1  -3   28.70    2.30
  -6  -1  -3   19.50    2.80
  -6   1  -3   23.10    2.40
  -6   1  -3   24.10    2.60
  -6  -2   3    2.90    1.60
  -6  -2   3    3.40    1.70
  -6   2   3    5.40    1.70
  -6   2   3    5.10    1.80
  -5  -2   3   66.89    4.20
  -5  -2   3   69.09    4.80
  -5   2   3   60.29    4.20
  -5   2   3   58.49    5.10
  -5   2   3   61.69    4.40
  -4  -2   3    9.80    2.50
  -4  -2   3   12.00    2.70
  -4  -2   3    4.70    2.00
  -4   2   3   11.80    2.60
  -4   2   3    9.00    3.20
  -4   2   3    8.20    2.30
  -3  -2   3  118.59    4.70
   3   2  -3  110.69    4.50
   3   2  -3  117.29    4.50
  -3   2   3  115.69    4.80
   2  -2  -3  445.26   13.20
   2   2  -3  437.26   13.50
   1  -2  -3  398.16   11.30
  -1  -2   3  364.06   11.40
  -1   2   3  367.76   11.30
   1   2  -3  370.36   11.40
   0  -2   3  107.09    3.60
   0  -2  -3  111.79    3.60
   0   2   3  106.69    3.60
   0   2  -3  108.99    3.60
   1  -2   3  189.28    6.10
   1   2   3  186.88    6.10
  -1   2  -3  188.78    6.10
  -2  -2  -3  272.37    9.00
   2  -2   3  271.37    8.70
   2   2   3  260.87    8.80
  -2   2  -3  276.97    8.90
  -3  -2  -3   75.89    5.70
   3  -2   3   93.19    4.80
  -3  -2  -3   89.39    5.00
  -3  -2  -3   85.99    4.90
   3   2   3   87.19    5.10
  -3   2  -3   78.69    4.80
  -3   2  -3   92.39    5.10
  -3   2  -3   84.49    5.30
  -4  -2  -3   21.00    3.20
  -4  -2  -3   15.40    3.30
  -4  -2  -3   19.40    4.70
  -4  -2  -3   17.80    4.10
  -4   2  -3   19.20    3.70
  -4   2  -3   14.70    2.60
  -4   2  -3   20.80    2.90
  -5  -2  -3  137.49    6.10
  -5  -2  -3  137.19    6.40
  -5  -2  -3  134.69    5.90
  -5   2  -3  130.09    6.20
  -5   2  -3  139.99    6.40
  -5   2  -3  139.39    6.10
  -5   2  -3  136.79    5.80
  -6  -2  -3   10.00    2.00
  -6  -2  -3    9.10    1.90
  -6   2  -3    6.80    1.40
  -6   2  -3    7.80    2.50
  -6   2  -3   13.00    2.30
  -6  -3   3   94.79    4.80
  -6  -3   3  106.49    4.90
  -6   3   3  102.09    4.70
  -6   3   3  101.49    4.80
  -5  -3   3   32.50    4.30
  -5  -3   3   23.20    3.70
  -5   3   3   26.90    3.30
  -5   3   3   31.60    3.90
  -5   3   3   29.80    4.20
  -4  -3   3   10.30    2.70
  -4  -3   3   12.10    2.60
  -4  -3   3    8.40    2.10
  -4   3   3   11.60    3.00
  -4   3   3    9.00    3.00
  -4   3   3    9.60    2.50
  -3  -3   3   12.40    2.30
   3   3  -3   12.80    2.70
  -3   3   3   10.20    2.40
   3   3  -3   12.50    2.10
   2   3  -3  863.01   26.00
  -1  -3   3  140.59    4.70
   1  -3  -3  145.49    4.50
   1   3  -3  156.78    4.70
  -1   3   3  137.19    4.50
   0  -3  -3  206.48    6.30
   0  -3   3  197.68    6.30
   0   3   3  190.18    6.20
   0   3  -3  200.68    6.30
  -1  -3  -3 1177.98   34.60
   1  -3   3 1125.39   34.40
   1   3   3 1123.19   34.50
  -1   3  -3 1182.98   34.50
   2  -3   3  329.57   10.30
  -2  -3  -3  324.17   10.70
   2   3   3  314.37   10.50
  -2   3  -3  334.27   10.50
   3  -3   3   25.00    3.60
  -3  -3  -3   29.40    3.40
  -3  -3  -3   22.50    4.50
  -3  -3  -3   25.00    3.90
  -3   3  -3   28.60    3.10
  -3   3  -3   27.90    3.90
  -3   3  -3   20.70    4.30
   3   3   3   37.20    4.60
  -3   3  -3   27.10    3.60
  -4  -3  -3  214.78    8.90
  -4  -3  -3  221.08    8.40
  -4  -3  -3  216.58    8.50
  -4   3  -3  224.48    8.70
  -4   3  -3  225.98    8.80
  -4   3  -3  221.98    8.50
  -4   3  -3  228.18    8.40
  -5  -3  -3   14.70    3.20
  -5  -3  -3   13.60    2.70
  -5  -3  -3   18.50    3.80
  -5   3  -3   15.80    3.50
  -5   3  -3   15.90    2.60
  -5   3  -3   19.00    3.50
  -6  -3  -3    8.00    1.40
  -6  -3  -3    8.70    1.90
  -6   3  -3    5.50    1.50
  -6   3  -3   12.00    2.00
  -6  -4   3  133.69    5.60
  -6  -4   3  129.09    5.70
  -6   4   3  134.79    5.50
  -6   4   3  129.99    5.70
  -5  -4   3   50.49    4.10
  -5  -4   3   51.19    4.50
  -5   4   3   46.20    4.40
  -5   4   3   51.59    4.10
  -5   4   3   51.39    3.80
  -4  -4   3    1.00    2.60
  -4  -4   3    1.60    2.40
  -4  -4   3    2.80    1.90
  -4   4   3   -0.40    2.00
  -4   4   3    0.30    1.80
  -4   4   3   -1.80    2.60
  -3  -4   3  173.78    6.30
  -3   4   3  170.48    6.30
   3   4  -3  168.28    6.50
   3   4  -3  178.88    6.30
  -2  -4   3  710.83   22.40
   2   4  -3  758.82   22.30
  -1  -4   3 1959.70   60.59
   1  -4  -3 2125.29   60.39
   1   4  -3 2141.49   60.69
  -1   4   3 1935.71   60.39
   0  -4   3 3262.97  101.29
   0  -4  -3 3630.94  101.59
   0   4   3 3287.87  101.59
   0   4  -3 3451.95  100.89
  -1  -4  -3  485.55   14.50
   1  -4   3  446.96   14.30
  -1   4  -3  476.65   14.40
   1   4   3  464.95   14.40
  -2  -4  -3    0.00    1.30
   2  -4   3    1.20    0.80
  -2   4  -3    2.20    1.10
   2   4   3    1.50    0.90
   3  -4   3   94.79    5.00
  -3  -4  -3   86.39    5.10
  -3  -4  -3   90.49    5.50
  -3  -4  -3   87.49    4.70
  -3   4  -3   83.49    4.80
  -3   4  -3   90.69    5.30
  -3   4  -3   84.09    5.20
  -3   4  -3   83.99    4.50
   3   4   3   84.09    5.30
  -4  -4  -3   84.19    5.40
  -4  -4  -3   87.99    4.80
  -4  -4  -3   98.49    5.10
  -4   4  -3   94.49    5.20
  -4   4  -3   92.69    5.10
  -4   4  -3   80.99    5.40
  -4   4  -3   97.59    4.60
  -5  -4  -3   13.90    2.70
  -5  -4  -3   17.90    3.20
  -5  -4  -3   18.10    3.90
  -5   4  -3   15.80    3.50
  -5   4  -3   11.80    2.60
  -5   4  -3   19.00    3.50
  -6  -4  -3    4.00    1.90
  -6  -4  -3    2.30    1.30
  -6   4  -3    6.60    2.00
  -6   4  -3    4.50    1.20
  -6   4  -3    1.70    1.40
  -6  -5   3   -0.90    2.10
  -6  -5   3    3.20    1.90
  -6   5   3    0.00    1.30
  -6   5   3    1.20    1.60
  -5  -5   3   65.79    5.20
  -5  -5   3   60.29    4.60
  -5   5   3   68.99    4.20
  -5   5   3   61.79    4.70
  -5   5   3   65.99    4.50
  -4  -5   3    0.50    1.90
  -4  -5   3    2.20    2.50
  -4  -5   3   -1.00    2.70
  -4   5   3    5.90    2.40
  -4   5   3    1.60    2.00
  -4   5   3   -2.90    2.60
  -3  -5   3  131.89    4.90
   3   5  -3  123.99    5.20
  -3   5   3  126.79    5.10
   3   5  -3  114.69    5.40
  -2  -5   3  167.18    6.00
  -2   5   3  162.98    6.00
   2   5  -3  183.38    5.80
  -1  -5   3  418.66   12.90
   1  -5  -3  435.96   12.60
   1   5  -3  410.96   12.90
  -1   5   3  409.46   12.60
   0  -5   3  511.55   15.90
   0  -5  -3  541.55   15.90
   0   5   3  517.95   15.90
   1  -5   3    8.00    1.00
  -1  -5  -3    8.10    1.30
   1   5   3   10.30    1.00
  -1   5  -3    8.60    1.10
   2  -5   3  470.75   14.50
  -2   5  -3  462.95   14.70
   2   5   3  463.95   14.70
  -3  -5  -3    0.40    3.00
  -3  -5  -3    0.80    2.10
  -3  -5  -3    3.00    1.90
  -3   5  -3   -2.10    2.10
  -3   5  -3    2.50    2.50
  -3   5  -3    4.10    2.50
  -3   5  -3    2.30    2.00
  -4  -5  -3    9.90    2.00
  -4  -5  -3    9.80    2.20
  -4  -5  -3   10.00    2.80
  -4   5  -3   11.10    2.50
  -4   5  -3   11.50    2.30
  -4   5  -3    6.80    2.60
  -4   5  -3    7.10    1.80
  -5  -5  -3   47.70    3.80
  -5  -5  -3   44.80    4.60
  -5  -5  -3   52.69    3.60
  -5   5  -3   53.29    4.10
  -5   5  -3   48.80    4.00
  -5   5  -3   49.99    3.50
  -6  -5  -3    5.40    3.80
  -6  -5  -3   -0.50    1.20
  -6   5  -3   -0.60    1.40
  -6   5  -3   -0.40    1.00
  -6   5  -3    2.00    1.80
  -6  -6   3   -1.70    2.20
  -6  -6   3   -0.70    2.40
  -6   6   3    1.10    1.50
  -6   6   3    2.20    1.30
  -5  -6   3   11.90    2.60
  -5  -6   3    7.70    2.90
  -5   6   3    9.80    2.50
  -5   6   3    6.00    1.90
  -4  -6   3    0.40    2.80
  -4  -6   3    2.80    1.90
  -4  -6   3   -1.90    3.20
  -4   6   3    3.00    2.20
  -4   6   3    1.30    1.90
  -4   6   3    0.10    2.50
  -3  -6   3  776.32   23.30
  -3   6   3  749.23   23.30
   3   6  -3  737.43   23.40
  -2  -6   3  222.08    7.40
  -2   6   3  219.38    7.40
   2   6  -3  215.08    7.30
  -1  -6   3   77.19    2.90
   1   6  -3   82.89    3.00
  -1   6   3   74.09    2.60
   0  -6  -3  507.75   14.70
   0  -6   3  473.25   14.70
   0   6   3  455.65   14.60
   0   6  -3  492.55   14.80
  -1  -6  -3  171.48    5.80
   1  -6   3  169.48    5.60
  -1   6  -3  171.38    5.60
   1   6   3  161.58    5.70
   2  -6   3   14.80    1.80
   2   6   3   11.90    1.90
  -2   6  -3   17.40    2.50
  -3  -6  -3  354.46   13.30
  -3  -6  -3  373.36   12.60
  -3  -6  -3  385.06   12.70
  -3   6  -3  386.66   13.10
  -3   6  -3  375.36   12.90
  -3   6  -3  354.46   12.70
  -3   6  -3  373.86   12.60
  -4  -6  -3    2.50    1.80
  -4  -6  -3    1.70    2.80
  -4  -6  -3    1.60    2.10
  -4   6  -3    2.30    2.40
  -4   6  -3    5.70    2.20
  -4   6  -3    3.20    1.70
  -4   6  -3    3.20    2.30
  -5  -6  -3    6.70    2.60
  -5  -6  -3    8.70    1.90
  -5  -6  -3   11.80    2.70
  -5   6  -3    5.90    2.40
  -5   6  -3    4.70    2.10
  -5   6  -3    6.30    1.70
  -6  -6  -3    3.90    1.30
  -6  -6  -3   -2.30    2.50
  -6   6  -3    0.10    1.50
  -6   6  -3    1.20    1.30
  -6   6  -3    3.50    1.10
  -6   7   3  183.98    7.00
  -6   7   3  189.68    7.00
  -5  -7   3   83.89    6.10
  -5  -7   3   97.39    5.60
  -5   7   3   93.99    5.30
  -5   7   3   89.99    4.80
  -4  -7   3   14.80    3.30
  -4  -7   3   22.50    4.40
  -4  -7   3   15.60    3.50
  -4   7   3   13.20    2.40
  -4   7   3   23.70    3.90
  -4   7   3   14.10    3.50
  -3  -7   3   36.30    2.60
  -3   7   3   33.90    3.00
   3   7  -3   27.60    3.50
  -2  -7   3    3.90    1.20
   2   7  -3    4.20    1.00
  -2   7   3    4.30    1.30
  -1  -7   3  286.57    9.40
   1   7  -3  316.37    9.50
  -1   7   3  287.47    9.00
   0  -7   3  177.98    6.00
   0   7   3  183.08    6.00
   0   7  -3  192.08    6.10
   1  -7   3   69.69    2.70
   1   7   3   63.69    3.00
  -1   7  -3   68.19    2.80
   2  -7   3  361.16   11.80
   2   7   3  380.16   12.10
  -2   7  -3  361.46   11.90
  -3  -7  -3   -2.10    2.10
  -3  -7  -3    1.20    2.00
  -3  -7  -3    4.70    3.10
  -3   7  -3    0.10    2.50
  -3   7  -3   -0.80    2.20
  -3   7  -3    0.70    1.70
  -3   7  -3    0.20    2.40
  -4  -7  -3   13.20    3.10
  -4  -7  -3   12.40    2.40
  -4  -7  -3   12.20    2.10
  -4   7  -3   13.10    2.70
  -4   7  -3   14.40    2.70
  -4   7  -3   13.60    2.70
  -5  -7  -3  115.29    5.40
  -5  -7  -3  114.59    5.20
  -5   7  -3  116.89    5.10
  -5   7  -3  112.09    5.50
  -5   7  -3  109.29    5.70
  -6  -7  -3   -0.10    1.20
  -6   7  -3    1.40    1.30
  -6   7  -3   -2.30    1.50
  -6   8   3   13.70    2.40
  -6   8   3   14.00    2.10
  -5  -8   3  228.68    9.50
  -5  -8   3  228.38    9.20
  -5   8   3  230.48    8.90
  -5   8   3  237.28    8.80
  -4  -8   3   65.49    5.30
  -4  -8   3   68.89    4.10
  -4   8   3   58.39    4.10
  -4   8   3   61.79    4.80
  -4   8   3   64.79    4.50
  -3  -8   3  286.07    9.30
  -3   8   3  284.77   10.20
  -3   8   3  263.97    9.30
  -3   8   3  258.27    9.80
   3   8  -3  267.57    9.90
  -2  -8   3    1.70    1.10
   2   8  -3    2.00    1.10
  -2   8   3    1.80    1.20
  -1  -8   3   47.20    2.20
  -1  -8   3   45.20    2.80
   1   8  -3   46.00    2.30
  -1   8   3   46.20    2.60
  -1   8   3   47.10    1.80
  -1   8   3   48.80    1.80
   0  -8   3   18.60    1.30
   0   8  -3   19.00    1.40
   0   8   3   18.40    1.30
   1  -8   3   25.90    1.60
  -1   8  -3   25.70    1.80
   1   8   3   25.80    1.80
   2  -8   3   44.30    2.70
   2   8   3   44.40    3.20
  -2   8  -3   43.20    3.30
  -3  -8  -3  204.18    8.20
  -3  -8  -3  214.98    8.10
  -3  -8  -3  181.38    9.20
  -3   8  -3  217.38    8.60
  -3   8  -3  217.88    8.00
  -3   8  -3  223.98    8.40
  -4  -8  -3    5.90    3.20
  -4  -8  -3    4.60    1.90
  -4  -8  -3    4.70    1.90
  -4   8  -3    5.90    1.80
  -4   8  -3    4.80    2.20
  -4   8  -3   10.20    2.50
  -5  -8  -3    2.80    2.70
  -5  -8  -3    5.10    1.80
  -5  -8  -3   -0.10    1.40
  -5   8  -3    2.20    1.50
  -5   8  -3    3.20    1.80
  -5   8  -3    6.70    2.10
  -6  -8  -3    2.00    1.30
  -6  -8  -3    0.60    2.00
  -6   8  -3    0.70    1.30
  -6   8  -3    0.20    1.40
  -6   9   3   18.70    2.20
  -6   9   3   18.30    2.50
  -5   9   3    7.30    2.10
  -5   9   3   12.10    2.80
  -4  -9   3   53.59    5.30
  -4  -9   3   61.69    4.00
  -4   9   3   54.19    4.00
  -4   9   3   51.29    4.70
  -3  -9   3  121.99    4.90
   3   9  -3  108.39    6.20
  -3   9   3  120.19    5.10
  -3   9   3  113.09    5.70
  -3   9   3  117.39    6.30
  -2  -9   3   -0.70    1.20
  -2   9   3    0.10    1.10
  -1  -9   3  860.81   27.10
  -1  -9   3  870.91   27.10
  -1   9   3  917.01   27.20
   1   9  -3  913.91   27.20
  -1   9   3  865.11   26.70
  -1   9   3  937.91   26.70
   0  -9   3  369.16   11.40
   0   9   3  350.26   11.50
   0   9  -3  360.46   11.40
   0   9   3  372.06   11.30
   1  -9   3  110.59    4.10
   1   9   3  116.19    4.30
  -1   9  -3  110.29    4.30
   2  -9   3  192.48    6.90
  -2   9  -3  193.48    7.50
   2   9   3  213.28    7.60
  -3  -9  -3   44.70    3.90
  -3  -9  -3   50.59    3.80
  -3   9  -3   44.30    4.10
  -3   9  -3   45.50    3.60
  -3   9  -3   36.80    4.80
  -4  -9  -3   17.00    3.30
  -4  -9  -3   16.80    3.50
  -4  -9  -3   13.30    3.20
  -4   9  -3   19.60    3.40
  -4   9  -3   13.90    3.40
  -4   9  -3   13.50    2.80
  -5  -9  -3   33.40    4.20
  -5   9  -3   24.00    3.20
  -5   9  -3   27.50    2.70
  -5   9  -3   19.20    3.00
  -6  -9  -3    2.10    1.20
  -6  -9  -3    1.30    2.00
  -6   9  -3    0.40    1.30
  -6   9  -3    1.80    2.00
   6 -10  -3   12.30    2.90
  -6  10   3    8.60    2.00
  -6  10   3   12.20    2.40
  -5  10   3   65.89    4.10
  -5  10   3   66.29    4.40
  -4 -10   3   97.39    5.00
  -4  10   3   91.19    5.00
  -4  10   3   94.69    5.50
  -3 -10   3   27.20    2.60
  -3  10   3   24.10    5.00
  -3  10   3   24.40    4.00
  -3  10   3   30.30    3.10
  -2 -10   3   44.60    2.70
  -2  10   3   41.20    2.70
  -1 -10   3  233.18    7.90
  -1 -10   3  234.38    7.80
   1  10  -3  231.78    8.00
  -1  10   3  234.38    7.40
  -1  10   3  231.48    7.90
  -1  10   3  246.48    7.40
   0 -10   3    9.10    1.20
   0  10   3   10.10    1.30
   0  10  -3    9.00    1.50
   1 -10   3    1.90    0.80
   1  10   3    3.30    1.00
  -1  10  -3    0.70    1.10
   2 -10   3    5.00    1.40
   2  10   3    4.80    2.10
  -3 -10  -3   27.20    3.60
  -3 -10  -3   29.50    3.50
  -3  10  -3   29.10    4.70
  -3  10  -3   24.00    3.20
  -3  10  -3   32.50    3.80
  -4 -10  -3    1.00    1.80
  -4 -10  -3    0.40    1.80
  -4  10  -3    1.00    2.30
  -4  10  -3   -3.80    1.90
  -4  10  -3   -0.40    1.60
  -5 -10  -3   -0.70    1.60
   5 -10   3    1.80    2.10
  -5 -10  -3    3.00    1.60
  -5  10  -3    1.20    2.10
  -6 -10  -3    8.50    2.00
  -6  10  -3    4.70    2.60
  -6  10  -3    4.10    1.30
   6 -11  -3   24.60    2.90
  -6  11   3   25.40    2.30
  -6  11   3   24.60    2.40
  -5  11   3    2.00    2.00
  -5  11   3    2.50    1.60
  -4 -11   3    6.40    1.80
  -4  11   3    4.90    2.40
  -4  11   3    5.60    2.00
  -3 -11   3    1.50    3.50
  -3 -11   3    0.50    1.30
  -3  11   3    0.80    2.90
  -3  11   3   -2.90    2.50
  -3  11   3    2.50    1.90
  -2 -11   3   -0.40    1.10
  -2  11   3   -0.20    1.10
  -1 -11   3   17.30    2.10
  -1 -11   3   20.50    1.80
   1  11  -3   20.00    2.50
  -1  11   3   16.90    1.90
  -1  11   3   21.20    1.60
  -1  11   3   19.40    1.50
   0 -11   3  284.77    9.10
   0 -11   3  270.77    9.20
   0  11   3  275.37    9.00
   0  11  -3  280.07    9.20
   1 -11   3  107.99    4.20
  -1  11  -3  106.19    4.60
   1  11   3  104.39    4.40
   2 -11   3  330.17   10.40
  -2 -11  -3  310.67   10.80
  -2 -11  -3  300.27   10.80
  -2  11  -3  296.57   11.00
  -3 -11  -3   84.19    4.70
  -3 -11  -3   85.39    4.70
  -3  11  -3   91.19    5.00
  -3  11  -3   80.99    5.80
  -3  11  -3   84.29    4.50
  -4 -11  -3    2.30    1.90
  -4 -11  -3    3.30    1.90
  -4  11  -3    4.40    2.10
  -4  11  -3    4.30    2.30
  -4  11  -3    5.00    1.70
  -5 -11  -3   -1.00    1.40
   5 -11   3    2.20    1.90
  -5 -11  -3    0.90    1.50
  -5  11  -3   -2.20    1.70
  -5  11  -3    1.60    1.30
  -5  11  -3    0.30    1.60
  -6 -11  -3   28.80    2.50
   6 -12  -3    1.10    2.10
  -6  12   3    0.20    1.10
  -6  12   3    1.00    1.30
  -5  12   3   -3.30    1.50
  -5  12   3   -2.30    1.90
  -4 -12   3  150.28    6.40
  -4  12   3  138.29    6.80
  -4  12   3  155.38    6.60
  -3 -12   3   13.60    2.50
  -3 -12   3   21.80    3.60
  -3  12   3   17.50    4.30
  -3  12   3   17.20    3.10
  -3  12   3   20.20    3.80
  -2 -12   3   68.79    3.70
  -2  12   3   71.19    3.40
  -1 -12   3   20.30    2.10
  -1 -12   3   19.70    2.00
  -1  12   3   18.50    1.70
  -1  12   3   20.50    2.00
  -1  12   3   18.40    1.80
   0 -12   3  247.38    8.20
   0 -12   3  236.78    8.20
   0  12   3  243.78    8.20
   0  12  -3  232.68    8.30
   0  12   3  252.57    8.10
   1 -12   3  259.67   10.00
   1 -12   3  304.07    9.70
   1  12   3  304.87   10.00
  -1  12  -3  300.77   10.10
  -2 -12  -3  506.25   16.70
  -2 -12  -3  525.35   16.70
  -2  12  -3  512.85   16.90
  -2  12  -3  506.15   16.60
  -3 -12  -3  179.88    7.40
  -3 -12  -3  182.58    7.30
  -3  12  -3  183.48    7.00
  -3  12  -3  175.88    7.50
  -3  12  -3  182.78    8.20
  -4 -12  -3   12.10    3.10
   4 -12   3   12.80    2.50
  -4 -12  -3   11.10    2.30
  -4  12  -3   10.70    2.70
  -4  12  -3   11.90    2.60
  -4  12  -3    9.60    2.30
   5 -12   3    0.40    1.90
  -5 -12  -3    2.40    1.60
  -5 -12  -3    0.50    1.50
  -5  12  -3    0.20    1.80
  -5  12  -3   -0.90    1.50
  -6 -12  -3    0.60    1.70
  -6  12  -3   -1.80    1.40
  -6  12  -3    1.40    1.20
   6 -13  -3   99.09    4.40
  -6  13   3   97.29    4.00
  -6  13   3   91.39    4.20
  -5  13   3   40.70    3.80
  -5  13   3   41.30    3.40
  -4 -13   3   -0.90    1.70
  -4  13   3   -0.50    2.40
  -4  13   3    3.10    2.00
  -3 -13   3   10.60    3.20
  -3 -13   3    8.20    1.80
  -3  13   3    7.30    2.10
  -3  13   3   11.10    3.20
  -3  13   3    5.60    2.50
  -2 -13   3   11.30    2.10
  -2  13   3   11.20    2.10
  -1 -13   3  269.77    9.20
  -1 -13   3  272.47    9.40
  -1  13   3  281.57    9.20
  -1  13   3  278.47    8.90
  -1  13   3  265.17    8.80
   0 -13   3  292.17    9.70
   0 -13   3  283.87    9.70
   0  13   3  283.57    9.80
   0  13   3  299.77    9.60
   1 -13   3   32.40    2.80
   1  13   3   30.20    3.20
  -2 -13  -3  104.79    5.00
  -2 -13  -3  105.59    5.30
   2 -13   3   99.49    5.30
  -2  13  -3  105.89    5.20
  -2  13  -3   95.99    5.50
  -3 -13  -3  119.99    5.60
  -3 -13  -3  125.79    5.80
  -3  13  -3  119.99    6.60
  -3  13  -3  125.39    6.10
  -3  13  -3  113.19    6.90
   4 -13   3   -1.30    2.10
  -4 -13  -3    5.30    1.90
  -4 -13  -3    2.20    1.90
  -4  13  -3    2.70    1.60
  -4  13  -3   -1.30    2.00
  -4  13  -3   -0.70    2.40
  -5 -13  -3    2.00    1.50
  -5 -13  -3    3.70    1.40
   5 -13   3    5.40    2.00
  -5  13  -3    1.60    1.50
  -5  13  -3    3.50    1.70
   6 -14  -3    4.00    1.60
  -6  14   3    8.60    1.90
  -6  14   3    4.30    1.40
   5 -14  -3   15.40    2.70
  -5  14   3   14.40    3.10
  -4 -14   3    6.70    3.40
  -4  14   3    8.60    2.20
  -4  14   3    9.90    2.80
  -3 -14   3    4.40    1.60
  -3 -14   3   -0.80    2.80
  -3  14   3    0.70    2.50
  -3  14   3    1.00    1.90
  -3  14   3   -1.00    3.20
   2 -14  -3    1.90    2.00
  -2 -14   3   -1.60    2.50
  -2 -14   3    0.40    1.30
  -2  14   3    2.90    1.40
  -1 -14   3   11.60    2.10
  -1  14   3   13.80    1.90
  -1  14   3   14.60    2.60
   0 -14   3    3.80    1.30
   0 -14   3    4.00    1.60
   0  14   3    3.20    1.40
   1 -14   3   87.59    4.90
   1 -14   3   89.79    4.60
  -1 -14  -3   80.59    4.50
   1  14   3  105.69    5.80
   2 -14   3  119.39    5.70
  -2 -14  -3  120.29    5.60
  -2 -14  -3  113.79    5.40
  -2  14  -3  123.99    5.90
  -3 -14  -3  100.99    5.20
   3 -14   3   96.99    5.30
  -3 -14  -3   97.19    5.20
  -3  14  -3   99.49    7.60
  -3  14  -3   90.49    5.40
  -3  14  -3   98.09    4.90
  -4 -14  -3   28.70    3.40
  -4 -14  -3   32.50    3.70
   4 -14   3   32.60    3.60
  -4  14  -3   33.90    4.40
  -4  14  -3   32.00    3.60
   5 -14   3   19.10    3.60
  -5 -14  -3   27.70    2.70
  -5 -14  -3   17.90    2.80
  -5  14  -3   25.40    3.30
  -5  14  -3   20.60    2.50
   6 -15  -3    2.20    1.50
  -6  15   3    1.80    1.30
  -6  15   3   -0.60    1.60
   5 -15  -3    1.80    1.60
  -5  15   3    0.00    1.80
  -5  15   3    0.00    1.60
  -4 -15   3  118.89    6.00
  -4 -15   3  136.99    7.40
  -4  15   3  142.19    6.10
  -4  15   3  137.99    6.80
  -3 -15   3    3.40    1.50
  -3 -15   3   -0.50    2.80
  -3  15   3    7.30    2.80
  -3  15   3    2.30    2.00
  -3  15   3    6.10    3.40
   2 -15  -3    2.20    2.00
  -2 -15   3    3.40    2.40
  -2 -15   3   -0.20    1.20
  -2  15   3   -0.20    1.30
  -1 -15   3   88.89    4.00
   1 -15  -3   80.99    4.50
  -1 -15   3   79.99    5.10
  -1  15   3   89.99    3.90
   0 -15   3   59.39    3.90
   0 -15  -3   60.89    3.90
   0 -15   3   64.79    3.60
   0 -15   3   65.39    4.50
   0  15   3   61.89    4.10
   0  15   3   66.49    3.20
  -1 -15  -3  330.77   11.60
  -1 -15  -3  335.47   11.40
   1 -15   3  336.17   11.60
   1 -15   3  324.47   11.40
  -2 -15  -3   25.60    3.60
   2 -15   3   26.80    3.50
  -2 -15  -3   26.30    3.50
  -2  15  -3   26.40    3.90
   3 -15   3    1.20    2.00
  -3 -15  -3    0.80    2.00
  -3 -15  -3    2.30    2.00
  -3  15  -3    2.40    2.00
  -3  15  -3    2.10    3.30
  -4 -15  -3    1.20    1.90
  -4 -15  -3   -1.00    1.70
   4 -15   3    0.60    1.90
  -4  15  -3   -1.90    2.50
  -4  15  -3   -1.00    1.90
  -5 -15  -3    5.40    1.60
  -5 -15  -3    9.60    2.30
   5 -15   3    8.90    2.30
  -5  15  -3    4.60    2.00
  -5  15  -3    9.10    2.10
  -6  16   3    3.60    1.30
   5 -16  -3   24.80    2.70
  -5  16   3   22.60    3.40
  -5  16   3   23.20    2.90
  -4 -16   3  131.49    7.10
   4 -16  -3  131.89    5.80
  -4 -16   3  128.89    6.00
  -4  16   3  122.49    6.50
  -4  16   3  137.69    6.10
  -3 -16   3  777.42   23.40
   3 -16  -3  713.23   23.30
  -3 -16   3  742.73   23.70
  -3  16   3  714.73   23.30
  -3  16   3  726.63   24.20
  -3  16   3  742.83   24.00
   2 -16  -3   74.29    4.30
  -2 -16   3   70.09    3.80
  -2 -16   3   71.09    4.90
  -2  16   3   72.39    3.80
   1 -16  -3   14.70    2.90
  -1 -16   3   14.60    3.70
  -1 -16   3   11.80    2.30
  -1  16   3   10.60    2.10
   0 -16  -3   57.39    4.00
   0 -16   3   55.79    4.10
   0 -16  -3   68.59    5.40
   0 -16   3   59.99    3.60
   0  16   3   56.59    3.10
   0  16   3   57.09    4.90
  -1 -16  -3   -2.80    2.20
  -1 -16  -3    1.10    1.90
   1 -16   3   -0.60    2.00
  -1  16  -3   -0.80    2.90
  -2 -16  -3  254.37    9.60
   2 -16   3  256.77    9.60
  -2 -16  -3  274.27    9.70
  -2  16  -3  263.07    9.90
   3 -16   3    9.90    2.20
  -3 -16  -3    7.80    2.00
  -3 -16  -3   17.00    3.30
  -3  16  -3   12.70    2.50
  -4 -16  -3    5.70    2.00
  -4 -16  -3    5.00    2.00
   4 -16   3    1.50    2.00
  -4  16  -3    4.20    2.70
  -4  16  -3    3.30    2.00
  -5 -16  -3   11.60    2.30
  -5 -16  -3    7.20    1.50
  -5  16  -3    9.40    2.10
  -5  16  -3    8.10    2.20
   5 -17  -3   12.30    2.40
  -5  17   3   15.40    3.30
  -5  17   3   15.00    2.70
  -4 -17   3   43.30    3.80
  -4 -17   3   48.20    5.20
   4 -17  -3   50.89    3.60
  -4  17   3   47.10    3.90
  -4  17   3   44.00    4.90
  -3 -17   3    8.50    2.60
   3 -17  -3    6.50    2.00
  -3 -17   3    6.80    1.90
  -3  17   3    6.60    2.70
  -3  17   3   11.90    2.40
  -2 -17   3   23.30    3.90
  -2 -17   3   19.30    2.60
   2 -17  -3   21.00    3.20
  -2  17   3   19.90    2.60
   1 -17  -3  145.69    6.00
  -1 -17   3  146.29    5.90
   1 -17  -3  130.39    7.60
  -1 -17   3  145.29    6.20
  -1  17   3  145.59    5.70
   0 -17   3   94.99    4.90
   0 -17   3  105.39    6.60
   0 -17   3  100.99    4.60
   0 -17  -3   99.19    4.90
   0 -17  -3   89.29    5.60
   0  17   3   96.69    4.20
   1 -17   3    0.20    2.00
  -1 -17  -3   -1.30    1.80
   1 -17   3    3.30    2.60
  -1 -17  -3   -2.20    2.00
  -1  17  -3   -1.30    3.10
  -2  17  -3    1.00    2.40
   3 -17   3   46.80    4.00
  -3 -17  -3   40.80    3.80
  -3 -17  -3   46.10    4.00
  -3  17  -3   48.60    4.10
   3  17   3   49.70    4.20
  -4 -17  -3    5.00    1.90
  -4 -17  -3    2.90    1.80
  -4  17  -3    5.90    3.10
  -4  17  -3    4.50    1.90
  -5 -17  -3   64.49    3.40
  -5 -17  -3   63.89    3.30
  -5  17  -3   67.49    3.30
   5 -18  -3   -1.00    1.20
  -5  18   3   -2.30    1.60
  -5  18   3   -2.70    2.50
  -4 -18   3   20.70    4.60
  -4 -18   3   11.10    2.10
   4 -18  -3   10.90    1.90
  -4  18   3   17.60    4.00
  -4  18   3   14.00    3.40
   3 -18  -3   23.20    3.10
  -3 -18   3   21.80    4.10
  -3 -18   3   20.80    3.10
  -3  18   3   23.50    3.90
  -3  18   3   20.30    4.60
  -2 -18   3  538.05   18.00
  -2 -18   3  560.84   17.80
  -2  18   3  542.15   17.60
  -1 -18   3    6.00    2.20
   1 -18  -3   -1.60    1.80
  -1 -18   3    3.80    1.50
   1 -18  -3    0.60    3.20
  -1  18   3    0.60    1.30
   0 -18   3   -0.30    1.90
   0 -18  -3    2.20    2.40
   0 -18  -3   -1.20    1.90
   0 -18   3    1.30    1.70
   0 -18   3   -0.10    3.00
   0  18   3    0.30    1.10
  -1 -18  -3   81.59    4.30
  -1 -18  -3   81.29    4.80
   1 -18   3   81.69    4.60
   1 -18   3   78.59    4.90
  -1  18  -3   77.29    5.90
  -2 -18  -3   36.20    3.60
   2 -18   3   36.40    3.50
  -2 -18  -3   33.60    3.80
  -2  18  -3   36.50    4.00
  -3 -18  -3    2.60    2.00
   3 -18   3    1.10    1.80
  -3 -18  -3    0.80    1.80
   3  18   3   -0.10    2.00
  -3  18  -3    2.30    2.10
   4 -18   3   79.59    4.40
  -4 -18  -3   81.39    4.40
  -4 -18  -3   77.49    4.40
  -4  18  -3   79.59    4.30
  -5 -18  -3    1.60    1.20
   5 -18   3   -0.50    1.00
  -5 -18  -3    1.70    1.60
  -5  18  -3   -0.50    1.20
   5 -19  -3    0.50    1.20
  -5  19   3    3.60    1.60
   4 -19  -3   29.70    3.10
  -4 -19   3   23.60    4.30
  -4 -19   3   26.80    3.50
  -3 -19   3   95.69    5.50
   3 -19  -3  103.79    5.00
  -3 -19   3   98.59    5.00
  -3  19   3  104.89    5.40
  -2 -19   3  264.77   10.10
  -2 -19   3  279.17    9.90
   2 -19  -3  279.87    9.90
  -2  19   3  274.47    9.70
   1 -19  -3   28.80    2.90
   1 -19  -3   29.80    5.20
  -1 -19   3   36.60    3.80
  -1 -19   3   31.70    3.00
  -1  19   3   31.60    2.90
   0 -19   3  169.78    7.90
   0 -19   3  182.98    7.00
   0 -19  -3  176.88    7.00
   0 -19  -3  174.18    7.40
   0 -19   3  173.68    7.10
   0  19   3  178.98    6.70
  -1 -19  -3   17.50    3.80
   1 -19   3   23.40    4.00
   1 -19   3   21.20    3.90
  -1 -19  -3   20.60    3.60
  -1  19  -3   26.80    3.70
  -2 -19  -3  478.75   15.70
   2 -19   3  457.25   15.50
   2 -19   3  472.05   15.60
  -2 -19  -3  475.05   15.70
  -2  19  -3  459.95   15.80
  -3 -19  -3  231.38    8.60
  -3 -19  -3  228.28    8.60
   3 -19   3  221.98    8.50
  -3  19  -3  222.28    8.60
   3  19   3  202.18    8.30
  -4 -19  -3    1.10    1.60
   4 -19   3    1.90    1.80
  -4 -19  -3   -2.90    1.40
  -4  19  -3   -0.50    1.60
  -5 -19  -3   67.69    3.20
   5 -19   3   67.19    3.10
  -5 -19  -3   71.19    3.60
   5 -20  -3   44.00    2.60
  -5  20   3   45.20    3.50
  -4 -20   3   30.20    3.60
   4 -20  -3   29.70    3.00
  -4 -20   3   34.00    3.90
  -4  20   3   35.60    4.10
  -3 -20   3   64.69    4.70
   3 -20  -3   71.59    4.10
  -3 -20   3   60.69    4.00
  -3  20   3   64.39    4.80
  -2 -20   3   15.80    2.60
   2 -20  -3    8.40    2.00
  -2 -20   3   10.80    2.40
  -2  20   3    8.10    1.80
  -1 -20   3   18.70    3.40
  -1 -20   3   22.20    2.90
   1 -20  -3   24.50    3.00
   1 -20  -3   32.60    4.80
  -1  20   3   26.10    2.70
   0 -20   3  199.88   10.80
   0 -20  -3  236.88    9.90
   0 -20  -3  249.38    9.20
   0 -20   3  243.88    9.40
   0  20   3  262.67    8.80
   1 -20   3  131.09    6.00
  -1 -20  -3  130.69    6.10
   1 -20   3  132.59    5.90
  -1 -20  -3  126.39    5.80
  -1  20  -3  128.39    7.40
   1  20   3  135.79    5.60
  -2 -20  -3  518.35   17.40
   2 -20   3  526.45   17.40
   2 -20   3  531.45   17.30
  -2 -20  -3  528.05   17.40
  -2  20  -3  524.75   17.60
   2  20   3  541.35   17.30
  -3 -20  -3   80.69    4.50
   3 -20   3   81.59    4.30
  -3 -20  -3   79.69    4.50
   3 -20   3   77.59    4.60
  -3  20  -3   79.89    4.70
   3  20   3   70.19    4.60
  -4 -20  -3    0.60    1.60
   4 -20   3   -0.10    1.80
  -4 -20  -3    0.50    1.40
   4 -20   3   -0.30    1.30
  -4  20  -3    0.40    1.50
  -5 -20  -3    0.10    1.20
   5 -20   3   -0.30    1.00
  -5  20  -3    0.80    1.10
   5 -21  -3    1.40    1.20
  -4 -21   3   11.10    2.40
  -4 -21   3   15.10    3.40
   4 -21  -3   11.40    2.30
   3 -21  -3    2.20    1.60
  -3 -21   3   -1.20    1.90
  -3 -21   3   -0.80    1.60
  -3  21   3   -3.20    2.30
  -2 -21   3   16.60    3.40
  -2 -21   3   18.10    3.40
   2 -21  -3   21.80    3.00
  -2  21   3   18.40    3.20
  -1 -21   3   -0.80    1.70
   1 -21  -3    0.00    2.70
   1 -21  -3    1.50    1.80
  -1 -21   3   -0.90    1.60
  -1  21   3    2.20    1.50
   0 -21  -3  276.27    9.70
   0 -21  -3  264.47   10.00
   0 -21   3  250.17   10.10
   0 -21   3  273.57    9.70
   0  21   3  270.17    9.50
   1 -21   3   71.19    4.60
  -1 -21  -3   81.89    4.80
  -1 -21  -3   78.59    4.40
   1 -21   3   70.89    4.50
  -1  21  -3   78.69    4.70
   1  21   3   79.49    4.10
   2 -21   3   17.40    3.30
  -2 -21  -3   17.70    3.10
  -2 -21  -3   18.40    3.30
   2 -21   3   21.60    3.20
  -2  21  -3   17.10    4.30
   2  21   3   15.90    2.70
   3 -21   3    3.70    1.90
   3 -21   3   11.60    2.80
  -3 -21  -3    4.30    1.80
  -3 -21  -3    6.90    1.80
  -3  21  -3    9.10    2.30
   3  21   3    5.70    2.10
  -4 -21  -3   11.40    2.40
   4 -21   3    8.40    1.90
   4 -21   3   12.00    2.10
  -4 -21  -3   12.60    2.70
  -4  21  -3    9.20    1.80
   5 -22  -3    8.90    1.80
   4 -22  -3    2.50    1.40
  -4 -22   3    0.10    2.00
  -3 -22   3    4.90    2.10
   3 -22  -3   -0.50    1.50
  -3 -22   3    1.50    1.70
  -3  22   3    1.90    2.60
  -2 -22   3   36.70    3.40
  -2 -22   3   39.60    3.80
   2 -22  -3   39.80    3.40
  -2  22   3   39.70    3.40
   1 -22  -3    1.90    1.60
   1 -22  -3    2.70    2.60
  -1 -22   3    0.50    1.90
  -1 -22   3   -0.30    1.80
  -1  22   3    1.50    1.40
   0 -22  -3    2.10    2.00
   0 -22   3    8.50    2.70
   0 -22   3    3.20    2.00
   0 -22  -3    3.20    2.30
   0  22   3    2.80    1.50
  -1 -22  -3   18.50    3.10
   1 -22   3   26.00    3.20
   1 -22   3   22.40    3.80
  -1 -22  -3   20.80    3.70
  -1  22  -3   25.30    3.70
  -2 -22  -3    3.40    1.80
  -2 -22  -3   -0.90    1.80
   2 -22   3    4.10    2.00
   2 -22   3    0.90    1.90
   2  22   3    2.20    1.50
  -2  22  -3    0.60    2.80
   3 -22   3   16.00    2.70
   3 -22   3   12.00    2.20
  -3 -22  -3    9.40    2.00
   3  22   3   12.00    2.40
  -3  22  -3   11.80    2.30
  -4 -22  -3    2.20    1.40
   4 -22   3   -0.50    1.20
   4 -22   3   -0.50    1.70
  -4 -22  -3    1.80    1.20
  -4  22  -3    1.60    1.50
   4 -23  -3   24.80    2.40
  -4 -23   3   27.10    3.40
  -3 -23   3    3.30    1.80
   3 -23  -3    3.30    1.50
  -2 -23   3   14.30    3.20
   2 -23  -3    7.90    1.90
  -2 -23   3   13.40    2.90
  -2  23   3   12.80    2.80
   1 -23  -3    0.90    1.70
  -1 -23   3    0.90    1.90
   1 -23  -3   -1.80    2.50
  -1  23   3    0.30    1.50
   0 -23  -3   15.30    3.80
   0 -23   3    9.40    2.70
   0 -23   3   14.30    3.10
   0 -23  -3   13.40    2.90
   0  23   3   11.70    2.80
  -1 -23  -3    2.10    2.00
  -1 -23  -3    1.90    1.80
   1 -23   3    1.80    2.10
   1 -23   3   -1.30    1.80
   1  23   3    1.30    1.40
  -1  23  -3   -2.00    2.30
  -2 -23  -3    1.60    1.70
  -2 -23  -3   -0.70    1.70
   2 -23   3   -0.50    1.70
   2 -23   3   -0.70    1.70
   2  23   3   -1.50    1.50
  -2  23  -3    1.30    2.90
   3 -23   3   13.70    2.60
   3 -23   3    6.90    1.60
  -3 -23  -3    7.20    1.70
  -3 -23  -3   10.90    2.60
  -3  23  -3    8.20    2.30
   3  23   3    9.30    2.50
  -4 -23  -3    5.10    1.50
  -4 -23  -3    4.10    1.20
   4 -23   3    5.30    1.20
   4 -23   3    5.80    2.00
  -4  23  -3    6.20    2.20
   4 -24  -3   46.20    2.70
  -3 -24   3   55.59    3.80
   3 -24  -3   62.79    3.50
  -2 -24   3    3.80    1.90
   2 -24  -3    4.50    1.70
  -2  24   3    2.10    1.80
   1 -24  -3   38.90    4.50
  -1 -24   3   41.20    3.60
   1 -24  -3   41.50    3.30
  -1  24   3   33.20    3.10
   0 -24  -3   35.50    3.40
   0 -24  -3   34.70    4.00
   0 -24   3   41.90    4.70
   0 -24   3   33.90    3.30
   0  24   3   31.50    3.10
   1 -24   3   16.20    2.50
  -1 -24  -3   15.20    3.00
   1 -24   3   11.40    2.10
  -1 -24  -3   21.90    3.10
  -1  24  -3   15.80    2.80
   1  24   3   16.90    2.60
   2 -24   3  205.08    7.80
  -2 -24  -3  210.68    7.80
  -2 -24  -3  210.88    7.90
   2 -24   3  197.08    8.60
   2  24   3  193.18    7.70
   3 -24   3   85.59    4.20
  -3 -24  -3   91.39    4.20
   3 -24   3   87.29    4.10
  -3 -24  -3   90.39    4.30
  -3  24  -3   93.59    4.90
   3  24   3   82.69    5.30
  -4 -24  -3    2.00    1.10
  -4 -24  -3    0.80    1.40
   4 -24   3   -0.10    1.10
  -4  24  -3    2.00    1.90
  -4 -25   3    7.60    2.00
   4 -25  -3    8.20    1.70
   3 -25  -3    6.20    1.40
  -3 -25   3    8.50    1.90
   2 -25  -3   27.80    2.90
  -2 -25   3   28.90    3.20
  -2  25   3   28.10    3.30
   1 -25  -3  202.78    8.10
  -1 -25   3  198.08    7.70
   1 -25  -3  196.48    7.50
  -1  25   3  187.68    7.50
   0 -25  -3    6.40    2.20
   0 -25   3   10.30    2.60
   0 -25   3    5.00    1.90
   0 -25  -3    5.10    1.70
   0  25   3    3.90    1.60
  -1 -25  -3   12.90    3.10
   1 -25   3   12.90    3.00
  -1 -25  -3   16.00    3.00
   1 -25   3   11.40    2.30
   1  25   3   11.20    2.60
  -2 -25  -3   37.60    3.20
   2 -25   3   42.50    3.20
  -2 -25  -3   39.40    3.30
   2 -25   3   36.20    3.20
   2  25   3   37.20    3.30
   3 -25   3    0.90    1.50
   3 -25   3   -0.40    1.40
  -3 -25  -3    0.80    1.20
  -3 -25  -3    1.50    1.40
   3  25   3    1.50    2.60
   4 -25   3   28.10    2.20
  -4 -25  -3   31.10    2.10
   4 -26  -3    0.80    1.00
  -3 -26   3   43.00    3.20
   3 -26  -3   42.10    2.70
  -2 -26   3   82.29    4.30
   2 -26  -3   78.49    4.10
  -2  26   3   78.99    4.40
  -1 -26   3   12.90    2.70
   1 -26  -3   18.30    2.70
  -1  26   3   16.60    2.70
   0 -26   3  116.99    5.80
   0 -26   3  136.49    5.80
   0 -26  -3  126.99    5.90
   0 -26  -3  120.49    5.40
   0  26  -3  122.99    5.50
   0  26   3  127.29    5.50
  -1 -26  -3   81.79    5.20
  -1 -26  -3   94.79    4.80
   1 -26   3   94.29    4.60
   1 -26   3   90.39    4.70
   1  26   3   88.49    4.60
   2 -26   3    6.70    1.60
  -2 -26  -3    5.10    1.70
  -2 -26  -3    8.00    1.80
   2 -26   3   14.60    2.80
   2  26   3    6.40    1.90
  -3 -26  -3   21.00    2.40
  -3 -26  -3   16.80    2.10
   3 -26   3   13.40    2.50
   3 -26   3   21.90    2.30
  -3 -27   3   37.10    3.00
   3 -27  -3   41.80    2.50
   2 -27  -3   63.99    3.50
  -2 -27   3   63.29    3.70
  -2  27   3   70.19    4.40
  -1 -27   3   37.80    3.10
   1 -27  -3   46.70    4.30
   1 -27  -3   47.90    3.20
  -1  27   3   43.80    3.20
   0 -27  -3  111.49    5.30
   0 -27  -3  107.69    5.90
   0  27  -3  115.39    5.20
   0  27   3  106.29    5.00
  -1 -27  -3   16.00    2.70
   1 -27   3   14.40    3.40
  -1 -27  -3   11.70    2.60
   1 -27   3   12.10    2.60
   1  27   3   10.50    2.40
  -2 -27  -3   24.10    2.60
   2 -27   3   18.70    2.50
  -2 -27  -3   23.70    2.60
   2 -27   3   19.90    2.80
   2  27   3   21.70    2.70
   3 -27   3    2.60    1.60
   3 -27   3    2.30    1.30
  -3 -27  -3    1.60    1.40
  -3 -27  -3    0.90    1.10
   3 -28  -3   52.49    2.70
  -2 -28   3    2.10    1.30
   2 -28  -3   -0.20    1.20
  -2  28   3    0.00    2.20
   1 -28  -3    3.10    2.30
   1 -28  -3    3.70    1.30
  -1 -28   3    3.60    1.50
  -1  28   3    3.90    1.50
   0 -28  -3   24.80    2.50
   0 -28  -3   21.30    3.00
   0 -28   3   21.20    2.70
   0  28  -3   29.00    5.10
   0  28   3   22.00    2.60
  -1 -28  -3    3.80    1.40
   1 -28   3    5.30    1.50
   1 -28   3    7.90    2.10
  -1 -28  -3    6.80    1.60
   1  28   3    7.70    1.60
  -2 -28  -3   28.50    2.70
  -2 -28  -3   29.30    2.50
   2 -28   3   28.80    2.70
   2 -28   3   28.50    2.90
   2  28   3   29.40    3.10
   3 -28   3   31.90    3.00
  -3 -28  -3   32.60    2.30
  -3 -28  -3   30.00    2.70
   3 -28   3   33.10    2.80
   3 -29  -3    1.10    0.90
  -3 -29   3   -1.60    1.30
  -2 -29   3   54.89    3.20
   2 -29  -3   60.99    3.00
   2  29  -3   56.99    3.40
   1 -29  -3   76.59    5.00
   1 -29  -3   77.59    3.60
  -1 -29   3   77.39    3.80
  -1  29   3   78.39    4.10
   1  29  -3   78.99    4.00
   0 -29   3   24.90    2.50
   0 -29  -3   22.70    3.10
   0 -29  -3   27.90    2.50
   0  29  -3   31.10    3.80
   0  29   3   18.90    3.70
  -1 -29  -3   22.50    2.70
  -1 -29  -3   20.30    2.30
   1 -29   3   26.50    2.40
   1  29   3   29.20    2.70
  -2 -29  -3    0.50    1.20
   2 -29   3    1.20    1.80
  -2 -29  -3   -0.10    1.10
   2 -29   3    0.70    1.20
   2  29   3    0.10    1.80
  -2 -30   3    5.40    1.30
   2 -30  -3    7.30    1.60
   2  30  -3    5.80    1.70
   1 -30  -3   49.70    2.80
  -1 -30   3   49.10    3.00
   1  30  -3   52.29    3.40
  -1  30   3   51.19    3.60
   0 -30  -3   23.50    2.40
   0 -30   3   21.20    2.30
   0 -30  -3   21.90    2.90
   0  30  -3   28.00    4.30
   0  30   3   17.70    2.40
  -1 -30  -3   58.89    3.10
   1 -30   3   61.59    3.20
  -1 -30  -3   63.09    3.40
   1  30   3   62.49    3.50
   2 -30   3   -0.10    1.20
  -2 -30  -3   -0.50    1.20
  -2 -30  -3   -0.10    1.10
  -2 -31   3    8.10    1.80
   2 -31  -3    7.80    1.50
   1 -31  -3    3.50    1.10
  -1 -31   3    2.80    1.10
   0 -31  -3   10.90    2.00
   0 -31   3   12.80    1.90
   0 -31  -3    9.30    2.00
   0  31   3   14.70    2.50
  -1 -31  -3   15.40    2.30
  -1 -31  -3   21.60    2.10
  -1 -32   3    4.20    1.10
   1 -32  -3    0.90    1.10
   0 -32  -3   20.90    2.00
   0 -32   3   27.20    2.10
  -6   0   4   23.10    2.60
  -6   0   4   24.90    2.90
  -5   0   4    0.30    2.00
  -5   0   4    3.50    1.80
  -4   0   4   14.90    3.00
  -4   0   4   12.80    3.10
  -4   0   4   20.30    3.90
   3   0  -4    1.80    1.10
  -3   0   4   -0.50    1.20
   2   0  -4    3.60    0.90
  -2   0   4    0.50    1.10
  -2   0   4    1.70    0.50
  -1   0   4    0.00    0.40
   1   0  -4   -0.10    0.40
   0   0   4  118.09    4.00
   1   0   4    0.20    0.50
  -1   0  -4    0.20    0.70
  -2   0  -4  243.38    8.70
   2   0   4  255.37    8.40
  -3   0  -4    0.10    1.70
  -3   0  -4    3.80    2.00
  -3   0  -4   -1.20    2.50
  -3   0  -4   -2.50    3.00
  -4   0  -4   35.50    3.20
  -4   0  -4   31.70    4.20
  -4   0  -4   25.80    3.30
  -4   0  -4   31.10    4.90
  -5   0  -4   -2.30    3.60
  -5   0  -4   -1.50    1.30
  -5   0  -4    2.10    1.60
  -6   0  -4  134.59    5.00
  -6   0  -4  133.39    5.40
  -6  -1   4   22.70    2.90
  -6  -1   4   18.20    2.70
  -6   1   4   24.40    2.70
  -6   1   4   19.20    2.50
  -5  -1   4    9.60    2.40
  -5  -1   4   10.10    2.20
  -5   1   4   17.50    3.50
  -5   1   4    8.80    2.00
  -4  -1   4  235.38    9.10
  -4  -1   4  237.58    8.80
  -4  -1   4  229.58    8.40
  -4   1   4  222.38    8.80
  -4   1   4  232.98    8.90
  -4   1   4  237.98    8.50
  -3  -1   4  136.89    5.30
   3   1  -4  136.09    5.00
  -3   1   4  140.29    5.30
   2  -1  -4  938.31   27.80
  -2  -1   4  933.81   27.90
  -2  -1   4  922.01   28.20
  -2   1   4  924.31   27.70
   2   1  -4  931.11   27.90
  -1  -1   4    1.90    0.50
   1  -1  -4   -0.20    0.40
   1   1  -4    0.40    0.40
  -1   1   4    0.80    0.40
   0  -1   4    4.70    0.70
   0   1  -4    4.80    0.80
   0   1   4    3.90    0.80
   1  -1   4  301.97    9.70
  -1  -1  -4  308.27    9.80
   1   1   4  305.77    9.70
  -1   1  -4  316.37    9.80
  -2  -1  -4  897.81   28.90
   2  -1   4  981.40   28.70
   2   1   4  963.20   28.70
  -2   1  -4  919.81   28.80
  -3  -1  -4  130.39    6.70
   3  -1   4  123.69    6.90
  -3  -1  -4  140.49    6.20
  -3  -1  -4  135.89    6.00
  -3   1  -4  139.59    6.00
  -3   1  -4  145.19    6.10
  -3   1  -4  145.49    6.60
  -3   1  -4  143.99    7.00
  -4  -1  -4  110.69    5.40
  -4  -1  -4  118.79    6.60
  -4  -1  -4  121.79    5.50
  -4  -1  -4  110.99    6.20
  -4   1  -4  119.49    5.60
  -4   1  -4  121.09    6.30
  -4   1  -4  117.19    5.40
  -4   1  -4  114.79    6.10
  -5  -1  -4   62.09    4.00
  -5  -1  -4   59.49    4.50
  -5  -1  -4   58.19    3.80
  -5   1  -4   55.39    4.00
  -5   1  -4   61.99    4.30
  -5   1  -4   69.09    3.80
  -6  -1  -4    1.40    1.10
  -6  -1  -4    3.00    1.50
  -6   1  -4    0.80    1.00
  -6   1  -4    0.30    1.30
  -6  -2   4    3.50    1.70
  -6  -2   4    2.10    1.60
  -6   2   4    2.90    1.50
  -6   2   4    3.00    1.50
  -5  -2   4   51.19    4.00
  -5  -2   4   57.39    4.50
  -5   2   4   49.80    4.10
  -5   2   4   50.79    3.80
  -4  -2   4    0.20    2.50
  -4  -2   4   -1.40    2.00
  -4  -2   4   -3.60    1.70
  -4   2   4    2.20    1.80
  -4   2   4    1.20    1.80
  -4   2   4   -0.60    2.20
  -3  -2   4   74.09    3.50
   3   2  -4   75.39    3.50
  -3   2   4   72.89    3.50
   3   2  -4   76.19    4.30
  -2  -2   4  204.38    7.20
   2  -2  -4  228.98    6.60
  -2  -2   4  213.68    6.90
  -2   2   4  202.08    7.20
  -2   2   4  221.28    6.60
   2   2  -4  211.38    6.90
  -1  -2   4  149.88    4.90
   1  -2  -4  153.18    4.90
   1   2  -4  147.59    5.00
  -1   2   4  155.18    4.90
   0  -2   4   66.59    2.50
   0   2   4   70.59    2.50
   0   2  -4   68.89    2.60
  -1  -2  -4  137.99    5.00
   1  -2   4  138.19    4.90
   1   2   4  146.89    5.00
  -1   2  -4  155.08    5.10
  -2  -2  -4  398.66   12.80
   2  -2   4  364.26   11.80
   2   2   4  347.87   11.80
  -2   2  -4  354.76   12.00
  -3  -2  -4    5.00    2.60
  -3  -2  -4    8.30    2.30
  -3  -2  -4    6.40    2.00
   3  -2   4    7.30    2.60
  -3   2  -4    7.60    2.20
  -3   2  -4    7.60    2.60
  -3   2  -4    7.50    2.00
  -3   2  -4    6.90    2.60
  -4  -2  -4   29.20    4.20
  -4  -2  -4   34.60    3.50
  -4  -2  -4   35.30    3.30
  -4   2  -4   34.50    3.60
  -4   2  -4   40.30    4.50
  -4   2  -4   29.60    3.30
  -4   2  -4   35.90    4.10
  -5  -2  -4   -2.00    1.50
  -5  -2  -4    4.00    2.10
  -5  -2  -4    1.40    1.80
  -5   2  -4   -2.80    2.90
  -5   2  -4   -2.40    1.70
  -5   2  -4   -1.90    1.40
  -5   2  -4    5.20    1.90
  -6  -2  -4    2.60    1.10
  -6  -2  -4    0.30    1.60
  -6   2  -4    3.60    1.10
  -6   2  -4    2.70    1.30
  -6  -3   4    0.30    1.70
  -6  -3   4    0.70    1.60
  -6   3   4    0.20    1.40
  -6   3   4    2.00    1.50
  -5  -3   4    1.90    2.20
  -5  -3   4    8.30    2.20
  -5   3   4   11.50    2.80
  -4  -3   4   18.70    3.50
  -4  -3   4   21.80    2.90
  -4  -3   4   24.60    4.00
  -4   3   4   19.20    3.80
  -4   3   4   22.20    3.40
  -4   3   4   22.70    3.30
  -3  -3   4   -1.90    1.20
  -3   3   4    2.00    1.30
   3   3  -4   -1.20    1.30
   3   3  -4   -1.50    1.50
  -2  -3   4   10.10    1.80
   2  -3  -4   10.40    0.80
  -2  -3   4   13.10    1.30
  -2   3   4   12.70    1.90
   2   3  -4    9.20    1.40
   1  -3  -4   25.20    1.20
  -1  -3   4   24.40    1.30
   1   3  -4   24.90    1.40
  -1   3   4   23.10    1.10
   0  -3   4  908.31   27.70
   0  -3  -4  930.51   27.70
   0   3   4  908.01   27.70
   0   3  -4  940.81   27.70
   1  -3   4  551.54   17.30
  -1  -3  -4  580.14   17.40
  -1   3  -4  574.04   17.40
   1   3   4  555.54   17.40
   2  -3   4  600.64   18.00
  -2   3  -4  572.34   18.20
   2   3   4  554.54   18.00
   3  -3   4   25.80    5.00
  -3  -3  -4   22.00    4.60
  -3  -3  -4   25.40    3.60
  -3  -3  -4   25.30    3.30
  -3   3  -4   24.30    3.30
  -3   3  -4   25.70    4.10
  -3   3  -4   22.80    3.20
  -3   3  -4   24.00    4.40
  -4  -3  -4   34.20    3.40
  -4  -3  -4   33.40    4.40
  -4  -3  -4   31.80    3.50
  -4   3  -4   32.80    4.00
  -4   3  -4   33.20    3.50
  -4   3  -4   32.80    4.40
  -4   3  -4   34.70    3.20
  -5  -3  -4   -1.00    2.00
  -5  -3  -4    3.40    1.50
  -5  -3  -4    1.50    1.70
  -5   3  -4    0.50    1.90
  -5   3  -4   -3.10    1.30
  -5   3  -4   -0.90    2.30
  -6  -3  -4   18.30    2.10
   6  -3   4   20.00    3.60
  -6   3  -4   14.30    2.30
  -6   3  -4   19.50    1.90
  -6  -4   4  125.49    5.60
  -6  -4   4  125.09    5.50
  -6   4   4  132.09    5.50
  -6   4   4  132.59    5.40
  -5  -4   4   13.80    3.40
  -5  -4   4   16.70    4.10
  -5   4   4   19.70    3.50
  -5   4   4   24.40    3.00
  -4  -4   4   15.00    2.80
  -4  -4   4   20.30    3.30
  -4  -4   4   19.30    3.70
  -4   4   4   13.10    3.00
  -4   4   4   13.00    2.60
  -4   4   4   13.40    3.30
  -3  -4   4  321.67   10.40
   3   4  -4  299.27   10.70
  -3   4   4  323.77   10.40
  -2  -4   4   36.80    2.30
  -2  -4   4   37.80    1.90
   2   4  -4   36.00    2.20
  -2   4   4   33.90    2.40
   1  -4  -4 2119.19   62.59
  -1  -4   4 2095.99   62.79
   1   4  -4 2215.98   62.79
  -1   4   4 2009.70   62.49
   0  -4   4  147.29    5.20
   0  -4  -4  156.28    5.20
   0   4  -4  163.98    5.20
   0   4   4  154.78    5.10
   1  -4   4   12.00    1.20
  -1  -4  -4   10.50    1.60
   1   4   4   11.40    1.30
  -1   4  -4    8.60    1.40
   2  -4   4    1.20    1.00
   2   4   4    1.70    1.10
  -2   4  -4   -0.80    1.50
  -3  -4  -4   20.00    4.60
  -3  -4  -4   20.10    3.40
  -3  -4  -4   31.90    3.40
  -3   4  -4   29.90    3.30
  -3   4  -4   35.60    3.50
  -3   4  -4   31.00    4.10
  -3   4  -4   32.20    4.40
  -4  -4  -4    7.70    2.10
  -4  -4  -4    2.40    2.40
  -4  -4  -4    4.80    1.80
  -4   4  -4    4.60    1.80
  -4   4  -4    8.70    2.50
  -4   4  -4    9.80    2.80
  -4   4  -4    7.40    2.00
  -5  -4  -4  191.08    7.30
  -5  -4  -4  186.78    7.30
  -5  -4  -4  189.88    7.70
  -5   4  -4  187.48    7.20
  -5   4  -4  181.78    7.70
  -5   4  -4  199.48    8.40
  -6  -4  -4   42.60    2.60
  -6  -4  -4   38.70    3.30
  -6   4  -4   36.00    2.70
  -6   4  -4   40.40    2.40
  -6   4  -4   42.10    3.70
  -6  -5   4   35.00    3.80
  -6  -5   4   32.80    3.40
  -6   5   4   38.30    3.00
  -6   5   4   38.90    2.80
  -5  -5   4   13.50    3.10
  -5  -5   4    7.50    2.30
  -5   5   4    9.10    2.00
  -5   5   4    8.50    2.10
  -4  -5   4   -1.50    2.30
  -4  -5   4    5.80    2.80
  -4  -5   4    4.20    1.80
  -4   5   4    0.10    2.10
  -4   5   4    3.90    1.80
  -4   5   4    7.60    2.40
  -3  -5   4   12.30    2.20
  -3   5   4   10.70    2.20
   3   5  -4    8.50    2.30
  -2  -5   4  631.14   19.30
  -2  -5   4  612.74   19.20
   2   5  -4  637.84   19.30
  -2   5   4  618.34   19.30
  -1  -5   4  503.65   15.60
   1  -5  -4  509.85   15.40
  -1   5   4  498.05   15.40
   1   5  -4  524.35   15.70
   0  -5  -4  246.68    7.80
   0  -5   4  239.78    7.80
   0   5  -4  250.27    7.80
   0   5   4  234.08    7.70
  -1  -5  -4  116.09    4.50
   1  -5   4  121.29    4.30
   1   5   4  124.69    4.40
  -1   5  -4  121.99    4.40
   2  -5   4  195.98    6.90
  -2   5  -4  187.98    7.30
   2   5   4  204.18    7.20
  -3  -5  -4    8.20    2.10
  -3  -5  -4   15.50    3.10
  -3  -5  -4   13.00    3.00
  -3   5  -4   11.80    2.20
  -3   5  -4   11.00    2.10
  -3   5  -4   15.30    2.90
  -3   5  -4   14.60    2.90
  -4  -5  -4   12.50    3.20
  -4  -5  -4   13.10    3.00
  -4  -5  -4   12.20    3.00
  -4   5  -4    9.70    2.20
  -4   5  -4   14.40    2.70
  -4   5  -4   14.10    2.80
  -4   5  -4    8.20    1.80
  -5  -5  -4   -0.30    1.40
  -5  -5  -4    0.80    1.90
  -5   5  -4    1.40    1.50
  -5   5  -4    0.50    1.80
  -6  -5  -4    1.30    1.10
  -6  -5  -4    4.60    2.30
  -6   5  -4    0.80    0.90
  -6   5  -4    1.40    1.30
  -6   5  -4    7.00    2.20
  -6  -6   4    7.30    2.30
  -6  -6   4   11.00    2.20
  -6   6   4   10.70    2.40
  -6   6   4    9.90    1.80
  -5  -6   4   18.00    3.50
  -5  -6   4   14.60    2.80
  -5   6   4   14.60    3.40
  -5   6   4   15.00    2.80
  -4  -6   4   31.30    3.20
  -4  -6   4   30.40    5.10
  -4  -6   4   33.90    3.90
  -4   6   4   25.90    3.60
  -4   6   4   31.30    3.80
  -4   6   4   35.10    3.30
  -3   6   4  248.88    8.60
  -3   6   4  235.18    9.40
  -3   6   4  258.77    9.30
  -2  -6   4  296.27    9.60
  -2  -6   4  296.57    9.70
  -2   6   4  295.97    9.70
   2   6  -4  294.57    9.70
  -1  -6   4  550.14   17.40
   1  -6  -4  561.24   17.20
  -1   6   4  564.84   17.10
   1   6  -4  560.84   17.50
  -1   6   4  609.94   17.90
   0  -6   4    0.90    0.50
   0  -6  -4    4.00    1.10
   0   6  -4    0.50    0.60
   0   6   4    1.70    0.50
  -1  -6  -4  310.77   10.00
   1  -6   4  286.47   10.50
   1   6   4  309.47    9.80
  -1   6  -4  307.27    9.80
   2  -6   4   14.70    2.40
   2   6   4   11.00    2.40
  -2   6  -4   21.80    3.80
  -3  -6  -4    4.30    3.10
  -3  -6  -4    6.60    2.10
  -3  -6  -4    8.30    2.20
  -3   6  -4    2.60    2.50
  -3   6  -4    8.80    2.60
  -3   6  -4    6.20    2.00
  -3   6  -4    3.80    2.20
  -4  -6  -4   -2.80    1.60
  -4  -6  -4    4.00    2.60
  -4  -6  -4   -0.20    1.80
  -4   6  -4   -1.10    2.30
  -4   6  -4    1.70    2.20
  -4   6  -4    2.80    1.60
  -5  -6  -4   16.80    3.90
  -5  -6  -4   13.60    2.70
  -5   6  -4   14.10    3.30
  -5   6  -4   13.50    2.50
  -6  -6  -4   22.60    2.10
  -6   6  -4   23.40    2.30
  -6   6  -4   22.20    2.00
  -6   6  -4   21.10    2.90
  -6  -7   4   36.30    3.80
  -6   7   4   36.60    2.70
  -6   7   4   31.20    2.80
  -5  -7   4   11.10    2.40
  -5  -7   4    8.60    2.80
  -5   7   4   13.30    3.20
  -5   7   4    9.00    2.10
  -4  -7   4  905.81   28.50
  -4  -7   4  963.90   28.00
  -4  -7   4  916.81   28.20
  -4   7   4  956.10   28.00
  -4   7   4  818.62   29.50
  -4   7   4  825.02   28.50
  -3  -7   4    0.00    1.30
  -3   7   4    1.20    2.60
  -3   7   4   -0.20    1.50
  -3   7   4   -0.70    2.20
  -2  -7   4   34.60    2.40
  -2  -7   4   36.50    2.30
   2   7  -4   32.50    2.70
  -2   7   4   34.10    2.40
  -1  -7   4  100.59    4.00
  -1   7   4   99.49    4.00
   1   7  -4  108.89    4.00
  -1   7   4  103.89    3.50
   0  -7   4    4.60    1.00
   0  -7  -4    6.70    1.20
   0   7  -4    4.80    0.90
   0   7   4    4.70    1.00
   1  -7   4   54.69    2.60
  -1  -7  -4   58.99    3.00
  -1   7  -4   54.39    2.90
   1   7   4   58.09    2.70
   2  -7   4  289.97    9.50
   2   7   4  285.97    9.70
  -2   7  -4  252.17    9.90
  -3  -7  -4   10.80    2.30
  -3  -7  -4   13.30    3.20
  -3  -7  -4    8.40    3.10
  -3   7  -4    7.10    2.00
  -3   7  -4   11.40    2.30
  -3   7  -4   10.60    2.70
  -3   7  -4   10.10    2.40
  -4  -7  -4   24.20    3.10
  -4  -7  -4   24.20    3.40
  -4  -7  -4   31.00    4.70
  -4   7  -4   23.50    3.80
  -4   7  -4   26.90    3.00
  -4   7  -4   20.60    3.90
  -5  -7  -4    1.10    1.50
  -5  -7  -4   -0.30    2.50
  -5   7  -4    2.60    1.90
  -6  -7  -4    4.90    1.40
  -6   7  -4    6.60    1.90
  -6   7  -4    2.40    1.20
  -6   8   4    5.40    1.40
  -6   8   4    2.10    1.30
  -5  -8   4   24.30    4.00
  -5   8   4   16.90    3.30
  -5   8   4   21.30    3.20
  -4  -8   4   39.20    4.10
  -4  -8   4   40.50    3.30
  -4   8   4   33.90    3.80
  -4   8   4   35.70    4.00
  -4   8   4   39.50    3.60
  -3  -8   4   10.20    2.80
  -3  -8   4   11.00    2.10
  -3   8   4   10.90    2.50
  -3   8   4    8.90    1.70
  -3   8   4    8.70    2.50
  -2  -8   4   85.79    3.70
  -2  -8   4   87.69    3.80
  -2   8   4   89.59    3.80
   2   8  -4   85.89    4.30
  -1  -8   4   42.20    2.20
  -1  -8   4   45.00    2.60
  -1   8   4   41.60    2.50
   1   8  -4   42.00    2.40
  -1   8   4   42.10    1.90
   0  -8   4  345.47   10.90
   0   8   4  333.17   11.00
   0   8  -4  351.06   11.00
   0   8   4  344.57   10.80
   1  -8   4    1.10    0.80
   1   8   4    0.60    0.80
  -1   8  -4    2.00    1.10
   1   8   4   -0.70    1.30
   2  -8   4   13.10    2.90
   2   8   4   13.10    3.30
  -3  -8  -4   -0.10    3.20
  -3  -8  -4    2.20    1.90
  -3  -8  -4    3.60    2.10
  -3   8  -4    4.10    2.30
  -3   8  -4    3.10    1.80
  -3   8  -4    0.40    2.30
  -4  -8  -4    3.00    1.90
  -4  -8  -4    4.10    1.80
  -4  -8  -4    0.30    2.90
  -4   8  -4    1.30    2.20
  -4   8  -4    5.70    2.50
  -4   8  -4    3.20    1.60
  -5  -8  -4   31.40    2.80
  -5  -8  -4   23.00    2.70
  -5  -8  -4   33.40    4.40
  -5   8  -4   23.20    3.40
  -5   8  -4   24.30    2.70
  -5   8  -4   26.80    3.00
  -6  -8  -4   24.70    2.30
  -6   9   4    4.30    1.40
  -6   9   4    4.10    1.40
  -5  -9   4   94.19    5.80
  -5   9   4   99.49    4.90
  -5   9   4   93.49    5.30
  -4  -9   4  241.48    8.80
  -4   9   4  239.58    9.30
  -4   9   4  237.28    9.00
  -4   9   4  240.18    9.10
  -3  -9   4    1.00    3.10
  -3  -9   4    9.60    2.10
  -3   9   4    2.10    1.60
  -3   9   4    4.30    2.60
  -3   9   4    3.60    2.20
  -2  -9   4   19.90    2.30
  -2  -9   4   20.20    2.10
  -2   9   4   17.60    2.00
  -1  -9   4  442.96   14.00
  -1  -9   4  435.56   14.00
  -1   9   4  434.86   13.60
   1   9  -4  458.15   14.10
  -1   9   4  449.36   14.00
   0  -9   4    0.30    0.60
   0   9  -4    1.30    1.00
   0   9   4    0.20    1.10
   0   9   4    0.30    0.70
   1  -9   4    6.20    1.10
   1   9   4    4.60    1.40
   1   9   4    4.70    1.20
  -1   9  -4    3.20    1.30
   2  -9   4  168.18    6.50
  -2  -9  -4  173.48    7.10
  -2  -9  -4  167.48    6.90
  -2   9  -4  158.58    7.10
   2   9   4  162.18    6.40
  -3  -9  -4  169.68    8.80
  -3  -9  -4  188.18    7.40
  -3  -9  -4  188.38    7.40
  -3   9  -4  185.88    8.00
  -3   9  -4  184.68    7.70
  -3   9  -4  194.08    7.30
  -4  -9  -4  168.18    6.90
  -4  -9  -4  161.68    8.20
  -4  -9  -4  171.48    7.00
  -4   9  -4  165.18    7.30
  -4   9  -4  168.38    6.70
  -4   9  -4  158.58    7.30
  -5  -9  -4   -0.30    1.50
  -5  -9  -4    0.90    1.30
  -5   9  -4   -1.60    1.30
  -5   9  -4    2.90    1.70
  -5   9  -4   -2.40    1.70
  -6  -9  -4   44.70    2.70
  -6   9  -4   45.50    2.70
  -6  10   4   -0.10    1.30
  -6  10   4    0.90    1.30
  -5 -10   4    6.40    5.10
  -5 -10   4    1.00    2.70
  -5  10   4    4.40    2.10
  -5  10   4    3.20    1.80
  -4 -10   4    6.30    3.00
  -4 -10   4   11.90    2.90
  -4  10   4    0.30    2.40
  -4  10   4    5.40    2.10
  -4  10   4    4.10    2.20
  -3 -10   4  246.78   10.30
  -3 -10   4  276.77    9.30
  -3  10   4  271.87   10.00
  -3  10   4  268.97    9.30
  -3  10   4  268.07    9.80
  -2 -10   4   49.50    2.80
  -2  10   4   45.70    2.80
  -1 -10   4  407.76   13.30
  -1 -10   4  432.96   13.40
  -1  10   4  421.86   12.90
  -1  10   4  418.36   13.30
   0 -10   4  326.27   11.40
   0 -10   4  366.86   11.40
   0  10  -4  357.66   11.50
   0  10   4  362.86   11.30
   1 -10   4   40.60    2.70
  -1  10  -4   46.20    3.40
   1  10   4   43.40    2.70
   1  10   4   43.90    2.90
  -2 -10  -4    0.10    2.10
  -2 -10  -4    0.30    2.20
   2 -10   4    2.20    2.00
  -2  10  -4    0.50    3.90
  -2  10  -4    0.80    2.40
   2  10   4    3.10    1.80
  -3 -10  -4   44.80    3.50
  -3 -10  -4   46.20    3.70
  -3  10  -4   44.30    3.60
  -3  10  -4   45.70    4.50
  -3  10  -4   37.90    3.90
  -4 -10  -4   25.70    3.30
  -4 -10  -4   28.80    3.30
  -4  10  -4   29.00    3.00
  -4  10  -4   28.50    3.70
  -4  10  -4   21.90    3.70
  -5 -10  -4   -0.80    1.30
  -5 -10  -4    1.00    1.50
   5 -10   4   -1.60    1.70
  -5  10  -4    1.00    1.60
  -5  10  -4   -0.90    1.10
  -5  10  -4    1.50    1.60
  -6 -10  -4   -0.70    1.20
  -6  10  -4   -1.70    1.30
  -6  10  -4   -0.40    1.40
  -6  11   4    1.00    1.30
  -6  11   4   -0.10    1.30
  -5 -11   4   27.60    4.70
  -5  11   4   23.50    3.00
  -5  11   4   26.80    3.60
  -4 -11   4  218.38    8.30
  -4 -11   4  212.38    9.20
  -4  11   4  215.48    8.60
  -4  11   4  226.68    8.80
  -4  11   4  229.48    8.60
  -3 -11   4   22.60    3.90
  -3 -11   4   22.10    2.60
  -3  11   4   22.90    3.30
  -3  11   4   21.70    3.70
  -3  11   4   23.20    2.90
  -2 -11   4    0.60    1.30
  -2  11   4    1.20    1.00
  -1 -11   4    0.90    1.10
  -1 -11   4   -0.70    1.20
  -1  11   4    0.50    0.80
  -1  11   4   -0.10    1.10
  -1  11   4    0.10    0.90
   0 -11   4   14.50    2.40
   0 -11   4   16.10    1.90
   0  11   4   19.90    2.00
   0  11   4   19.10    1.90
   1 -11   4  249.78    8.60
   1  11   4  243.68    8.40
   1  11   4  252.47    8.80
  -2 -11  -4    3.90    1.90
   2 -11   4    1.20    2.20
  -2 -11  -4    4.10    2.40
   2  11   4    4.00    1.80
  -2  11  -4    1.60    2.30
  -2  11  -4    3.90    2.40
  -3  11  -4  187.58    8.00
  -3  11  -4  162.78   10.00
  -3  11  -4  194.18    7.30
  -4 -11  -4   23.10    3.30
  -4 -11  -4   22.30    3.20
  -4  11  -4   14.40    2.70
  -4  11  -4   20.20    2.80
  -4  11  -4   21.50    3.50
  -5 -11  -4    1.10    1.30
  -5 -11  -4    1.40    1.40
   5 -11   4    0.80    1.70
  -5  11  -4    0.90    1.20
  -5  11  -4    1.30    1.70
  -5  11  -4    1.90    1.50
  -6  12   4    1.00    1.30
  -6  12   4    0.20    1.20
  -5 -12   4   30.70    4.80
   5 -12  -4   41.00    3.60
  -5  12   4   38.90    3.50
  -5  12   4   38.40    3.20
  -4 -12   4    1.10    1.80
  -4  12   4    3.00    3.70
  -4  12   4    3.60    2.00
  -4  12   4    5.50    2.50
  -3 -12   4   84.39    4.20
  -3  12   4   80.09    5.00
  -3  12   4   92.19    4.50
  -3  12   4   86.79    6.00
  -2 -12   4   14.60    2.10
  -2  12   4   11.70    2.10
  -1 -12   4  832.92   26.10
  -1 -12   4  864.81   25.90
  -1  12   4  824.42   25.50
  -1  12   4  850.01   25.90
  -1  12   4  840.02   25.50
   0 -12   4  220.48    7.80
   0 -12   4  220.88    7.80
   0  12   4  222.98    7.80
   0  12   4  226.58    8.00
   0  12   4  230.98    7.70
   1 -12   4  931.21   29.10
   1  12   4  959.90   29.30
   1  12   4  945.71   28.90
  -2 -12  -4   31.00    3.40
  -2 -12  -4   18.10    3.00
  -2  12  -4   24.00    5.00
  -2  12  -4   23.20    3.60
  -2  12  -4   29.00    3.80
  -3 -12  -4   21.20    3.30
  -3 -12  -4   25.30    3.40
  -3  12  -4   29.70    6.00
  -3  12  -4   19.10    3.00
  -3  12  -4   26.10    3.50
  -4 -12  -4    0.30    1.80
  -4 -12  -4   -2.30    1.80
   4 -12   4    1.80    2.00
  -4  12  -4    1.70    1.60
  -4  12  -4    7.00    2.30
  -4  12  -4    0.20    2.00
   5 -12   4   38.10    3.20
  -5 -12  -4   36.60    2.80
  -5 -12  -4   30.40    2.70
  -5  12  -4   37.00    3.30
  -5  12  -4   32.60    3.00
  -6  13   4    4.60    1.30
  -6  13   4    4.40    1.30
   5 -13  -4   26.20    3.30
  -5 -13   4   30.80    4.90
  -5  13   4   29.90    3.40
  -5  13   4   36.50    4.20
  -4 -13   4  266.17   10.00
  -4  13   4  243.68    9.60
  -4  13   4  237.08    9.30
  -3 -13   4  636.24   22.20
  -3 -13   4  563.94   18.80
  -3  13   4  569.64   19.10
  -3  13   4  582.74   19.40
  -3  13   4  600.54   18.90
  -2 -13   4   93.59    4.20
   2 -13  -4   94.39    5.10
  -2  13   4   97.59    4.20
  -1 -13   4   49.30    2.90
  -1 -13   4   47.50    3.40
  -1  13   4   47.40    2.90
  -1  13   4   41.60    3.00
   0 -13   4  243.38    8.40
   0  13   4  239.08    8.50
   0  13   4  244.88    8.20
   1 -13   4  264.47    9.60
  -1 -13  -4  270.57    9.50
   1 -13   4  264.47    9.40
   1  13   4  262.37    9.10
   2 -13   4   24.10    3.60
  -2 -13  -4   24.30    3.30
  -2 -13  -4   21.60    3.50
  -2  13  -4   17.80    3.70
   2  13   4   23.50    2.90
  -2  13  -4   26.90    3.70
  -3 -13  -4    7.00    2.10
  -3 -13  -4    7.00    2.00
  -3  13  -4    7.30    1.90
  -3  13  -4    6.10    3.10
  -3  13  -4    6.90    2.40
  -4 -13  -4    1.70    1.70
   4 -13   4    2.10    2.00
  -4 -13  -4    3.90    1.90
  -4  13  -4    0.30    2.20
  -4  13  -4   -0.50    1.80
  -4  13  -4    0.00    1.60
  -5 -13  -4   -1.20    1.30
  -5 -13  -4    0.00    1.20
   5 -13   4    0.80    1.70
  -5  13  -4   -2.20    1.60
  -5  13  -4   -0.30    1.30
  -6  14   4    1.50    1.20
  -6  14   4   -0.60    1.40
  -5 -14   4   12.10    3.00
   5 -14  -4   13.10    2.90
  -5  14   4    8.20    2.00
  -5  14   4    8.80    1.80
  -4 -14   4  324.07   11.60
   4 -14  -4  340.57   11.60
  -4  14   4  337.67   11.80
  -4  14   4  334.57   12.00
  -3 -14   4    2.80    1.60
  -3 -14   4    2.90    3.40
   3 -14  -4    5.10    2.10
  -3  14   4    3.70    1.80
  -3  14   4    1.70    2.70
  -3  14   4    3.80    2.60
  -2 -14   4    0.50    1.30
  -2 -14   4    2.60    3.00
   2 -14  -4    3.20    2.20
  -2  14   4    0.70    1.30
  -1 -14   4  178.88    6.70
   1 -14  -4  181.68    7.10
  -1  14   4  188.38    6.70
   0 -14   4  153.28    6.00
   0 -14  -4  184.18    8.70
   0 -14   4  145.59    6.40
   0  14   4  151.68    5.70
   0  14   4  145.79    6.40
   1 -14   4   63.99    4.70
  -1 -14  -4   59.29    4.70
   1 -14   4   60.09    4.20
  -1 -14  -4   61.29    3.80
   1  14   4   64.39    3.30
  -1  14  -4   65.79    4.80
   2 -14   4   69.29    4.60
  -2 -14  -4   73.29    4.50
  -2 -14  -4   68.09    4.50
  -2  14  -4   77.69    4.70
   2  14   4   79.39    4.00
   3 -14   4    6.90    2.10
  -3 -14  -4    7.70    2.20
  -3 -14  -4    7.70    2.00
  -3  14  -4    8.50    2.20
  -3  14  -4    7.00    2.90
  -3  14  -4    4.90    1.90
  -4 -14  -4    0.40    1.80
   4 -14   4   -1.70    1.80
  -4 -14  -4    1.90    1.80
  -4  14  -4    1.30    2.50
  -4  14  -4    1.90    1.90
   5 -14   4   27.80    3.00
  -5 -14  -4   26.80    2.50
  -5 -14  -4   29.60    2.70
  -5  14  -4   25.50    2.60
  -5  14  -4   26.60    3.10
  -6  15   4   35.00    2.30
  -5 -15   4    6.30    3.30
   5 -15  -4    6.60    1.90
  -5  15   4    4.30    1.70
  -5  15   4    7.50    2.00
  -4 -15   4   51.89    3.90
   4 -15  -4   61.69    3.90
  -4  15   4   50.79    4.30
  -4  15   4   51.69    4.50
   3 -15  -4   91.19    4.90
  -3 -15   4   91.89    4.50
  -3 -15   4   83.89    6.40
  -3  15   4  101.39    4.90
  -3  15   4   92.49    5.80
  -3  15   4   92.29    6.20
   2 -15  -4  128.69    5.80
  -2 -15   4  131.59    5.40
  -2 -15   4  126.59    6.60
  -2  15   4  133.39    5.40
   1 -15  -4   30.60    3.30
  -1 -15   4   33.20    4.20
  -1 -15   4   35.70    2.70
  -1  15   4   32.90    2.50
   0 -15  -4    9.50    2.10
   0 -15   4    8.80    2.40
   0  15   4    7.80    2.60
   0  15   4    8.00    1.90
   1 -15   4    1.80    1.90
  -1 -15  -4    1.60    1.90
  -1 -15  -4    4.70    2.50
  -1  15  -4    2.50    2.70
   1  15   4    0.00    1.10
  -2 -15  -4  320.07   11.30
   2 -15   4  324.87   11.30
  -2 -15  -4  316.47   11.20
  -2  15  -4  327.47   11.60
   2  15   4  325.67   11.00
  -3 -15  -4   82.49    4.60
  -3 -15  -4   75.09    4.60
   3 -15   4   79.69    4.60
  -3  15  -4   70.39    4.80
  -3  15  -4   69.59    6.00
   4 -15   4  142.89    6.10
  -4 -15  -4  143.89    6.10
  -4 -15  -4  145.89    6.10
  -4  15  -4  133.69    6.20
  -4  15  -4  134.59    6.70
  -5 -15  -4   -0.10    1.20
   5 -15   4    0.30    1.70
  -5 -15  -4    2.30    1.20
  -5  15  -4   -0.30    1.30
  -5  15  -4    3.10    2.00
  -6  16   4   -1.70    1.30
   5 -16  -4    2.60    1.60
  -5 -16   4   -0.80    3.00
  -5  16   4    1.00    1.80
  -5  16   4   -0.20    1.60
   4 -16  -4   45.30    3.60
  -4 -16   4   39.10    3.60
  -4  16   4   45.70    4.20
  -4  16   4   41.50    4.70
  -3 -16   4   75.29    4.20
  -3 -16   4   77.09    6.00
   3 -16  -4   80.49    4.40
  -3  16   4   55.09    7.40
  -3  16   4   72.99    5.50
  -3  16   4   82.99    4.60
  -2 -16   4  411.76   14.30
  -2 -16   4  420.76   13.90
   2 -16  -4  426.36   14.00
  -2  16   4  418.86   13.80
  -1 -16   4    9.30    2.30
  -1 -16   4   12.90    2.70
   1 -16  -4   15.50    3.10
  -1  16   4   10.30    2.10
   0 -16  -4   52.29    5.30
   0 -16  -4   50.69    3.80
   0 -16   4   59.49    3.70
   0 -16   4   50.49    4.00
   0  16   4   59.59    3.10
   0  16  -4   50.79    5.20
   1 -16   4  253.77    9.10
  -1 -16  -4  246.18    9.00
  -1 -16  -4  234.78    9.20
   1  16   4  245.08    8.60
  -1  16  -4  241.18    9.50
   2 -16   4   24.20    5.10
  -2 -16  -4   25.00    3.40
  -2 -16  -4   25.70    4.50
   2  16   4   27.40    2.90
  -2  16  -4   26.50    3.70
  -3 -16  -4    1.30    1.90
   3 -16   4    1.30    1.80
  -3 -16  -4   -4.20    1.90
  -3  16  -4    1.90    2.00
  -4 -16  -4   16.40    2.80
  -4 -16  -4    9.80    2.00
  -4  16  -4    9.00    2.80
  -4  16  -4   14.00    3.00
   5 -16   4    0.60    2.00
  -5 -16  -4   -0.10    1.20
  -5 -16  -4    1.80    1.20
  -5  16  -4   -1.70    1.20
  -5  16  -4   -4.10    2.40
   5 -17  -4   18.40    2.50
  -5 -17   4   20.80    5.30
  -5  17   4   14.50    2.50
  -5  17   4   18.40    3.30
   4 -17  -4    4.30    1.80
  -4 -17   4    3.70    1.90
  -4  17   4    7.10    2.50
  -4  17   4    0.00    2.50
   3 -17  -4   58.29    4.10
  -3 -17   4   56.69    5.40
  -3 -17   4   59.99    3.90
  -3  17   4   56.39    4.10
  -2 -17   4  184.38    7.70
  -2 -17   4  180.88    7.10
   2 -17  -4  190.88    7.30
  -2  17   4  186.08    7.10
  -1 -17   4    2.20    1.50
  -1 -17   4    3.80    2.40
   1 -17  -4    1.90    2.00
  -1  17   4    1.30    1.30
   0 -17  -4   -2.60    2.80
   0 -17   4    0.70    1.70
   0 -17  -4    4.60    2.00
   0 -17   4   -2.80    2.10
   0  17  -4    0.70    3.10
   0  17   4    0.30    1.20
  -1 -17  -4  207.58    8.10
   1 -17   4  180.58    8.10
   1 -17   4  198.78    7.70
  -1 -17  -4  193.38    7.60
  -1  17  -4  201.88    8.30
   1  17   4  202.68    7.30
   2 -17   4  123.69    5.70
  -2 -17  -4  116.59    5.60
  -2 -17  -4  124.09    5.90
   2  17   4  130.09    5.40
  -2  17  -4  118.19    6.00
  -3 -17  -4    5.90    2.00
  -3 -17  -4    7.60    2.10
   3 -17   4    6.50    2.00
  -3  17  -4    2.90    2.00
  -4 -17  -4    9.30    1.80
   4 -17   4    7.80    1.80
  -4 -17  -4   12.20    2.70
  -4  17  -4    9.50    1.90
  -5 -17  -4    1.10    1.10
  -5 -17  -4   -0.20    1.20
   5 -17   4    1.40    1.00
  -5  17  -4    0.90    1.10
   5 -18  -4    5.60    1.40
  -5  18   4    2.40    2.50
  -5  18   4    6.00    1.90
   4 -18  -4   59.79    3.80
  -4 -18   4   58.49    4.10
  -4  18   4   55.09    4.50
   3 -18  -4    0.20    1.70
  -3 -18   4    0.20    2.60
  -2 -18   4    1.00    1.40
   2 -18  -4    1.70    1.70
  -2 -18   4    0.30    2.30
  -2  18   4    0.70    1.40
  -1 -18   4  796.32   24.60
   1 -18  -4  740.33   24.50
  -1 -18   4  776.72   24.70
  -1  18   4  811.62   24.60
   0 -18  -4    0.20    1.70
   0 -18   4    0.20    2.10
   0 -18   4    2.20    1.80
   0 -18  -4   -0.40    2.60
   0  18  -4   -0.60    3.20
   0  18   4   -1.10    1.30
   1 -18   4   16.30    2.90
  -1 -18  -4   13.60    2.60
  -1 -18  -4   12.50    2.90
   1 -18   4   16.20    2.90
  -1  18  -4   22.10    4.20
   1  18   4   19.20    2.40
  -2 -18  -4  148.99    6.60
  -2 -18  -4  157.68    6.60
   2 -18   4  155.18    6.60
   2  18   4  149.29    6.20
  -2  18  -4  151.18    6.80
  -3 -18  -4  171.38    7.10
   3 -18   4  164.68    6.90
  -3 -18  -4  172.58    7.10
  -3  18  -4  168.98    7.10
  -4 -18  -4   -1.40    1.50
  -4 -18  -4   -0.70    1.30
   4 -18   4    0.20    1.60
  -4  18  -4   -2.20    1.60
   5 -18   4  129.19    5.10
  -5 -18  -4  140.79    5.10
  -5 -18  -4  143.59    5.10
  -5  18  -4  136.99    5.60
   5 -19  -4   32.50    2.60
  -5  19   4   47.70    4.10
  -4 -19   4   35.20    3.50
   4 -19  -4   36.60    4.00
  -4 -19   4   40.70    5.10
  -4  19   4   34.50    4.40
  -3 -19   4  138.39    6.20
  -3 -19   4  138.49    6.70
   3 -19  -4  139.59    6.00
  -3  19   4  142.59    6.30
  -2 -19   4  132.69    6.20
  -2 -19   4  127.79    5.80
   2 -19  -4  128.19    5.80
  -2  19   4  131.69    5.70
  -1 -19   4    5.40    1.70
   1 -19  -4    7.20    3.30
  -1  19   4    6.10    1.50
   0 -19  -4    9.90    2.80
   0 -19  -4   10.10    2.40
   0 -19   4    8.10    2.10
   0 -19   4   12.60    3.20
   0  19  -4    4.70    3.80
   0  19   4   11.70    2.30
  -1 -19  -4   56.99    4.30
   1 -19   4   40.10    7.00
   1 -19   4   50.49    3.90
  -1 -19  -4   53.89    3.80
  -1  19  -4   58.19    5.00
   1  19   4   52.49    3.40
   2 -19   4   51.49    4.00
  -2 -19  -4   51.49    4.00
  -2 -19  -4   50.59    3.90
   2 -19   4   44.00    3.70
   2  19   4   52.49    3.70
  -2  19  -4   53.59    4.30
  -3 -19  -4   49.70    3.70
   3 -19   4   44.20    3.60
  -3 -19  -4   46.30    3.70
  -3  19  -4   48.60    3.80
  -4 -19  -4    5.60    1.60
   4 -19   4    5.40    1.50
   4 -19   4    5.60    1.70
  -4 -19  -4    6.30    1.60
  -4  19  -4    4.40    1.70
  -5 -19  -4    5.70    1.20
  -5 -19  -4    7.40    1.40
   5 -19   4    8.80    1.80
  -5  19  -4    6.60    1.60
   5 -20  -4    5.20    1.30
  -4 -20   4   16.50    3.20
   4 -20  -4   17.60    2.60
  -4 -20   4   19.70    2.90
  -3 -20   4   84.29    4.70
  -3 -20   4   94.89    5.60
   3 -20  -4   99.29    4.70
  -3  20   4   96.39    5.10
   2 -20  -4   82.19    4.50
  -2 -20   4   78.59    4.90
  -2 -20   4   87.09    4.50
  -2  20   4   82.49    4.40
   1 -20  -4    4.80    1.90
  -1 -20   4    0.60    2.00
  -1 -20   4    2.10    1.60
   1 -20  -4   -3.80    3.20
  -1  20   4    2.10    1.50
   0 -20   4   44.80    4.00
   0 -20   4   55.19    3.90
   0 -20  -4   56.29    3.90
   0  20   4   56.59    3.40
  -1 -20  -4  629.94   20.70
  -1 -20  -4  642.34   20.70
   1 -20   4  646.04   20.60
   1 -20   4  634.64   20.60
   1  20   4  683.73   20.60
  -1  20  -4  616.54   20.90
  -2 -20  -4    2.20    2.00
  -2 -20  -4    2.80    1.70
   2 -20   4    1.90    2.10
   2 -20   4    1.60    1.80
  -2  20  -4    3.20    2.30
   2  20   4    0.40    1.60
  -3 -20  -4    3.40    1.70
  -3 -20  -4    3.70    1.60
   3 -20   4    4.90    1.90
   3 -20   4    4.20    1.70
  -3  20  -4    3.60    2.00
  -4 -20  -4   31.30    2.70
   4 -20   4   29.30    2.50
   4 -20   4   29.30    3.00
  -4 -20  -4   29.40    2.70
  -4  20  -4   28.50    2.80
   5 -21  -4    2.00    1.30
  -4 -21   4    6.00    2.60
  -4 -21   4    6.60    2.00
   4 -21  -4    6.20    1.50
  -3 -21   4    0.70    2.20
   3 -21  -4   -0.60    1.60
  -3 -21   4    2.00    1.60
  -3  21   4    0.30    2.10
  -2 -21   4  172.28    7.00
   2 -21  -4  164.78    6.60
  -2 -21   4  149.99    6.70
  -2  21   4  165.58    6.70
   1 -21  -4   42.20    3.50
  -1 -21   4   38.00    3.80
  -1 -21   4   39.00    3.40
   1 -21  -4   31.70    5.20
  -1  21   4   41.30    3.20
   0 -21  -4   16.30    2.90
   0 -21   4   21.80    3.20
   0 -21  -4   17.30    3.10
   0  21   4   22.50    2.80
  -1 -21  -4   14.40    3.00
   1 -21   4   15.90    3.10
  -1 -21  -4   15.30    3.50
   1 -21   4   16.70    3.80
  -1  21  -4   13.70    3.20
   1  21   4    9.70    2.00
  -2 -21  -4   25.60    3.20
   2 -21   4   26.50    3.20
  -2 -21  -4   27.40    3.50
   2 -21   4   36.40    3.80
  -2  21  -4   23.50    4.00
   2  21   4   29.70    3.10
  -3 -21  -4   53.69    4.00
   3 -21   4   58.49    3.60
  -3  21  -4   50.49    4.70
  -4 -21  -4   12.30    2.20
   4 -21   4   13.00    2.20
  -4 -21  -4   16.90    2.30
   4 -21   4    8.90    1.80
  -4  21  -4   15.70    2.20
   5 -22  -4    0.90    1.20
  -4 -22   4   12.90    3.10
   4 -22  -4   10.00    2.20
  -4 -22   4   10.70    2.80
  -3 -22   4   70.09    4.30
   3 -22  -4   74.59    4.10
  -3 -22   4   83.59    4.90
  -3  22   4   65.59    4.60
  -2 -22   4   12.60    3.30
   2 -22  -4   11.10    2.10
  -2 -22   4    9.80    1.90
  -2  22   4   14.40    2.80
   1 -22  -4    7.30    3.10
  -1 -22   4   -3.10    1.80
   1 -22  -4   -3.10    1.70
   0 -22  -4    9.60    2.60
   0 -22   4    6.40    2.10
   0 -22  -4    8.10    1.90
   0  22   4    4.20    1.70
   1 -22   4  125.19    5.70
  -1 -22  -4  120.69    5.60
  -1 -22  -4  123.69    5.90
   1 -22   4  119.69    6.00
   1  22   4  119.29    5.40
  -1  22  -4  111.49    6.60
   2 -22   4    4.50    2.00
   2 -22   4    4.20    2.10
  -2 -22  -4    6.40    1.90
  -2 -22  -4    3.10    1.90
   2  22   4    2.60    1.70
  -2  22  -4    5.10    2.40
   3 -22   4    3.20    1.60
   3 -22   4    3.80    1.60
  -3 -22  -4    3.40    1.60
  -3 -22  -4    5.60    1.50
  -3  22  -4    4.00    2.10
   4 -22   4   18.00    2.10
  -4 -22  -4   16.60    2.20
  -4 -22  -4   15.10    2.00
  -4  22  -4   10.30    2.20
   4 -23  -4  148.99    5.60
  -3 -23   4   11.30    2.90
  -3 -23   4    7.50    2.20
  -3  23   4   15.80    2.70
   2 -23  -4  111.19    5.10
  -2 -23   4  102.99    5.30
  -2 -23   4  114.49    5.50
  -2  23   4  105.69    5.20
   1 -23  -4   26.00    5.00
   1 -23  -4   29.10    3.00
  -1 -23   4   27.00    3.30
  -1 -23   4   26.90    3.70
  -1  23   4   23.20    2.80
   0 -23  -4   40.30    3.40
   0 -23  -4   38.70    4.40
   0 -23   4   46.80    3.70
   0  23   4   34.00    3.00
  -1 -23  -4  292.87   10.30
  -1 -23  -4  300.77   10.50
   1 -23   4  287.37   10.40
   1 -23   4  297.37   10.40
   1  23   4  269.27   10.20
  -2 -23  -4  222.48    8.40
   2 -23   4  226.38    8.80
   2 -23   4  221.38    8.20
  -2 -23  -4  209.78    8.20
   2  23   4  208.98    8.20
  -2  23  -4  218.28    8.60
   3 -23   4   -1.00    1.40
  -3 -23  -4   -0.10    1.40
   3 -23   4    0.20    1.50
  -3 -23  -4    1.10    1.40
  -3  23  -4    0.60    1.80
   4 -23   4    0.10    1.20
  -4 -23  -4   -0.30    1.20
  -4 -23  -4    1.40    1.10
   4 -23   4    1.40    1.60
  -4  23  -4    1.80    1.50
   4 -24  -4    4.40    1.20
  -3 -24   4    4.10    1.90
   3 -24  -4    5.50    1.50
  -3  24   4    1.30    2.60
  -2 -24   4   69.49    4.30
  -2 -24   4   65.69    4.10
   2 -24  -4   67.89    3.90
  -2  24   4   66.39    4.00
   1 -24  -4   27.20    3.00
   1 -24  -4   23.40    3.40
  -1 -24   4   28.20    3.30
  -1  24   4   23.00    2.80
   0 -24   4   78.69    4.50
   0 -24  -4   73.99    4.20
   0 -24  -4   83.39    4.90
   0  24   4   80.79    4.30
   1 -24   4  272.57   10.00
  -1 -24  -4  283.67   10.00
  -1 -24  -4  277.57    9.90
   1 -24   4  274.77    9.80
   1  24   4  262.97    9.80
   2 -24   4   67.89    4.30
  -2  24  -4   78.69    5.00
   2  24   4   74.79    4.30
   3 -24   4   19.80    2.50
  -3 -24  -4   15.60    2.30
  -3 -24  -4   20.70    2.40
   3 -24   4   16.70    2.60
  -3  24  -4   16.00    3.00
  -4 -24  -4   49.80    2.70
   4 -24   4   44.70    2.60
  -4 -24  -4   45.70    2.60
   4 -25  -4   78.59    3.40
   3 -25  -4    3.40    1.30
  -3 -25   4    3.90    1.80
  -2 -25   4    6.00    2.90
  -2  25   4    6.30    1.80
   1 -25  -4   40.40    4.80
  -1 -25   4   34.00    3.30
   1 -25  -4   27.10    3.00
  -1  25   4   24.90    2.80
   0 -25   4   29.80    3.10
   0 -25  -4   26.90    3.60
   0 -25  -4   29.60    3.10
   0  25   4   26.20    2.90
   1 -25   4    2.90    1.60
  -1 -25  -4   15.20    3.30
   1 -25   4    7.20    2.40
   1  25   4    3.70    1.60
  -2 -25  -4   24.40    2.70
  -2 -25  -4   23.60    2.90
   2 -25   4   20.00    2.50
   2 -25   4   26.80    3.10
   2  25   4   20.70    3.00
   3 -25   4    4.90    1.50
  -3 -25  -4    8.50    2.00
  -3 -25  -4    8.00    2.00
   3 -25   4   11.00    2.20
  -3  25  -4    4.90    2.50
   4 -26  -4    5.90    1.10
   3 -26  -4   33.50    2.60
  -3 -26   4   36.50    3.10
   2 -26  -4    5.90    1.40
  -2 -26   4    5.30    1.60
  -2  26   4    6.40    1.90
  -1 -26   4   39.70    4.30
   1 -26  -4   36.10    3.10
   1 -26  -4   37.80    4.90
  -1  26   4   32.70    3.00
   0 -26  -4   14.40    2.50
   0 -26  -4   12.00    4.20
   0 -26   4   13.70    2.80
   0  26  -4    9.70    2.10
   0  26   4   13.10    2.50
  -1 -26  -4   14.50    2.50
  -1 -26  -4   11.30    2.90
   1 -26   4   11.00    2.50
   1  26   4   12.70    2.60
  -2 -26  -4    3.40    1.50
   2 -26   4    1.50    1.40
   2 -26   4    4.60    1.90
  -2 -26  -4    3.40    1.50
   2  26   4    3.20    1.80
  -3 -26  -4   18.40    2.10
  -3 -26  -4   18.40    2.00
   3 -26   4   21.40    2.80
   3 -26   4   16.50    2.30
   3 -27  -4    5.10    1.20
  -3 -27   4    6.30    1.60
  -2 -27   4    8.50    1.70
   2 -27  -4    6.30    1.40
  -2  27   4    7.20    2.00
   1 -27  -4   16.10    2.40
  -1 -27   4   19.30    2.50
  -1  27   4   21.40    2.70
   0 -27   4    4.40    1.60
   0 -27  -4    4.80    1.50
   0 -27  -4    1.90    2.00
   0  27   4    0.70    1.50
   0  27  -4    3.70    2.10
  -1 -27  -4   11.20    2.30
  -1 -27  -4   11.30    2.70
   1 -27   4   13.50    2.30
   1  27   4    9.80    2.50
  -2 -27  -4   -0.30    1.30
  -2 -27  -4   -1.60    1.30
   2 -27   4    0.30    1.20
   2  27   4    0.50    1.80
   3 -27   4   17.10    2.20
  -3 -27  -4   13.00    3.00
  -3 -27  -4   21.70    2.20
   3 -28  -4    3.30    1.00
  -3 -28   4    2.60    1.60
  -2 -28   4    5.90    1.50
   2 -28  -4    7.70    1.90
  -2  28   4    8.20    2.20
  -1 -28   4   49.50    3.20
   1 -28  -4   49.99    2.90
  -1  28   4   46.80    3.70
   0 -28  -4    3.20    1.80
   0 -28  -4    3.50    1.40
   0 -28   4    1.20    1.30
   0  28  -4    6.20    2.40
   0  28   4    1.50    1.40
  -1 -28  -4    4.30    1.30
   1 -28   4    5.90    1.50
  -1 -28  -4    5.60    1.70
   1  28   4    1.80    1.50
   2 -28   4   13.00    2.10
  -2 -28  -4   11.10    2.10
  -2 -28  -4    6.10    1.30
   2  28   4    7.40    2.10
   3 -29  -4    0.50    0.90
   2 -29  -4    0.10    1.00
  -2 -29   4    1.50    1.30
  -1 -29   4    1.50    1.30
   1 -29  -4   -0.70    1.10
   1  29  -4    1.10    1.70
  -1  29   4    1.80    1.60
   0 -29  -4   -0.70    1.20
   0 -29  -4    1.50    1.90
   0 -29   4    1.00    1.20
   0  29   4    1.10    1.40
  -1 -29  -4   32.40    2.80
  -1 -29  -4   28.80    2.40
   1 -29   4   28.80    2.50
   1  29   4   33.30    2.80
  -2 -29  -4   22.00    2.20
  -2 -29  -4   21.50    2.70
  -2 -30   4    4.60    1.20
   2 -30  -4    3.20    1.00
  -1 -30   4    0.70    1.10
   1 -30  -4   -0.20    1.00
   1  30  -4   -0.50    1.90
  -1  30   4   -0.90    1.70
   0 -30  -4   24.30    2.20
   0 -30   4   27.80    2.30
   0 -30  -4   26.90    3.60
   0  30   4   27.40    2.70
  -1 -30  -4    1.10    1.10
   1 -30   4    2.80    1.10
  -1 -30  -4   -1.80    1.40
   1  30   4    2.10    1.70
  -2 -30  -4    3.40    1.20
   2 -30   4    4.20    1.20
  -2 -30  -4    1.40    1.10
   1 -31  -4    4.60    1.60
   0 -31   4    1.60    1.00
   0 -31  -4    2.50    1.00
   0  31   4    1.60    2.10
  -1 -31  -4   10.50    1.90
   1 -31   4    7.10    1.70
  -1 -31  -4    5.30    1.60
  -6   0   5   -0.30    1.40
  -6   0   5   -0.70    1.40
  -5   0   5  590.64   19.00
  -5   0   5  577.44   19.10
  -4   0   5    1.50    1.80
  -4   0   5   -1.80    1.60
  -4   0   5    3.10    2.20
  -3   0   5    4.80    2.30
  -2   0   5    4.40    1.10
  -2   0   5   -0.30    0.90
   2   0  -5    2.10    0.80
   1   0  -5  538.05   16.50
  -1   0   5  540.85   16.50
   0   0  -5    0.30    0.50
   0   0   5   -0.90    0.50
   1   0   5  840.22   25.00
  -1   0  -5  798.82   25.10
   2   0   5   -0.70    1.50
  -3   0  -5  261.17    9.90
  -3   0  -5  257.97    9.20
  -3   0  -5  236.18   10.10
  -3   0  -5  252.77    9.20
  -4   0  -5    0.30    1.50
  -4   0  -5    0.10    1.60
  -4   0  -5    0.20    3.20
  -4   0  -5    1.20    2.00
  -5   0  -5   15.10    2.80
  -5   0  -5   22.10    4.20
  -6   0  -5    1.20    1.10
  -6   0  -5   -0.40    1.30
  -6  -1   5    0.00    1.60
  -6  -1   5   -0.20    1.40
  -6   1   5    1.30    1.50
  -6   1   5    1.60    1.30
  -5  -1   5   38.00    3.90
  -5  -1   5   43.70    3.60
  -5   1   5   46.40    3.90
  -5   1   5   48.00    3.50
  -4  -1   5  126.09    5.80
  -4  -1   5  134.69    6.30
  -4  -1   5  133.19    5.50
  -4   1   5  133.39    5.50
  -4   1   5  128.19    5.90
  -4   1   5  124.49    6.10
  -3  -1   5   -0.70    2.00
  -3   1   5   -0.70    2.20
  -3   1   5    3.20    1.90
   2  -1  -5  755.92   23.20
  -2  -1   5  772.32   23.30
  -2  -1   5  774.12   23.60
  -2   1   5  769.42   23.20
   2   1  -5  776.02   23.30
  -2   1   5  769.62   23.60
  -1  -1   5  112.59    3.90
   1  -1  -5  111.59    3.90
   1   1  -5  106.09    3.90
  -1   1   5  106.29    3.80
   0  -1  -5  118.19    4.20
   0  -1   5  113.49    4.10
   0   1  -5  119.59    4.20
   0   1   5  115.79    4.10
   1  -1   5  272.37    8.70
  -1  -1  -5  260.17    8.80
  -1   1  -5  268.57    8.80
   1   1   5  261.77    8.70
   2  -1   5  408.76   13.10
   2   1   5  392.26   13.10
  -3  -1  -5    6.50    3.60
  -3  -1  -5   11.60    2.20
  -3  -1  -5   10.00    2.50
  -3  -1  -5   10.90    2.20
  -3   1  -5   10.90    2.80
  -3   1  -5   19.40    2.90
  -3   1  -5   12.10    2.30
  -3   1  -5   11.60    2.90
  -4  -1  -5    1.00    1.60
  -4  -1  -5    5.10    3.50
  -4  -1  -5   -1.70    2.10
  -4  -1  -5   -1.10    1.50
  -4   1  -5    0.90    1.70
  -4   1  -5   -3.90    1.60
  -4   1  -5   -2.10    2.20
  -4   1  -5    0.20    2.80
  -5  -1  -5   35.70    3.50
  -5  -1  -5   34.90    3.10
  -5   1  -5   33.50    5.00
  -5   1  -5   34.70    3.20
  -5   1  -5   29.70    4.20
  -6  -1  -5    0.90    1.50
  -6  -1  -5    2.10    1.70
  -6   1  -5    0.60    1.20
  -6   1  -5    0.70    1.00
  -6  -2   5    4.80    1.60
  -6  -2   5    0.70    1.70
  -6   2   5   -0.50    1.40
  -6   2   5    2.00    1.40
  -5  -2   5  133.09    6.20
  -5  -2   5  128.89    5.90
  -5  -2   5  129.09    6.50
  -5   2   5  137.39    6.10
  -5   2   5  134.29    5.90
  -4  -2   5   50.79    4.00
  -4  -2   5   54.39    4.70
  -4  -2   5   52.99    3.70
  -4   2   5   59.19    4.00
  -4   2   5   54.89    3.70
  -4   2   5   55.19    4.30
  -3  -2   5   87.89    4.80
  -3  -2   5   90.29    4.30
  -3   2   5   84.19    5.20
  -3   2   5   85.69    4.90
  -2  -2   5  371.66   11.90
  -2  -2   5  360.76   11.60
   2  -2  -5  385.56   11.60
  -2   2   5  376.56   11.40
   2   2  -5  373.16   11.70
  -2   2   5  365.36   11.90
   1  -2  -5   64.79    2.60
  -1  -2   5   67.69    2.70
  -1   2   5   66.29    2.60
   1   2  -5   66.69    2.70
   0  -2   5   16.70    1.30
   0  -2  -5   17.10    1.50
   0   2  -5   16.40    1.50
   0   2   5   15.60    1.30
   1  -2   5    9.30    1.40
  -1  -2  -5    9.50    1.90
  -1   2  -5    8.70    1.80
   1   2   5    9.20    1.50
   2  -2   5 3364.76  100.09
   2   2   5 3351.26  100.19
  -3  -2  -5   18.40    3.20
  -3  -2  -5   26.60    4.10
  -3  -2  -5   17.70    3.10
  -3   2  -5   25.60    4.10
  -3   2  -5   25.00    3.20
  -3   2  -5   28.90    4.50
  -3   2  -5   21.80    3.10
  -4  -2  -5   32.50    3.20
  -4  -2  -5   30.40    4.20
  -4  -2  -5   33.90    3.20
  -4   2  -5   31.00    3.30
  -4   2  -5   38.20    4.60
  -4   2  -5   29.40    3.10
  -4   2  -5   33.10    4.00
  -5  -2  -5    2.10    1.90
  -5  -2  -5    0.70    1.50
  -5   2  -5    1.00    2.10
  -5   2  -5    0.60    2.30
  -6  -2  -5    1.50    1.60
   6  -2   5   -0.20    1.80
  -6   2  -5    0.80    1.20
  -6  -3   5    0.60    1.60
  -6  -3   5   -0.50    1.60
  -6   3   5    1.20    1.30
  -6   3   5    2.90    1.50
  -5  -3   5  193.08    7.70
  -5  -3   5  187.08    7.90
  -5  -3   5  207.38    8.00
  -5   3   5  198.58    7.70
  -5   3   5  200.18    7.90
  -4  -3   5  290.17   10.40
  -4  -3   5  289.47   10.10
  -4  -3   5  288.07   10.80
  -4   3   5  287.47   10.40
  -4   3   5  297.17   10.20
  -4   3   5  293.27   10.60
  -3  -3   5    1.70    1.10
  -3  -3   5    2.10    2.40
  -3   3   5    6.00    2.30
  -3   3   5    1.00    1.60
  -3   3   5    3.90    2.50
   2  -3  -5 1562.24   45.80
  -2  -3   5 1522.45   46.20
  -2  -3   5 1576.54   46.40
  -2   3   5 1490.25   45.80
  -2   3   5 1542.85   46.40
   2   3  -5 1562.44   46.20
   1  -3  -5  448.76   14.50
  -1  -3   5  473.75   14.30
  -1   3   5  439.46   14.40
   1   3  -5  475.15   14.40
  -1   3   5  479.35   14.20
   0  -3  -5  352.56   11.00
   0  -3   5  340.17   11.00
   0   3   5  343.27   10.90
   0   3  -5  355.86   11.00
   1  -3   5   84.09    3.30
  -1  -3  -5   73.09    3.50
   1   3   5   85.89    3.40
  -1   3  -5   76.49    3.60
   2  -3   5  119.89    5.20
   2   3   5  121.49    5.30
  -3  -3  -5    0.60    2.00
  -3  -3  -5    1.80    1.90
  -3  -3  -5   -0.20    2.70
  -3   3  -5   -0.50    2.20
  -3   3  -5    6.30    2.70
  -3   3  -5   -0.40    1.70
  -3   3  -5    5.00    2.00
  -4  -3  -5   78.79    4.50
  -4  -3  -5   84.69    4.70
  -4  -3  -5   80.99    5.40
  -4   3  -5   85.89    4.60
  -4   3  -5   80.39    5.20
  -4   3  -5   82.59    4.50
  -4   3  -5   80.49    5.50
  -5  -3  -5   26.70    2.70
  -5  -3  -5   32.50    2.90
  -5  -3  -5   27.00    3.60
  -5   3  -5   33.60    2.90
  -5   3  -5   27.90    3.60
  -5   3  -5   31.50    3.30
   6  -3   5   87.89    4.20
  -6  -3  -5   86.49    4.10
  -6  -3  -5   82.69    3.80
  -6   3  -5   82.79    3.70
  -6  -4   5    1.80    1.90
  -6  -4   5    4.30    1.70
  -6   4   5    1.50    1.30
  -6   4   5    1.20    1.30
  -5  -4   5    1.30    2.40
  -5  -4   5    3.50    1.80
  -5  -4   5    1.60    2.10
  -5   4   5    2.10    1.90
  -5   4   5    2.50    1.80
  -4  -4   5   17.90    3.40
  -4  -4   5   18.90    2.70
  -4  -4   5   24.60    4.20
  -4   4   5   22.60    3.60
  -4   4   5   26.90    3.30
  -4   4   5   25.60    3.20
  -3  -4   5    9.70    2.50
  -3  -4   5    9.00    2.00
  -3   4   5    6.20    2.50
  -3   4   5    6.70    2.40
  -3   4   5    8.50    2.00
  -2  -4   5 1086.49   32.50
   2  -4  -5 1128.79   32.00
  -2  -4   5 1037.60   32.50
  -2   4   5 1057.59   32.50
   2   4  -5 1035.20   32.40
  -2   4   5 1089.39   31.90
  -1  -4   5  264.87    8.50
  -1  -4   5  257.57    8.60
  -1   4   5  263.77    8.70
   1   4  -5  259.67    8.50
  -1   4   5  266.57    8.30
   0  -4  -5   24.00    1.70
   0   4   5   22.40    1.50
   0   4  -5   24.20    1.70
   1  -4   5  551.54   17.10
  -1  -4  -5  517.45   17.30
   1   4   5  573.04   17.20
  -1   4  -5  561.24   17.30
   2  -4   5   -0.60    1.50
   2   4   5   -1.10    1.70
  -3  -4  -5   16.30    3.20
  -3  -4  -5    9.50    2.40
  -3  -4  -5   17.40    3.30
  -3   4  -5   15.50    3.00
  -3   4  -5    8.00    2.10
  -3   4  -5   11.90    3.10
  -3   4  -5   10.50    2.60
  -4  -4  -5   45.30    4.60
  -4  -4  -5   38.70    3.60
  -4  -4  -5   44.90    3.60
  -4   4  -5   41.90    3.40
  -4   4  -5   42.20    3.60
  -4   4  -5   51.99    4.50
  -4   4  -5   42.90    4.30
  -5  -4  -5   20.60    2.50
  -5  -4  -5   19.10    3.40
  -5  -4  -5   19.90    2.80
  -5   4  -5   19.80    3.00
  -5   4  -5   20.70    3.40
  -5   4  -5   16.10    2.40
  -6  -4  -5   17.90    3.40
  -6  -4  -5   15.10    1.80
  -6   4  -5   13.60    1.60
  -6   4  -5   18.20    2.10
  -6  -5   5   35.50    3.70
  -6  -5   5   42.60    3.30
  -6   5   5   43.70    2.90
  -6   5   5   40.00    3.00
  -5  -5   5   16.20    3.10
  -5  -5   5   15.80    3.80
  -5  -5   5   15.70    4.00
  -5   5   5   16.00    3.20
  -5   5   5   14.70    2.80
  -4  -5   5   92.59    5.60
  -4  -5   5   92.09    4.60
  -4  -5   5  100.89    5.00
  -4   5   5   78.69    5.40
  -4   5   5  102.09    4.70
  -3  -5   5    0.20    2.30
  -3  -5   5   -0.70    1.20
  -3   5   5    0.20    1.20
  -3   5   5    0.30    2.40
  -3   5   5   -0.10    2.30
  -2  -5   5  180.68    6.20
  -2  -5   5  175.68    6.20
   2  -5  -5  182.38    5.50
  -2   5   5  167.58    6.20
   2   5  -5  169.28    6.30
   1  -5  -5  895.71   29.20
  -1  -5   5  974.60   29.30
  -1  -5   5  976.40   29.20
  -1   5   5  987.70   29.00
   1   5  -5  989.90   29.30
  -1   5   5  965.40   29.20
   0  -5   5  408.96   12.90
   0  -5  -5  409.16   12.90
   0   5  -5  409.16   12.90
   0   5   5  411.66   12.80
   1  -5   5   -0.30    0.80
  -1  -5  -5   -0.70    1.20
   1   5   5    1.10    0.80
  -1   5  -5    1.50    1.20
   2  -5   5   51.19    3.50
   2   5   5   38.00    3.80
  -3  -5  -5    8.30    2.90
  -3  -5  -5    9.20    2.10
  -3  -5  -5    7.10    2.10
  -3   5  -5    9.30    2.10
  -3   5  -5   11.90    2.80
  -3   5  -5   16.40    3.00
  -3   5  -5   18.10    3.90
  -4  -5  -5   95.79    4.80
  -4  -5  -5   82.29    5.60
  -4  -5  -5   83.69    4.70
  -4   5  -5   86.59    4.50
  -4   5  -5   87.69    4.70
  -4   5  -5   84.99    5.20
  -4   5  -5   88.99    5.40
  -5  -5  -5   18.50    2.40
  -5  -5  -5   25.90    3.50
  -5  -5  -5   16.30    2.70
  -5   5  -5   22.80    3.10
  -5   5  -5   24.50    3.30
  -5   5  -5   19.40    2.50
  -6  -5  -5   49.99    2.60
  -6   5  -5   44.50    2.80
  -6   5  -5   48.00    2.40
  -6  -6   5   39.50    4.40
  -6  -6   5   48.20    3.40
  -6   6   5   49.99    3.10
  -6   6   5   46.60    2.90
  -5  -6   5   12.70    2.70
  -5  -6   5   23.50    3.40
  -5  -6   5   14.10    2.70
  -5   6   5   15.70    2.70
  -5   6   5   12.90    2.40
  -4  -6   5   99.19    7.80
  -4  -6   5  127.19    5.50
  -4  -6   5  118.39    6.60
  -4   6   5  142.49    6.40
  -4   6   5  121.59    6.10
  -4   6   5  130.69    5.60
  -3  -6   5    4.50    1.40
  -3  -6   5    5.10    2.30
  -3   6   5    3.90    2.30
  -3   6   5    1.90    1.40
  -3   6   5    3.60    2.20
  -2  -6   5   10.80    2.10
  -2  -6   5   12.50    1.80
   2   6  -5    7.60    1.60
  -2   6   5   12.60    1.90
  -1  -6   5   93.29    3.90
   1  -6  -5  101.29    3.60
  -1  -6   5   96.39    3.70
   1   6  -5   95.59    3.90
  -1   6   5   93.79    3.40
  -1   6   5   97.59    3.90
   0  -6   5   28.00    1.80
   0  -6  -5   25.80    2.10
   0   6   5   24.50    2.20
   0   6   5   28.80    1.80
   0   6  -5   27.40    2.00
   1  -6   5   84.29    3.70
  -1   6  -5   81.79    4.00
   1   6   5   85.39    3.70
  -2  -6  -5    0.20    2.30
   2  -6   5    1.70    1.90
  -2   6  -5    5.60    3.20
  -2   6  -5   -2.00    2.00
  -3  -6  -5    7.80    2.00
  -3  -6  -5    8.40    2.10
  -3  -6  -5    3.50    3.00
  -3   6  -5    6.00    1.90
  -3   6  -5    7.50    2.60
  -3   6  -5    8.40    2.70
  -3   6  -5    3.20    1.90
  -4  -6  -5   28.70    3.20
  -4  -6  -5   25.60    4.10
  -4  -6  -5   23.70    3.20
  -4   6  -5   25.00    3.00
  -4   6  -5   22.80    4.00
  -4   6  -5   25.10    4.00
  -5  -6  -5    1.70    1.30
  -5  -6  -5    0.90    2.10
  -5  -6  -5    2.00    1.40
  -5   6  -5    0.70    1.60
  -5   6  -5   -0.10    1.30
  -5   6  -5   -0.30    1.90
  -6  -6  -5   23.20    1.90
  -6   6  -5   18.70    2.10
  -6  -7   5   -1.50    2.10
  -6   7   5    1.70    1.30
  -6   7   5    2.20    1.20
  -5  -7   5   28.30    3.70
  -5  -7   5   22.40    4.10
  -5  -7   5   29.30    4.80
  -5   7   5   26.20    3.50
  -5   7   5   24.80    3.10
  -4  -7   5   31.30    5.30
  -4  -7   5   31.90    3.10
  -4  -7   5   38.90    4.10
  -4   7   5   38.60    3.70
  -4   7   5   34.60    3.40
  -4   7   5   31.20    3.90
  -3  -7   5   25.50    3.80
  -3  -7   5   30.30    2.50
  -3   7   5   34.70    4.10
  -3   7   5   29.20    3.90
  -3   7   5   31.80    2.70
  -2  -7   5   14.00    2.00
  -2  -7   5   17.50    2.30
  -2   7   5   15.20    2.00
  -1  -7   5  218.48    7.20
  -1  -7   5  207.88    7.20
   1  -7  -5  214.38    6.90
   1   7  -5  203.18    7.20
  -1   7   5  211.78    7.10
  -1   7   5  203.98    6.80
   0  -7   5  206.48    7.20
   0  -7  -5  213.58    7.30
   0   7   5  218.38    7.10
   0   7   5  208.88    7.20
   0   7  -5  217.68    7.30
   1  -7   5    8.50    1.90
   1   7   5    5.00    1.00
   1   7   5    6.50    1.70
   2  -7   5    8.80    2.30
  -2  -7  -5   10.70    2.30
  -2  -7  -5    2.80    2.20
  -2   7  -5    6.50    2.80
  -2   7  -5    3.20    3.90
  -2   7  -5    9.60    2.40
  -3  -7  -5    3.10    1.90
  -3  -7  -5    1.80    2.80
  -3  -7  -5   -1.40    1.80
  -3   7  -5    0.60    2.40
  -3   7  -5   -1.80    2.20
  -3   7  -5    1.70    1.80
  -3   7  -5   -0.80    1.80
  -4  -7  -5    4.30    2.80
  -4  -7  -5    3.70    1.80
  -4  -7  -5    4.10    1.90
  -4   7  -5    6.50    2.30
  -4   7  -5    4.00    2.40
  -4   7  -5    0.30    1.60
  -5  -7  -5    1.10    2.40
  -5  -7  -5   -0.50    1.30
  -5  -7  -5    1.00    1.30
  -5   7  -5   -1.60    1.70
  -5   7  -5    0.40    1.60
  -5   7  -5    0.70    1.20
  -6  -7  -5    1.40    1.00
  -6  -8   5   29.90    6.50
  -6   8   5   20.60    2.50
  -6   8   5   23.20    2.20
  -5  -8   5   22.80    4.10
  -5  -8   5   25.20    3.80
  -5   8   5   20.00    3.20
  -5   8   5   25.70    3.00
  -4  -8   5    7.30    2.50
  -4  -8   5    4.50    1.70
  -4   8   5    3.20    2.00
  -4   8   5    4.60    2.10
  -4   8   5    6.60    2.40
  -3  -8   5   31.20    2.60
  -3  -8   5   26.80    4.10
  -3   8   5   34.90    2.80
  -3   8   5   33.00    3.90
  -3   8   5   30.50    4.40
  -2  -8   5  459.25   15.40
  -2  -8   5  494.35   15.30
  -2   8   5  485.65   15.20
  -1  -8   5    1.80    0.80
  -1  -8   5    3.20    1.30
   1   8  -5    2.10    1.10
  -1   8   5    3.90    1.10
  -1   8   5    4.20    0.80
   0  -8   5   52.39    2.70
   0  -8  -5   50.99    3.00
   0   8   5   51.09    2.80
   0   8  -5   47.10    2.90
   0   8   5   53.69    2.60
   1  -8   5 1122.59   33.60
   1   8   5 1122.59   33.70
   1   8   5 1063.49   33.40
   2  -8   5   15.40    2.70
  -2  -8  -5   16.80    3.60
  -2  -8  -5   13.90    3.30
  -2   8  -5   16.30    2.80
  -2   8  -5   13.90    3.30
  -3  -8  -5  255.87   10.60
  -3  -8  -5  256.37    9.50
  -3  -8  -5  262.07    9.60
  -3   8  -5  266.87   10.00
  -3   8  -5  266.57    9.50
  -3   8  -5  264.87   10.10
  -4  -8  -5   56.09    5.20
  -4  -8  -5   53.89    3.80
  -4  -8  -5   57.99    3.90
  -4   8  -5   53.99    3.70
  -4   8  -5   51.79    4.30
  -4   8  -5   53.19    4.40
  -5  -8  -5   26.00    2.60
  -5  -8  -5   32.80    2.70
  -5  -8  -5   32.40    4.30
  -5   8  -5   34.60    3.10
  -5   8  -5   33.20    3.30
  -5   8  -5   27.30    2.60
  -6   9   5    7.80    1.90
  -6   9   5    8.40    2.10
  -5  -9   5   66.49    4.90
  -5  -9   5   73.49    4.90
  -5   9   5   67.29    4.10
  -5   9   5   74.39    4.50
  -4  -9   5   80.49    4.30
  -4  -9   5   78.99    5.10
  -4   9   5   86.19    4.80
  -4   9   5   82.79    5.00
  -4   9   5   83.49    4.80
  -3  -9   5   23.60    4.30
  -3  -9   5   16.50    2.30
  -3   9   5   20.60    2.60
  -3   9   5   22.30    4.10
  -3   9   5   22.50    3.80
  -2  -9   5   10.30    1.90
  -2  -9   5    9.80    1.80
  -2   9   5   11.80    1.90
  -1  -9   5  264.47    9.00
  -1  -9   5  263.37    8.90
  -1   9   5  278.17    8.90
  -1   9   5  264.97    8.60
   0  -9   5    3.60    1.60
   0  -9   5    1.20    0.90
   0   9   5    0.20    1.10
   0   9   5    0.40    0.90
   1  -9   5   46.70    3.20
   1   9   5   56.59    3.30
   1   9   5   54.39    3.30
  -2  -9  -5   13.20    3.20
  -2  -9  -5   11.00    2.40
   2  -9   5   10.20    2.70
  -2   9  -5   15.40    2.70
  -2   9  -5   13.50    2.90
  -2   9  -5   17.60    3.50
  -3  -9  -5   83.99    4.70
  -3  -9  -5   87.69    4.50
  -3  -9  -5   81.59    6.30
  -3   9  -5   78.19    5.00
  -3   9  -5   71.99    4.70
  -3   9  -5   80.79    5.60
  -4  -9  -5   25.00    3.20
  -4  -9  -5   24.50    5.10
  -4  -9  -5   21.00    3.10
  -4   9  -5   24.20    3.50
  -4   9  -5   33.10    3.10
  -4   9  -5   20.90    3.90
  -5  -9  -5    3.70    1.40
   5  -9   5    6.30    1.70
  -5  -9  -5    2.30    1.30
  -5   9  -5    3.20    1.20
  -5   9  -5    5.70    1.70
  -5   9  -5    7.00    1.80
  -6  10   5    0.20    1.10
  -6  10   5    0.00    1.20
   5 -10  -5   54.19    4.60
  -5 -10   5   61.49    4.80
  -5 -10   5   51.49    4.40
  -5  10   5   56.79    3.70
  -5  10   5   64.09    4.00
  -4 -10   5    2.90    1.80
  -4 -10   5    7.30    2.80
  -4  10   5    6.40    2.10
  -4  10   5   -0.80    2.20
  -4  10   5    0.40    2.10
   3 -10  -5    4.20    2.80
  -3 -10   5    6.90    3.00
  -3 -10   5    4.80    1.50
  -3  10   5    5.80    2.50
  -3  10   5    4.90    1.60
  -3  10   5    7.40    2.70
  -2 -10   5   66.49    3.30
  -2 -10   5   64.59    4.30
  -2  10   5   71.09    3.40
  -1 -10   5   -0.40    1.00
  -1 -10   5    1.00    1.30
  -1  10   5   -0.10    1.00
  -1  10   5    0.40    1.00
   0 -10   5  114.99    4.60
   0 -10   5  104.29    4.70
   0  10   5  115.49    4.50
   0  10   5  118.59    4.60
   1 -10   5   63.49    3.80
   1  10   5   66.29    3.50
   1  10   5   61.89    3.90
  -2 -10  -5   99.99    5.20
  -2 -10  -5  114.29    5.50
  -2  10  -5   95.19    5.50
  -2  10  -5  103.59    6.80
  -2  10  -5  104.39    5.40
  -3 -10  -5  154.88    6.50
  -3 -10  -5  151.98    8.40
  -3 -10  -5  156.38    6.60
  -3  10  -5  155.08    6.90
  -3  10  -5  159.98    7.10
  -3  10  -5  148.09    6.40
  -4 -10  -5   -1.10    3.20
  -4 -10  -5    0.00    1.80
  -4 -10  -5    1.50    1.60
  -4  10  -5    3.30    2.00
  -4  10  -5    3.30    1.80
  -4  10  -5    2.80    2.30
  -5 -10  -5    1.20    1.20
  -5 -10  -5    2.80    1.20
   5 -10   5    2.40    1.60
  -5  10  -5    2.80    1.60
  -5  10  -5    1.60    1.60
  -5  10  -5    1.90    1.20
  -6  11   5   21.90    2.00
  -6  11   5   16.60    2.20
  -5 -11   5    7.00    3.10
  -5 -11   5   13.00    2.60
  -5  11   5   12.70    2.90
  -5  11   5   10.90    2.60
  -4 -11   5  267.17   10.30
   4 -11  -5  260.57   10.00
  -4 -11   5  276.77    9.90
  -4  11   5  275.67   10.10
  -4  11   5  290.17   10.10
  -4  11   5  279.77   10.20
   3 -11  -5   -1.70    2.50
  -3 -11   5   -1.00    1.40
  -3 -11   5    4.20    2.90
  -3  11   5    0.70    1.50
  -3  11   5    0.30    2.30
  -3  11   5    0.70    2.60
  -2 -11   5  186.98    6.90
  -2  11   5  192.28    6.90
  -1 -11   5    1.20    1.20
  -1 -11   5   -0.40    1.30
  -1  11   5    0.10    1.10
  -1  11   5   -1.40    1.00
   0 -11   5 1073.39   34.10
   0 -11   5 1175.38   34.40
   0  11   5 1135.79   34.10
   0  11   5 1110.49   34.20
   1 -11   5  166.28    6.70
  -1  11  -5  158.28    7.00
   1  11   5  178.38    7.60
   1  11   5  155.48    6.10
  -2 -11  -5    1.20    1.90
  -2 -11  -5    2.50    2.10
  -2  11  -5    0.80    2.50
  -2  11  -5    1.60    3.40
   2  11   5    1.40    2.20
  -2  11  -5    3.30    2.10
  -3 -11  -5   -0.50    1.70
  -3 -11  -5    0.10    1.90
  -3  11  -5    0.90    2.50
  -3  11  -5    4.30    2.20
  -3  11  -5    2.40    1.80
  -4 -11  -5    4.10    1.80
  -4 -11  -5    2.20    1.60
  -4  11  -5    1.60    1.60
  -4  11  -5    2.40    2.00
  -4  11  -5    5.00    2.20
   5 -11   5    2.00    1.50
  -5 -11  -5    1.20    1.10
  -5 -11  -5    1.10    1.10
  -5  11  -5    0.20    1.60
  -5  11  -5   -1.80    1.40
  -6  12   5   28.30    2.20
  -6  12   5   26.50    2.50
   5 -12  -5   21.30    3.80
  -5 -12   5   21.20    4.00
  -5  12   5   21.60    3.30
  -5  12   5   21.00    2.70
   4 -12  -5    9.90    2.50
  -4 -12   5    4.20    3.10
  -4 -12   5    9.60    2.50
  -4  12   5    6.00    2.20
  -4  12   5    5.10    2.30
  -4  12   5    5.60    2.10
   3 -12  -5   -2.60    2.30
  -3 -12   5    3.60    3.00
  -3 -12   5   -1.10    1.30
  -3  12   5    0.90    1.60
  -3  12   5    0.80    2.70
  -3  12   5    2.80    2.30
  -2 -12   5   23.00    4.90
   2 -12  -5   16.40    3.80
  -2 -12   5   22.30    2.30
  -2  12   5   18.50    2.20
  -1 -12   5  181.88    6.60
  -1 -12   5  180.28    7.40
  -1  12   5  187.18    6.60
  -1  12   5  183.38    7.30
   0 -12   5  199.38    7.50
   0 -12   5  195.78    7.30
   0  12   5  217.08    7.20
   0  12   5  198.98    7.50
   1 -12   5   -1.60    2.10
  -1 -12  -5   -1.20    2.70
   1 -12   5    0.90    2.00
  -1 -12  -5   -0.50    2.20
   1  12   5    0.10    1.30
  -1  12  -5    1.20    2.30
  -2 -12  -5   52.89    3.90
  -2 -12  -5   54.89    4.10
  -2  12  -5   54.99    6.40
   2  12   5   48.60    3.90
  -2  12  -5   51.19    4.20
  -2  12  -5   49.90    4.30
  -3 -12  -5    2.00    1.80
  -3 -12  -5   -0.20    1.90
  -3  12  -5   -0.90    1.80
  -3  12  -5   -0.30    2.70
  -3  12  -5   -2.00    1.90
   4 -12   5   51.59    3.90
  -4 -12  -5   43.10    3.60
  -4 -12  -5   48.60    3.70
  -4  12  -5   53.99    4.20
  -4  12  -5   53.39    4.20
  -4  12  -5   50.79    3.40
   5 -12   5   16.10    2.60
  -5 -12  -5   17.80    2.20
  -5 -12  -5   14.50    2.10
  -5  12  -5   16.30    2.30
  -5  12  -5   19.60    2.80
  -6  13   5    6.60    1.50
  -6  13   5    3.50    1.20
   5 -13  -5   21.30    3.70
  -5 -13   5   14.10    2.70
  -5  13   5   15.50    2.60
  -5  13   5   17.90    3.20
  -4 -13   5    2.20    1.80
   4 -13  -5    3.60    2.30
  -4  13   5    4.60    2.20
  -4  13   5    3.10    2.20
  -4  13   5    2.10    2.20
  -3 -13   5   19.60    2.60
  -3 -13   5   17.70    3.60
   3 -13  -5   16.90    3.80
  -3  13   5   19.50    3.10
  -3  13   5   17.40    2.80
  -3  13   5   19.00    3.20
  -2 -13   5  133.59    8.20
   2 -13  -5  137.79    6.20
  -2 -13   5  143.99    5.50
  -2 -13   5  134.19    7.30
  -2  13   5  116.89    7.70
  -2  13   5  143.19    5.50
  -1 -13   5   82.09    3.90
  -1  13   5   84.89    3.80
   0 -13   5    0.40    2.50
   0 -13   5    0.70    1.60
   0 -13  -5   -1.10    2.40
   0  13   5   -0.80    1.10
   0  13   5    0.90    1.90
  -1 -13  -5    4.70    2.20
   1 -13   5    3.80    2.10
  -1 -13  -5    5.30    2.60
   1  13   5    5.10    1.50
  -1  13  -5    8.20    2.30
  -2 -13  -5   72.09    4.00
  -2 -13  -5   71.19    4.50
   2 -13   5   66.79    4.30
  -2  13  -5   62.19    6.90
   2  13   5   71.39    4.20
  -2  13  -5   65.99    4.50
  -2  13  -5   65.89    4.70
  -3 -13  -5    9.00    2.20
  -3 -13  -5    8.10    2.10
  -3  13  -5    8.60    2.20
  -3  13  -5   14.80    3.20
  -3  13  -5   12.90    3.00
  -4 -13  -5   69.39    4.20
  -4 -13  -5   75.99    4.20
   4 -13   5   68.99    4.20
  -4  13  -5   65.39    4.70
  -4  13  -5   70.59    4.00
  -4  13  -5   71.09    4.30
   5 -13   5    2.30    1.50
  -5 -13  -5    2.30    1.10
  -5 -13  -5    2.60    1.10
  -5  13  -5    1.60    1.40
  -5  13  -5    0.40    1.60
  -6  14   5    1.60    1.30
  -6  14   5   -0.30    1.40
  -5 -14   5   70.09    4.80
   5 -14  -5   72.79    4.30
  -5  14   5   64.19    3.70
  -5  14   5   62.79    4.00
  -4 -14   5   28.00    3.20
   4 -14  -5   27.10    3.80
  -4  14   5   32.90    4.20
  -4  14   5   25.70    4.00
  -4  14   5   29.50    3.80
  -3 -14   5  501.85   16.70
  -3  14   5  533.05   16.70
  -3  14   5  501.35   17.00
  -3  14   5  501.95   17.10
   2 -14  -5   66.59    4.40
  -2 -14   5   74.69    6.30
  -2 -14   5   72.79    3.70
  -2 -14   5   66.49    6.60
  -2  14   5   74.99    3.80
  -2  14   5   76.99    7.20
  -1 -14   5   56.79    3.20
   1 -14  -5   52.89    4.00
  -1 -14   5   45.40    5.10
  -1  14   5   56.69    3.10
   0 -14   5    3.40    2.10
   0 -14   5    2.70    1.70
   0 -14  -5    0.30    2.30
   0  14   5    2.70    1.30
   0  14  -5   -1.00    2.70
   0  14   5    1.30    2.30
  -1 -14  -5  163.58    7.40
  -1 -14  -5  163.78    6.80
   1 -14   5  175.58    6.90
  -1  14  -5  171.48    7.20
   1  14   5  172.98    6.40
  -2 -14  -5    3.40    1.80
  -2 -14  -5    3.50    2.00
   2 -14   5    3.40    2.00
   2  14   5    2.40    2.00
  -2  14  -5   -0.80    2.20
  -3 -14  -5  289.17   10.30
  -3 -14  -5  279.47   10.20
   3 -14   5  285.37   10.30
  -3  14  -5  282.77   10.50
  -3  14  -5  272.27   10.90
  -4 -14  -5   38.60    3.20
   4 -14   5   38.50    3.50
  -4 -14  -5   29.60    3.20
  -4  14  -5   38.90    3.50
  -5 -14  -5    0.20    1.00
   5 -14   5    1.60    1.40
  -5 -14  -5    0.50    0.90
  -5  14  -5   -0.70    1.30
  -5  14  -5   -0.80    1.80
  -6  15   5    0.70    1.30
  -6  15   5   -2.20    1.80
  -5 -15   5   59.69    5.30
   5 -15  -5   57.09    3.90
  -5  15   5   62.59    3.70
  -5  15   5   66.49    3.90
   4 -15  -5    4.80    2.20
  -4 -15   5    3.90    1.80
  -4  15   5    2.80    2.30
  -4  15   5   -1.60    2.30
  -4  15   5   -0.50    2.20
   3 -15  -5   51.99    4.30
  -3 -15   5   52.19    3.50
  -3  15   5   54.69    3.70
  -3  15   5   47.00    5.20
  -2 -15   5   77.39    4.00
  -2 -15   5   73.59    6.20
  -2 -15   5   84.29    6.90
   2 -15  -5   77.49    4.60
  -2  15   5   81.19    4.00
   1 -15  -5    4.80    2.10
  -1 -15   5    1.00    1.30
  -1 -15   5    4.50    2.60
   0 -15   5   15.10    3.40
   0 -15   5   17.30    3.00
   0 -15  -5   17.60    3.40
   0 -15  -5   11.10    3.60
   0  15   5   14.10    2.10
   0  15  -5   15.60    3.80
  -1 -15  -5   31.20    4.30
   1 -15   5   28.70    3.50
  -1 -15  -5   32.90    3.50
   1  15   5   30.40    2.80
  -1  15  -5   28.90    3.80
  -2 -15  -5   19.90    3.50
  -2 -15  -5   22.40    3.20
   2 -15   5   22.20    3.20
   2  15   5   20.00    3.30
  -2  15  -5   22.10    3.40
  -3 -15  -5    5.70    1.90
   3 -15   5    4.20    2.10
  -3 -15  -5    3.50    1.70
  -3  15  -5    5.00    2.90
  -3  15  -5    7.50    2.10
   4 -15   5    5.10    1.60
  -4  15  -5    3.90    2.40
  -5 -15  -5   34.40    2.30
  -5 -15  -5   40.90    2.50
   5 -15   5   34.80    2.90
  -5  15  -5   37.00    3.60
  -5  15  -5   40.50    2.50
   5 -16  -5   40.70    3.20
  -5 -16   5   40.90    4.30
  -5  16   5   38.90    3.20
  -5  16   5   33.10    3.40
  -4 -16   5   16.90    3.10
   4 -16  -5   17.70    3.30
  -4  16   5   28.60    4.10
  -4  16   5   22.10    4.30
  -4  16   5   23.20    4.10
   3 -16  -5  319.27   11.10
  -3 -16   5  331.17   11.10
  -3 -16   5  292.17   12.20
  -3  16   5  317.97   11.10
  -3  16   5  305.17   11.80
  -2 -16   5    1.60    2.90
  -2 -16   5    4.30    1.50
   2 -16  -5    5.80    2.00
  -2  16   5    2.00    1.50
  -1 -16   5   -0.40    2.20
   1 -16  -5    0.60    1.90
  -1 -16   5    3.50    1.40
  -1  16   5   -0.10    1.10
   0 -16   5   20.30    3.50
   0 -16  -5   13.60    2.30
   0 -16   5   12.40    2.20
   0 -16  -5   12.70    3.40
   0  16  -5   17.60    3.90
   0  16   5   17.70    2.30
  -1 -16  -5    1.00    2.40
   1 -16   5   -1.80    1.90
  -1 -16  -5    0.80    1.80
  -1  16  -5    2.30    2.30
   1  16   5    1.00    1.40
   2 -16   5  107.19    5.30
  -2 -16  -5  103.79    5.20
  -2 -16  -5  112.09    5.50
   2  16   5  111.29    5.30
  -2  16  -5  104.69    5.60
  -3 -16  -5  231.98    8.70
  -3 -16  -5  232.08    8.70
   3 -16   5  229.58    8.70
  -3  16  -5  225.08    9.00
  -4 -16  -5    1.70    1.50
   4 -16   5   -2.80    1.40
  -4 -16  -5    1.00    1.50
  -4  16  -5    1.50    1.60
  -4  16  -5    3.00    2.60
   5 -16   5    3.60    1.60
  -5 -16  -5    3.80    1.00
  -5 -16  -5    4.00    1.30
  -5  16  -5    1.80    1.20
   5 -17  -5   21.40    2.90
  -5 -17   5   29.00    4.30
  -5  17   5   26.30    2.90
  -5  17   5   25.10    3.60
   4 -17  -5   42.60    3.60
  -4 -17   5   35.90    3.50
  -4  17   5   45.50    5.60
  -4  17   5   54.39    4.90
  -4  17   5   47.50    4.20
  -3 -17   5   33.60    5.80
   3 -17  -5   30.10    3.50
  -3 -17   5   36.10    4.90
  -3  17   5   28.00    3.70
  -2 -17   5  258.77   10.40
   2 -17  -5  242.38   10.00
  -2 -17   5  260.47    9.40
  -2  17   5  278.17    9.40
  -1 -17   5  250.57    9.30
   1 -17  -5  244.28    9.10
  -1 -17   5  247.58    8.90
  -1  17   5  252.37    8.90
   0 -17   5   14.30    3.20
   0 -17   5   13.10    3.10
   0 -17  -5    8.80    2.20
   0 -17  -5   10.50    3.20
   0  17   5   17.40    2.40
   0  17  -5   12.50    2.70
  -1 -17  -5    1.50    2.30
  -1 -17  -5   -3.00    2.90
   1  17   5   -1.10    1.40
  -1  17  -5    1.00    2.30
  -2 -17  -5    8.10    2.00
  -2 -17  -5   10.70    2.30
   2 -17   5   13.50    3.00
  -2  17  -5   15.80    3.40
   2  17   5   11.40    2.30
   3 -17   5    0.60    1.60
  -3 -17  -5    0.90    1.70
  -3 -17  -5   -0.80    1.70
  -3  17  -5    1.50    1.90
  -4 -17  -5   45.80    3.30
   4 -17   5   49.99    3.30
  -4 -17  -5   49.30    3.20
  -4  17  -5   50.59    3.30
  -5 -17  -5    6.80    1.20
   5 -17   5    5.60    1.20
  -5 -17  -5    6.90    1.60
  -5  17  -5    4.30    1.20
  -5 -18   5   11.70    3.00
   5 -18  -5   11.60    2.60
  -5  18   5    4.30    1.90
   4 -18  -5    6.40    1.80
  -4 -18   5   10.30    2.10
  -4  18   5    2.20    3.00
  -4  18   5    3.90    2.70
  -3 -18   5   22.20    3.00
  -3 -18   5   28.00    5.00
   3 -18  -5   28.10    3.30
  -3  18   5   32.40    3.40
  -2 -18   5  291.47   10.40
  -2 -18   5  287.77   10.70
   2 -18  -5  306.37   10.50
  -2  18   5  292.27   10.40
   1 -18  -5   21.10    3.40
  -1 -18   5   25.50    3.00
  -1 -18   5   23.20    3.70
   1  18  -5   30.00    4.70
  -1  18   5   29.10    2.60
   0 -18   5   38.00    3.80
   0 -18   5   38.10    3.60
   0 -18  -5   33.90    5.10
   0 -18  -5   40.60    3.50
   0  18   5   41.50    3.00
   0  18  -5   40.20    4.50
  -1 -18  -5   20.10    3.80
   1 -18   5   13.20    3.10
  -1 -18  -5   13.90    3.10
   1  18   5   17.60    2.60
  -1  18  -5   15.90    3.80
  -2 -18  -5   18.70    3.40
   2 -18   5   21.30    3.20
  -2 -18  -5   20.20    3.10
   2  18   5   32.30    3.60
  -2  18  -5   22.60    3.70
  -3 -18  -5   62.89    4.00
  -3 -18  -5   65.09    4.10
   3 -18   5   63.89    4.00
  -3  18  -5   58.49    4.20
  -4 -18  -5    2.30    1.30
   4 -18   5    2.80    1.40
  -4 -18  -5    0.50    1.30
  -4  18  -5    1.10    1.50
  -5 -18  -5    1.30    1.10
   5 -18   5    0.50    1.20
   4 -19  -5   38.60    3.20
  -4 -19   5   33.50    3.40
  -3 -19   5   68.49    5.30
  -3 -19   5   62.09    4.10
   3 -19  -5   76.89    4.20
  -3  19   5   71.19    4.30
  -2 -19   5   92.59    5.40
  -2 -19   5   89.99    4.70
   2 -19  -5   79.99    4.70
  -2  19   5   91.39    4.60
   1 -19  -5  143.89    6.20
  -1 -19   5  147.39    6.30
  -1 -19   5  148.39    6.60
  -1  19   5  140.89    5.90
   0 -19   5   25.10    3.70
   0 -19   5   22.20    3.50
   0 -19  -5   28.50    3.30
   0 -19  -5   27.00    4.70
   0  19  -5   28.40    4.50
   0  19   5   30.60    2.70
   1 -19   5    2.40    1.80
  -1 -19  -5    6.90    1.90
  -1 -19  -5   10.30    2.50
   1  19   5    7.30    1.90
  -1  19  -5    9.20    2.50
  -2 -19  -5   19.60    3.00
   2 -19   5   25.30    3.70
  -2 -19  -5   14.10    3.20
   2 -19   5   19.50    3.00
   2  19   5   23.50    3.40
  -2  19  -5   23.50    3.40
  -3 -19  -5   14.10    2.90
   3 -19   5   14.90    2.80
  -3 -19  -5   17.80    2.80
  -3  19  -5   22.80    3.20
   4 -19   5    0.60    1.40
  -4 -19  -5   -0.30    1.20
  -4 -19  -5    0.90    1.20
   4 -19   5    3.30    1.40
  -4  19  -5   -0.30    1.40
   5 -20  -5    2.50    1.50
  -4 -20   5    5.90    1.70
   4 -20  -5    5.30    1.60
  -3 -20   5    0.10    2.50
  -3 -20   5    1.20    1.60
   3 -20  -5   -0.50    1.70
  -3  20   5   -1.80    1.80
   2 -20  -5    1.50    1.70
  -2 -20   5   -1.70    2.20
  -2  20   5    0.30    2.20
   1 -20  -5   16.10    2.90
  -1 -20   5   18.50    2.90
  -1 -20   5   11.50    2.50
   0 -20   5    7.30    2.40
   0 -20  -5    5.60    2.70
   0 -20   5    7.00    2.10
   0 -20  -5    6.30    1.90
   0  20  -5    1.60    3.00
   0  20   5    4.80    1.50
   1 -20   5    8.00    2.00
  -1 -20  -5    9.50    2.40
  -1 -20  -5    7.30    2.00
   1  20   5   10.00    2.10
  -1  20  -5    9.00    2.60
  -2 -20  -5    0.70    1.90
   2 -20   5    1.20    2.30
  -2 -20  -5    0.90    1.60
   2 -20   5    3.40    1.70
   2  20   5    2.90    1.90
  -2  20  -5    1.80    2.00
   3 -20   5  102.29    4.80
  -3  20  -5  101.49    5.70
   4 -20   5    2.50    1.40
  -4 -20  -5   -0.20    1.10
  -4 -20  -5    1.10    1.20
   4 -20   5    2.50    1.30
  -4  20  -5    2.20    1.50
   5 -21  -5    5.40    1.70
   4 -21  -5    0.10    1.40
  -4 -21   5    1.70    1.80
   3 -21  -5    0.00    1.70
  -3 -21   5    6.80    2.40
  -3 -21   5    0.60    1.60
  -3  21   5    1.90    1.90
  -2 -21   5   13.10    3.40
  -2 -21   5    7.20    1.80
   2 -21  -5   13.20    3.00
  -2  21   5   12.90    2.70
   1 -21  -5  122.19    5.40
  -1 -21   5  117.79    5.70
  -1 -21   5  126.09    5.70
  -1  21   5  103.39    6.00
   0 -21   5   17.00    3.20
   0 -21  -5   15.20    2.80
   0 -21  -5   21.50    4.50
   0  21  -5   16.50    3.50
   0  21   5   14.00    2.60
  -1 -21  -5    1.80    2.00
  -1 -21  -5    0.70    1.80
   1 -21   5    1.00    2.00
   1  21   5    0.00    1.50
  -1  21  -5    3.60    2.50
  -2 -21  -5   18.70    3.20
   2 -21   5   13.60    2.60
  -2 -21  -5   15.50    3.00
   2 -21   5   18.10    2.90
   2  21   5   15.10    3.10
  -2  21  -5   19.10    3.40
  -3 -21  -5   60.29    3.60
  -3 -21  -5   59.39    3.50
   3 -21   5   61.49    3.60
   3 -21   5   54.89    3.70
  -3  21  -5   56.49    3.80
   4 -21   5    1.90    1.40
  -4 -21  -5   -0.50    1.10
  -4 -21  -5    1.80    1.20
  -4  21  -5   -0.10    1.20
  -4 -22   5    3.20    1.80
   4 -22  -5    0.60    1.30
  -3 -22   5   35.30    3.30
   3 -22  -5   41.30    3.50
  -3 -22   5   39.60    4.20
  -3  22   5   38.70    3.80
  -2 -22   5    5.00    2.00
   2 -22  -5   -2.40    1.60
  -2 -22   5   -1.60    1.50
  -2  22   5    1.20    1.60
  -1 -22   5   18.40    3.30
   1 -22  -5   21.60    3.00
  -1 -22   5   14.50    3.20
  -1  22   5   12.50    2.50
   0 -22   5    8.90    2.00
   0 -22  -5   16.50    2.70
   0 -22  -5   10.50    2.80
   0  22   5   14.70    2.60
   1 -22   5  415.76   13.70
  -1 -22  -5  401.56   13.60
  -1 -22  -5  396.86   13.60
   1  22   5  379.76   13.50
  -1  22  -5  409.46   13.90
  -2 -22  -5  201.08    7.60
   2 -22   5  200.78    7.60
  -2 -22  -5  193.48    7.60
  -2  22  -5  195.58    7.90
   2  22   5  189.18    7.60
   3 -22   5  225.48    8.10
  -3 -22  -5  228.78    8.20
  -3 -22  -5  226.28    8.20
   3 -22   5  225.88    8.10
  -3  22  -5  230.98    8.30
  -4 -22  -5    0.00    1.00
   4 -22   5    3.00    1.30
   4 -22   5    0.30    1.30
  -4  22  -5    1.00    1.30
   4 -23  -5   28.80    2.50
  -3 -23   5   32.80    3.70
  -3 -23   5   25.70    3.00
   3 -23  -5   30.60    2.90
  -3  23   5   31.10    3.60
   2 -23  -5   41.70    3.30
  -2 -23   5   38.40    3.50
  -2 -23   5   36.80    3.80
  -2  23   5   38.40    3.20
  -1 -23   5   17.40    3.30
   1 -23  -5   16.70    3.00
  -1 -23   5   18.70    3.30
  -1  23   5   12.30    2.40
   0 -23  -5  137.89    6.60
   0 -23   5  141.69    6.10
   0 -23  -5  135.09    5.90
   0  23   5  123.09    5.70
   1 -23   5   54.89    3.80
  -1 -23  -5   49.60    4.10
  -1 -23  -5   49.40    3.60
   1  23   5   43.70    3.40
  -1  23  -5   49.10    4.80
   2 -23   5   18.80    3.50
  -2  23  -5   17.50    3.60
   2  23   5   18.00    3.20
  -3 -23  -5   23.20    2.40
   3 -23   5   26.30    2.90
  -3 -23  -5   25.90    2.60
   3 -23   5   24.20    2.60
  -3  23  -5   22.20    2.80
  -4 -23  -5    0.70    1.10
   4 -23   5    2.10    1.50
  -4 -23  -5    1.10    1.00
  -4  23  -5   -1.70    1.40
   4 -24  -5   20.30    2.20
   3 -24  -5   18.70    2.50
  -3 -24   5   18.80    2.80
  -3 -24   5   21.60    3.30
  -3  24   5   19.10    3.50
  -2 -24   5   24.00    3.20
   2 -24  -5   28.80    2.80
  -2  24   5   23.20    2.90
  -1 -24   5   -0.20    1.70
   1 -24  -5   -2.20    1.50
  -1  24   5    1.40    1.30
   0 -24  -5   10.50    2.00
   0 -24   5    9.30    2.10
   0 -24  -5   12.00    2.70
   0  24   5   11.10    2.40
  -1 -24  -5   24.80    3.60
   1 -24   5   24.80    3.00
  -1 -24  -5   18.50    2.80
   1  24   5   24.00    2.70
  -2 -24  -5   46.30    3.20
  -2 -24  -5   45.00    3.30
   2 -24   5   44.30    4.00
   2 -24   5   44.10    3.30
   2  24   5   50.99    3.70
  -2  24  -5   43.50    3.80
   3 -24   5   32.40    2.50
  -3 -24  -5   31.50    2.60
  -3 -24  -5   31.90    2.50
  -3  24  -5   29.20    3.10
   4 -25  -5   24.00    2.20
  -3 -25   5    8.40    2.00
   3 -25  -5    8.00    1.90
  -3  25   5    6.60    2.50
   2 -25  -5   33.80    2.90
  -2 -25   5   33.80    3.20
  -2  25   5   33.00    3.20
  -1 -25   5   55.09    3.60
   1 -25  -5   54.79    3.60
  -1  25   5   50.89    3.40
   0 -25   5  123.99    5.40
   0 -25  -5  121.89    5.30
   0  25   5  113.59    5.30
  -1 -25  -5    0.70    1.90
   1  25   5   -2.30    1.40
  -2 -25  -5    0.10    1.40
  -2 -25  -5    2.20    1.40
   2 -25   5    2.70    1.30
  -2  25  -5   -0.40    2.50
   2  25   5    4.20    2.00
  -3 -25  -5   -0.10    1.00
  -3 -25  -5    0.40    1.10
   3 -25   5   -1.10    1.10
  -3  25  -5   -2.10    2.20
   4 -26  -5   15.80    2.10
  -3 -26   5    5.60    1.90
   3 -26  -5    2.90    1.20
   2 -26  -5    0.40    1.30
  -2 -26   5   -1.10    1.50
  -2  26   5    3.90    1.70
  -1 -26   5   13.40    2.50
   1 -26  -5   14.40    2.30
  -1  26   5   10.90    2.50
   0 -26  -5   48.10    4.10
   0 -26  -5   43.50    3.10
   0 -26   5   40.40    3.20
   0  26   5   41.40    3.10
   0  26  -5   44.70    4.20
   1 -26   5   -1.90    1.40
  -1 -26  -5    1.00    1.70
  -1 -26  -5   -0.90    1.20
   1  26   5    0.30    1.50
  -2 -26  -5    3.20    1.40
  -2 -26  -5    0.00    1.20
   2 -26   5    2.50    1.20
   2  26   5    1.20    2.00
  -3 -26  -5    2.60    1.80
   3 -26   5   -0.70    1.20
  -3 -26  -5    1.30    1.10
   3 -27  -5    1.30    1.00
  -3 -27   5    2.40    1.90
  -2 -27   5   48.60    3.40
   2 -27  -5   47.70    2.90
  -2  27   5   52.69    3.60
  -1 -27   5    6.00    1.50
   1 -27  -5    8.30    1.50
  -1  27   5    7.10    1.70
   0 -27  -5  115.29    4.80
   0 -27   5  110.29    5.00
   0 -27  -5  111.69    5.70
   0  27   5  105.39    4.90
  -1 -27  -5   25.20    2.30
  -1 -27  -5   19.60    2.90
   1 -27   5   19.60    2.30
   1  27   5   20.50    3.90
  -2 -27  -5   16.30    2.30
  -2 -27  -5   15.10    2.00
   2 -27   5   21.30    2.20
   2  27   5   20.40    3.70
  -3 -27  -5   -0.40    1.00
  -2 -28   5   14.00    2.30
   2 -28  -5   13.70    1.90
  -2  28   5   17.30    2.90
   1 -28  -5   13.90    2.20
  -1 -28   5   18.30    2.30
  -1  28   5   20.00    2.60
   0 -28  -5   32.60    2.60
   0 -28   5   36.60    2.70
   0 -28  -5   29.90    4.00
   0  28   5   30.70    2.70
  -1 -28  -5   76.19    4.00
   1 -28   5   80.39    3.80
  -1 -28  -5   82.49    3.70
   1  28   5   84.69    4.00
  -2 -28  -5   15.80    1.90
   2 -28   5   16.60    2.00
  -2 -29   5   41.10    4.50
   2 -29  -5   59.49    2.80
   1 -29  -5   20.80    2.10
  -1 -29   5   24.00    2.30
   1  29  -5   28.50    3.40
  -1  29   5   23.40    2.80
   0 -29   5    7.70    2.00
   0 -29  -5    4.30    1.20
   0  29   5    7.10    1.60
   1 -29   5   12.10    2.10
  -1 -29  -5   13.60    1.90
  -1 -29  -5   10.80    2.60
   1  29   5    8.80    1.90
  -2 -29  -5   16.20    2.20
   2 -29   5   13.90    1.90
  -2 -29  -5   10.70    1.70
  -2 -30   5    9.20    2.20
  -1 -30   5   15.10    2.10
   1 -30  -5   14.40    1.80
  -1  30   5   14.90    2.80
   0 -30   5   29.40    2.30
   0  30   5   28.70    2.80
  -1 -30  -5   50.69    3.60
  -1 -30  -5   55.79    2.80
  -1 -31   5  140.39    5.10
   0 -31   5   52.89    2.70
   0 -31  -5   49.80    2.60
  -6   0   6   10.70    2.60
  -6   0   6   12.00    2.10
  -5   0   6    1.20    1.70
  -5   0   6    0.20    2.30
  -5   0   6    2.10    1.60
  -4   0   6    9.10    2.10
  -4   0   6   12.10    2.50
  -3   0   6    4.30    2.20
  -3   0   6    2.90    1.10
  -3   0   6    0.00    2.10
   2   0  -6  274.17    9.10
  -2   0   6  273.47    9.20
  -2   0   6  281.17    9.00
  -1   0   6   -1.50    0.70
   1   0  -6    0.10    1.00
  -1   0   6   -1.60    1.00
   0   0  -6   25.50    2.20
   0   0   6   26.70    1.80
   1   0   6   -1.30    1.00
  -2   0  -6  325.87   11.80
  -2   0  -6  333.47   11.40
  -3   0  -6    0.60    1.60
  -3   0  -6    4.30    3.30
  -3   0  -6   -0.10    2.50
  -3   0  -6   -1.50    2.00
  -4   0  -6    7.10    3.60
  -4   0  -6    3.30    1.70
  -4   0  -6    6.10    2.10
  -4   0  -6    0.70    1.60
  -5   0  -6    0.50    1.30
  -5   0  -6   -1.00    1.50
  -5   0  -6    0.40    1.20
  -6  -1   6    2.80    1.50
  -6  -1   6    3.80    1.50
  -6   1   6    2.30    1.30
  -6   1   6    1.90    1.40
  -5  -1   6   14.00    2.60
  -5  -1   6   14.20    2.80
  -5  -1   6   21.70    3.30
  -5   1   6   19.50    3.30
  -5   1   6   18.50    3.90
  -5   1   6   17.70    2.80
  -4  -1   6  206.28    8.20
  -4  -1   6  207.88    7.80
  -4   1   6  199.38    8.10
  -4   1   6  216.88    9.70
  -4   1   6  214.88    7.80
  -3  -1   6  154.78    6.50
  -3  -1   6  145.29    6.70
  -3  -1   6  155.88    5.90
  -3   1   6  154.68    6.50
  -3   1   6  148.79    6.60
  -3   1   6  159.18    5.90
   2  -1  -6  247.88    8.30
  -2  -1   6  255.07    8.40
  -2  -1   6  259.67    8.60
   2   1  -6  248.28    8.50
  -2   1   6  255.57    8.30
  -2   1   6  254.87    8.50
   1  -1  -6   36.00    2.20
  -1  -1   6   32.60    2.10
  -1  -1   6   34.10    2.40
  -1   1   6   33.10    2.10
   1   1  -6   32.50    2.30
  -1   1   6   37.40    2.40
   0  -1  -6   33.90    2.30
   0  -1   6   35.90    2.10
   0   1  -6   33.00    2.20
   0   1   6   36.10    2.00
   1  -1   6   53.49    2.90
   1   1   6   50.59    2.90
  -2  -1  -6 1446.56   45.40
  -2  -1  -6 1465.55   45.00
  -2   1  -6 1539.75   45.20
  -2   1  -6 1471.35   45.40
  -3  -1  -6  274.07   10.60
  -3  -1  -6  284.97    9.90
  -3  -1  -6  271.67    9.90
  -3   1  -6  277.07   10.50
  -3   1  -6  267.17   10.50
  -3   1  -6  279.97    9.90
  -3   1  -6  274.47   10.00
  -4  -1  -6   10.80    2.50
  -4  -1  -6   23.30    2.80
  -4  -1  -6   19.30    3.00
  -4   1  -6   14.30    3.20
  -4   1  -6   19.40    3.80
  -4   1  -6   21.80    2.90
  -4   1  -6   13.10    2.80
  -5  -1  -6    1.40    1.60
  -5  -1  -6    1.20    1.40
  -5  -1  -6    1.40    1.30
  -5   1  -6    1.60    1.60
  -5   1  -6    2.50    1.20
  -6  -2   6   22.70    2.90
  -6  -2   6   26.20    2.60
  -6   2   6   22.70    2.60
  -6   2   6   28.80    2.50
  -5  -2   6   80.69    4.40
  -5  -2   6   76.09    4.80
  -5  -2   6   82.69    4.70
  -5   2   6   72.39    5.00
  -5   2   6   84.89    4.60
  -5   2   6   79.79    4.50
  -4  -2   6    7.60    2.00
  -4  -2   6    6.30    1.80
  -4   2   6    7.50    1.90
  -4   2   6    6.50    2.10
  -4   2   6    8.10    2.20
  -3  -2   6  114.49    4.70
  -3  -2   6  110.19    5.90
  -3  -2   6  112.99    5.30
  -3   2   6  105.69    5.40
  -3   2   6  112.49    4.70
  -3   2   6  112.69    5.70
   2  -2  -6   17.60    2.20
  -2  -2   6   16.40    2.10
  -2  -2   6   17.10    1.90
  -2   2   6   16.20    1.80
   2   2  -6   17.10    2.50
  -2   2   6   16.80    1.90
   1  -2  -6   38.00    2.40
  -1  -2   6   36.90    2.20
  -1  -2   6   34.80    2.30
   1   2  -6   39.10    2.50
  -1   2   6   37.80    2.40
  -1   2   6   36.60    2.10
   0  -2  -6   51.19    2.90
   0  -2   6   51.19    2.50
   0   2  -6   48.60    2.70
   0   2   6   48.50    2.50
   1  -2   6  306.97   10.10
   1   2   6  304.17   10.10
  -2  -2  -6    3.30    2.20
  -2  -2  -6    3.20    3.20
  -2  -2  -6    4.20    2.30
  -2   2  -6    2.70    1.90
  -2   2  -6    2.90    1.90
  -3  -2  -6   48.70    3.70
  -3  -2  -6   50.49    3.80
  -3  -2  -6   46.60    5.20
  -3   2  -6   47.40    5.10
  -3   2  -6   47.10    4.50
  -3   2  -6   47.60    3.70
  -3   2  -6   45.50    3.60
  -4  -2  -6   15.80    2.90
  -4  -2  -6   16.90    2.70
  -4  -2  -6   27.00    3.90
  -4   2  -6   21.80    2.90
  -4   2  -6   14.00    2.50
  -4   2  -6   18.50    3.00
  -4   2  -6   18.30    3.20
  -5  -2  -6    5.50    1.70
  -5  -2  -6    5.30    1.40
  -5  -2  -6    4.10    1.30
  -5   2  -6    4.70    1.30
  -5   2  -6    5.40    1.60
  -6  -3   6    2.00    1.50
  -6  -3   6   -2.40    1.60
  -6   3   6    0.80    1.20
  -6   3   6   -0.20    1.30
  -5  -3   6  114.89    5.90
  -5  -3   6  129.19    5.60
  -5  -3   6  120.99    6.00
  -5   3   6  110.19    6.20
  -5   3   6  112.89    5.60
  -5   3   6  121.09    5.50
  -4  -3   6   95.99    5.00
  -4  -3   6  100.09    4.70
  -4   3   6   94.89    5.20
  -4   3   6   92.59    4.90
  -4   3   6  102.89    4.80
  -3  -3   6    3.10    2.60
  -3  -3   6   -1.20    1.20
  -3  -3   6    5.20    2.20
  -3   3   6    1.80    2.30
  -3   3   6    2.20    2.10
  -3   3   6   -0.10    1.10
   2  -3  -6   38.00    3.00
  -2  -3   6   35.20    2.40
  -2  -3   6   33.80    2.50
  -2   3   6   35.70    2.10
   2   3  -6   31.70    3.20
  -2   3   6   34.30    2.40
  -1  -3   6  284.87    9.30
  -1  -3   6  292.57    9.40
   1  -3  -6  291.27    9.30
   1   3  -6  275.87    9.40
  -1   3   6  282.37    9.10
  -1   3   6  285.17    9.30
   0  -3   6   78.89    3.40
   0  -3  -6   75.39    3.50
   0   3   6   76.29    3.30
   0   3  -6   77.79    3.50
   1  -3   6   48.20    3.00
   1   3   6   62.29    3.10
  -2  -3  -6   33.70    4.00
  -2  -3  -6   33.50    4.10
  -2  -3  -6   41.10    5.30
  -2   3  -6   35.30    3.70
  -2   3  -6   33.20    4.80
  -2   3  -6   36.90    4.00
  -3  -3  -6   35.00    3.40
  -3  -3  -6   31.70    3.30
  -3  -3  -6   25.20    4.40
  -3   3  -6   32.80    3.30
  -3   3  -6   39.20    3.40
  -3   3  -6   27.90    4.10
  -3   3  -6   35.40    4.40
  -4  -3  -6   67.69    4.20
  -4  -3  -6   73.89    5.10
  -4  -3  -6   72.89    4.20
  -4   3  -6   77.89    5.00
  -4   3  -6   74.99    4.20
  -4   3  -6   74.49    4.30
  -4   3  -6   77.29    5.40
  -5  -3  -6    5.10    1.40
  -5  -3  -6    4.50    1.50
  -5  -3  -6    3.10    1.80
  -5   3  -6    3.40    1.60
  -5   3  -6    5.00    1.30
  -5   3  -6    3.10    2.30
  -6  -4   6    4.50    1.90
  -6  -4   6   -1.50    1.50
  -6   4   6    0.90    1.30
  -6   4   6   -0.20    1.20
  -5  -4   6   44.70    4.30
  -5  -4   6   48.20    3.70
  -5  -4   6   36.40    4.00
  -5   4   6   41.40    3.60
  -5   4   6   46.40    3.50
  -5   4   6   43.90    4.90
  -4  -4   6   22.00    3.20
  -4  -4   6   24.10    2.70
  -4  -4   6   27.80    5.50
  -4   4   6   25.00    3.20
  -4   4   6   27.10    3.60
  -4   4   6   28.20    3.00
  -3  -4   6  397.66   14.00
  -3  -4   6  408.76   13.50
  -3   4   6  403.96   13.50
  -3   4   6  397.66   13.10
  -3   4   6  401.36   13.70
  -2  -4   6  159.78    5.80
   2  -4  -6  156.38    5.40
  -2  -4   6  156.18    5.90
  -2   4   6  161.28    5.80
  -2   4   6  158.38    5.30
   2   4  -6  154.58    6.20
  -1  -4   6  984.00   30.90
   1  -4  -6 1028.80   30.80
  -1  -4   6 1056.29   31.00
  -1   4   6  995.30   30.90
   1   4  -6 1006.50   31.00
  -1   4   6 1048.90   30.80
   0  -4  -6   38.40    2.70
   0  -4   6   36.30    2.30
   0   4   6   32.40    2.60
   0   4   6   38.00    2.20
   0   4  -6   35.10    2.60
   1  -4   6   20.70    2.30
   1   4   6   20.40    2.40
  -2  -4  -6   20.80    5.10
  -2  -4  -6   15.90    3.60
  -2  -4  -6   21.50    3.60
  -2   4  -6   14.10    3.70
  -2   4  -6   26.40    4.40
  -2   4  -6   19.40    3.40
  -3  -4  -6   11.30    3.00
  -3  -4  -6    3.50    2.20
  -3   4  -6    8.80    2.80
  -4  -4  -6   14.00    2.70
  -4  -4  -6   13.90    2.70
  -4  -4  -6   15.90    2.90
  -4   4  -6   11.90    3.00
  -4   4  -6   15.50    3.50
  -4   4  -6   16.70    2.80
  -4   4  -6   11.20    2.80
  -5  -4  -6   20.60    2.30
  -5  -4  -6   18.70    2.40
  -5  -4  -6   20.80    3.30
  -5   4  -6   21.20    3.50
  -5   4  -6   20.40    2.30
  -5   4  -6   19.30    2.90
  -6  -5   6    2.30    2.10
  -6  -5   6    2.00    1.60
  -6   5   6   -0.10    1.20
  -6   5   6    1.00    1.20
  -5  -5   6   10.10    2.30
  -5  -5   6   12.40    2.50
  -5  -5   6   14.60    3.10
  -5   5   6   12.30    2.20
  -5   5   6   18.40    3.10
  -4  -5   6   18.70    2.70
  -4  -5   6   15.90    3.10
  -4  -5   6   20.00    3.10
  -4   5   6   14.60    3.40
  -4   5   6   19.70    2.90
  -4   5   6   19.00    3.00
  -3  -5   6  144.39    6.10
  -3  -5   6  140.29    5.50
  -3  -5   6  133.29    7.10
  -3   5   6  132.39    5.40
  -3   5   6  143.79    6.20
  -3   5   6  137.09    6.10
  -2  -5   6  173.38    6.50
  -2  -5   6  176.98    6.30
  -2   5   6  176.88    6.30
   1  -5  -6   23.30    2.10
  -1  -5   6   20.90    1.90
  -1  -5   6   20.70    2.10
  -1   5   6   15.40    1.90
   1   5  -6   18.70    2.50
  -1   5   6   20.90    1.70
   0  -5   6   -0.40    0.80
   0  -5  -6    1.40    1.20
   0   5   6    0.20    0.90
   0   5  -6    0.10    1.30
   0   5   6    1.10    1.20
   1  -5   6    8.20    1.60
   1   5   6    9.60    1.60
  -2  -5  -6   43.30    3.80
  -2  -5  -6   44.60    5.00
  -2  -5  -6   38.20    3.90
  -2   5  -6   46.40    4.60
  -2   5  -6   39.60    3.80
  -2   5  -6   37.00    4.20
  -2   5  -6   36.20    4.50
  -3  -5  -6    9.20    2.10
  -3  -5  -6    9.00    3.40
  -3  -5  -6   13.00    3.80
  -3   5  -6   13.30    2.40
  -3   5  -6    7.40    3.30
  -3   5  -6    9.70    3.60
  -3   5  -6    8.70    1.90
  -4  -5  -6   52.49    4.50
  -4  -5  -6   47.50    3.70
  -4  -5  -6   44.10    3.60
  -4   5  -6   46.20    4.40
  -4   5  -6   49.10    3.60
  -4   5  -6   49.40    4.40
  -5  -5  -6    1.90    1.90
  -5  -5  -6    1.60    1.30
  -5  -5  -6    0.10    1.20
  -5   5  -6    1.50    1.50
  -5   5  -6   -0.90    1.20
  -5   5  -6    0.50    2.00
  -6  -6   6    6.10    1.80
  -6   6   6    2.40    1.30
  -6   6   6    5.00    1.30
  -5  -6   6  151.38    7.00
  -5  -6   6  161.28    6.70
  -5  -6   6  145.89    6.60
  -5   6   6  153.28    6.40
  -5   6   6  158.68    6.70
  -4  -6   6   16.40    3.10
  -4  -6   6   14.40    2.60
  -4  -6   6   16.20    3.20
  -4   6   6   12.40    3.00
  -4   6   6   16.90    3.50
  -4   6   6   17.70    2.80
  -3  -6   6    1.70    1.20
  -3  -6   6    1.60    3.30
  -3  -6   6    2.80    2.10
  -3   6   6    2.10    1.90
  -3   6   6    1.20    2.00
  -3   6   6    1.60    1.30
  -2  -6   6    3.60    1.60
  -2  -6   6    3.90    1.20
  -2   6   6    4.70    1.30
  -1  -6   6   44.50    2.70
  -1  -6   6   39.90    2.70
   1  -6  -6   40.00    2.80
  -1   6   6   44.00    2.60
  -1   6   6   46.20    2.40
   0  -6   6  100.29    4.10
   0  -6  -6   95.39    4.60
   0   6   6   90.49    4.10
   0   6   6  100.39    4.00
   1  -6   6   11.40    2.70
   1   6   6    9.90    2.60
   1   6   6   13.70    3.10
  -2  -6  -6   10.30    3.30
  -2  -6  -6   14.40    3.50
  -2  -6  -6    7.10    2.30
  -2   6  -6    9.30    2.20
  -2   6  -6   14.90    2.90
  -2   6  -6   13.20    3.00
  -2   6  -6    9.80    2.80
  -3  -6  -6  130.39   10.00
  -3  -6  -6  126.39    5.80
  -3  -6  -6  121.29    5.50
  -3   6  -6  126.99    6.40
  -3   6  -6  116.79    5.60
  -3   6  -6  119.49    6.30
  -4  -6  -6   11.50    2.80
  -4  -6  -6    5.40    1.80
  -4   6  -6   11.00    2.60
  -4   6  -6   12.80    2.80
  -4   6  -6   14.70    3.50
  -5  -6  -6    9.10    2.20
  -5  -6  -6    4.60    1.30
  -5  -6  -6    9.60    2.20
  -5   6  -6    6.90    2.00
  -5   6  -6    6.30    1.60
  -5   6  -6    9.50    2.00
  -6  -7   6   49.00    3.40
  -6   7   6   42.50    2.80
  -6   7   6   41.40    2.70
  -5  -7   6  134.79    6.30
  -5  -7   6  148.39    7.20
  -5  -7   6  144.79    6.40
  -5   7   6  149.49    6.30
  -5   7   6  147.89    6.30
  -4  -7   6    0.10    1.50
  -4  -7   6   -0.70    2.10
  -4  -7   6   -0.30    3.00
  -4   7   6    1.90    1.80
  -4   7   6   -1.20    2.00
  -4   7   6    0.90    1.70
  -3  -7   6   11.50    3.90
  -3  -7   6    7.30    2.30
  -3  -7   6    4.90    1.30
  -3   7   6    4.30    1.40
  -3   7   6    3.80    2.00
  -3   7   6    2.20    2.00
  -2  -7   6  277.07    9.00
  -2  -7   6  229.48    9.90
  -2   7   6  234.18    9.80
  -1  -7   6   61.79    3.30
  -1  -7   6   59.09    3.20
   1  -7  -6   60.39    3.30
  -1   7   6   66.79    3.00
  -1   7   6   65.69    3.10
   0  -7   6    5.80    1.30
   0  -7   6    7.20    1.80
   0  -7  -6    6.90    1.60
   0   7   6    4.80    1.30
   0   7   6    7.60    2.00
   1   7   6   99.49    4.70
   1   7   6   87.89    4.40
  -2  -7  -6  146.29    6.50
  -2  -7  -6  141.59    6.40
  -2  -7  -6  140.79    7.40
  -2   7  -6  146.49    6.80
  -2   7  -6  148.39    6.10
  -2   7  -6  146.89    6.70
  -2   7  -6  147.29    7.00
  -3  -7  -6   51.79    3.90
  -3  -7  -6   41.90    5.00
  -3  -7  -6   50.39    3.90
  -3   7  -6   52.39    4.40
  -3   7  -6   50.89    3.80
  -3   7  -6   56.99    4.60
  -4  -7  -6   22.90    3.10
  -4  -7  -6   24.60    3.00
  -4  -7  -6   18.20    4.40
  -4   7  -6   24.10    2.90
  -4   7  -6   13.70    2.60
  -4   7  -6   23.40    3.80
  -5  -7  -6   21.00    2.40
  -5  -7  -6   19.90    2.20
  -5  -7  -6   20.20    4.00
  -5   7  -6   18.40    2.60
  -5   7  -6   17.10    2.20
  -5   7  -6   20.90    2.90
  -6  -8   6   -2.00    3.30
  -6   8   6    1.70    1.30
  -6   8   6    0.20    1.10
  -5  -8   6    0.80    2.10
  -5  -8   6   -0.50    2.10
  -5   8   6    1.40    1.80
  -5   8   6   -0.60    1.70
  -4  -8   6    1.30    1.60
  -4  -8   6    1.80    2.10
  -4   8   6    3.50    2.00
  -4   8   6    4.10    1.80
  -4   8   6    5.20    1.80
  -3  -8   6  107.19    4.70
  -3  -8   6  100.69    5.50
  -3   8   6  107.09    5.40
  -3   8   6  105.79    5.50
  -3   8   6  103.79    4.70
  -2  -8   6  586.14   19.10
  -2  -8   6  573.74   18.60
  -2   8   6  622.14   18.70
  -1  -8   6  756.62   23.40
  -1  -8   6  758.72   23.20
   1  -8  -6  747.63   23.20
  -1   8   6  764.32   23.20
  -1   8   6  738.53   23.00
   0  -8   6   11.70    2.90
   0  -8   6    7.40    1.40
   0   8   6   11.50    2.00
   0   8   6   11.40    2.20
   1  -8   6   88.89    4.80
   1   8   6   89.89    5.00
   1   8   6   90.89    4.30
  -2  -8  -6    1.00    3.00
  -2  -8  -6    0.10    2.10
  -2  -8  -6    2.00    2.20
  -2   8  -6   -1.60    2.50
  -2   8  -6    1.90    2.60
  -2   8  -6   -1.30    2.40
  -3  -8  -6   48.40    3.60
  -3  -8  -6   52.79    3.90
  -3  -8  -6   56.39    5.40
  -3   8  -6   50.09    4.30
  -3   8  -6   48.60    4.60
  -3   8  -6   56.89    3.80
  -4  -8  -6   36.10    3.30
  -4  -8  -6   33.50    3.20
  -4  -8  -6   31.20    4.70
  -4   8  -6   29.60    3.60
  -4   8  -6   36.80    3.90
  -4   8  -6   30.80    3.10
  -5  -8  -6    1.60    1.20
  -5  -8  -6    3.00    2.50
  -5  -8  -6    3.00    1.20
  -5   8  -6    3.70    1.20
  -5   8  -6    4.50    1.70
  -5   8  -6    3.20    1.60
  -6   9   6  138.49    5.20
  -6   9   6  131.29    5.30
  -5  -9   6   16.00    3.50
  -5  -9   6   10.10    2.30
  -5   9   6   11.80    2.80
  -5   9   6   12.70    3.10
  -4  -9   6  276.07   10.20
  -4  -9   6  278.97    9.90
  -4   9   6  269.87   10.00
  -4   9   6  280.37   10.20
  -4   9   6  279.17   10.00
  -3  -9   6  482.65   15.70
  -3  -9   6  473.25   15.40
  -3   9   6  459.55   15.30
  -3   9   6  471.25   15.80
  -3   9   6  470.45   15.70
  -2  -9   6   75.89    3.60
  -2  -9   6   67.99    5.20
  -2   9   6   92.59    6.70
  -2   9   6   74.29    3.60
  -1  -9   6  128.79    5.10
  -1  -9   6  137.49    5.50
  -1   9   6  127.19    5.40
  -1   9   6  134.99    5.10
   0  -9   6  179.78    7.00
   0  -9   6  190.08    7.10
   0   9   6  188.48    6.70
   0   9   6  201.48    7.10
   1  -9   6  167.28    7.20
  -1   9  -6  146.89    6.60
   1   9   6  151.28    6.00
  -2  -9  -6   62.19    4.40
  -2  -9  -6   53.09    6.20
  -2  -9  -6   56.89    3.90
  -2   9  -6   63.99    4.60
  -2   9  -6   62.19    5.20
  -2   9  -6   52.19    4.80
  -3  -9  -6    0.90    3.10
  -3  -9  -6   -2.30    1.60
  -3  -9  -6    2.50    1.80
  -3   9  -6    0.40    2.30
  -3   9  -6    0.30    2.20
  -3   9  -6   -3.30    1.80
  -4  -9  -6   34.10    3.30
  -4  -9  -6   48.90    5.10
  -4  -9  -6   37.20    3.30
  -4   9  -6   40.20    3.90
  -4   9  -6   34.70    3.30
  -4   9  -6   38.60    3.90
  -5  -9  -6    2.10    1.20
  -5  -9  -6    1.40    1.10
   5  -9   6   -0.30    1.40
  -5   9  -6    0.70    1.60
  -5   9  -6    2.10    1.10
  -5   9  -6    2.30    1.60
  -6  10   6   23.00    2.30
  -6  10   6   20.60    2.10
  -5 -10   6    2.40    2.40
  -5 -10   6    2.90    2.10
  -5  10   6    6.30    1.90
  -5  10   6    2.50    1.80
  -4 -10   6   25.60    3.00
  -4 -10   6   27.60    4.00
  -4  10   6   28.70    3.70
  -4  10   6   27.80    3.50
  -4  10   6   22.60    3.30
  -3 -10   6  214.68    8.50
  -3 -10   6  214.08    7.80
  -3  10   6  215.18    8.30
  -3  10   6  212.48    8.50
  -3  10   6  207.68    7.80
  -2 -10   6   -3.90    2.50
  -2 -10   6    1.50    1.20
  -2  10   6    1.50    1.20
  -2  10   6    2.10    2.90
  -1 -10   6   15.00    2.90
  -1 -10   6   14.90    2.20
  -1  10   6   10.90    2.80
  -1  10   6   13.20    2.90
   0 -10   6  376.96   12.50
   0 -10   6  374.26   12.80
   0  10   6  389.56   12.80
   0  10   6  398.86   12.50
  -1 -10  -6  148.09    6.60
  -1  10  -6  159.78    6.60
   1  10   6  161.78    6.10
  -2 -10  -6   12.00    3.90
  -2 -10  -6    7.60    2.40
  -2 -10  -6    8.10    2.10
  -2  10  -6    7.90    3.10
  -2  10  -6    9.80    2.80
  -2  10  -6   14.20    2.60
  -3 -10  -6    4.10    1.80
  -3 -10  -6    6.60    3.30
  -3 -10  -6    2.20    1.80
  -3  10  -6    7.70    2.50
  -3  10  -6   11.10    2.60
  -3  10  -6    6.90    2.10
  -4 -10  -6    0.50    1.60
  -4 -10  -6    1.90    1.60
  -4  10  -6    1.30    1.50
  -4  10  -6    1.60    1.90
  -4  10  -6    2.00    2.10
  -5 -10  -6    5.30    1.20
  -5 -10  -6    8.80    1.90
   5 -10   6   10.40    2.40
  -5  10  -6    5.70    1.60
  -5  10  -6   10.70    2.30
  -6  11   6   36.30    2.40
  -6  11   6   34.40    2.50
  -5 -11   6    1.30    2.00
  -5 -11   6    1.40    2.50
  -5  11   6    0.90    2.50
  -5  11   6    1.40    1.70
  -4 -11   6   88.79    5.20
   4 -11  -6   86.79    6.70
  -4  11   6   72.39    4.60
  -4  11   6   81.99    5.10
   3 -11  -6  407.36   14.90
  -3 -11   6  452.55   15.10
  -3 -11   6  448.16   14.50
  -3  11   6  441.46   15.00
  -3  11   6  442.96   14.80
  -3  11   6  445.36   14.50
  -2 -11   6   -1.40    2.60
   2 -11  -6   -2.80    3.20
  -2 -11   6    0.10    1.20
  -2  11   6    0.90    1.20
  -2  11   6   -1.10    2.90
  -1 -11   6   13.60    3.60
  -1  11   6   12.50    1.90
   0 -11   6    0.80    1.70
   0  11   6   -0.20    2.10
  -1 -11  -6   84.69    4.80
  -1 -11  -6   85.69    5.50
  -1  11  -6   77.59    4.70
  -2 -11  -6  211.68    8.20
  -2 -11  -6  218.88    8.30
  -2  11  -6  209.08    8.30
  -2  11  -6  209.68    8.50
  -2  11  -6  214.18    9.20
  -3 -11  -6   17.10    3.10
  -3 -11  -6   17.50    3.20
  -3  11  -6   19.30    4.20
  -3  11  -6   24.40    3.50
  -3  11  -6   21.20    3.40
  -4 -11  -6   60.19    3.80
  -4 -11  -6   63.99    3.80
  -4  11  -6   54.49    3.50
  -4  11  -6   55.89    4.20
  -4  11  -6   60.19    4.30
   5 -11   6   15.40    2.30
  -5 -11  -6   19.50    2.10
  -5 -11  -6   21.00    2.20
  -5  11  -6   16.80    2.20
  -5  11  -6   22.50    2.60
  -6  12   6   18.40    2.00
  -6  12   6   20.90    2.30
  -5 -12   6    3.20    2.00
  -5 -12   6    0.00    2.70
  -5  12   6    2.60    1.70
  -5  12   6    2.10    1.60
  -4 -12   6   71.29    4.20
   4 -12  -6   65.29    5.30
  -4 -12   6   68.69    5.10
  -4  12   6   78.29    4.60
  -4  12   6   83.19    4.90
  -4  12   6   75.09    4.60
  -3 -12   6  694.03   21.30
   3 -12  -6  644.94   21.30
  -3 -12   6  639.94   21.50
  -3  12   6  686.93   21.30
  -3  12   6  681.13   21.60
  -3  12   6  661.63   21.50
   2 -12  -6   21.70    4.30
  -2 -12   6   32.30    4.40
  -2 -12   6   26.30    2.60
  -2  12   6   25.60    5.30
  -2  12   6   30.00    2.50
  -1 -12   6   79.99    3.80
  -1  12   6   77.89    3.60
   0 -12  -6   17.50    3.60
   0 -12   6   18.20    4.00
   0 -12   6   18.90    3.00
   0  12   6   18.20    2.70
   0  12   6   16.00    2.20
  -1 -12  -6   79.59    4.70
  -1 -12  -6   69.59    5.40
   1 -12   6   86.29    4.90
  -1  12  -6   84.69    4.80
   1  12   6   83.19    4.10
  -2 -12  -6   15.50    3.20
  -2 -12  -6   20.20    3.60
  -2  12  -6   20.10    3.40
  -2  12  -6   23.60    3.80
  -2  12  -6   17.50    2.80
  -3 -12  -6  115.59    5.60
  -3 -12  -6  117.09    5.50
  -3  12  -6  117.29    6.40
  -3  12  -6  112.69    5.40
  -3  12  -6  115.99    5.80
  -4 -12  -6   32.60    3.10
   4 -12   6   33.90    3.20
  -4 -12  -6   39.00    3.20
  -4  12  -6   32.20    3.50
  -4  12  -6   31.20    3.10
  -5 -12  -6   30.80    2.30
  -5 -12  -6   30.50    2.40
   5 -12   6   34.10    2.60
  -5  12  -6   31.70    2.80
  -5  12  -6   31.70    2.50
  -6  13   6    9.50    1.80
  -6  13   6   11.50    2.30
  -5 -13   6   40.10    3.90
  -5  13   6   41.10    3.20
  -5  13   6   45.80    3.40
  -4 -13   6   19.30    4.70
   4 -13  -6   34.20    4.40
  -4 -13   6   25.60    3.10
  -4  13   6   32.70    3.70
  -4  13   6   30.50    3.60
  -4  13   6   33.80    3.70
   3 -13  -6   48.30    4.40
  -3 -13   6   53.49    5.30
  -3 -13   6   57.09    3.60
  -3  13   6   45.80    5.30
  -3  13   6   54.69    3.60
  -3  13   6   55.39    4.80
  -2 -13   6   16.10    2.40
  -2 -13   6   19.40    4.40
   2 -13  -6   11.10    2.70
  -2  13   6   18.00    3.50
  -2  13   6   11.50    2.20
   1 -13  -6    2.60    2.40
  -1 -13   6   -4.50    3.10
  -1 -13   6   -0.50    1.30
  -1  13   6   -0.10    1.10
   0 -13  -6  162.68    6.70
   0 -13   6  154.48    6.80
   0 -13   6  158.58    6.80
   0  13   6  161.98    6.00
  -1 -13  -6   25.30    4.40
  -1 -13  -6   24.00    3.50
   1 -13   6   27.70    3.50
   1  13   6   24.40    2.80
  -1  13  -6   28.80    3.50
   2 -13   6    5.50    2.10
  -2 -13  -6    2.70    1.90
  -2 -13  -6   10.80    2.70
  -2  13  -6    7.70    3.60
  -2  13  -6    9.90    2.70
  -2  13  -6    7.20    2.20
  -3 -13  -6   43.90    3.80
  -3 -13  -6   48.70    3.70
   3 -13   6   43.30    3.80
  -3  13  -6   46.00    5.00
  -3  13  -6   54.49    4.00
  -3  13  -6   51.59    3.90
   4 -13   6  140.39    6.80
  -4  13  -6  138.39    6.30
  -4  13  -6  149.49    7.20
  -5 -13  -6    4.50    1.20
  -5 -13  -6    8.30    1.80
   5 -13   6   11.70    2.90
  -5  13  -6    5.30    1.60
  -5  13  -6    5.50    1.50
  -6  14   6    3.00    1.50
  -6  14   6   -1.10    1.40
  -5 -14   6    0.50    3.20
  -5  14   6    2.40    1.60
  -5  14   6   -0.40    1.60
  -4 -14   6   43.20    5.10
   4 -14  -6   38.00    4.10
  -4 -14   6   35.00    3.40
  -4  14   6   36.80    4.10
  -4  14   6   42.80    3.90
  -4  14   6   47.40    3.90
  -3 -14   6   28.70    4.80
   3 -14  -6   26.20    4.10
  -3 -14   6   32.40    3.00
  -3  14   6   30.90    3.00
  -3  14   6   31.40    4.70
  -3  14   6   21.00    4.80
  -2 -14   6  125.69    8.30
   2 -14  -6  117.79    5.80
  -2 -14   6  119.89    5.20
  -2 -14   6  118.19    6.40
  -2  14   6  116.29    7.40
  -2  14   6  117.49    5.10
   1 -14  -6   45.00    4.00
  -1 -14   6   44.70    5.20
  -1 -14   6   46.70    3.20
  -1  14   6   44.80    2.80
   0 -14   6   29.30    3.30
   0 -14   6   28.10    3.70
   0 -14  -6   26.90    3.60
   0  14   6   30.70    2.60
  -1 -14  -6   -1.30    2.10
  -1 -14  -6   -0.20    2.50
   1 -14   6    0.10    2.00
  -1  14  -6   -3.40    2.00
   1  14   6    0.30    1.50
  -2 -14  -6  117.99    5.60
   2 -14   6  114.99    5.60
  -2 -14  -6  120.29    5.90
   2  14   6  116.29    5.90
  -2  14  -6  128.09    5.90
  -3 -14  -6   58.39    4.10
   3 -14   6   60.79    4.20
  -3 -14  -6   60.89    3.90
  -3  14  -6   59.59    5.40
  -3  14  -6   61.39    4.20
  -4 -14  -6    7.40    1.60
  -4 -14  -6    3.40    1.40
   4 -14   6    6.20    1.60
  -4  14  -6    6.80    1.80
  -4  14  -6    6.80    2.20
  -5 -14  -6   12.40    1.70
   5 -14   6   12.20    2.10
  -5 -14  -6    8.60    1.70
  -5  14  -6    8.70    2.00
  -5  14  -6   11.70    1.90
  -5 -15   6    4.40    2.30
  -5  15   6    4.40    1.80
  -5  15   6    3.50    1.70
  -4 -15   6  264.27    9.90
   4 -15  -6  282.27    9.90
  -4  15   6  286.57   10.30
  -4  15   6  281.27   10.10
  -4  15   6  265.47   10.00
   3 -15  -6   37.70    3.90
  -3 -15   6   41.50    5.30
  -3 -15   6   39.60    3.40
  -3  15   6   34.90    4.90
  -3  15   6   43.50    3.40
  -2 -15   6   18.30    2.50
  -2 -15   6   15.90    3.80
   2 -15  -6   18.00    3.50
  -2  15   6   11.30    3.80
  -2  15   6   10.00    2.30
  -1 -15   6   29.20    4.50
   1 -15  -6   40.40    3.80
  -1 -15   6   35.30    3.10
  -1  15   6   33.00    2.60
   0 -15   6  110.79    5.50
   0 -15   6  110.69    5.30
   0 -15  -6  103.59    6.90
   0 -15  -6  112.19    5.20
   0  15   6  115.59    4.90
   0  15  -6  108.89    5.40
  -1 -15  -6  302.17   11.30
   1 -15   6  314.47   10.90
  -1 -15  -6  311.67   10.90
  -1  15  -6  295.07   11.10
   1  15   6  327.67   10.70
  -2 -15  -6 1113.29   35.60
   2 -15   6 1162.88   35.70
  -2 -15  -6 1139.39   35.70
   2  15   6 1191.78   35.50
  -2  15  -6 1161.88   36.00
  -3 -15  -6    1.80    1.60
   3 -15   6    6.30    1.80
  -3 -15  -6    2.80    1.80
  -3  15  -6    3.70    1.80
  -3  15  -6    5.10    2.90
  -4 -15  -6   33.10    2.80
   4 -15   6   33.50    2.90
  -4 -15  -6   29.40    2.70
  -4  15  -6   27.20    4.10
  -4  15  -6   30.30    3.00
  -5 -15  -6   -1.20    0.90
  -5 -15  -6   -0.60    0.90
   5 -15   6    1.60    1.40
  -5  15  -6    0.00    1.20
  -5 -16   6    0.50    2.40
  -5  16   6    5.20    1.80
  -5  16   6    5.20    2.00
  -4 -16   6    5.70    1.80
   4 -16  -6    7.40    2.20
  -4  16   6    7.40    2.50
  -4  16   6    3.20    2.50
  -4  16   6    3.70    2.20
   3 -16  -6   22.50    3.50
  -3  16   6   28.30    5.30
  -2 -16   6  124.29    5.40
  -2 -16   6  116.79    7.00
  -2  16   6  119.19    5.30
   1 -16  -6   11.70    2.30
  -1 -16   6    9.80    1.90
  -1 -16   6   17.10    3.00
  -1  16   6    9.90    2.10
   0 -16   6  163.58    6.70
   0 -16  -6  152.78    6.50
   0 -16  -6  140.39    7.90
   0 -16   6  162.88    6.80
   0  16   6  160.58    6.20
   0  16  -6  163.78    6.90
  -1 -16  -6    1.90    2.00
  -1 -16  -6   -5.60    2.50
   1 -16   6    2.00    2.00
   1  16   6    0.50    1.60
  -1  16  -6    4.30    3.30
  -2 -16  -6    3.30    1.90
  -2 -16  -6    1.50    2.00
   2 -16   6    0.70    1.70
  -2  16  -6    2.50    2.00
   2  16   6    4.70    2.30
  -3 -16  -6    3.90    1.70
  -3 -16  -6    8.40    2.00
   3 -16   6   11.30    2.80
  -3  16  -6    3.20    1.70
  -4 -16  -6    5.00    1.40
  -4 -16  -6    5.60    1.50
   4 -16   6   11.40    2.40
  -4  16  -6   10.80    2.40
  -4  16  -6    7.70    2.80
  -5 -16  -6    1.40    1.00
   5 -16   6   -0.40    2.60
  -5 -16  -6    1.50    0.90
   5 -16   6    2.30    1.30
  -5  16  -6    2.20    1.20
  -5 -17   6    3.10    2.30
  -5  17   6    3.90    2.10
  -5  17   6    3.20    2.10
  -4 -17   6   24.40    3.10
  -4  17   6   14.40    3.70
  -4  17   6   30.90    4.30
  -3 -17   6    0.80    1.50
   3 -17  -6    1.70    2.00
  -3  17   6    1.60    1.80
  -3  17   6    4.40    3.60
   2 -17  -6   30.50    3.50
  -2 -17   6   36.40    5.00
  -2 -17   6   34.50    3.20
  -2  17   6   31.80    2.90
  -1 -17   6   18.00    2.80
  -1 -17   6   15.40    3.70
   1 -17  -6   13.10    2.50
  -1  17   6   11.40    2.20
   0 -17  -6  139.59    7.70
   0 -17   6  159.98    6.60
   0  17  -6  148.99    6.70
   0  17   6  157.08    6.20
  -1 -17  -6    6.30    2.20
   1 -17   6   14.40    3.10
  -1 -17  -6    4.20    2.60
   1  17   6   13.20    2.70
  -1  17  -6    8.80    2.20
  -2 -17  -6    7.10    2.10
  -2 -17  -6    7.90    2.00
   2 -17   6    9.70    2.20
   2  17   6   11.90    4.00
  -2  17  -6   13.00    2.30
  -3 -17  -6   99.69    5.00
  -3 -17  -6  105.19    5.10
   3 -17   6  105.69    5.00
  -3  17  -6  101.39    5.30
  -4 -17  -6    2.00    1.20
  -4 -17  -6    1.20    1.30
   4 -17   6    2.50    1.30
  -4  17  -6   -1.20    1.40
  -5 -18   6    6.10    2.70
   4 -18  -6    5.50    1.90
  -4 -18   6    3.10    1.80
  -4  18   6    5.10    2.40
  -4  18   6    8.20    2.90
   3 -18  -6  229.08    8.00
  -3 -18   6  196.18    8.00
  -3  18   6  197.18    8.00
   2 -18  -6   28.90    3.60
  -2 -18   6   19.00    4.30
  -2 -18   6   33.10    3.20
  -2  18   6   29.70    2.90
  -1 -18   6  489.85   16.30
  -1 -18   6  504.25   16.30
   1 -18  -6  488.05   16.10
  -1  18   6  512.75   16.20
   1  18  -6  463.05   18.50
   0 -18   6   40.30    3.80
   0 -18   6   27.90    3.80
   0 -18  -6   37.70    5.20
   0 -18  -6   39.70    3.40
   0  18   6   33.00    3.00
   0  18  -6   35.70    3.90
  -1 -18  -6   78.29    4.50
  -1 -18  -6   69.59    5.00
   1 -18   6   76.69    4.40
   1  18   6   81.99    4.30
  -1  18  -6   66.59    4.80
   2 -18   6   61.09    4.10
  -2 -18  -6   59.49    4.00
   2 -18   6   56.89    4.80
  -2 -18  -6   55.99    4.20
  -2  18  -6   64.19    4.30
   2  18   6   66.49    4.60
  -3 -18  -6   56.09    3.60
   3 -18   6   52.39    3.60
  -3 -18  -6   47.60    3.70
  -3  18  -6   51.09    3.70
  -4 -18  -6    0.80    1.10
   4 -18   6    0.10    1.40
   4 -18   6    0.20    1.30
  -4 -18  -6    1.40    1.20
  -4  18  -6   -0.80    1.20
  -4 -19   6    8.10    1.90
   4 -19  -6   13.30    2.80
  -3 -19   6    4.40    4.30
  -3 -19   6    3.60    1.70
   3 -19  -6    3.10    1.90
  -3  19   6    3.10    1.80
  -2 -19   6   11.80    2.70
   2 -19  -6   14.90    3.00
  -2  19   6   15.90    3.70
  -1 -19   6   36.00    3.70
   1 -19  -6   35.00    3.50
  -1 -19   6   31.50    4.00
   1  19  -6   35.30    4.50
  -1  19   6   37.90    2.90
   0 -19   6   -2.80    2.00
   0 -19  -6   -1.20    1.70
   0 -19  -6    2.60    2.90
   0 -19   6   -0.50    2.40
   0  19   6    3.50    1.40
   0  19  -6    2.30    2.30
   1 -19   6   71.19    4.30
  -1 -19  -6   54.19    4.90
  -1 -19  -6   75.59    4.30
  -1  19  -6   62.79    4.40
   1  19   6   75.29    4.10
   2 -19   6    4.10    1.70
   2 -19   6    1.20    2.50
  -2 -19  -6    3.30    1.70
  -2 -19  -6    1.40    1.80
   2  19   6    4.80    2.20
  -2  19  -6    6.50    2.00
   3 -19   6   52.89    3.40
  -3 -19  -6   57.29    3.50
  -3 -19  -6   50.89    3.50
   3 -19   6   53.49    3.80
  -3  19  -6   51.49    3.60
  -4 -19  -6   58.19    3.10
  -4 -19  -6   59.99    3.00
   4 -19   6   59.89    3.10
  -4  19  -6   63.79    3.30
   4 -20  -6   40.00    3.20
  -4 -20   6   36.50    3.20
  -3 -20   6  210.18    8.20
   3 -20  -6  223.58    8.00
  -3  20   6  199.68    8.00
   2 -20  -6   50.69    3.80
  -2 -20   6   52.99    3.80
  -2 -20   6   52.49    4.50
  -2  20   6   46.30    3.40
  -1 -20   6   49.80    4.20
  -1 -20   6   58.59    4.00
   1 -20  -6   53.39    3.90
   1  20  -6   57.19    5.20
  -1  20   6   52.59    4.50
   0 -20   6   19.70    4.10
   0 -20  -6   12.60    2.30
   0 -20  -6   14.90    3.00
   0 -20   6   14.10    3.40
   0  20  -6   15.70    3.00
   0  20   6   18.40    2.50
  -1 -20  -6    3.30    2.30
   1 -20   6    3.10    1.80
  -1 -20  -6    6.00    1.80
  -1  20  -6    4.20    2.30
   1  20   6    3.90    1.80
  -2 -20  -6    5.50    1.80
   2 -20   6    3.60    2.80
   2 -20   6    5.00    1.70
  -2 -20  -6    5.80    1.90
   2  20   6    4.00    2.20
  -2  20  -6    7.90    2.10
   3 -20   6  108.99    5.00
  -3 -20  -6  120.39    5.10
   3 -20   6  106.79    5.10
  -3 -20  -6  121.99    5.00
  -3  20  -6  111.09    5.10
  -4 -20  -6    0.80    1.10
   4 -20   6    2.40    1.30
  -4 -20  -6    3.00    1.10
   4 -20   6    0.20    1.50
  -4  20  -6    2.10    1.30
   4 -21  -6   70.49    3.70
  -4 -21   6   67.39    4.00
   3 -21  -6  145.39    6.20
  -3 -21   6  109.09    5.40
  -3 -21   6  121.39    6.30
  -3  21   6  115.89    5.50
  -2 -21   6   29.10    3.20
  -2 -21   6   27.90    3.70
   2 -21  -6   32.20    3.10
  -2  21   6   27.30    3.00
  -1 -21   6  147.69    6.40
  -1 -21   6  160.68    6.60
   1 -21  -6  151.68    6.30
  -1  21   6  138.79    6.10
   0 -21  -6    1.10    2.80
   0 -21   6    1.30    1.90
   0 -21  -6    1.60    1.70
   0  21   6    2.00    1.50
   0  21  -6    4.80    2.70
   1 -21   6  115.89    5.50
  -1 -21  -6  114.69    5.80
  -1 -21  -6  114.49    5.40
   1  21   6  107.89    5.20
  -1  21  -6  123.49    5.80
  -2 -21  -6  178.28    7.00
  -2 -21  -6  178.78    6.90
   2 -21   6  175.08    6.90
  -2  21  -6  173.88    7.00
   2  21   6  157.28    7.00
  -3 -21  -6    5.00    1.40
   3 -21   6    3.60    1.40
   3 -21   6    9.40    2.00
  -3 -21  -6    5.70    1.50
  -3  21  -6    6.40    1.70
   4 -21   6    1.40    1.30
  -4 -21  -6    0.70    1.20
  -4  21  -6    0.40    1.30
  -4 -22   6    3.60    1.70
   4 -22  -6    2.20    1.40
  -3 -22   6    6.50    2.50
   3 -22  -6    1.60    1.60
  -3 -22   6    6.40    1.80
  -3  22   6    5.80    2.00
  -2 -22   6    2.90    2.10
  -2 -22   6    0.20    1.60
   2 -22  -6    1.50    1.70
  -2  22   6   -0.10    1.40
  -1 -22   6   32.10    3.80
  -1 -22   6   37.90    3.50
   1 -22  -6   35.10    3.30
  -1  22   6   35.90    3.00
   0 -22  -6    3.70    2.80
   0 -22  -6   -1.70    1.60
   0 -22   6    1.00    1.70
   0  22  -6    1.50    2.80
   0  22   6    0.80    1.40
  -1 -22  -6   27.50    3.70
   1 -22   6   15.20    3.00
  -1 -22  -6   12.20    2.90
  -1  22  -6   16.70    3.70
   1  22   6   17.10    2.80
  -2 -22  -6   65.69    3.90
   2  22   6   63.29    4.30
  -2  22  -6   62.29    4.10
   3 -22   6   44.50    2.90
  -3 -22  -6   39.20    2.90
  -3 -22  -6   37.70    2.80
   3 -22   6   40.40    3.60
  -3  22  -6   40.90    2.90
  -4 -22  -6   16.90    1.90
   4 -22   6   14.80    2.10
  -4 -22  -6   20.30    1.80
  -4  22  -6   19.60    2.00
   4 -23  -6   27.70    2.70
  -4 -23   6   32.60    3.20
  -3 -23   6    8.40    1.90
   3 -23  -6   10.10    2.40
  -3 -23   6    8.70    2.50
  -3  23   6    6.50    2.10
  -2 -23   6    2.70    1.80
   2 -23  -6    3.20    1.60
  -2  23   6    0.40    1.50
  -1 -23   6    3.20    2.20
   1 -23  -6   12.70    2.80
  -1 -23   6    5.00    2.00
  -1  23   6    5.00    1.60
   0 -23   6   -2.70    1.70
   0 -23  -6   -2.80    2.70
   0 -23  -6    0.10    1.60
   0  23  -6    4.70    3.00
   0  23   6   -0.20    1.40
  -1 -23  -6   24.90    3.60
  -1 -23  -6   23.50    2.80
   1 -23   6   22.30    3.00
   1  23   6   25.60    3.00
  -1  23  -6   30.70    6.10
   2 -23   6   78.39    4.00
  -2 -23  -6   76.09    4.10
  -2 -23  -6   75.79    4.10
   2  23   6   82.99    6.10
  -2  23  -6   76.89    4.30
  -3 -23  -6   22.10    2.10
  -3 -23  -6   21.70    2.30
   3 -23   6   22.30    2.30
  -3  23  -6   19.20    2.40
   4 -24  -6   16.70    2.30
  -3 -24   6   24.60    4.00
   3 -24  -6   17.50    2.50
  -3 -24   6   20.70    4.10
  -3  24   6   21.60    3.40
  -2 -24   6   74.59    4.20
   2 -24  -6   68.89    3.90
  -2 -24   6   78.19    4.40
  -2  24   6   69.99    4.10
   1 -24  -6    4.60    1.60
  -1 -24   6    4.60    1.90
  -1  24   6    4.70    1.60
   0 -24  -6   33.40    3.10
   0 -24  -6   22.30    5.20
   0 -24   6   32.20    3.30
   0  24   6   34.50    2.80
   1 -24   6   15.40    3.80
  -1 -24  -6   15.50    2.30
  -1  24  -6   20.90    4.00
   1  24   6   20.50    2.70
   2 -24   6   22.40    2.50
  -2 -24  -6   21.40    2.80
  -2 -24  -6   20.60    2.60
  -2  24  -6   21.60    3.00
   2  24   6   24.60    4.00
  -3 -24  -6   21.90    2.10
  -3 -24  -6   20.80    2.10
   3 -24   6   17.90    2.10
  -3  24  -6   20.70    2.40
   4 -25  -6    4.50    1.50
   3 -25  -6   15.50    2.20
  -3 -25   6    7.70    3.20
  -3  25   6   11.80    2.40
   2 -25  -6    1.60    1.30
  -2 -25   6    1.70    1.80
  -2  25   6    1.90    1.60
   1 -25  -6   -0.50    1.40
  -1 -25   6   -0.90    1.50
  -1  25   6    1.10    1.50
   0 -25  -6   10.30    2.80
   0 -25  -6   14.60    2.40
   0 -25   6   12.00    2.60
   0  25   6   14.50    2.40
  -1 -25  -6   21.70    2.40
  -1 -25  -6   26.30    3.30
   1 -25   6   26.20    2.70
   1  25   6   25.20    2.90
  -2 -25  -6   36.30    2.60
  -2 -25  -6   32.60    2.90
   2 -25   6   36.50    2.70
  -2  25  -6   34.80    3.50
   2  25   6   36.60    4.40
   3 -25   6    1.70    1.00
  -3 -25  -6    1.30    1.20
  -3 -25  -6    0.80    1.10
  -3  25  -6    0.10    2.20
   3 -26  -6   26.00    2.30
   2 -26  -6    0.20    1.20
  -2 -26   6    3.50    1.80
  -2  26   6    0.30    1.50
   1 -26  -6  118.39    4.90
  -1 -26   6  115.69    5.00
  -1  26   6  115.09    5.10
   0 -26  -6   66.69    3.50
   0 -26   6   64.79    3.60
   0  26   6   60.59    3.60
  -1 -26  -6    2.20    1.20
  -1 -26  -6    4.50    1.80
   1 -26   6    2.80    1.30
   1  26   6    6.20    1.80
   2 -26   6    2.70    1.20
  -2 -26  -6    4.80    1.20
  -2 -26  -6    4.50    1.50
   3 -27  -6   55.49    2.80
  -2 -27   6   -2.50    1.60
   2 -27  -6    0.90    1.10
  -2  27   6   -0.70    1.60
  -1 -27   6   -0.50    1.30
   1 -27  -6    1.10    1.30
  -1  27   6   -0.70    2.20
   0 -27  -6   29.00    2.60
   0 -27   6   30.50    2.80
  -1 -27  -6   22.30    2.20
  -1 -27  -6   20.70    3.10
   1 -27   6   18.60    2.30
   1  27   6   25.00    2.90
  -2 -27  -6   -2.40    1.30
  -2 -27  -6    1.30    1.00
   2 -27   6   -0.10    1.00
   2 -28  -6   38.50    2.40
  -2 -28   6   30.70    3.30
  -2  28   6   33.50    3.20
   1 -28  -6   40.20    2.70
  -1 -28   6   42.30    2.90
   1  28  -6   44.20    4.00
  -1  28   6   46.80    3.20
   0 -28   6   51.99    3.00
   0 -28  -6   52.19    2.90
   0  28   6   53.89    3.20
   1 -28   6    0.90    1.10
  -1 -28  -6    2.70    1.10
  -1 -28  -6    1.80    2.00
   1  28   6    0.90    1.90
  -2 -28  -6    1.20    0.90
   2 -28   6    0.00    1.00
  -2 -28  -6    3.50    1.50
   2 -29  -6    4.50    1.10
  -2 -29   6    2.60    1.50
  -1 -29   6    0.60    1.20
   1 -29  -6    0.80    1.10
  -1  29   6    2.80    1.70
   0 -29   6    9.70    1.80
   0 -29  -6    8.10    1.70
   0  29   6    5.00    1.60
  -1 -29  -6   13.70    1.90
   1 -29   6    9.10    1.80
   1 -30  -6   -0.10    1.00
  -1 -30   6   -0.50    1.20
   0 -30   6   17.00    2.00
   0 -30  -6   17.90    1.80
  -6   0   7    0.00    1.20
  -6   0   7    1.00    1.40
  -5   0   7   72.29    4.40
  -5   0   7   70.99    4.50
  -5   0   7   72.29    4.10
  -4   0   7    0.60    1.70
  -4   0   7    1.60    1.50
  -4   0   7    5.80    2.10
  -3   0   7   76.59    4.60
  -3   0   7   81.39    3.90
  -3   0   7   87.29    5.00
   2   0  -7   -1.60    1.90
  -2   0   7    1.80    1.50
  -1   0   7    2.20    1.20
  -1   0   7    8.00    2.10
   1   0  -7    3.90    1.60
   0   0   7   -0.20    1.50
   0   0   7    0.10    1.10
   1   0   7  161.98    6.40
  -2   0  -7   -1.90    3.70
  -2   0  -7   -1.10    2.40
  -2   0  -7    0.90    1.70
  -2   0  -7   -0.90    2.30
  -3   0  -7 1640.64   51.09
  -3   0  -7 1710.63   50.59
  -3   0  -7 1672.33   50.59
  -3   0  -7 1614.84   51.29
  -4   0  -7   -2.40    2.10
  -4   0  -7   -2.30    1.50
  -4   0  -7    0.20    1.70
  -5   0  -7    3.10    1.40
  -5   0  -7    2.10    1.20
  -6  -1   7   16.40    2.20
  -6  -1   7   14.50    2.60
  -6   1   7   19.40    2.50
  -6   1   7   13.00    2.20
  -5  -1   7    7.30    2.10
  -5  -1   7    5.90    1.90
  -5  -1   7    7.70    2.10
  -5   1   7    5.70    2.10
  -5   1   7    8.30    2.00
  -5   1   7    4.60    1.70
  -4  -1   7    4.10    1.70
  -4  -1   7    0.50    1.50
  -4  -1   7    2.80    2.20
  -4   1   7   -2.90    2.00
  -4   1   7    1.00    1.70
  -4   1   7   -1.90    1.40
  -3  -1   7    3.60    2.10
  -3  -1   7    1.60    1.30
  -3  -1   7   -2.50    2.40
  -3   1   7    1.20    1.20
  -3   1   7    2.10    1.90
  -3   1   7    0.20    2.20
   2  -1  -7    2.30    1.90
  -2  -1   7    2.40    1.50
   2   1  -7    3.80    2.20
  -2   1   7    4.70    1.60
  -1  -1   7 1716.03   51.99
  -1  -1   7 1761.82   51.89
   1  -1  -7 1685.53   51.99
  -1   1   7 1744.83   51.89
   1   1  -7 1659.33   52.09
  -1   1   7 1809.52   51.99
   0  -1   7   56.79    3.40
   0  -1   7   60.29    3.10
   0   1   7   56.19    3.10
   0   1   7   48.80    3.40
   1  -1   7   23.30    3.10
   1   1   7   29.40    3.10
  -2  -1  -7   72.59    4.40
  -2  -1  -7   73.39    5.40
  -2  -1  -7   64.99    4.70
  -2   1  -7   68.19    4.10
  -2   1  -7   75.29    4.80
  -2   1  -7   61.79    4.90
  -2   1  -7   74.09    6.00
  -3  -1  -7    0.90    2.40
  -3  -1  -7    2.40    1.90
  -3  -1  -7    0.20    1.60
  -3   1  -7    4.80    2.40
  -3   1  -7   -2.40    2.80
  -3   1  -7    2.60    1.90
  -3   1  -7    3.20    1.70
  -4  -1  -7    1.70    2.10
  -4  -1  -7   -1.00    1.40
  -4  -1  -7    2.30    1.50
  -4   1  -7    1.10    1.60
  -4   1  -7    1.00    1.90
  -4   1  -7   -1.60    1.50
  -4   1  -7    6.20    3.20
  -5  -1  -7   15.80    2.70
  -5  -1  -7   11.40    2.00
  -5   1  -7   11.70    2.00
  -5   1  -7   11.00    2.50
  -6  -2   7   49.50    3.50
  -6  -2   7   57.09    3.20
  -6   2   7   55.89    3.30
  -6   2   7   56.49    3.10
  -5  -2   7    5.80    1.80
  -5  -2   7    4.90    2.10
  -5  -2   7    4.50    2.10
  -5   2   7    6.10    1.80
  -5   2   7    4.60    2.40
  -5   2   7    5.60    1.80
  -4  -2   7  369.06   12.80
  -4  -2   7  380.56   13.10
  -4  -2   7  384.16   12.70
  -4   2   7  362.86   12.80
  -4   2   7  383.56   12.80
  -4   2   7  376.86   13.10
  -3  -2   7   17.50    3.10
  -3  -2   7   19.50    2.40
  -3  -2   7   19.10    3.90
  -3   2   7   21.60    3.20
  -3   2   7   15.00    3.50
  -3   2   7   14.90    2.20
  -2  -2   7   19.70    3.00
  -2  -2   7   15.20    2.20
  -2   2   7   15.50    3.20
  -2   2   7   15.60    2.00
  -1  -2   7    2.50    1.20
  -1  -2   7    0.70    1.10
   1  -2  -7    4.10    1.60
  -1   2   7    2.60    1.20
  -1   2   7    2.30    1.20
   0  -2   7   13.60    2.70
   0  -2   7   14.10    2.30
   0   2   7   13.60    2.20
   0   2   7   11.80    2.60
   1  -2   7   79.19    4.30
   1   2   7   77.89    4.40
  -2  -2  -7   21.90    3.30
  -2  -2  -7   18.90    3.80
  -2  -2  -7   21.60    4.50
  -2   2  -7   21.60    3.30
  -2   2  -7   17.20    3.50
  -2   2  -7   19.60    4.70
  -2   2  -7   14.90    2.90
  -3  -2  -7  131.59    7.00
  -3  -2  -7  149.59    6.30
  -3  -2  -7  141.39    6.10
  -3   2  -7  138.59    6.10
  -3   2  -7  139.39    6.10
  -3   2  -7  140.89    6.80
  -3   2  -7  149.59    7.10
  -4  -2  -7   12.30    2.60
  -4  -2  -7    5.90    1.60
  -4  -2  -7    4.40    2.20
  -4   2  -7    5.60    1.80
  -4   2  -7    7.30    2.90
  -4   2  -7    8.50    2.20
  -4   2  -7    7.20    1.80
  -5  -2  -7    4.00    1.20
  -5  -2  -7    3.20    1.20
  -5  -2  -7    3.90    1.60
  -5   2  -7    3.20    1.50
  -5   2  -7    3.50    1.20
  -6  -3   7   30.70    3.20
  -6  -3   7   34.00    2.70
  -6   3   7   31.40    2.80
  -6   3   7   34.60    2.60
  -5  -3   7    2.30    2.00
  -5  -3   7    0.60    2.00
  -5  -3   7    0.60    1.80
  -5   3   7    2.90    1.60
  -5   3   7    4.10    1.80
  -5   3   7    1.70    2.40
  -4  -3   7  125.39    6.40
  -4  -3   7  144.89    5.80
  -4  -3   7  125.89    6.00
  -4   3   7  144.99    5.90
  -4   3   7  135.89    6.00
  -4   3   7  135.39    6.20
  -3  -3   7   25.20    2.40
  -3  -3   7   28.00    4.40
  -3  -3   7   16.80    3.30
  -3   3   7   21.40    3.60
  -3   3   7   21.10    3.40
  -3   3   7   22.90    2.40
  -2  -3   7   21.70    2.20
  -2  -3   7   20.00    3.30
  -2   3   7   18.20    2.10
  -1  -3   7   55.39    3.10
  -1  -3   7   51.49    2.90
   1  -3  -7   50.39    3.50
  -1   3   7   52.09    3.00
  -1   3   7   48.90    2.80
   0  -3   7  231.28    8.00
   0  -3   7  214.18    7.80
   0   3   7  212.98    7.60
   0   3   7  232.08    7.80
   1  -3   7  284.27   11.10
  -2  -3  -7  102.69    6.50
  -2  -3  -7  110.79    5.30
  -2  -3  -7  104.49    5.50
  -2   3  -7  111.49    5.60
  -2   3  -7  100.79    5.70
  -2   3  -7  114.49    5.30
  -2   3  -7  104.59    6.30
  -3  -3  -7  401.96   13.80
  -3  -3  -7  409.36   13.90
  -3  -3  -7  393.56   14.50
  -3   3  -7  412.16   13.80
  -3   3  -7  414.46   14.40
  -3   3  -7  423.66   14.40
  -3   3  -7  416.06   13.80
  -4  -3  -7    1.20    2.20
  -4  -3  -7   -0.60    1.50
  -4  -3  -7    0.50    1.50
  -4   3  -7   -0.20    1.60
  -4   3  -7    0.90    2.70
  -4   3  -7    0.70    1.60
  -4   3  -7    1.40    1.90
  -5  -3  -7    0.70    1.20
  -5  -3  -7   -0.10    1.00
  -5  -3  -7   -0.20    1.60
  -5   3  -7    0.80    1.10
  -5   3  -7    0.70    1.40
  -6  -4   7   33.30    3.60
  -6  -4   7   37.60    2.70
  -6   4   7   36.80    2.80
  -6   4   7   36.60    2.60
  -5  -4   7   25.30    3.90
  -5  -4   7   21.40    3.00
  -5  -4   7   20.40    3.50
  -5   4   7   23.90    2.90
  -5   4   7   25.30    4.10
  -5   4   7   27.70    3.20
  -4  -4   7    8.70    2.50
  -4  -4   7    8.80    2.10
  -4  -4   7   12.90    2.70
  -4   4   7    8.60    2.00
  -4   4   7    7.50    1.90
  -4   4   7    7.00    2.00
  -3  -4   7  129.89    5.90
  -3  -4   7  127.99    6.60
  -3  -4   7  128.89    5.30
  -3   4   7  128.69    5.30
  -3   4   7  131.59    6.00
  -3   4   7  123.99    5.90
  -2  -4   7   36.20    3.80
  -2  -4   7   47.30    2.80
  -2  -4   7   46.50    4.20
  -2   4   7   45.20    2.80
  -2   4   7   45.90    4.40
  -1  -4   7   63.99    3.40
   1  -4  -7   55.19    3.80
  -1  -4   7   60.69    3.20
  -1   4   7   60.69    3.20
  -1   4   7   58.99    3.00
   0  -4   7  254.87    9.30
   0  -4   7  279.97    9.50
   0   4   7  274.77    9.20
   0   4   7  290.17    9.40
  -2  -4  -7   -0.10    2.20
  -2  -4  -7    0.50    2.90
  -2  -4  -7    1.70    2.10
  -2   4  -7    1.20    2.00
  -2   4  -7   -0.60    2.60
  -2   4  -7    3.10    2.80
  -2   4  -7    1.60    1.90
  -3  -4  -7  261.07    9.70
  -3  -4  -7  260.57    9.60
  -3  -4  -7  275.87   10.40
  -3   4  -7  267.17    9.60
  -3   4  -7  261.97    9.60
  -3   4  -7  263.87   10.20
  -3   4  -7  262.77   10.20
  -4  -4  -7   -0.40    1.50
  -4  -4  -7   -0.50    1.40
  -4  -4  -7   -2.40    2.00
  -4   4  -7    1.80    1.60
  -4   4  -7   -2.40    1.90
  -4   4  -7   -1.70    2.60
  -5  -4  -7    0.40    1.00
  -5  -4  -7    3.00    1.20
  -5  -4  -7    1.60    1.70
  -5   4  -7    1.90    1.40
  -5   4  -7    1.70    1.20
  -6  -5   7    5.60    1.60
  -6   5   7    5.50    1.30
  -6   5   7    9.80    2.10
  -5  -5   7    7.00    2.50
  -5  -5   7    8.90    2.00
  -5  -5   7   14.00    2.90
  -5   5   7    7.20    1.80
  -5   5   7   13.80    2.70
  -5   5   7   13.20    2.90
  -4  -5   7  287.37   10.00
  -4  -5   7  270.67   10.10
  -4  -5   7  279.67   10.40
  -4   5   7  278.17   10.00
  -4   5   7  277.97   10.10
  -4   5   7  282.17   10.30
  -3  -5   7   28.60    5.00
  -3  -5   7   29.90    2.60
  -3  -5   7   28.00    3.70
  -3   5   7   32.80    2.60
  -3   5   7   28.80    3.70
  -3   5   7   31.40    3.70
  -2  -5   7  506.75   15.70
  -2  -5   7  486.75   16.10
  -2  -5   7  471.75   16.00
  -2   5   7  493.55   15.60
  -2   5   7  489.15   16.30
   1  -5  -7  525.55   17.90
  -1  -5   7  585.84   18.10
  -1  -5   7  553.14   17.80
  -1   5   7  577.14   17.80
  -1   5   7  603.54   17.80
   0  -5   7   93.09    4.70
   0  -5   7  105.39    4.70
   0   5   7  105.29    4.50
   0   5   7  112.29    4.70
  -1  -5  -7   34.40    5.10
  -1   5  -7   19.00    3.90
  -1   5  -7   16.40    3.40
  -2  -5  -7   11.50    2.50
  -2  -5  -7   14.80    3.00
  -2  -5  -7    9.80    2.30
  -2   5  -7   14.50    3.00
  -2   5  -7   19.80    4.40
  -2   5  -7   15.00    3.60
  -2   5  -7   14.40    2.40
  -3  -5  -7   18.00    2.90
  -3  -5  -7   12.40    3.00
  -3  -5  -7   19.90    4.30
  -3   5  -7   12.70    2.30
  -3   5  -7   20.60    3.70
  -3   5  -7   13.10    3.10
  -3   5  -7   17.80    3.80
  -4  -5  -7  134.09    6.60
  -4  -5  -7  139.19    5.90
  -4  -5  -7  144.39    6.10
  -4   5  -7  132.79    5.70
  -4   5  -7  138.59    6.40
  -4   5  -7  140.99    6.40
  -5  -5  -7    2.00    1.80
  -5  -5  -7    1.60    1.10
  -5  -5  -7    2.70    1.10
  -5   5  -7    2.70    2.80
  -5   5  -7    3.30    1.20
  -5   5  -7    2.20    1.40
  -6  -6   7    8.00    1.90
  -6   6   7   11.50    2.00
  -6   6   7   10.20    2.10
  -5  -6   7   41.10    3.70
  -5  -6   7   43.40    3.60
  -5  -6   7   43.70    4.60
  -5   6   7   39.40    4.40
  -5   6   7   45.60    3.30
  -5   6   7   53.09    3.70
  -4  -6   7   14.90    3.00
  -4  -6   7   13.90    2.70
  -4  -6   7   20.10    3.30
  -4   6   7   10.90    2.50
  -4   6   7   22.40    2.90
  -4   6   7   14.30    3.00
  -3  -6   7    6.90    2.20
  -3  -6   7    5.90    3.00
  -3  -6   7    6.80    1.50
  -3   6   7    7.60    1.60
  -3   6   7    8.50    2.40
  -3   6   7    7.80    2.10
  -2  -6   7   11.60    2.20
  -2  -6   7   18.70    3.70
  -2  -6   7   11.90    2.10
  -2   6   7   15.40    4.00
  -2   6   7   15.90    2.00
   1  -6  -7  347.77   12.40
  -1  -6   7  377.46   12.10
  -1  -6   7  368.96   12.40
  -1   6   7  387.86   12.10
  -1   6   7  375.46   12.10
   0  -6   7  214.18    7.80
   0  -6   7  214.18    8.00
   0   6   7  225.38    8.00
   0   6   7  223.58    7.70
  -1  -6  -7   55.89    5.30
  -1   6  -7   51.09    4.40
  -1   6  -7   54.69    4.90
  -2  -6  -7  105.39    5.40
  -2  -6  -7  118.59    5.70
  -2  -6  -7  115.99    6.40
  -2   6  -7  114.09    6.00
  -2   6  -7  112.19    6.00
  -2   6  -7  114.69    5.40
  -2   6  -7  108.19    6.00
  -3  -6  -7    1.10    1.70
  -3  -6  -7   -1.90    1.80
  -3  -6  -7    4.50    2.50
  -3   6  -7    3.50    1.90
  -3   6  -7   -0.90    2.40
  -3   6  -7   -3.00    2.10
  -4  -6  -7   80.29    4.30
  -4  -6  -7   80.29    4.20
  -4  -6  -7   79.39    5.20
  -4   6  -7   71.99    4.80
  -4   6  -7   83.29    4.20
  -4   6  -7   74.59    4.60
  -5  -6  -7    9.10    1.90
  -5  -6  -7    5.50    1.30
  -5  -6  -7    7.30    2.20
  -5   6  -7    9.40    2.20
  -5   6  -7   14.00    3.00
  -5   6  -7    9.30    1.80
  -6  -7   7    1.60    1.80
  -6   7   7    0.40    1.10
  -6   7   7    1.00    1.20
  -5  -7   7    3.10    1.90
  -5  -7   7    2.80    1.90
  -5  -7   7    2.10    3.40
  -5   7   7    1.40    1.60
  -5   7   7    0.40    2.50
  -5   7   7    3.60    1.70
  -4  -7   7    4.40    1.50
  -4  -7   7    5.90    2.90
  -4  -7   7    9.40    2.30
  -4   7   7    6.90    2.10
  -4   7   7    2.90    1.60
  -4   7   7    4.00    2.00
  -3  -7   7  182.98    7.00
  -3  -7   7  187.48    7.60
  -3  -7   7  179.08    8.70
  -3   7   7  186.68    7.00
  -3   7   7  190.48    7.70
  -3   7   7  189.28    7.70
  -2  -7   7   16.40    3.70
  -2  -7   7   24.20    2.30
  -2   7   7   18.10    4.00
  -2   7   7   20.30    2.20
  -1  -7   7   53.39    3.00
  -1  -7   7   46.60    3.60
   1  -7  -7   44.80    4.20
  -1   7   7   48.00    2.80
  -1   7   7   48.70    3.30
   0  -7   7   42.70    3.50
   0  -7   7   41.30    3.50
   0   7   7   48.30    3.00
   0   7   7   45.70    3.70
  -1  -7  -7    3.90    3.00
  -1   7  -7    6.60    2.40
   1   7   7    8.70    2.30
  -1   7  -7    6.90    2.90
  -2  -7  -7   18.20    4.30
  -2  -7  -7   21.70    3.50
  -2  -7  -7   22.40    3.20
  -2   7  -7   21.20    3.80
  -2   7  -7   31.60    4.40
  -2   7  -7   20.60    4.40
  -3  -7  -7   -1.90    2.60
  -3  -7  -7    0.60    1.80
  -3  -7  -7    1.10    1.90
  -3   7  -7    0.50    2.30
  -3   7  -7    1.40    1.90
  -3   7  -7    3.90    2.40
  -4  -7  -7    6.70    1.60
  -4  -7  -7    6.60    2.50
  -4  -7  -7   11.30    2.70
  -4   7  -7   11.30    2.50
  -4   7  -7   15.20    3.30
  -4   7  -7    9.90    1.90
  -5  -7  -7    3.40    1.10
  -5  -7  -7   -3.80    3.30
  -5  -7  -7    2.00    1.10
  -5   7  -7    2.40    1.10
  -5   7  -7    1.30    1.80
  -5   7  -7    2.50    1.40
  -6  -8   7    5.30    2.00
  -6   8   7    3.60    1.20
  -6   8   7    4.60    1.20
  -5  -8   7   51.69    4.00
  -5  -8   7   45.60    3.90
  -5   8   7   44.40    3.70
  -5   8   7   54.09    3.40
  -5   8   7   45.30    4.70
  -4  -8   7   26.20    2.90
  -4  -8   7   31.30    5.60
  -4  -8   7   26.20    3.60
  -4   8   7   21.10    3.40
  -4   8   7   23.60    3.20
  -4   8   7   23.80    3.00
  -3  -8   7  475.15   15.80
  -3  -8   7  476.75   15.50
  -3   8   7  457.25   15.70
  -3   8   7  485.05   15.50
  -3   8   7  473.65   15.90
  -2  -8   7   14.10    2.10
  -2  -8   7   18.90    3.60
  -2   8   7   15.00    2.90
  -2   8   7   15.60    2.10
  -1  -8   7  551.44   17.10
  -1  -8   7  514.05   17.60
  -1   8   7  562.44   17.10
  -1   8   7  532.95   17.10
   0  -8   7   18.10    3.30
   0   8   7   19.60    2.30
   0   8   7   21.80    3.50
  -1  -8  -7  178.58    8.30
  -1  -8  -7  171.38    7.90
  -1  -8  -7  175.08    7.40
   1   8   7  184.58    6.80
  -1   8  -7  180.98    7.30
  -1   8  -7  171.38    8.30
  -2  -8  -7   32.80    5.00
  -2  -8  -7   28.70    3.50
  -2  -8  -7   29.80    3.70
  -2   8  -7   30.30    4.00
  -2   8  -7   32.90    4.70
  -2   8  -7   38.50    4.50
  -3  -8  -7  142.19    6.10
  -3  -8  -7  128.89    7.10
  -3  -8  -7  125.29    5.90
  -3   8  -7  138.89    6.50
  -3   8  -7  133.09    6.50
  -3   8  -7  132.59    6.00
  -4  -8  -7    0.70    3.20
  -4  -8  -7    1.60    1.60
  -4  -8  -7    0.30    1.50
  -4   8  -7   -1.10    1.60
  -4   8  -7    0.00    2.10
  -4   8  -7    2.00    2.00
  -5  -8  -7    2.00    1.00
  -5  -8  -7    0.50    1.00
   5  -8   7    2.70    1.30
  -5   8  -7    2.40    1.50
  -5   8  -7    3.00    1.70
  -5   8  -7    0.60    1.00
  -6  -9   7    5.90    2.50
  -6   9   7    3.80    1.30
  -6   9   7    3.30    1.20
  -5  -9   7   54.69    4.00
  -5  -9   7   50.09    3.90
  -5   9   7   61.69    3.60
  -5   9   7   53.39    3.80
  -5   9   7   55.59    6.80
  -4  -9   7    1.80    2.00
  -4   9   7    0.50    1.90
  -4   9   7   -1.70    1.90
  -3  -9   7    7.20    2.50
  -3  -9   7    5.60    1.50
  -3   9   7    9.90    2.60
  -3   9   7    9.90    2.40
  -3   9   7    9.40    2.60
  -2  -9   7   14.40    2.90
  -2  -9   7   12.40    2.20
  -2   9   7   15.90    2.70
  -2   9   7   16.40    2.20
  -1  -9   7   26.60    2.80
  -1  -9   7   27.40    3.90
  -1   9   7   26.30    2.30
   0  -9   7  176.58    6.80
   0   9   7  170.08    7.30
  -1  -9  -7   31.10    4.90
  -1  -9  -7   25.80    5.40
  -1  -9  -7   28.90    4.00
  -1   9  -7   21.30    3.40
  -1   9  -7   32.70    4.00
   1   9   7   30.20    3.40
  -2  -9  -7    4.80    3.20
  -2  -9  -7    2.30    2.10
  -2  -9  -7    1.30    2.00
  -2   9  -7    2.10    2.20
  -2   9  -7    4.70    2.80
  -2   9  -7    4.50    2.60
  -3  -9  -7    5.20    1.90
  -3  -9  -7    8.00    3.10
  -3  -9  -7    6.00    2.00
  -3   9  -7    6.40    2.40
  -3   9  -7    7.10    2.10
  -3   9  -7    2.40    2.20
  -4  -9  -7   16.80    2.90
  -4  -9  -7   15.80    2.70
  -4  -9  -7   16.00    2.70
  -4   9  -7   22.20    4.40
   5  -9   7   33.90    2.60
  -5  -9  -7   35.40    2.30
  -5  -9  -7   32.80    2.30
  -5   9  -7   32.90    2.70
  -5   9  -7   29.40    2.60
  -6  10   7    3.30    1.30
  -6  10   7    3.70    1.30
  -5 -10   7   53.99    4.00
  -5 -10   7   58.39    4.10
  -5  10   7   53.99    3.60
  -4 -10   7  106.79    5.50
  -4 -10   7   97.29    4.90
  -4  10   7  104.89    5.40
  -4  10   7   99.79    5.00
  -4  10   7  104.19    5.30
  -3 -10   7  132.89    8.60
  -3 -10   7  163.98    6.20
  -3  10   7  155.38    6.20
  -3  10   7  150.28    6.90
  -2 -10   7   16.70    2.30
  -2 -10   7   18.50    3.80
  -2  10   7   16.80    2.20
  -2  10   7   14.40    3.00
  -1 -10   7   -0.60    2.40
  -1 -10   7    0.50    1.40
  -1  10   7    0.90    1.10
   0 -10   7   52.59    4.90
   0 -10   7   50.69    3.90
   0  10   7   54.39    3.10
  -1 -10  -7   91.79    5.00
  -1 -10  -7   85.69    5.70
  -1 -10  -7   88.69    6.60
  -1  10  -7   80.99    6.40
  -1  10  -7   91.89    4.80
   1  10   7   91.09    4.50
  -2 -10  -7   30.30    5.60
  -2 -10  -7   26.50    5.30
  -2  10  -7   30.60    3.60
  -2  10  -7   30.50    4.90
  -2  10  -7   24.60    4.60
  -3 -10  -7   10.00    3.20
  -3 -10  -7    8.10    2.00
  -3 -10  -7    6.40    2.00
  -3  10  -7    6.60    2.20
  -3  10  -7    9.80    2.30
  -3  10  -7    7.70    2.40
  -4 -10  -7   39.40    4.90
  -4  10  -7   39.50    3.00
  -4  10  -7   47.60    3.70
  -4  10  -7   40.50    3.70
  -5 -10  -7   -0.40    0.90
   5 -10   7    0.80    1.10
  -5 -10  -7    0.30    1.00
  -5  10  -7    0.80    1.40
  -6  11   7    0.00    1.30
  -6  11   7    4.00    2.40
  -5 -11   7    2.90    2.10
  -5 -11   7    3.00    1.90
  -5  11   7    4.80    1.60
  -5  11   7    1.70    1.70
  -4 -11   7    1.10    1.60
  -4 -11   7   -1.00    2.20
  -4  11   7   -2.70    1.60
  -4  11   7    3.70    2.20
  -4  11   7   -0.90    1.90
  -3 -11   7  252.07    9.50
  -3 -11   7  256.07    9.20
  -3  11   7  258.87    9.10
  -3  11   7  241.78    9.60
  -3  11   7  251.67    9.70
  -2 -11   7  369.26   12.60
  -2 -11   7  360.16   12.10
  -2  11   7  358.26   12.90
  -2  11   7  354.56   12.00
   1 -11  -7    0.90    3.40
  -1 -11   7    3.20    2.50
  -1 -11   7    0.40    1.50
  -1  11   7   -0.50    1.10
   0 -11  -7    9.20    3.50
   0 -11   7    7.30    2.20
   0 -11  -7    6.90    2.60
   0 -11   7    8.20    2.80
   0  11   7    5.00    1.40
   1 -11   7    9.90    2.50
  -1 -11  -7   16.00    2.50
  -1 -11  -7   17.70    4.40
  -1 -11  -7   19.00    3.80
  -1  11  -7   15.40    4.10
  -1  11  -7    9.90    2.20
   1  11   7    8.40    2.00
  -2 -11  -7   -1.90    1.90
  -2 -11  -7    2.80    3.80
  -2 -11  -7    2.10    2.00
  -2  11  -7    3.20    2.10
  -2  11  -7   -1.50    2.50
  -3 -11  -7    5.80    3.60
  -3 -11  -7    4.40    1.90
  -3 -11  -7    8.20    2.00
  -3  11  -7    3.10    2.40
  -3  11  -7    4.70    2.00
  -3  11  -7    5.10    2.10
  -4 -11  -7  120.59    5.30
   4 -11   7  126.59    5.40
  -4 -11  -7  122.29    5.30
  -4  11  -7  119.39    5.60
  -4  11  -7  126.69    5.60
  -4  11  -7  118.29    5.10
   5 -11   7    6.00    1.60
  -5 -11  -7    4.10    1.00
  -5 -11  -7    4.90    1.10
  -5  11  -7    6.50    1.60
  -5  11  -7    4.00    1.50
  -6  12   7   55.89    2.90
  -6  12   7   41.70    2.60
  -5 -12   7    8.70    2.10
  -5 -12   7   10.50    2.60
  -5  12   7    9.00    1.80
  -5  12   7    8.70    1.90
  -4 -12   7  290.27   10.70
  -4 -12   7  278.97   10.30
  -4  12   7  297.57   10.60
  -4  12   7  299.07   10.80
  -4  12   7  294.27   10.50
  -3 -12   7   25.70    4.00
  -3 -12   7   24.90    2.80
  -3  12   7   28.30    2.80
  -3  12   7   29.40    4.50
  -3  12   7   21.30    4.00
  -2 -12   7  352.06   12.00
  -2 -12   7  374.26   12.70
   2 -12  -7  340.87   12.70
  -2  12   7  362.06   12.80
  -2  12   7  361.96   12.10
  -1 -12   7   42.20    3.10
  -1 -12   7   33.80    6.00
   1 -12  -7   34.50    5.00
  -1  12   7   37.60    2.80
   0 -12   7    9.40    2.70
   0 -12  -7   12.10    2.60
   0 -12   7    4.00    2.20
   0  12   7    5.40    1.30
  -1 -12  -7  290.07   10.40
  -1 -12  -7  285.77   10.80
   1 -12   7  289.77   10.50
   1  12   7  294.77   10.10
  -1  12  -7  298.87   10.60
  -2 -12  -7  160.58    7.00
  -2 -12  -7  163.98    6.80
  -2  12  -7  166.88    7.00
  -2  12  -7  162.68    8.00
  -3 -12  -7    0.90    1.80
  -3 -12  -7   -0.40    1.60
  -3  12  -7   -2.50    1.90
  -3  12  -7   -5.20    2.40
  -3  12  -7    0.70    1.90
  -4 -12  -7   69.29    3.80
  -4 -12  -7   65.19    3.80
   4 -12   7   70.09    3.90
  -4  12  -7   74.79    4.00
  -4  12  -7   70.89    4.10
   5 -12   7    5.20    1.20
  -5  12  -7    1.30    1.50
  -5  12  -7    2.00    1.30
  -6  13   7    2.60    1.40
  -6  13   7    2.30    1.50
  -5 -13   7    3.10    2.30
  -5  13   7    0.90    1.60
  -5  13   7    3.30    1.60
  -4 -13   7  186.78    7.40
  -4 -13   7  184.78    7.90
  -4  13   7  182.18    7.60
  -4  13   7  199.18    7.70
  -4  13   7  199.98    8.00
  -3 -13   7   92.89    4.50
  -3 -13   7   87.39    5.30
   3 -13  -7   83.29    5.60
  -3  13   7   90.49    5.50
  -3  13   7   93.79    4.60
  -3  13   7   84.79    5.90
  -2 -13   7  233.18    9.10
   2 -13  -7  219.08    9.00
  -2 -13   7  237.28    8.40
  -2  13   7  236.58    8.40
  -2  13   7  221.18    9.30
   1 -13  -7   13.70    2.80
  -1 -13   7   22.30    2.60
  -1 -13   7   19.30    3.60
  -1  13   7   14.30    2.20
   0 -13  -7  133.99    6.10
   0 -13   7  137.49    6.10
   0 -13   7  133.59    6.30
   0  13   7  142.79    5.50
  -1 -13  -7   23.40    4.30
  -1 -13  -7   17.70    3.20
   1 -13   7   20.80    3.40
   1  13   7   17.70    2.90
  -1  13  -7   27.20    3.30
  -2 -13  -7  155.38    6.80
  -2 -13  -7  161.68    6.70
   2 -13   7  157.78    6.70
  -2  13  -7  143.19    7.80
  -2  13  -7  156.78    6.90
   3 -13   7    5.20    2.00
  -3 -13  -7    2.20    1.70
  -3 -13  -7    1.80    1.70
  -3  13  -7    1.80    2.60
  -3  13  -7    2.70    1.80
   4 -13   7   32.60    2.90
  -4 -13  -7   30.00    2.60
  -4 -13  -7   32.60    2.70
  -4  13  -7   36.70    3.10
  -4  13  -7   33.40    3.60
  -5 -13  -7    0.50    0.90
   5 -13   7    0.10    1.20
  -5 -13  -7   -0.90    0.90
  -5  13  -7   -3.20    2.50
  -5  13  -7    0.30    1.20
  -5 -14   7   15.00    3.20
  -5  14   7   16.90    2.80
  -5  14   7   12.70    2.80
  -4 -14   7    8.40    2.70
  -4 -14   7    6.00    1.90
  -4  14   7    7.30    2.30
  -4  14   7    7.80    2.10
  -4  14   7    5.00    2.30
  -3 -14   7    3.40    1.60
  -3 -14   7    3.40    2.60
   3 -14  -7    1.80    2.60
  -3  14   7    2.00    2.60
  -3  14   7    2.60    1.70
  -2 -14   7  188.08    8.20
   2 -14  -7  181.18    7.80
  -2 -14   7  199.98    7.40
  -2  14   7  197.18    7.40
  -2  14   7  194.88    8.70
  -1 -14   7   68.99    3.90
  -1 -14   7   62.79    5.70
   1 -14  -7   57.59    4.80
  -1  14   7   62.99    3.50
   0 -14   7   67.89    4.40
   0 -14  -7   64.89    4.40
   0 -14   7   64.49    4.40
   0  14   7   65.09    3.50
   0  14  -7   61.79    4.40
  -1 -14  -7   21.30    4.30
   1 -14   7   22.40    3.40
  -1  14  -7   18.10    3.20
   1  14   7   14.80    2.80
  -2 -14  -7   13.60    2.60
   2 -14   7    8.50    2.30
  -2 -14  -7   15.40    3.20
  -2  14  -7   15.60    3.90
  -2  14  -7   16.60    3.10
   3 -14   7   30.80    3.40
  -3 -14  -7   34.40    3.30
  -3 -14  -7   34.80    3.20
  -3  14  -7   41.10    4.60
  -3  14  -7   32.00    3.50
  -4 -14  -7   10.70    2.20
   4 -14   7   12.00    2.20
  -4 -14  -7   15.10    2.20
  -4  14  -7   19.40    3.70
  -4  14  -7   13.80    2.50
  -5 -15   7   11.10    2.30
  -5  15   7    6.30    1.90
  -5  15   7    7.90    1.90
  -4 -15   7    3.70    1.60
  -4  15   7    7.70    2.50
  -4  15   7    2.20    1.90
  -4  15   7   -0.40    2.20
  -3 -15   7  111.39    5.70
   3 -15  -7  112.39    5.80
  -3 -15   7  116.69    6.20
  -3  15   7  103.69    5.20
  -3  15   7  113.69    6.50
   2 -15  -7   20.90    4.30
  -2 -15   7   28.40    2.80
  -2  15   7   23.60    2.70
   1 -15  -7  265.87    9.90
  -1 -15   7  281.57    9.70
  -1 -15   7  261.47   10.30
  -1  15   7  274.67    9.50
   0 -15   7    6.60    2.50
   0 -15  -7    9.10    2.30
   0 -15   7    6.20    2.20
   0  15   7   10.90    1.80
   0  15  -7    7.30    2.00
  -1 -15  -7   47.40    3.90
   1 -15   7   47.70    3.80
  -1 -15  -7   37.20    4.40
   1  15   7   50.19    3.50
  -1  15  -7   49.50    4.00
  -2 -15  -7   10.90    2.30
  -2 -15  -7   12.30    2.40
   2 -15   7   11.80    2.80
  -2  15  -7   11.00    2.30
  -3 -15  -7   30.20    3.00
  -3 -15  -7   30.00    3.30
   3 -15   7   29.20    3.10
  -3  15  -7   27.60    4.60
  -3  15  -7   32.50    3.20
  -4 -15  -7    5.10    1.30
  -4 -15  -7    1.90    1.10
   4 -15   7    4.60    1.30
  -4  15  -7    2.60    2.40
  -4  15  -7    5.40    1.60
  -5 -16   7   84.09    4.70
  -5  16   7   85.39    4.40
  -5  16   7   82.49    4.40
   4 -16  -7   12.40    2.70
  -4 -16   7   10.70    2.60
  -4  16   7   13.30    3.40
  -4  16   7    9.40    3.00
  -3 -16   7  252.27    9.20
   3 -16  -7  246.18    9.30
  -3  16   7  238.68    9.10
  -3  16   7  255.47    9.80
  -2 -16   7  131.89    7.40
   2 -16  -7  116.19    5.80
  -2 -16   7  117.09    5.40
  -2  16   7  115.19    5.30
  -1 -16   7   24.60    3.10
  -1  16   7   17.10    2.40
   0 -16  -7   22.00    3.20
   0 -16   7   29.80    3.70
   0 -16   7   19.40    4.40
   0  16  -7   25.00    3.50
   0  16   7   24.70    2.60
   1 -16   7  522.55   17.20
  -1 -16  -7  510.65   17.30
  -1 -16  -7  516.95   17.10
  -1  16  -7  528.25   17.40
   1  16   7  541.15   17.00
  -2 -16  -7    0.40    1.90
   2 -16   7    3.50    1.70
  -2 -16  -7    0.70    1.80
  -2  16  -7   -1.00    1.80
  -3 -16  -7    1.60    1.60
  -3 -16  -7    0.90    1.50
   3 -16   7    2.00    1.60
  -3  16  -7    0.40    1.60
  -4 -16  -7    3.30    1.20
  -4 -16  -7    1.90    1.10
   4 -16   7    2.30    1.20
  -4  16  -7    2.50    1.50
  -5 -17   7   27.40    3.60
  -4 -17   7    3.10    1.60
   4 -17  -7    3.40    2.30
  -4  17   7    3.50    2.10
  -4  17   7    0.70    2.30
  -3 -17   7    1.10    1.50
   3 -17  -7    1.10    2.20
  -3  17   7   -1.60    3.10
  -3  17   7    1.30    1.60
   2 -17  -7  105.79    5.50
  -2 -17   7  115.79    5.30
  -2 -17   7  103.69    6.40
  -2  17   7  109.69    5.10
  -1 -17   7  328.17   11.30
   1 -17  -7  312.87   11.20
  -1 -17   7  326.77   11.50
  -1  17   7  320.77   11.10
   0 -17  -7   50.39    3.80
   0 -17   7   49.10    4.60
   0 -17   7   48.60    3.90
   0  17   7   53.59    3.30
   0  17  -7   51.69    4.00
   1 -17   7    0.30    1.80
  -1 -17  -7   -6.40    2.30
  -1 -17  -7    0.90    1.80
  -1  17  -7   -0.50    2.00
   1  17   7    0.30    1.60
   2 -17   7   22.70    3.20
  -2 -17  -7   19.00    3.20
  -2 -17  -7   24.10    3.60
  -2  17  -7   21.80    3.20
   3 -17   7    8.90    2.60
  -3 -17  -7   13.90    3.20
  -3 -17  -7    7.90    2.50
  -3  17  -7    9.10    2.50
  -4 -17  -7    0.80    1.10
   4 -17   7    3.10    1.20
   4 -17   7    2.60    1.70
  -4 -17  -7    2.10    1.20
  -4  17  -7    4.40    1.30
  -4 -18   7   11.10    2.70
   4 -18  -7    6.90    2.30
  -4  18   7   13.90    2.40
  -3 -18   7   30.00    3.10
   3 -18  -7   34.20    3.70
  -3  18   7   28.40    3.20
   2 -18  -7   58.59    4.10
  -2 -18   7   52.99    3.80
  -2 -18   7   62.19    5.10
  -2  18   7   54.69    3.60
  -1 -18   7    0.70    1.80
   1 -18  -7    2.30    1.90
  -1 -18   7    0.60    2.20
   1  18  -7    2.40    2.20
  -1  18   7    1.20    1.40
   0 -18   7  128.99    6.00
   0 -18   7  129.99    6.40
   0 -18  -7  130.29    5.90
   0  18   7  136.19    5.60
   0  18  -7  124.99    5.90
  -1 -18  -7    7.10    2.60
  -1 -18  -7   12.70    2.90
   1 -18   7    9.70    2.00
  -1  18  -7    9.50    2.30
  -2 -18  -7   34.20    3.40
  -2 -18  -7   41.90    3.90
   2 -18   7   38.60    3.50
  -2  18  -7   40.70    3.60
   3 -18   7   10.60    2.40
  -3 -18  -7   12.60    2.40
   3 -18   7   10.20    2.20
  -3 -18  -7   14.30    2.50
  -3  18  -7   16.00    2.70
  -4 -18  -7   89.59    3.80
   4 -18   7   85.89    4.30
   4 -18   7   86.59    3.80
  -4 -18  -7   82.29    3.70
  -4  18  -7   87.69    3.80
  -4 -19   7  113.79    5.30
   4 -19  -7  110.99    5.30
  -4  19   7  115.59    5.70
  -3 -19   7   -0.10    1.50
   3 -19  -7    2.10    1.90
  -3  19   7    0.70    1.70
  -2 -19   7   56.09    5.00
   2 -19  -7   62.29    4.00
  -2 -19   7   54.29    3.90
  -2  19   7   56.79    3.70
  -1 -19   7  224.38    8.60
   1 -19  -7  215.38    8.20
   1  19  -7  212.18    8.50
  -1  19   7  208.78    9.50
   0 -19   7  111.99    5.50
   0 -19   7  107.99    6.30
   0 -19  -7  111.69    5.40
   0  19  -7  114.79    5.70
   1 -19   7   -0.50    1.80
  -1 -19  -7   -5.30    2.20
  -1 -19  -7    4.20    1.80
   1  19   7   -1.10    1.60
  -1  19  -7   -0.70    1.90
  -2 -19  -7   18.00    3.00
   2 -19   7   18.80    2.80
  -2 -19  -7   12.80    2.30
  -2  19  -7   18.30    2.80
  -3 -19  -7    0.20    1.30
  -3 -19  -7   -0.40    1.20
   3 -19   7    0.60    1.30
  -3  19  -7   -0.90    1.40
  -4 -19  -7   25.80    2.10
  -4  19  -7   26.30    2.00
  -4 -20   7   47.90    3.50
   4 -20  -7   51.79    3.70
  -4  20   7   55.39    4.70
  -3 -20   7   32.30    3.30
  -3  20   7   35.30    3.30
  -2 -20   7   22.10    3.10
   2 -20  -7   28.80    3.50
  -2 -20   7   30.40    4.30
   2  20  -7   31.60    4.50
  -2  20   7   24.60    2.80
   1 -20  -7   23.80    3.10
  -1 -20   7   27.30    3.70
  -1 -20   7   25.20    3.50
  -1  20   7   24.80    2.90
   1  20  -7   25.30    3.90
   0 -20  -7    8.10    2.10
   0 -20   7    2.90    3.10
   0 -20   7   13.80    3.20
   0  20   7    9.50    2.40
   0  20  -7    5.60    2.40
  -1 -20  -7   24.20    2.90
  -1 -20  -7   12.80    2.70
   1 -20   7   22.60    3.00
  -1  20  -7   16.70    3.20
   1  20   7   18.40    2.90
  -2 -20  -7   90.69    4.60
   2 -20   7   90.19    4.60
  -2 -20  -7  101.69    6.70
  -2  20  -7   87.09    4.70
   3 -20   7    7.10    1.50
  -3 -20  -7    8.90    2.00
  -3 -20  -7    9.90    2.40
  -3  20  -7   13.10    2.30
  -4 -20  -7   70.99    3.10
   4 -20   7   72.59    3.20
   4 -21  -7    0.90    1.90
  -4 -21   7   -2.90    1.50
  -3 -21   7   -1.40    1.50
   3 -21  -7    4.00    1.70
  -3  21   7    0.10    1.60
   2 -21  -7   56.59    4.00
  -2 -21   7   56.29    4.50
  -2 -21   7   45.80    3.60
  -2  21   7   56.09    3.60
  -1 -21   7   75.59    4.50
   1 -21  -7   69.09    4.10
  -1 -21   7   71.49    4.50
  -1  21   7   65.79    4.00
   1  21  -7   76.19    5.10
   0 -21  -7   18.50    3.10
   0 -21   7   24.30    3.30
   0  21  -7   21.80    3.60
   0  21   7   21.10    2.70
  -1 -21  -7   39.20    4.10
  -1 -21  -7   33.20    3.20
   1 -21   7   34.80    3.40
   1  21   7   24.80    3.10
  -1  21  -7   37.30    3.60
   2 -21   7    6.20    1.60
  -2 -21  -7    2.80    1.80
  -2 -21  -7    4.30    1.60
  -2  21  -7    4.80    1.70
  -3 -21  -7    4.90    1.40
  -3 -21  -7    5.00    1.30
   3 -21   7    3.40    1.30
  -3  21  -7    3.70    1.40
   4 -22  -7    4.40    1.90
  -4 -22   7    8.20    2.00
  -3 -22   7   22.80    2.80
   3 -22  -7   22.70    2.90
  -3  22   7   24.30    3.00
  -2 -22   7    6.80    2.20
  -2 -22   7    9.00    2.10
   2 -22  -7    7.30    1.80
  -2  22   7    6.10    1.70
  -1 -22   7   51.59    4.10
  -1 -22   7   48.20    4.20
   1 -22  -7   54.19    3.60
   1  22  -7   48.80    4.90
  -1  22   7   47.10    3.40
   0 -22  -7    3.60    1.70
   0 -22   7    2.10    1.70
   0  22  -7    4.30    2.40
   0  22   7    5.40    1.50
   1 -22   7    2.10    1.60
  -1 -22  -7    4.10    1.60
   1  22   7    5.40    1.80
  -1  22  -7    3.10    2.60
   2 -22   7   -0.80    1.40
  -2 -22  -7    0.00    1.60
  -2 -22  -7    0.50    1.40
  -2  22  -7    0.80    1.50
  -3 -22  -7   47.40    2.90
  -3 -22  -7   46.90    2.80
   3 -22   7   43.30    2.80
  -3  22  -7   47.90    2.90
  -4 -23   7    0.40    2.00
   4 -23  -7    0.90    2.60
   3 -23  -7   19.10    2.60
  -3 -23   7   22.40    3.30
  -3  23   7   23.10    3.00
  -2 -23   7   -1.60    1.60
   2 -23  -7   -2.00    1.50
  -2 -23   7    2.40    2.10
  -2  23   7    0.20    1.50
  -1 -23   7    0.40    2.40
   1 -23  -7   -0.60    1.60
  -1 -23   7    4.10    2.20
  -1  23   7    0.10    1.30
   0 -23  -7   -3.10    1.50
   0 -23   7   -0.40    1.60
   0  23  -7    1.60    2.60
   0  23   7   -0.10    1.50
  -1 -23  -7    0.30    1.40
   1 -23   7    1.40    1.50
  -1 -23  -7   -0.70    2.00
  -1  23  -7   -2.00    1.80
  -2 -23  -7   67.89    3.50
  -2 -23  -7   67.09    3.70
   2 -23   7   61.89    3.50
  -2  23  -7   63.09    3.70
   3 -23   7   -1.60    1.00
  -3 -23  -7    1.70    1.00
  -3 -23  -7    0.80    1.10
  -3  23  -7   -1.10    1.70
   3 -24  -7    1.30    1.50
  -3 -24   7   -0.60    1.60
  -3  24   7    3.40    1.90
  -2 -24   7    0.10    1.80
  -2 -24   7   -1.70    1.90
   2 -24  -7    1.50    1.40
  -2  24   7   -0.40    1.40
  -1 -24   7   56.99    3.80
   1 -24  -7   58.29    3.40
  -1  24   7   51.79    3.40
   0 -24   7   34.40    3.10
   0 -24  -7   36.40    3.10
   0  24   7   35.90    3.10
   0  24  -7   33.20    4.50
  -1 -24  -7   90.89    4.80
  -1 -24  -7   93.49    4.30
   1 -24   7   95.39    4.40
   1  24   7   87.49    4.60
  -1  24  -7   88.29    4.80
  -2 -24  -7  165.58    6.30
   2 -24   7  172.08    6.30
  -2 -24  -7  166.58    6.30
  -2  24  -7  173.28    6.40
  -3 -24  -7    3.10    1.00
  -3 -24  -7    4.00    1.20
   3 -24   7    0.40    1.00
  -3  24  -7    3.00    1.70
   3 -25  -7   30.50    2.50
  -3  25   7   33.40    3.70
   2 -25  -7   66.89    3.50
  -2 -25   7   66.69    4.00
  -2  25   7   69.99    4.30
   1 -25  -7    6.90    1.60
  -1 -25   7    7.70    1.70
  -1  25   7    7.50    1.70
   0 -25   7   31.20    2.90
   0 -25  -7   33.00    2.70
   0  25   7   31.40    2.90
  -1 -25  -7   -0.40    2.10
  -1 -25  -7    2.20    1.30
   1 -25   7    2.10    1.30
   1  25   7    4.00    1.90
  -1  25  -7    2.70    2.40
   2 -25   7    4.80    1.20
  -2 -25  -7    3.30    1.50
  -2 -25  -7    4.60    1.20
  -2  25  -7    4.70    2.00
   3 -26  -7    1.90    1.30
  -2 -26   7   30.70    3.40
   2 -26  -7   29.50    2.40
  -2  26   7   31.20    3.00
  -1 -26   7    3.70    1.50
   1 -26  -7    3.20    1.40
   0 -26   7   -0.80    1.30
   0 -26  -7   -0.60    1.20
   0  26   7    2.50    1.70
   1 -26   7   57.59    3.20
  -1 -26  -7   59.39    3.10
   1  26   7   54.59    3.80
  -2 -26  -7    0.00    1.00
   2 -26   7    1.60    1.00
  -2 -26  -7    4.70    1.60
   3 -27  -7   20.50    2.40
   2 -27  -7   17.30    2.20
  -2 -27   7   19.80    2.90
  -2  27   7   21.50    2.70
  -1 -27   7    7.20    1.50
   1 -27  -7    6.40    1.40
  -1  27   7    6.60    1.60
   0 -27  -7   17.50    2.10
   0 -27   7   21.10    2.50
   0  27   7   22.60    2.70
  -1 -27  -7    4.40    1.20
   1 -27   7    5.30    1.20
   1  27   7    6.90    2.30
  -2 -27  -7   -0.10    0.90
   2 -27   7    0.50    1.00
   2 -28  -7   13.40    2.00
  -2 -28   7    8.70    2.20
  -1 -28   7    1.80    1.40
   1 -28  -7    0.60    1.10
  -1  28   7   -1.40    1.50
   0 -28  -7   57.49    2.90
   0 -28   7   54.59    3.00
   0  28   7   51.79    3.50
   1 -28   7   42.10    2.90
  -1 -28  -7   47.60    2.60
   1 -29  -7   19.60    1.90
  -1 -29   7   19.10    2.30
   0 -29  -7   19.20    2.00
   0 -29   7   21.00    2.10
  -1 -29  -7   13.70    1.60
  -6   0   8    8.00    1.40
  -6   0   8    7.70    1.60
  -5   0   8    2.40    1.90
  -5   0   8   -1.20    1.60
  -5   0   8   -2.60    1.70
  -4   0   8   -1.70    1.60
  -4   0   8    0.20    1.50
  -4   0   8    2.10    2.10
  -3   0   8    5.50    2.10
  -3   0   8    2.70    2.30
  -3   0   8    1.10    1.30
  -2   0   8  380.96   12.50
  -2   0   8  372.86   13.20
  -2   0   8  386.96   13.10
  -1   0   8   -0.20    1.20
  -1   0   8    1.50    1.80
   0   0  -8   32.50    3.70
   0   0   8   36.40    3.20
  -1   0  -8   -0.70    2.30
  -1   0  -8   -1.70    3.40
  -1   0  -8    0.00    2.60
  -2   0  -8   25.50    3.50
  -2   0  -8   28.10    3.90
  -2   0  -8   18.50    4.10
  -2   0  -8   28.60    5.70
  -3   0  -8    0.70    1.80
  -3   0  -8   -0.30    1.70
  -3   0  -8    2.30    2.10
  -4   0  -8   58.99    3.70
  -4   0  -8   61.59    3.90
  -4   0  -8   59.99    4.20
  -5   0  -8   -0.40    1.30
  -5   0  -8    1.40    1.10
  -6  -1   8   62.69    3.50
  -6  -1   8   57.69    3.20
  -6   1   8   67.49    3.50
  -6   1   8   59.59    3.10
  -5  -1   8    2.00    1.90
  -5  -1   8    2.90    1.60
  -5  -1   8    1.50    1.90
  -5   1   8    0.80    1.50
  -5   1   8    2.70    1.90
  -5   1   8    4.10    2.00
  -4  -1   8  152.88    6.20
  -4  -1   8  140.59    6.60
  -4  -1   8  141.29    6.30
  -4   1   8  149.69    6.60
  -4   1   8  151.98    6.20
  -4   1   8  145.89    6.30
  -3  -1   8  209.08    8.00
  -3  -1   8  211.88    8.40
  -3  -1   8  201.08    7.50
  -3   1   8  203.08    8.00
  -3   1   8  204.38    8.30
  -3   1   8  194.68    7.50
  -2  -1   8    4.10    2.30
  -2  -1   8    5.00    2.50
  -2  -1   8    2.10    1.20
  -2   1   8    1.20    2.40
  -2   1   8    2.40    1.20
  -2   1   8    3.10    2.20
  -1  -1   8   87.89    3.80
  -1  -1   8   75.39    4.70
  -1   1   8   84.09    3.80
  -1   1   8   77.89    4.70
   0  -1  -8   37.30    3.80
   0  -1   8   44.10    3.40
   0   1   8   40.00    3.30
   0   1   8   51.29    5.00
   0   1  -8   36.40    3.80
  -1  -1  -8   10.70    2.70
  -1  -1  -8   12.40    2.80
  -1   1  -8   10.50    2.70
  -1   1  -8    8.90    3.10
  -1   1  -8   10.00    2.40
  -2  -1  -8    3.20    2.60
  -2  -1  -8    2.30    1.80
  -2  -1  -8    5.20    2.30
  -2   1  -8   -3.10    3.10
  -2   1  -8    3.90    2.30
  -2   1  -8    2.40    1.80
  -2   1  -8    3.30    2.70
  -3  -1  -8  183.68    7.20
  -3  -1  -8  180.58    7.20
  -3  -1  -8  180.98    8.00
  -3   1  -8  170.78    7.10
  -3   1  -8  182.38    7.90
  -3   1  -8  183.48    8.20
  -3   1  -8  178.68    7.20
  -4  -1  -8   10.10    2.40
  -4  -1  -8    6.20    2.10
  -4  -1  -8    6.70    1.70
  -4   1  -8   11.20    2.70
  -4   1  -8    5.70    1.90
  -4   1  -8    7.40    1.80
  -5  -1  -8    9.80    1.90
  -5  -1  -8   14.60    2.30
  -5   1  -8   13.40    2.30
  -5   1  -8   13.40    2.00
  -6  -2   8    0.60    1.50
  -6  -2   8    2.80    1.30
  -6   2   8    2.80    1.20
  -6   2   8    2.00    1.30
  -5  -2   8   -0.70    1.80
  -5  -2   8    3.30    1.70
  -5  -2   8    1.90    1.90
  -5   2   8    0.60    1.50
  -5   2   8    1.00    2.20
  -5   2   8    0.00    1.80
  -4  -2   8  165.88    7.10
  -4  -2   8  151.38    6.70
  -4  -2   8  164.48    6.50
  -4   2   8  157.38    6.60
  -4   2   8  154.18    6.90
  -4   2   8  158.78    6.50
  -3  -2   8  227.78    8.30
  -3  -2   8  233.68    8.70
  -3  -2   8  232.98    9.00
  -3   2   8  219.28    8.20
  -3   2   8  228.68    8.90
  -3   2   8  221.68    8.60
  -2  -2   8  106.19    5.30
  -2  -2   8   92.49    5.50
  -2  -2   8   92.59    4.20
  -2  -2   8   88.09    6.00
  -2   2   8   91.99    5.50
  -2   2   8   97.49    5.40
  -2   2   8   97.79    4.20
  -1  -2   8  178.98    6.50
  -1  -2   8  174.28    7.20
  -1   2   8  178.78    6.40
  -1   2   8  176.38    7.20
   0  -2  -8  497.15   16.50
   0  -2   8  497.95   15.90
   0   2  -8  505.15   16.50
   0   2   8  503.35   15.90
  -1  -2  -8    2.80    2.50
  -1  -2  -8    1.30    2.50
  -1   2  -8    4.70    2.90
  -1   2  -8    4.10    2.30
  -1   2  -8    2.00    2.70
  -2  -2  -8   39.10    3.50
  -2  -2  -8   49.90    4.30
  -2  -2  -8   41.30    4.30
  -2   2  -8   40.70    4.00
  -2   2  -8   45.10    3.70
  -2   2  -8   47.40    5.10
  -2   2  -8   47.50    4.50
  -3  -2  -8  371.26   13.40
  -3  -2  -8  369.86   12.80
  -3  -2  -8  377.86   12.80
  -3   2  -8  372.96   13.30
  -3   2  -8  379.76   12.70
  -3   2  -8  369.56   13.20
  -3   2  -8  366.06   12.70
  -4  -2  -8   19.80    2.70
  -4  -2  -8   25.90    3.50
  -4  -2  -8   20.70    2.70
  -4   2  -8   18.50    2.70
  -4   2  -8   19.60    3.40
  -4   2  -8   23.00    3.30
  -5  -2  -8    3.60    1.10
  -5  -2  -8    5.20    1.50
  -5   2  -8    4.10    1.10
  -5   2  -8    2.90    1.30
  -6  -3   8    1.00    1.30
  -6  -3   8   -1.70    1.70
  -6   3   8    1.30    1.10
  -6   3   8    0.00    1.20
  -5  -3   8    2.80    2.00
  -5  -3   8   -0.20    1.70
  -5  -3   8    0.50    1.80
  -5   3   8   -0.20    1.50
  -5   3   8    1.80    1.70
  -5   3   8    0.90    2.10
  -4  -3   8   71.29    5.00
  -4  -3   8   69.89    4.30
  -4  -3   8   70.39    4.00
  -4   3   8   64.59    4.20
  -4   3   8   76.89    4.20
  -4   3   8   68.29    4.50
  -3  -3   8   23.40    4.10
  -3  -3   8   22.70    2.50
  -3  -3   8   24.10    3.40
  -3   3   8   22.50    2.50
  -3   3   8   27.10    3.50
  -3   3   8   17.40    3.60
  -2  -3   8  279.37   10.50
  -2  -3   8  278.77   10.20
  -2  -3   8  279.97   10.80
  -2  -3   8  283.67    9.60
  -2   3   8  288.77   10.30
  -2   3   8  275.87   10.30
  -2   3   8  266.27    9.50
  -1  -3   8   27.50    3.80
  -1  -3   8   25.40    2.60
  -1  -3   8   34.40    4.10
  -1   3   8   32.40    4.00
   0  -3   8    3.30    2.00
   0  -3  -8    5.80    2.20
   0   3   8    5.50    1.70
   0   3  -8    0.10    2.10
  -1  -3  -8   -1.00    2.70
  -1  -3  -8   -0.80    2.40
  -1   3  -8   -1.40    2.50
  -1   3  -8   -1.60    2.70
  -1   3  -8    1.30    2.40
  -2  -3  -8   -2.20    2.30
  -2  -3  -8    0.20    1.90
  -2  -3  -8    0.80    2.30
  -2   3  -8    1.20    2.10
  -2   3  -8   -2.00    2.70
  -2   3  -8    2.80    2.60
  -2   3  -8   -1.00    1.90
  -3  -3  -8  236.08    8.80
  -3  -3  -8  238.78    9.70
  -3  -3  -8  231.68    8.80
  -3   3  -8  241.88    9.40
  -3   3  -8  237.38    8.80
  -3   3  -8  235.08    8.90
  -3   3  -8  233.28    9.40
  -4  -3  -8   16.30    3.60
  -4  -3  -8   25.60    2.70
  -4   3  -8   19.60    4.10
  -4   3  -8   26.90    3.50
  -5  -3  -8   -0.80    1.40
  -5  -3  -8    2.20    1.00
  -5   3  -8    0.80    1.20
  -5   3  -8    1.80    1.10
  -6  -4   8   -0.60    1.30
  -6   4   8   -0.40    1.10
  -6   4   8   -0.10    1.30
  -5  -4   8    0.50    1.90
  -5  -4   8    2.10    1.70
  -5   4   8    2.50    1.70
  -5   4   8    3.30    2.20
  -5   4   8    1.50    1.60
  -4  -4   8   22.50    4.20
  -4  -4   8   23.90    3.10
  -4  -4   8   28.10    3.40
  -4   4   8   27.00    3.30
  -4   4   8   25.10    3.50
  -4   4   8   28.20    3.10
  -3  -4   8   18.50    4.40
  -3  -4   8   22.20    3.30
  -3  -4   8   25.80    2.60
  -3   4   8   21.50    3.60
  -3   4   8   20.50    3.60
  -3   4   8   17.90    2.40
  -2  -4   8   65.39    4.40
  -2  -4   8   61.09    3.30
  -2  -4   8   63.29    5.50
  -2   4   8   62.19    5.10
  -2   4   8   64.59    4.70
  -2   4   8   60.19    3.30
  -1  -4   8  370.16   12.20
  -1  -4   8  379.56   13.00
  -1   4   8  378.56   12.70
  -1   4   8  368.56   12.20
   0  -4   8   11.90    2.20
   0  -4  -8    8.50    2.30
   0   4  -8   18.50    3.80
   0   4   8   10.30    2.40
  -1  -4  -8    7.90    2.80
  -1  -4  -8   15.20    2.80
  -1   4  -8   10.90    2.60
  -1   4  -8    6.10    2.40
  -1   4  -8    7.20    2.60
  -2  -4  -8   68.49    5.10
  -2  -4  -8   65.79    4.40
  -2  -4  -8   67.29    4.70
  -2   4  -8   67.29    4.70
  -2   4  -8   73.39    5.10
  -2   4  -8   64.69    4.30
  -2   4  -8   65.99    5.30
  -3  -4  -8   80.19    5.40
  -3  -4  -8   89.39    4.60
  -3  -4  -8   89.19    4.80
  -3   4  -8   87.09    4.60
  -3   4  -8   87.39    5.50
  -3   4  -8   86.09    4.60
  -3   4  -8   87.99    5.20
  -4  -4  -8    9.90    2.40
  -4  -4  -8   15.50    3.80
  -4   4  -8   22.00    3.80
  -4   4  -8   11.90    3.80
  -4   4  -8   14.00    2.70
  -5  -4  -8   50.29    2.70
  -5  -4  -8   56.09    4.30
  -5   4  -8   53.19    2.80
  -5   4  -8   60.39    3.10
  -6  -5   8    1.30    1.40
  -6   5   8   -1.30    1.20
  -6   5   8   -2.70    1.10
  -5  -5   8   98.49    5.60
  -5  -5   8  109.19    5.20
  -5  -5   8  108.39    5.00
  -5   5   8  106.99    5.50
  -5   5   8  109.99    5.00
  -5   5   8  111.79    5.20
  -4  -5   8  154.88    7.30
  -4  -5   8  160.78    6.90
  -4   5   8  175.38    7.10
  -4   5   8  167.28    6.90
  -3  -5   8   16.00    3.10
  -3  -5   8   25.40    2.60
  -3  -5   8   21.00    3.40
  -3   5   8   13.70    3.50
  -3   5   8   16.60    2.30
  -3   5   8   17.30    3.60
  -2  -5   8  107.59    5.60
  -2  -5   8  117.99    4.80
  -2   5   8  106.09    6.10
  -2   5   8  114.09    4.80
  -2   5   8  111.09    5.90
  -1  -5   8   40.20    4.10
  -1   5   8   39.90    2.70
  -1   5   8   41.30    4.00
   0  -5   8   82.59    4.60
   0  -5  -8   86.19    5.20
   0   5  -8   86.89    5.10
   0   5   8   91.59    4.10
  -1  -5  -8  100.29    5.90
  -1  -5  -8  105.99    6.20
  -1  -5  -8   95.29    6.10
  -1   5  -8  108.09    5.50
  -1   5  -8  112.79    5.60
  -2  -5  -8   27.70    3.50
  -2  -5  -8   28.70    4.90
  -2  -5  -8   20.80    3.80
  -2   5  -8   20.80    5.10
  -2   5  -8   20.20    3.40
  -2   5  -8   21.70    3.80
  -2   5  -8   22.10    3.20
  -3  -5  -8   45.00    4.70
  -3  -5  -8   40.70    3.60
  -3  -5  -8   33.10    3.50
  -3   5  -8   36.10    3.70
  -3   5  -8   42.40    4.40
  -3   5  -8   45.20    4.20
  -4  -5  -8    3.20    1.50
  -4  -5  -8    4.10    2.00
  -4   5  -8    6.30    1.70
  -4   5  -8   10.30    2.50
  -5  -5  -8   10.90    1.70
  -5  -5  -8   15.90    3.10
  -5  -5  -8    9.80    1.70
  -5   5  -8    9.90    2.10
  -5   5  -8   11.50    1.90
  -6  -6   8   25.40    2.60
  -6   6   8   25.50    2.40
  -6   6   8   25.10    2.20
  -5  -6   8    5.60    2.30
  -5  -6   8    6.80    1.90
  -5   6   8    6.20    1.60
  -5   6   8    8.20    2.40
  -5   6   8    9.40    2.00
  -4  -6   8    3.90    2.00
  -4  -6   8    0.10    2.70
  -4  -6   8    0.40    1.60
  -4   6   8    0.50    1.70
  -4   6   8    2.20    2.00
  -4   6   8    2.30    1.80
  -3  -6   8  116.39    6.40
  -3  -6   8  121.99    5.20
  -3  -6   8  116.99    6.20
  -3   6   8  116.79    5.80
  -3   6   8  119.59    5.10
  -3   6   8  111.89    6.30
  -2  -6   8   69.69    3.60
  -2  -6   8   66.49    4.40
  -2   6   8   71.09    3.50
  -2   6   8   54.59    5.70
  -2   6   8   64.09    4.70
  -1  -6   8  211.08    8.50
  -1  -6   8  222.48    7.70
  -1   6   8  227.18    7.70
  -1   6   8  212.28    8.40
   0  -6   8  143.89    6.30
   0  -6  -8  161.28    6.80
   0   6  -8  149.29    6.90
   0   6   8  153.88    5.90
  -1  -6  -8    4.00    2.50
  -1  -6  -8    4.60    3.00
  -1  -6  -8    0.70    3.00
  -1   6  -8    1.50    2.60
  -1   6  -8   -0.40    2.20
  -2  -6  -8   -2.00    3.60
  -2  -6  -8   -0.40    2.00
  -2   6  -8   -1.00    2.90
  -2   6  -8    0.70    2.70
  -2   6  -8   -2.60    2.90
  -3  -6  -8   81.99    4.60
  -3  -6  -8   92.39    5.50
  -3  -6  -8   81.79    4.60
  -3   6  -8   82.09    5.10
  -3   6  -8   82.89    5.20
  -3   6  -8   81.69    4.70
  -4  -6  -8   25.70    3.70
  -4  -6  -8   22.10    2.60
  -4  -6  -8   25.30    2.50
  -4   6  -8   21.10    3.40
  -4   6  -8   20.80    2.90
  -4   6  -8   24.90    3.20
   5  -6   8    0.70    1.10
  -5  -6  -8    2.10    1.00
  -5  -6  -8    1.10    1.00
  -5  -6  -8    3.60    2.10
  -5   6  -8    1.30    1.60
  -6  -7   8   32.00    2.70
  -6   7   8   34.00    2.40
  -6   7   8   35.80    2.70
  -5  -7   8    6.60    1.90
  -5  -7   8    0.50    1.70
  -5  -7   8    2.50    2.60
  -5   7   8    3.70    2.40
  -4  -7   8   20.50    4.80
  -4  -7   8   26.70    2.80
  -4  -7   8   29.00    3.40
  -4   7   8   24.10    3.50
  -4   7   8   26.30    3.30
  -4   7   8   26.40    2.90
  -3  -7   8  255.47   10.10
  -3  -7   8  248.08    9.50
  -3  -7   8  259.17    9.10
  -3   7   8  247.48    9.90
  -3   7   8  245.18    8.90
  -3   7   8  244.88    9.50
  -2  -7   8    2.40    1.50
  -2  -7   8    4.10    2.40
  -2   7   8   -2.40    2.20
  -2   7   8    0.50    1.20
  -2   7   8    3.20    3.50
  -1  -7   8   10.30    2.40
  -1  -7   8   14.40    2.50
  -1   7   8   18.40    2.20
   0  -7  -8    7.20    2.50
   0  -7   8    6.70    2.20
   0   7   8    7.70    1.70
   0   7  -8    6.20    2.80
  -1  -7  -8   -1.00    2.50
  -1  -7  -8    0.50    2.80
  -1  -7  -8    3.10    3.00
  -1   7  -8   -1.70    2.50
  -1   7  -8    2.00    1.90
  -2  -7  -8  279.37   11.60
  -2  -7  -8  294.87   11.20
  -2  -7  -8  303.17   10.70
  -2   7  -8  309.07   11.10
  -2   7  -8  301.97   10.90
  -3  -7  -8    0.90    1.80
  -3  -7  -8    1.90    1.80
  -3  -7  -8   -3.00    2.30
  -3   7  -8    2.50    2.10
  -3   7  -8   -3.50    2.10
  -3   7  -8    5.00    2.30
  -4  -7  -8   14.70    2.30
  -4  -7  -8   17.10    2.40
  -4  -7  -8   15.50    3.80
  -4   7  -8   23.50    3.30
  -4   7  -8   14.40    3.00
  -4   7  -8   16.50    2.70
   5  -7   8    1.50    1.10
  -5  -7  -8    2.00    0.90
  -5  -7  -8    1.90    1.00
  -5   7  -8    1.70    1.30
  -6  -8   8    0.30    1.80
  -6   8   8    1.20    1.20
  -6   8   8    1.90    1.20
  -5  -8   8    1.60    1.90
  -5  -8   8    0.90    1.80
  -5   8   8    3.00    2.40
  -5   8   8    1.20    1.60
  -5   8   8    1.00    1.50
  -4  -8   8   24.50    3.50
  -4  -8   8   28.40    5.50
  -4  -8   8   17.70    2.80
  -4   8   8   29.50    3.00
  -4   8   8   25.20    3.50
  -4   8   8   30.30    3.50
  -3  -8   8   11.90    2.40
  -3  -8   8   20.00    3.50
  -3   8   8   13.70    2.30
  -3   8   8    8.20    2.20
  -3   8   8   25.80    5.20
  -2  -8   8  534.05   17.10
  -2  -8   8  519.15   16.60
  -2   8   8  506.75   17.10
  -2   8   8  490.85   17.40
  -2   8   8  514.75   16.50
  -1  -8   8    2.00    2.10
  -1  -8   8    3.90    1.50
  -1   8   8    0.10    1.30
   1   8  -8    2.40    2.80
   0  -8   8   67.69    5.70
   0  -8  -8   63.19    4.90
   0  -8   8   70.49    4.70
   0   8   8   74.09    3.70
   0   8  -8   60.99    5.60
  -1  -8  -8   20.00    4.30
  -1  -8  -8   14.00    3.10
  -1  -8  -8   17.90    3.00
  -1   8  -8   20.20    3.30
  -1   8  -8   16.90    3.10
  -2  -8  -8    2.50    2.80
  -2  -8  -8    3.00    2.20
  -2  -8  -8    3.40    1.90
  -2   8  -8    3.30    2.50
  -2   8  -8    3.30    2.20
  -3  -8  -8    3.90    2.70
  -3  -8  -8    2.80    1.60
  -3  -8  -8   10.00    2.10
  -3   8  -8    7.80    2.30
  -3   8  -8    6.30    2.20
  -3   8  -8    8.90    2.40
  -4  -8  -8    1.80    1.30
  -4  -8  -8    2.80    1.30
  -4  -8  -8    0.70    2.20
  -4   8  -8    2.60    1.70
  -4   8  -8    3.80    1.50
  -4   8  -8    2.30    1.90
  -5  -8  -8    0.40    1.30
   5  -8   8    2.40    1.10
  -5   8  -8   -2.70    2.70
  -5   8  -8    1.10    1.20
  -6  -9   8    5.80    2.30
  -6   9   8   11.70    2.00
  -6   9   8   14.00    2.10
  -5  -9   8   46.30    3.60
  -5  -9   8   48.30    3.60
  -5   9   8   48.20    4.50
  -5   9   8   48.90    3.30
  -5   9   8   46.80    3.40
  -4  -9   8   42.10    3.40
  -4  -9   8   42.00    3.80
  -4   9   8   46.20    4.00
  -4   9   8   39.70    3.40
  -4   9   8   51.69    3.90
  -3  -9   8   11.80    2.50
  -3  -9   8   16.70    2.50
  -3   9   8   11.70    2.30
  -3   9   8    9.70    2.30
  -3   9   8   16.70    4.00
  -2  -9   8  107.39    5.40
  -2  -9   8  100.39    4.60
  -2   9   8   94.89    4.40
  -2   9   8  102.29    5.60
  -1  -9   8    6.90    1.60
  -1  -9   8    4.70    2.50
  -1   9   8    3.60    1.50
   1   9  -8    4.10    3.10
   0  -9  -8    3.30    3.20
   0  -9   8    1.80    2.20
   0  -9  -8    1.20    2.40
   0  -9   8    0.70    3.00
   0   9  -8    0.10    3.10
   0   9   8    1.40    1.50
  -1  -9  -8    4.60    2.70
  -1  -9  -8    8.40    3.00
  -1  -9  -8    0.50    2.50
  -1   9  -8    1.40    3.00
  -1   9  -8    3.80    1.90
   1   9   8    2.90    2.50
  -2  -9  -8  132.89    7.20
  -2  -9  -8  146.89    6.50
  -2  -9  -8  138.49    6.20
  -2   9  -8  143.29    6.40
  -2   9  -8  130.89    6.80
  -3  -9  -8   24.00    4.70
  -3  -9  -8   25.00    3.10
  -3  -9  -8   25.30    3.10
  -3   9  -8   23.30    3.90
  -3   9  -8   17.80    3.70
  -3   9  -8   22.30    3.50
  -4  -9  -8    3.00    2.40
  -4  -9  -8    3.50    1.40
  -4  -9  -8    5.50    1.30
  -4   9  -8    3.60    1.50
  -4   9  -8    5.20    1.90
  -4   9  -8    4.20    1.70
   5  -9   8   38.00    2.30
  -5  -9  -8   42.10    2.30
  -6  10   8    9.00    1.80
  -5 -10   8    4.40    1.90
  -5 -10   8    4.20    1.90
  -5  10   8    6.30    1.70
  -5  10   8   -1.60    2.90
  -5  10   8    5.30    1.60
  -4 -10   8    1.20    1.60
  -4 -10   8   -1.00    2.00
  -4  10   8   -1.10    2.00
  -4  10   8   -1.50    1.90
  -4  10   8    1.40    1.60
  -3 -10   8  124.29    6.00
  -3 -10   8  127.39    5.50
  -3  10   8  128.69    5.50
  -3  10   8  125.99    6.40
  -3  10   8  120.69    6.10
  -2 -10   8    6.40    1.50
  -2 -10   8   10.50    2.60
  -2  10   8    5.60    2.30
  -2  10   8    5.70    1.40
  -1 -10   8    1.90    1.60
  -1 -10   8    2.80    2.30
  -1  10   8    2.90    1.40
   0 -10   8    9.60    2.80
   0 -10  -8    6.70    2.90
   0 -10  -8    6.10    2.70
   0 -10   8    7.80    2.50
   0  10   8   10.00    2.30
   0  10  -8    5.80    3.50
  -1 -10  -8   18.30    4.60
  -1 -10  -8   15.50    2.90
  -1 -10  -8   13.90    2.70
   1  10   8   10.80    2.40
  -1  10  -8    5.60    2.00
  -1  10  -8    6.30    2.90
  -2 -10  -8    1.90    2.00
  -2 -10  -8   -1.10    2.00
  -2 -10  -8    3.90    2.90
  -2  10  -8    2.20    2.50
  -2  10  -8    1.10    2.00
  -3 -10  -8    2.80    1.70
  -3 -10  -8    2.70    2.80
  -3 -10  -8   -0.50    1.50
  -3  10  -8    0.20    2.10
  -3  10  -8    2.80    1.90
  -3  10  -8   -4.70    2.00
  -4 -10  -8    7.30    2.60
   4 -10   8    3.30    1.50
  -4 -10  -8    3.50    1.30
  -4 -10  -8    4.60    1.40
  -4  10  -8    5.50    1.70
  -4  10  -8    4.60    1.50
  -4  10  -8    3.90    1.70
  -5 -10  -8    1.80    0.90
  -5 -10  -8    0.50    0.90
   5 -10   8    2.10    1.10
  -5  10  -8   -0.10    1.40
  -6  11   8    0.40    1.20
  -6  11   8    0.70    1.30
  -5 -11   8  103.69    5.10
  -5 -11   8  102.79    5.00
  -5  11   8  109.69    4.80
  -5  11   8   98.89    6.10
  -5  11   8  102.49    4.90
  -4 -11   8    2.70    2.20
  -4 -11   8    2.30    1.60
  -4  11   8    5.00    2.20
  -4  11   8    1.60    1.90
  -4  11   8    2.90    1.70
  -3 -11   8    2.20    1.40
  -3 -11   8    0.60    2.10
  -3  11   8    2.20    2.80
  -3  11   8    3.90    2.40
  -3  11   8    1.80    1.50
  -2 -11   8  123.49    5.20
  -2 -11   8  111.09    5.70
  -2  11   8  118.59    5.10
  -2  11   8  120.19    6.40
  -1 -11   8   -0.10    1.60
  -1  11   8    0.60    1.30
   0 -11   8   55.49    5.00
   0 -11  -8   67.79    5.30
   0 -11  -8   56.49    4.90
   0 -11   8   55.39    5.30
   0  11   8   63.69    3.50
  -1 -11  -8  251.87    9.00
   1 -11   8  246.28    9.50
  -1 -11  -8  252.17    9.50
  -1 -11  -8  248.68   10.00
  -1  11  -8  199.58   10.00
   1  11   8  248.58    8.90
  -1  11  -8  247.58   10.10
  -2 -11  -8   92.39    5.00
  -2 -11  -8   94.29    6.70
  -2 -11  -8  100.29    5.30
  -2  11  -8   96.39    5.20
  -2  11  -8  100.29    5.80
  -3 -11  -8   22.20    5.10
  -3 -11  -8   20.50    3.00
  -3  11  -8   26.80    3.60
  -3  11  -8   21.50    3.30
  -3  11  -8   21.50    3.60
  -4 -11  -8    3.90    1.30
   4 -11   8   -0.10    1.30
  -4 -11  -8    0.90    1.10
  -4  11  -8    4.60    1.60
  -4  11  -8    0.40    1.60
  -6  12   8    3.10    1.60
  -5 -12   8   -2.70    2.80
  -5 -12   8    1.60    2.10
  -5  12   8   -1.00    1.60
  -5  12   8   -2.40    1.50
  -4 -12   8    1.60    1.60
  -4 -12   8    1.10    2.20
  -4  12   8   -1.00    1.90
  -4  12   8    1.40    2.20
  -4  12   8    3.90    1.70
  -3 -12   8  160.88    6.40
  -3 -12   8  150.58    6.80
  -3  12   8  136.79    7.20
  -3  12   8  161.08    6.40
  -3  12   8  150.78    7.00
  -2 -12   8  150.08    6.60
  -2 -12   8  143.49    6.00
  -2  12   8  146.29    6.00
  -2  12   8  145.49    7.10
  -1 -12   8   44.40    3.50
   1 -12  -8   48.30    4.90
  -1  12   8   45.60    3.10
   0 -12  -8   94.19    5.60
   0 -12   8  111.39    7.40
   0 -12  -8   91.59    6.40
   0 -12   8   98.89    5.60
   0  12   8   95.39    4.50
  -1 -12  -8   -1.40    3.20
  -1 -12  -8   -1.40    2.60
  -1 -12  -8    5.50    3.30
   1 -12   8    2.50    2.20
   1  12   8    0.50    1.90
  -1  12  -8    1.60    1.80
  -1  12  -8   -0.50    3.30
   2 -12   8   19.20    3.20
  -2 -12  -8   19.10    3.30
  -2 -12  -8   16.10    2.50
  -2 -12  -8   26.50    5.70
  -2  12  -8   15.70    3.20
  -2  12  -8   16.00    3.20
  -3 -12  -8  109.09    5.10
   3 -12   8  102.99    5.10
  -3 -12  -8  103.49    5.10
  -3  12  -8  111.29    5.40
  -3  12  -8  102.09    5.80
  -4 -12  -8    6.50    1.40
   4 -12   8    6.70    1.50
  -4 -12  -8    4.90    1.20
  -4  12  -8    7.10    1.70
  -4  12  -8    5.40    1.60
  -5 -13   8   26.10    3.20
  -5 -13   8   20.40    3.60
  -5  13   8   19.50    2.90
  -5  13   8   17.50    2.90
  -4 -13   8    5.90    2.40
  -4 -13   8   12.30    2.50
  -4  13   8   11.70    2.60
  -4  13   8   13.50    3.10
  -4  13   8   17.20    3.60
  -3 -13   8  337.57   11.80
  -3  13   8  331.07   11.90
  -3  13   8  318.97   13.10
  -2 -13   8   87.99    5.10
  -2 -13   8   93.39    4.40
  -2  13   8   80.89    4.20
  -1 -13   8    0.10    3.40
   1 -13  -8    0.90    2.50
  -1 -13   8    1.60    1.70
  -1  13   8    0.20    1.30
   0 -13  -8  106.29    7.20
   0 -13   8   94.39    5.50
   0 -13  -8   95.19    5.60
   0  13   8  102.29    4.70
  -1 -13  -8  143.99    7.00
  -1 -13  -8  152.28    6.50
   1 -13   8  149.19    6.40
  -1  13  -8  142.19    6.40
   1  13   8  151.88    6.30
  -2 -13  -8   61.39    4.00
  -2 -13  -8   49.80    4.20
   2 -13   8   50.99    3.90
  -2  13  -8   58.89    4.10
  -2  13  -8   54.39    5.50
   3 -13   8  308.57   10.80
  -3 -13  -8  304.47   10.80
  -3 -13  -8  296.27   10.70
  -3  13  -8  303.97   11.00
  -3  13  -8  335.67   11.70
   4 -13   8    0.00    1.10
  -4 -13  -8    1.40    1.20
  -4 -13  -8    0.30    1.00
  -4  13  -8    1.00    1.50
  -4  13  -8    2.70    1.90
  -5 -14   8    0.30    1.90
  -5  14   8    1.10    1.90
  -5  14   8   -0.80    1.50
  -4 -14   8   40.10    3.30
  -4  14   8   38.20    3.50
  -4  14   8   23.60    5.30
  -4  14   8   34.30    4.10
  -3 -14   8   15.40    2.60
  -3 -14   8   15.50    2.70
  -3  14   8   16.40    2.60
  -3  14   8   12.90    2.70
  -2 -14   8  306.77   10.50
   2 -14  -8  284.47   11.00
  -2  14   8  300.07   10.50
   1 -14  -8   79.79    5.10
  -1 -14   8   85.79    6.10
  -1 -14   8   84.39    4.50
  -1  14   8   78.89    4.10
   0 -14   8   10.70    2.40
   0  14   8    7.00    1.70
   0  14  -8    3.90    1.90
   1 -14   8    1.30    1.90
  -1 -14  -8    3.20    2.00
  -1 -14  -8    0.90    2.70
   1  14   8    1.30    1.90
  -1  14  -8    3.80    2.00
  -2 -14  -8   -1.00    1.80
   2 -14   8    5.90    2.00
  -2 -14  -8    0.90    1.90
  -2  14  -8    5.10    2.10
  -2  14  -8    4.30    3.40
  -3 -14  -8    0.10    1.50
   3 -14   8    0.10    1.50
  -3 -14  -8    0.40    2.00
  -3  14  -8    2.30    1.70
  -3  14  -8    1.00    2.50
  -4 -14  -8   57.09    3.00
  -4 -14  -8   52.39    2.90
   4 -14   8   57.89    3.10
  -4  14  -8   58.49    4.20
  -4  14  -8   55.09    3.20
  -5 -15   8   -0.30    2.00
  -5  15   8    0.00    2.70
  -5  15   8    2.00    1.70
  -4 -15   8   72.79    4.10
  -4  15   8   77.19    4.40
  -4  15   8   69.89    4.60
  -4  15   8   83.29    6.00
  -3 -15   8    1.20    1.50
  -3  15   8    3.10    1.60
  -3  15   8    5.40    2.70
   2 -15  -8   13.60    2.90
  -2 -15   8   13.30    2.70
  -2  15   8    9.80    1.90
   1 -15  -8    6.00    2.30
  -1 -15   8    3.20    1.90
  -1 -15   8    4.30    3.00
  -1  15   8    4.70    1.40
   0 -15   8   17.40    3.60
   0 -15  -8   14.30    2.50
   0  15   8   17.00    2.70
   0  15  -8   12.60    3.00
   1 -15   8   30.40    3.70
  -1 -15  -8   29.00    3.50
  -1 -15  -8   37.70    4.70
  -1  15  -8   26.60    3.40
   1  15   8   29.70    3.70
  -2 -15  -8   52.79    3.90
   2 -15   8   56.19    3.90
  -2 -15  -8   50.19    4.20
  -2  15  -8   54.79    3.90
  -3 -15  -8    2.30    1.50
   3 -15   8    2.60    1.50
  -3 -15  -8    4.00    1.60
  -3  15  -8    3.40    2.60
  -3  15  -8    2.50    1.50
  -4 -15  -8   14.90    2.00
  -4 -15  -8   14.80    1.90
   4 -15   8   17.30    2.10
  -4  15  -8   13.50    2.00
  -5 -16   8   -0.60    2.20
  -4 -16   8   -2.70    1.50
  -4  16   8   -0.60    2.10
  -4  16   8   -0.30    1.80
  -3 -16   8    3.90    1.70
   3 -16  -8    4.60    2.60
  -3  16   8    1.40    1.50
   2 -16  -8  499.75   16.50
  -1 -16   8    8.30    2.10
   1 -16  -8   10.60    2.30
  -1 -16   8    9.60    2.90
  -1  16   8    7.90    1.70
   0 -16  -8  387.76   13.30
   0 -16   8  377.76   13.30
   0  16  -8  390.56   13.40
   0  16   8  411.06   13.20
  -1 -16  -8    1.30    1.80
  -1 -16  -8    2.20    2.70
   1 -16   8    1.10    1.80
  -1  16  -8    1.20    1.70
   2 -16   8   34.10    3.30
  -2 -16  -8   32.70    3.70
  -2 -16  -8   30.70    3.30
  -2  16  -8   34.50    3.30
  -3 -16  -8   19.70    2.80
   3 -16   8   25.90    2.70
  -3 -16  -8   25.00    2.60
  -3  16  -8   24.50    2.70
  -4 -16  -8   33.10    2.30
  -4 -16  -8   32.80    2.20
   4 -16   8   35.00    2.40
  -4  16  -8   35.10    2.30
  -4 -17   8    4.50    1.70
  -4  17   8   -0.30    2.00
   3 -17  -8   38.20    4.30
  -3 -17   8   31.40    3.20
  -3  17   8   38.50    3.20
   2 -17  -8  103.39    5.30
  -2 -17   8   97.99    4.90
  -2  17   8   89.49    4.60
  -1 -17   8    2.80    2.50
  -1 -17   8    3.60    2.00
   1 -17  -8    2.00    2.00
  -1  17   8    1.70    1.60
   0 -17  -8   31.30    3.70
   0 -17   8   32.40    3.80
   0  17   8   30.00    3.20
   0  17  -8   30.90    3.40
  -1 -17  -8    5.00    1.80
  -1 -17  -8    2.70    2.70
   1 -17   8    0.10    1.80
   1  17   8    3.40    2.00
  -1  17  -8   -1.20    1.90
  -2 -17  -8   -1.10    1.60
  -2 -17  -8   -2.20    1.90
   2 -17   8   -1.20    1.50
  -2  17  -8    0.60    1.70
  -3 -17  -8   31.00    2.70
   3 -17   8   26.00    2.60
  -3 -17  -8   31.70    2.70
  -3  17  -8   25.60    2.70
  -4 -17  -8   -0.20    1.10
  -4 -17  -8   -1.20    1.00
   4 -17   8   -1.20    1.00
  -4  17  -8    1.10    1.20
  -4 -18   8    1.70    1.60
  -4  18   8    3.00    2.10
  -3 -18   8   60.99    3.80
  -3  18   8   53.69    3.70
   2 -18  -8   -0.50    2.00
  -2 -18   8    4.10    1.80
  -2  18   8   -1.40    1.40
   1 -18  -8  459.55   15.10
  -1 -18   8  463.45   15.20
  -1 -18   8  462.25   15.30
   1  18  -8  448.66   15.10
  -1  18   8  431.16   15.00
   0 -18  -8   16.20    3.30
   0 -18   8   20.90    3.50
   0  18   8   20.60    2.80
   0  18  -8   18.00    3.20
  -1 -18  -8    0.50    1.80
   1 -18   8    1.10    1.70
  -1 -18  -8   -1.20    2.50
  -1  18  -8    0.40    1.80
   1  18   8   -0.60    1.90
  -2 -18  -8    8.40    2.40
  -2 -18  -8    5.80    1.80
   2 -18   8    5.10    1.70
  -2  18  -8    8.10    2.00
  -3 -18  -8    1.50    1.30
   3 -18   8    0.00    1.10
  -3 -18  -8    0.10    1.20
  -3  18  -8    2.00    1.40
   4 -18   8   -1.10    1.00
  -4 -18  -8    1.10    1.00
  -4 -18  -8    1.00    1.00
  -4  18  -8    0.30    1.10
  -4 -19   8   -0.30    1.60
  -4  19   8   -0.70    2.10
  -3 -19   8   39.10    3.40
   3 -19  -8   45.00    4.00
  -3  19   8   41.50    3.30
   2 -19  -8   31.70    3.70
  -2 -19   8   27.80    3.10
  -2  19   8   22.00    2.80
  -1 -19   8   19.90    4.00
  -1 -19   8   15.90    3.70
   1 -19  -8   10.20    2.30
   1  19  -8   13.30    2.40
  -1  19   8    9.80    2.50
   0 -19  -8   -0.10    2.00
   0 -19   8    4.50    2.10
   0  19  -8    5.20    2.10
   0  19   8   -1.80    1.50
   1 -19   8   18.80    3.20
  -1 -19  -8   30.60    4.40
  -1 -19  -8   24.60    3.10
   1  19   8   19.10    3.30
  -1  19  -8   23.10    3.30
  -2 -19  -8   12.70    3.10
   2 -19   8   13.50    2.80
  -2 -19  -8   14.70    2.60
  -2  19  -8   12.70    2.60
   3 -19   8   41.00    2.70
  -3 -19  -8   45.80    2.90
  -3 -19  -8   45.40    2.80
  -3  19  -8   44.10    2.90
  -4 -20   8   -0.20    1.60
  -4  20   8   -3.90    2.30
  -3 -20   8   43.00    3.60
   3 -20  -8   50.09    3.60
  -3  20   8   46.30    3.40
   2 -20  -8    1.20    1.90
  -2 -20   8    0.20    1.80
   2  20  -8   -0.30    2.40
  -2  20   8    0.90    1.40
   1 -20  -8   25.50    3.40
  -1 -20   8   29.80    3.70
  -1 -20   8   28.40    3.80
   1  20  -8   37.30    3.80
  -1  20   8   27.30    2.80
   0 -20   8  241.48    8.80
   0 -20  -8  242.38    8.70
   0  20   8  221.28    8.60
   0  20  -8  234.78    8.80
  -1 -20  -8    4.50    1.80
  -1 -20  -8   10.30    3.80
   1 -20   8    4.40    1.80
  -1  20  -8    4.70    1.90
   1  20   8    0.60    1.90
   2 -20   8    1.30    1.40
  -2 -20  -8    0.30    1.70
  -2 -20  -8   -2.20    1.40
  -2  20  -8   -0.40    1.50
  -3 -20  -8    4.60    1.30
   3 -20   8    3.80    1.20
  -3 -20  -8    7.80    2.00
  -3  20  -8    6.30    1.40
  -4 -21   8    8.60    1.90
   3 -21  -8   49.70    3.70
  -3 -21   8   51.69    3.60
  -3  21   8   60.09    3.60
  -2 -21   8   21.30    3.20
   2 -21  -8   25.20    3.50
  -2 -21   8   27.60    4.30
   2  21  -8   29.40    4.30
  -2  21   8   23.70    2.70
  -1 -21   8   35.00    3.80
  -1 -21   8   35.40    4.00
   1 -21  -8   36.90    3.50
   1  21  -8   39.10    3.90
  -1  21   8   34.80    3.00
   0 -21  -8   70.29    4.10
   0 -21   8   74.49    4.30
   0  21  -8   66.39    4.30
   0  21   8   67.79    4.00
  -1 -21  -8    8.60    2.50
   1  21   8    5.20    2.00
  -1  21  -8    2.50    2.20
  -2 -21  -8   19.60    2.40
  -2 -21  -8   22.50    3.00
   2 -21   8   20.00    2.50
  -2  21  -8   19.70    2.60
   3 -21   8    2.60    1.10
  -3 -21  -8    1.70    1.10
  -3 -21  -8    1.40    1.10
  -3  21  -8    2.30    1.30
  -4 -22   8    2.10    1.90
   3 -22  -8   11.60    2.70
  -3  22   8    0.70    1.70
   2 -22  -8  143.79    5.80
  -2 -22   8  141.19    6.00
  -2 -22   8  135.49    6.40
  -2  22   8  134.99    5.80
  -1 -22   8   46.60    3.90
  -1 -22   8   49.20    4.30
  -1  22   8   47.80    3.30
   1  22  -8   50.99    4.50
   0  22  -8    4.40    2.10
   0  22   8    2.50    1.60
  -1 -22  -8   33.80    4.20
   1 -22   8   35.90    3.10
  -1 -22  -8   34.30    2.90
  -1  22  -8   33.40    3.20
   1  22   8   34.10    3.50
   2 -22   8    6.30    1.40
  -2 -22  -8    6.70    1.70
  -2 -22  -8    5.80    1.40
  -2  22  -8    5.00    1.60
   3 -22   8    5.00    1.30
  -3 -22  -8    2.70    1.80
  -3 -22  -8    3.30    1.20
  -3  22  -8    1.60    1.30
  -3 -23   8   52.19    3.60
   3 -23  -8   51.49    3.50
  -3  23   8   55.69    3.60
   2 -23  -8   -0.20    1.60
  -2 -23   8    0.40    1.80
  -2 -23   8    6.00    2.50
  -2  23   8    3.40    1.50
   1 -23  -8    0.70    1.60
  -1 -23   8    2.90    1.90
  -1  23   8   -0.50    1.40
   1  23  -8   -0.40    2.70
   0 -23   8   25.30    3.10
   0 -23  -8   29.00    3.00
   0  23  -8   22.00    3.50
   0  23   8   29.30    2.80
  -1 -23  -8    3.30    1.40
  -1 -23  -8    8.50    2.60
   1 -23   8    4.30    1.50
  -1  23  -8    4.80    1.80
   1  23   8    2.80    2.00
   2 -23   8  110.39    4.50
  -2 -23  -8  106.99    4.50
  -2 -23  -8  104.39    4.70
  -2  23  -8  118.29    4.70
  -3 -23  -8   34.40    2.40
   3 -23   8   31.80    2.10
  -3  23  -8   30.80    2.40
   3 -24  -8   48.30    3.40
  -3 -24   8   45.90    3.60
  -3  24   8   43.40    3.50
  -2 -24   8   51.19    4.30
  -2 -24   8   51.79    3.90
   2 -24  -8   53.69    3.30
  -2  24   8   55.29    3.80
   1 -24  -8   14.80    2.60
  -1 -24   8   18.00    3.00
  -1  24   8   14.00    2.50
   0 -24  -8   55.49    3.20
   0 -24   8   53.09    3.40
   0  24  -8   53.39    4.20
   0  24   8   53.49    3.50
  -1 -24  -8    2.10    1.30
   1 -24   8    2.20    1.30
  -1  24  -8    1.80    1.80
   1  24   8    3.60    2.20
  -2 -24  -8   -0.40    1.60
  -2 -24  -8    3.00    1.10
   2 -24   8    1.20    1.00
  -2  24  -8    5.90    2.00
   3 -25  -8    6.20    1.90
   2 -25  -8    4.20    1.50
  -2  25   8    3.20    1.50
   1 -25  -8   36.10    2.70
  -1 -25   8   33.70    3.00
  -1  25   8   33.50    2.90
   0 -25  -8    2.40    1.30
   0 -25   8    1.20    1.40
   0  25   8    3.70    1.60
   1 -25   8   12.40    2.20
  -1 -25  -8   10.90    2.20
   1  25   8   12.20    2.60
  -1  25  -8    8.20    3.20
  -2  25  -8   71.09    3.70
   2 -26  -8   25.40    3.10
  -2  26   8   17.80    2.60
  -1 -26   8   21.90    2.70
   1 -26  -8   18.50    2.30
  -1  26   8   19.70    2.50
   0 -26  -8    2.80    1.20
   0 -26   8    1.70    1.40
   0  26   8    3.50    1.70
  -1 -26  -8    1.20    1.10
   1 -26   8    0.00    1.10
  -2 -26  -8   13.60    1.70
   2 -26   8   13.20    1.70
   2 -27  -8   21.00    2.40
   1 -27  -8    2.00    1.10
  -1 -27   8   12.40    2.60
  -1  27   8    6.40    1.70
   0 -27   8   16.20    2.20
   0 -27  -8   13.20    2.10
   0  27   8   11.80    2.00
   1 -27   8   30.00    2.20
  -1 -27  -8   29.80    2.20
   1 -28  -8    3.20    1.10
  -1 -28   8    2.40    1.60
   0 -28  -8   31.10    2.20
  -6   0   9    1.80    1.50
  -6   0   9    1.60    1.10
  -5   0   9   54.09    3.90
  -5   0   9   59.69    4.00
  -4   0   9    0.70    1.80
  -4   0   9    0.10    1.30
  -4   0   9    3.30    2.10
  -3   0   9  222.98    8.30
  -3   0   9  231.18    8.80
  -3   0   9  229.18    8.90
  -2   0   9   -0.50    1.20
  -2   0   9    1.50    2.50
  -1   0   9  181.18    6.70
  -1   0   9  177.98    7.80
   0   0  -9   -1.30    1.80
   0   0   9   -0.40    1.90
  -1   0  -9   45.70    5.20
  -1   0  -9   50.89    4.90
  -1   0  -9   43.40    4.10
  -2   0  -9    1.60    2.90
  -2   0  -9    1.70    1.90
  -2   0  -9   -0.60    1.90
  -2   0  -9    2.60    3.40
  -3   0  -9   31.00    3.90
  -3   0  -9   35.20    3.60
  -3   0  -9   30.60    3.30
  -4   0  -9    0.90    1.60
  -4   0  -9    1.90    1.40
  -5   0  -9   31.80    2.20
  -6  -1   9    1.30    1.20
  -6   1   9    3.70    1.20
  -6   1   9    2.70    1.30
  -5  -1   9   -0.50    1.70
  -5  -1   9    1.10    1.80
  -5   1   9   -2.20    1.60
  -5   1   9    1.10    1.70
  -4  -1   9   20.90    3.70
  -4  -1   9   10.00    2.60
  -4  -1   9    7.00    1.90
  -4   1   9   10.20    2.20
  -4   1   9   11.20    2.40
  -4   1   9    7.90    1.80
  -3  -1   9  219.38    8.60
  -3  -1   9  221.98    8.80
  -3  -1   9  219.28    8.20
  -3   1   9  228.28    8.30
  -3   1   9  234.28    8.90
  -3   1   9  213.38    8.60
  -2  -1   9   19.60    2.40
  -2  -1   9   19.30    3.70
  -2   1   9   19.00    3.90
  -2   1   9   23.50    2.40
  -2   1   9   24.40    3.80
  -1  -1   9   91.19    5.50
  -1  -1   9   94.69    4.40
  -1   1   9   99.99    4.40
  -1   1   9  102.39    5.90
   0  -1   9   22.80    3.50
   0  -1  -9   25.10    3.50
   0   1   9   25.00    3.30
   0   1  -9   29.80    3.50
  -1  -1  -9    1.80    2.20
  -1  -1  -9   -2.90    2.60
  -1   1  -9    1.40    2.10
  -1   1  -9    4.30    2.70
  -1   1  -9    1.40    2.50
  -2  -1  -9    9.80    2.80
  -2  -1  -9   10.10    2.20
  -2  -1  -9    9.10    2.30
  -2   1  -9   16.20    3.40
  -2   1  -9    8.30    4.50
  -2   1  -9    9.90    2.20
  -2   1  -9    8.10    2.20
  -3  -1  -9  101.29    5.90
  -3  -1  -9  110.19    5.10
  -3  -1  -9  115.09    5.20
  -3   1  -9  116.69    5.30
  -3   1  -9  112.59    5.20
  -3   1  -9   92.69    9.10
  -3   1  -9   99.89    5.70
  -4  -1  -9  116.69    4.90
  -4  -1  -9  116.39    5.50
  -4  -1  -9  119.19    5.00
  -4   1  -9  114.39    5.00
  -4   1  -9  118.69    5.40
  -5  -1  -9   -0.60    1.10
  -5  -1  -9    3.80    1.50
  -5   1  -9    1.20    1.10
  -5   1  -9    4.60    1.30
  -6  -2   9   15.20    2.00
  -6   2   9   17.10    2.20
  -6   2   9   17.40    1.90
  -5  -2   9   45.60    3.70
  -5  -2   9   41.90    3.60
  -5  -2   9   42.40    3.80
  -5   2   9   48.20    3.60
  -5   2   9   46.50    3.90
  -4  -2   9  313.87   11.20
  -4  -2   9  299.47   11.00
  -4  -2   9  304.27   10.80
  -4   2   9  301.17   10.80
  -4   2   9  319.87   11.00
  -4   2   9  306.47   11.10
  -3  -2   9   27.30    2.80
  -3  -2   9   28.30    3.50
  -3  -2   9   21.60    3.80
  -3   2   9   29.50    3.60
  -3   2   9   32.80    2.80
  -3   2   9   36.00    4.00
  -2  -2   9   -1.10    2.30
  -2  -2   9    1.60    1.40
  -2   2   9   -0.60    1.10
  -2   2   9    1.10    2.40
  -2   2   9    4.00    2.30
  -1  -2   9    3.40    2.50
  -1  -2   9    5.70    1.70
  -1   2   9    6.80    1.60
  -1   2   9    6.50    3.20
   0  -2  -9   36.20    3.70
   0  -2   9   32.40    3.90
   0   2  -9   33.90    3.80
  -1  -2  -9  183.28    8.00
  -1  -2  -9  188.08    7.80
  -1   2  -9  195.48    8.00
  -1   2  -9  183.78    7.70
  -1   2  -9  195.18    8.10
  -2  -2  -9   82.09    5.50
  -2  -2  -9   88.49    4.90
  -2  -2  -9   87.09    5.10
  -2   2  -9   79.09    8.40
  -2   2  -9   86.19    5.90
  -2   2  -9   94.89    5.20
  -2   2  -9   89.39    4.90
  -3  -2  -9   -0.30    2.00
  -3  -2  -9    2.50    1.80
  -3  -2  -9    0.80    1.70
  -3   2  -9   -3.30    2.10
  -3   2  -9    0.80    1.70
  -3   2  -9    3.00    2.90
  -3   2  -9    0.90    2.00
  -4  -2  -9  148.79    5.80
  -4  -2  -9  143.39    6.10
  -4  -2  -9  140.59    5.70
  -4   2  -9  148.79    5.80
  -4   2  -9  147.59    6.20
  -5  -2  -9    3.20    1.50
  -5  -2  -9   -2.10    1.00
  -5   2  -9   -0.40    1.10
  -5   2  -9    2.30    1.30
  -6  -3   9   21.40    2.10
  -6   3   9   15.90    2.20
  -6   3   9   19.30    1.90
  -5  -3   9   54.79    3.50
  -5  -3   9   63.29    4.00
  -5  -3   9   57.49    3.80
  -5   3   9   66.49    4.20
  -5   3   9   60.09    3.90
  -5   3   9   59.59    3.80
  -4  -3   9    3.80    1.70
  -4  -3   9   -0.50    2.20
  -4  -3   9    2.10    1.80
  -4   3   9    2.70    1.90
  -4   3   9    4.60    1.70
  -4   3   9    1.80    1.80
  -3  -3   9   -0.30    2.00
  -3  -3   9    3.60    1.90
  -3  -3   9    2.90    1.50
  -3   3   9    6.60    2.10
  -3   3   9    5.10    2.20
  -3   3   9    1.80    1.20
  -2  -3   9    0.50    2.10
  -2  -3   9    2.90    1.40
  -2   3   9   -0.10    2.10
  -2   3   9    1.70    1.40
  -2   3   9    5.20    2.60
  -1  -3   9    2.20    1.50
  -1  -3   9    2.70    2.40
  -1   3   9    1.20    3.40
  -1   3   9    1.40    1.20
   0  -3  -9  254.87    9.50
   0   3  -9  255.07    9.50
   0   3   9  262.17    9.00
  -1  -3  -9   60.39    5.20
  -1  -3  -9   61.79    4.60
  -1   3  -9   65.69    4.60
  -1   3  -9   59.49    4.40
  -2  -3  -9    3.20    2.50
  -2  -3  -9    4.60    2.10
  -2  -3  -9    7.20    2.00
  -2   3  -9    4.70    2.20
  -2   3  -9    6.60    2.00
  -2   3  -9    3.40    2.80
  -3  -3  -9    3.80    1.80
  -3  -3  -9    1.70    1.60
  -3  -3  -9    3.10    2.30
  -3   3  -9    0.30    2.50
  -3   3  -9   -0.40    1.60
  -3   3  -9    0.70    1.90
  -3   3  -9    2.30    1.90
  -4  -3  -9   69.09    4.20
  -4  -3  -9   72.39    3.80
  -4  -3  -9   77.79    3.80
  -4   3  -9   71.79    3.90
  -4   3  -9   77.19    4.30
   5  -3   9    8.90    1.60
  -5  -3  -9    5.20    1.80
  -5  -3  -9    9.20    1.70
  -5   3  -9   14.70    2.10
  -5   3  -9    7.00    1.30
  -6  -4   9   67.59    3.30
  -6   4   9   68.99    3.20
  -5  -4   9    5.80    2.00
  -5  -4   9    8.00    1.70
  -5  -4   9   13.80    3.00
  -5   4   9    9.50    2.20
  -5   4   9   10.80    2.30
  -5   4   9    3.70    1.70
  -4  -4   9   19.90    2.60
  -4  -4   9   24.30    3.10
  -4  -4   9   17.30    3.80
  -4   4   9   19.20    3.30
  -4   4   9   19.20    2.70
  -4   4   9   23.30    3.20
  -3  -4   9   11.90    2.40
  -3  -4   9    6.60    2.50
  -3  -4   9    7.00    1.70
  -3   4   9    9.20    2.30
  -3   4   9    8.50    2.50
  -3   4   9    9.40    2.20
  -2  -4   9    6.80    1.50
  -2  -4   9    6.00    2.40
  -2   4   9    4.20    1.50
  -2   4   9    7.80    2.40
  -2   4   9    6.20    2.70
  -1  -4   9   16.60    2.50
  -1  -4   9   23.40    3.60
  -1   4   9   22.00    3.90
  -1   4   9   15.70    2.40
   0  -4  -9  273.27    9.90
   0   4  -9  269.07    9.90
   0   4   9  271.87    9.50
  -1  -4  -9   21.20    3.80
  -1  -4  -9   25.10    4.30
  -1   4  -9   25.80    3.80
  -1   4  -9   27.00    3.70
  -2  -4  -9   14.00    3.10
  -2  -4  -9    7.10    2.30
  -2  -4  -9   12.90    2.60
  -2   4  -9   13.30    2.60
  -2   4  -9    8.60    2.70
  -3  -4  -9   -0.40    1.60
  -3  -4  -9   -0.60    1.80
  -3  -4  -9    3.40    2.20
  -3   4  -9    2.60    2.10
  -3   4  -9   -0.30    1.90
  -3   4  -9    1.60    2.40
  -4  -4  -9  182.88    6.80
  -4  -4  -9  181.98    6.70
  -4  -4  -9  181.18    7.20
  -4   4  -9  181.58    7.10
  -4   4  -9  171.88    7.30
  -4   4  -9  183.68    6.70
  -5  -4  -9    2.30    1.90
   5  -4   9    1.20    1.10
  -5  -4  -9    2.90    1.10
  -5   4  -9    2.40    1.30
  -6  -5   9   13.70    2.30
  -6   5   9   12.00    2.10
  -6   5   9   14.60    1.80
  -5  -5   9    3.00    1.80
  -5  -5   9   -1.20    2.00
  -5  -5   9    0.60    1.50
  -5   5   9    1.80    1.60
  -5   5   9    4.10    2.10
  -5   5   9    2.20    1.50
  -4  -5   9  149.69    6.70
  -4  -5   9  132.29    5.90
  -4  -5   9  130.59    6.20
  -4   5   9  146.19    6.20
  -4   5   9  130.19    5.90
  -4   5   9  140.69    6.40
  -3  -5   9   85.79    4.40
  -3  -5   9   90.59    4.90
  -3  -5   9   82.69    5.70
  -3   5   9   88.69    5.20
  -3   5   9   85.49    5.00
  -3   5   9   84.79    4.30
  -2  -5   9   43.60    3.00
  -2  -5   9   40.20    3.90
  -2   5   9   46.00    4.90
  -2   5   9   40.60    4.20
  -2   5   9   44.70    2.90
  -1  -5   9   53.19    3.40
  -1  -5   9   63.79    4.40
  -1   5   9   51.59    3.30
   1   5  -9   52.39    4.60
  -1   5   9   61.19    7.50
   0  -5  -9  123.59    5.90
   0   5  -9  118.09    6.00
   0   5   9  130.09    5.60
  -1  -5  -9   58.39    5.40
  -1  -5  -9   49.30    4.60
  -1   5  -9   58.19    4.30
  -1   5  -9   59.39    4.40
  -2  -5  -9   10.90    2.40
  -2  -5  -9    9.00    2.40
  -2  -5  -9    9.90    2.40
  -2   5  -9    6.20    2.30
  -2   5  -9   15.80    3.60
  -3  -5  -9    4.40    1.70
  -3  -5  -9    1.70    1.80
  -3  -5  -9    3.30    2.40
  -3   5  -9    1.10    1.90
  -3   5  -9    3.00    2.20
  -3   5  -9    5.70    2.40
  -4  -5  -9   48.30    3.00
  -4  -5  -9   47.00    3.00
  -4  -5  -9   48.90    3.70
  -4   5  -9   41.90    3.90
  -4   5  -9   43.80    3.20
  -4   5  -9   44.90    3.40
   5  -5   9    1.40    1.00
  -5  -5  -9   -0.20    1.00
  -6   6   9   34.00    2.50
  -6   6   9   36.40    2.30
  -5  -6   9    1.20    1.70
  -5  -6   9   -1.30    1.60
  -5   6   9    1.10    2.10
  -5   6   9    2.20    1.60
  -5   6   9   -2.60    1.50
  -4  -6   9   45.10    3.40
  -4  -6   9   59.49    4.90
  -4  -6   9   47.40    3.90
  -4   6   9   49.60    3.50
  -4   6   9   53.89    4.10
  -4   6   9   48.30    3.90
  -3  -6   9  126.19    6.10
  -3  -6   9  122.39    5.50
  -3   6   9  128.19    5.50
  -3   6   9  129.89    6.30
  -3   6   9  125.59    6.10
  -2  -6   9  217.58    8.60
  -2  -6   9  218.08    8.00
  -2   6   9  207.08    9.10
  -2   6   9  225.58    8.80
  -2   6   9  229.38    8.10
  -1  -6   9   20.60    2.70
  -1  -6   9   19.30    3.70
  -1   6   9   18.50    2.50
   1   6  -9   21.80    3.60
   0  -6  -9   40.90    4.00
   0   6   9   36.70    3.20
   0   6  -9   40.10    4.10
  -1  -6  -9   60.69    5.50
  -1  -6  -9   63.19    5.30
  -1  -6  -9   68.39    5.00
  -1   6  -9   69.09    5.00
  -1   6  -9   66.09    4.40
  -2  -6  -9   13.10    2.40
  -2  -6  -9   13.40    2.70
  -2  -6  -9   10.50    2.50
  -2   6  -9    9.40    2.40
  -2   6  -9   15.70    3.70
  -3  -6  -9    1.30    1.60
  -3  -6  -9   -1.90    2.10
  -3  -6  -9   -1.00    1.80
  -3   6  -9    2.10    2.20
  -3   6  -9    2.10    2.20
  -3   6  -9   -0.50    1.90
  -4  -6  -9    4.00    2.00
  -4  -6  -9    8.30    2.00
  -4  -6  -9    8.40    2.10
  -4   6  -9    3.70    1.60
  -4   6  -9    7.60    2.10
  -4   6  -9    7.30    1.70
  -6  -7   9   -1.20    1.50
  -6   7   9   -1.00    1.20
  -5  -7   9   30.60    2.70
  -5  -7   9   24.60    3.10
  -5   7   9   25.60    2.70
  -5   7   9   25.90    2.90
  -5   7   9   29.10    3.70
  -4  -7   9   77.09    4.60
  -4  -7   9   70.39    4.00
  -4   7   9   75.59    4.70
  -4   7   9   76.49    4.50
  -4   7   9   70.79    4.10
  -3  -7   9   15.10    2.60
  -3  -7   9   12.40    2.40
  -3   7   9   12.70    2.80
  -3   7   9   10.50    2.40
  -3   7   9   15.10    2.40
  -2  -7   9   24.80    2.70
  -2  -7   9   28.40    3.60
  -2   7   9   15.70    3.80
  -2   7   9   25.10    3.80
  -2   7   9   18.40    2.40
  -1  -7   9  367.56   12.30
  -1  -7   9  384.26   13.00
   1   7  -9  354.76   12.70
  -1   7   9  374.56   12.30
   0  -7  -9  156.88    6.70
   0   7   9  154.68    6.10
   0   7  -9  144.59    6.90
  -1  -7  -9    2.60    2.70
  -1  -7  -9    2.60    2.50
  -1  -7  -9    1.90    2.70
  -1   7  -9    0.80    2.50
  -2  -7  -9    4.40    2.10
  -2  -7  -9    4.60    2.20
  -2  -7  -9    5.00    2.50
  -2   7  -9   13.40    3.30
  -2   7  -9   11.70    2.50
  -3  -7  -9   25.50    3.20
  -3  -7  -9   20.70    4.10
  -3  -7  -9   22.80    2.90
  -3   7  -9   29.80    3.50
  -3   7  -9   29.50    3.70
  -3   7  -9   27.80    3.90
  -4  -7  -9    4.70    2.00
  -4  -7  -9    3.40    1.30
  -4  -7  -9    3.70    1.20
  -4   7  -9    5.20    2.10
  -4   7  -9    2.00    1.40
  -4   7  -9    2.50    1.50
  -6  -8   9    4.30    1.70
  -6   8   9    7.60    1.80
  -6   8   9    8.40    1.90
  -5  -8   9   98.49    4.70
  -5  -8   9   99.49    4.80
  -5   8   9  101.89    4.90
  -5   8   9  106.99    4.70
  -4  -8   9    0.60    1.80
  -4  -8   9    1.20    1.40
  -4   8   9    2.40    1.50
  -4   8   9   10.40    2.20
  -4   8   9    3.40    2.00
  -3  -8   9  130.69    6.00
  -3  -8   9  133.69    5.60
  -3   8   9  123.49    6.40
  -3   8   9  122.79    6.10
  -3   8   9  123.49    5.50
  -2  -8   9   24.00    2.60
  -2   8   9   24.50    5.50
  -2   8   9   24.50    2.60
  -1  -8   9   18.50    2.80
  -1  -8   9   19.80    3.80
  -1   8   9   22.50    2.40
   1   8  -9   23.60    4.40
   0  -8   9   33.10    5.30
   0  -8  -9   34.60    4.00
   0   8  -9   25.30    4.30
   0   8   9   33.70    3.10
  -1  -8  -9   11.40    2.90
  -1  -8  -9    7.50    2.70
  -1  -8  -9   12.70    2.90
  -1   8  -9    9.60    2.20
  -2  -8  -9   56.49    4.20
  -2  -8  -9   56.89    4.20
  -2  -8  -9   50.99    5.10
  -2   8  -9   51.09    4.30
  -2   8  -9   50.89    4.50
  -3  -8  -9   -0.50    1.80
  -3  -8  -9    0.50    1.40
  -3  -8  -9    5.80    2.50
  -3   8  -9    3.30    2.20
  -3   8  -9    0.40    2.00
  -3   8  -9    4.80    2.00
  -4  -8  -9    0.20    2.10
  -4  -8  -9    1.50    1.20
  -4  -8  -9    2.20    1.30
  -4   8  -9   -1.30    1.40
  -4   8  -9    3.10    1.90
  -4   8  -9   -1.40    1.50
  -6   9   9    0.90    1.30
  -5  -9   9   18.70    2.80
  -5  -9   9   17.30    2.70
  -5   9   9   22.10    2.80
  -5   9   9   19.20    2.60
  -5   9   9   20.20    3.70
  -4  -9   9    3.70    2.00
  -4  -9   9    0.90    1.60
  -4   9   9    4.70    2.20
  -4   9   9    0.30    1.40
  -4   9   9   -0.80    2.10
  -3  -9   9  105.49    4.90
  -3  -9   9  101.09    5.30
  -3   9   9  104.09    4.90
  -3   9   9  106.29    5.50
  -3   9   9   98.59    5.90
  -2  -9   9  678.83   22.10
  -2  -9   9  689.13   21.70
  -2   9   9  680.43   21.70
  -1  -9   9  282.27    9.70
  -1   9   9  289.87    9.70
   1   9  -9  256.67   10.40
   0  -9   9    1.50    2.90
   0  -9  -9    0.00    2.30
   0   9   9   -0.50    1.70
   0   9  -9    2.10    2.80
  -1  -9  -9   -1.80    2.80
  -1  -9  -9   -2.00    3.80
  -1  -9  -9    1.50    2.40
  -1   9  -9   -0.30    1.80
  -1   9  -9   -2.20    2.60
  -2  -9  -9    2.90    1.90
  -2  -9  -9    0.20    2.60
  -2  -9  -9    0.90    1.90
  -2   9  -9    1.00    2.00
  -2   9  -9   -2.30    2.30
  -3  -9  -9   71.39    5.40
  -3  -9  -9   59.79    3.90
  -3  -9  -9   56.89    4.00
  -3   9  -9   59.59    4.40
  -3   9  -9   57.09    4.20
  -4  -9  -9    3.00    1.20
  -4  -9  -9    4.30    1.20
   4  -9   9    4.80    1.30
  -4  -9  -9    4.40    2.20
  -4   9  -9    7.30    1.80
  -4   9  -9    2.70    1.50
  -5 -10   9    1.80    1.70
  -5 -10   9    3.90    1.90
  -5  10   9    5.20    1.60
  -5  10   9    3.90    1.50
  -5  10   9    7.60    2.50
  -4 -10   9   57.39    4.00
  -4 -10   9   51.69    3.50
  -4  10   9   61.49    4.30
  -4  10   9   56.89    4.30
  -4  10   9   52.09    3.50
  -3 -10   9   95.59    5.20
  -3  10   9   95.79    5.40
  -3  10   9  106.59    5.90
  -2 -10   9  109.59    5.70
  -2 -10   9  119.09    5.20
  -2  10   9  114.59    5.10
  -1 -10   9    3.80    1.80
  -1  10   9    3.40    1.50
   1  10  -9   -0.90    3.10
   0 -10   9    8.80    3.10
   0 -10  -9   14.80    2.90
   0 -10  -9   12.50    3.20
   0  10  -9   13.20    3.20
   0  10   9   11.10    2.80
  -1 -10  -9    2.30    2.90
   1 -10   9    2.60    2.30
  -1 -10  -9   -0.10    2.50
  -1 -10  -9    4.00    2.70
  -1  10  -9    2.10    2.70
  -1  10  -9    0.90    1.90
  -2 -10  -9   99.89    6.20
  -2 -10  -9   99.99    5.10
  -2 -10  -9   95.19    5.10
  -2  10  -9  108.29    6.00
  -2  10  -9   94.19    5.30
  -3 -10  -9   66.59    5.00
  -3 -10  -9   60.09    4.00
  -3 -10  -9   64.19    3.90
  -3  10  -9   72.69    4.50
  -3  10  -9   58.39    4.10
  -3  10  -9   66.49    4.70
  -4 -10  -9   32.70    2.50
  -4 -10  -9   39.70    2.50
   4 -10   9   34.80    2.60
  -4  10  -9   35.70    2.90
  -4  10  -9   33.50    2.90
  -5 -11   9   47.60    3.30
  -5 -11   9   40.40    3.40
  -5  11   9   40.10    3.00
  -5  11   9   45.80    3.10
  -5  11   9   36.30    4.30
  -4 -11   9   63.69    3.90
  -4 -11   9   73.29    4.40
  -4  11   9   62.59    4.00
  -4  11   9   75.59    4.70
  -4  11   9   68.19    4.40
  -3 -11   9  157.08    6.80
  -3 -11   9  151.78    6.40
  -3  11   9  146.79    6.30
  -3  11   9  155.18    6.90
  -3  11   9  155.68    7.40
  -2 -11   9   10.30    2.40
  -2 -11   9   14.10    2.70
  -2  11   9    6.50    1.50
  -1 -11   9  240.78    8.80
  -1  11   9  242.18    8.70
   0 -11  -9   10.40    2.90
   0 -11   9   11.50    3.00
   0  11   9   15.20    2.90
   0  11  -9    8.60    3.40
  -1 -11  -9  193.18    8.10
   1 -11   9  204.28    8.00
  -1 -11  -9  198.38    8.70
  -1 -11  -9  187.28    8.50
  -1  11  -9  226.48    9.60
  -1  11  -9  203.08    8.00
  -2 -11  -9  221.58    8.30
  -2 -11  -9  222.58    8.30
  -2 -11  -9  216.48    9.10
   2 -11   9  209.58    8.30
  -2  11  -9  213.68    8.80
  -2  11  -9  210.58    8.40
  -3 -11  -9   -1.60    2.50
  -3  11  -9    0.30    2.10
  -4 -11  -9   12.30    1.90
  -4 -11  -9    8.60    1.80
   4 -11   9    9.90    1.80
  -4  11  -9   11.40    2.40
  -4  11  -9    6.00    1.60
  -5 -12   9   12.10    2.80
  -5 -12   9    7.50    1.90
  -5  12   9   13.50    3.00
  -5  12   9   11.20    2.50
  -5  12   9    9.90    1.90
  -4 -12   9   64.39    3.90
  -4 -12   9   66.09    4.60
  -4  12   9   69.09    4.40
  -4  12   9   59.29    3.80
  -3 -12   9   17.00    2.70
  -3 -12   9   16.50    3.40
  -3  12   9   29.80    3.80
  -3  12   9   17.40    2.60
  -2 -12   9  210.88    8.40
  -2 -12   9  209.18    8.00
  -2  12   9  208.78    7.90
  -1 -12   9   13.90    3.10
  -1  12   9   20.00    2.50
   0 -12  -9  151.38    7.30
   0 -12   9  145.39    6.90
   0  12   9  163.48    6.30
   0  12  -9  151.38    6.60
  -1 -12  -9   48.80    5.20
   1 -12   9   51.59    4.10
  -1 -12  -9   52.49    4.50
  -1 -12  -9   54.69    5.70
  -1  12  -9   46.10    3.70
  -1  12  -9   55.19    5.60
  -2 -12  -9  104.29    5.30
  -2 -12  -9  104.59    6.50
   2 -12   9  102.49    5.20
  -2 -12  -9  105.79    5.10
  -2  12  -9  102.29    5.20
  -2  12  -9  100.99    6.20
   3 -12   9    2.00    1.60
  -3 -12  -9    3.40    1.50
  -3 -12  -9    2.70    1.50
  -3  12  -9    2.50    1.60
  -3  12  -9    2.90    2.20
  -4 -12  -9    7.50    1.90
   4 -12   9    4.20    1.20
  -4 -12  -9    4.80    1.10
  -4  12  -9    4.70    1.50
  -4  12  -9    8.20    1.80
  -5 -13   9   -0.50    1.80
  -5  13   9   -1.60    1.80
  -4 -13   9   22.20    2.80
  -4 -13   9   18.00    3.20
  -4  13   9   19.30    4.00
  -4  13   9   18.10    2.70
  -3 -13   9   21.90    2.80
  -3 -13   9   19.20    3.40
  -3  13   9   15.70    2.50
  -2 -13   9   34.00    3.30
  -2  13   9   34.10    2.90
   1 -13  -9  124.69    6.50
  -1 -13   9  131.59    5.90
  -1  13   9  128.29    5.50
   0 -13  -9   18.00    3.80
   0 -13   9   13.40    2.60
   0 -13  -9   13.00    3.20
   0  13   9   14.00    2.90
   0  13  -9   14.00    2.80
  -1 -13  -9    4.70    3.50
   1 -13   9    0.60    1.90
  -1 -13  -9    1.20    2.80
  -1 -13  -9   -1.00    2.10
   1  13   9    2.30    2.60
  -1  13  -9   -1.10    3.30
  -1  13  -9    1.90    1.80
   2 -13   9   15.40    3.10
  -2 -13  -9    9.90    2.10
  -2 -13  -9   13.40    2.40
  -2  13  -9   16.30    3.10
  -2  13  -9   19.20    3.10
  -3 -13  -9    1.50    1.40
  -3 -13  -9    0.20    1.40
   3 -13   9    2.10    1.40
  -3  13  -9   -0.30    2.10
  -3  13  -9   -0.90    1.50
  -4 -13  -9   39.40    2.40
   4 -13   9   42.50    2.50
  -4  13  -9   31.40    3.40
  -4  13  -9   41.70    2.50
  -5 -14   9   29.10    3.20
  -5  14   9   31.60    4.40
  -4 -14   9   18.90    3.50
  -4 -14   9   15.60    2.80
  -4  14   9   20.90    3.00
  -4  14   9   13.70    3.30
  -3 -14   9    0.40    2.20
  -3 -14   9    1.00    1.60
  -3  14   9   -0.80    1.40
  -2  14   9    6.90    2.20
   1 -14  -9   26.40    3.40
  -1 -14   9   21.50    3.40
   1 -14  -9   24.20    4.70
  -1  14   9   23.90    2.80
   0 -14  -9    9.60    2.60
   0 -14  -9   13.00    4.60
   0 -14   9    8.30    2.40
   0  14  -9    8.40    2.00
   0  14   9   11.90    2.90
  -1 -14  -9   57.79    5.30
  -1 -14  -9   66.19    4.30
   1 -14   9   58.59    4.30
  -1  14  -9   58.19    3.90
   1  14   9   48.80    6.00
  -2 -14  -9    3.30    2.00
  -2 -14  -9   -0.80    1.70
   2 -14   9    8.10    1.80
  -2  14  -9   -3.50    2.90
  -2  14  -9    1.70    1.80
  -3 -14  -9   34.40    3.00
   3 -14   9   31.00    2.70
  -3 -14  -9   30.70    2.80
  -3  14  -9   24.90    3.80
  -3  14  -9   29.10    2.90
  -4 -14  -9   -1.00    1.00
   4 -14   9   -0.70    1.00
  -4 -14  -9   -0.90    0.90
  -4  14  -9    1.40    1.50
  -5 -15   9    1.70    2.10
  -4 -15   9    1.20    1.50
  -4  15   9    0.70    1.60
  -3 -15   9  223.58    8.30
  -3  15   9  215.08    8.20
  -2 -15   9  179.68    7.20
  -2  15   9  175.48    7.00
   1 -15  -9  490.35   16.70
  -1 -15   9  522.15   16.60
  -1 -15   9  514.05   17.00
   1 -15  -9  503.75   17.10
  -1  15   9  489.05   17.40
   0 -15  -9   65.39    4.60
   0 -15   9   54.89    4.50
   0  15  -9   56.49    3.90
   0  15   9   71.59    4.70
  -1 -15  -9   -0.40    2.00
   1 -15   9    1.60    1.90
  -1 -15  -9   -0.10    2.80
   1  15   9    0.00    2.50
  -1  15  -9    4.70    1.90
   2 -15   9    7.10    1.70
  -2 -15  -9    2.10    1.80
  -2 -15  -9   16.70    3.40
  -2  15  -9   10.80    2.70
   3 -15   9   43.80    3.00
  -3 -15  -9   42.10    2.90
  -3 -15  -9   48.50    3.20
  -3  15  -9   42.90    3.10
   4 -15   9    1.90    1.00
  -4 -15  -9    1.10    0.90
  -4 -15  -9    1.80    1.10
  -4  15  -9    3.10    1.20
  -4 -16   9   -0.80    1.40
  -4  16   9    3.60    2.40
  -3 -16   9    0.40    1.50
  -3  16   9    1.00    1.40
  -2 -16   9    1.40    1.70
  -2  16   9    0.80    1.50
  -1 -16   9    2.70    2.80
  -1 -16   9    8.60    2.30
   1 -16  -9    6.50    2.60
  -1  16   9    5.40    1.70
   0 -16   9   -4.60    2.00
   0 -16  -9    1.20    2.10
   0  16  -9    3.30    1.80
   0  16   9   -1.50    1.50
  -1 -16  -9  119.09    5.60
   1 -16   9  130.89    5.60
  -1 -16  -9  110.19    6.40
   1  16   9  120.79    6.10
  -1  16  -9  115.49    5.60
   2 -16   9   24.70    3.00
  -2 -16  -9   29.90    5.70
  -2 -16  -9   22.90    3.20
  -2  16  -9   18.60    2.80
  -3 -16  -9   23.60    2.60
   3 -16   9   18.60    2.30
  -3 -16  -9   23.10    2.40
  -3  16  -9   20.10    2.40
  -4 -16  -9   -0.10    0.90
  -4 -16  -9    0.00    1.00
   4 -16   9   -0.50    1.00
  -4  16  -9    0.90    1.20
  -4 -17   9    9.00    3.20
  -4  17   9    3.60    1.80
  -3 -17   9   37.80    3.30
  -3  17   9   37.40    3.10
  -2 -17   9    3.40    1.80
   2 -17  -9   -0.10    2.60
  -2  17   9    2.30    1.50
  -1 -17   9   24.60    4.70
  -1 -17   9   19.00    3.80
   1 -17  -9   16.30    2.70
  -1  17   9   14.30    2.60
   1  17  -9   19.60    2.90
   0 -17   9   45.70    4.00
   0 -17  -9   39.90    3.90
   0  17  -9   45.00    3.60
   0  17   9   40.20    3.40
  -1 -17  -9    6.80    2.80
  -1 -17  -9    5.80    2.00
   1 -17   9    6.30    2.00
   1  17   9    7.00    2.60
  -1  17  -9    8.40    2.10
  -2 -17  -9    3.40    1.80
  -2 -17  -9    2.60    1.50
   2 -17   9    0.80    1.50
  -2  17  -9    0.50    1.50
  -3 -17  -9    5.50    1.30
   3 -17   9    9.00    2.00
  -3 -17  -9    5.00    1.40
  -3  17  -9    5.30    1.40
  -4 -18   9  152.78    6.30
  -4  18   9  163.08    6.40
  -3 -18   9   17.60    2.90
  -3  18   9   23.00    2.80
  -2 -18   9   84.59    4.70
   2 -18  -9   88.19    5.20
  -2  18   9   87.99    4.40
  -1 -18   9   22.40    4.00
  -1 -18   9   35.00    4.40
   1 -18  -9   14.90    3.50
  -1  18   9   21.80    2.70
   1  18  -9   21.70    3.20
   0 -18   9  214.58    8.00
   0 -18  -9  203.98    7.80
   0  18  -9  197.88    7.80
   0  18   9  189.18    7.70
   1 -18   9    1.30    1.80
  -1 -18  -9   -0.10    1.80
   1  18   9   -4.00    2.40
  -1  18  -9    0.10    1.70
   2 -18   9   42.40    3.10
  -2 -18  -9   45.30    3.20
  -2 -18  -9   38.30    3.40
  -2  18  -9   45.40    3.10
  -3 -18  -9   -0.90    1.20
   3 -18   9   -0.90    1.10
  -3 -18  -9    1.30    1.10
  -3  18  -9   -1.10    1.20
  -4 -19   9   33.60    3.20
  -4  19   9   35.30    3.60
  -3 -19   9   18.00    2.80
  -3  19   9   13.50    2.60
  -2 -19   9   -2.10    1.90
   2 -19  -9    0.60    2.60
   2  19  -9    6.30    3.20
  -2  19   9    1.40    1.40
  -1 -19   9    0.10    2.40
  -1 -19   9    3.60    2.50
   1 -19  -9   -2.30    2.00
   1  19  -9    0.40    1.80
  -1  19   9    0.00    1.50
   0 -19   9   53.69    3.90
   0 -19  -9   57.99    3.80
   0  19   9   50.79    3.70
   0  19  -9   53.69    3.80
  -1  19  -9   29.50    3.50
   1  19   9   29.20    4.20
  -2 -19  -9   33.20    2.80
   2 -19   9   38.90    2.80
  -2 -19  -9   31.50    3.20
  -2  19  -9   30.90    2.80
   3 -19   9   16.10    1.90
  -3 -19  -9   15.10    2.00
  -3  19  -9   18.10    2.00
  -4 -20   9   80.59    4.10
  -3 -20   9    2.50    1.80
  -3  20   9    1.60    1.50
   2 -20  -9   12.90    2.40
  -2 -20   9   11.40    2.30
   2  20  -9   11.60    2.20
  -2  20   9   13.70    2.50
  -1 -20   9    5.60    2.50
  -1 -20   9    9.90    2.40
  -1  20   9   14.40    2.60
   1  20  -9   14.30    2.90
   0 -20  -9   59.59    4.50
   0  20  -9   55.39    3.70
   0  20   9   54.09    3.80
   1 -20   9   19.40    2.80
  -1 -20  -9   19.80    2.90
   1  20   9   19.80    4.00
  -1  20  -9   17.20    2.50
   2 -20   9   12.80    2.20
  -2 -20  -9    8.20    1.80
  -2 -20  -9   11.10    2.20
  -2  20  -9    8.80    2.20
  -3 -20  -9   -0.60    1.20
   3 -20   9    0.50    1.10
  -3  20  -9    0.10    1.30
  -4 -21   9    2.20    2.40
  -3 -21   9   70.49    3.90
  -3  21   9   70.59    3.90
  -2 -21   9   21.60    3.20
   2 -21  -9   30.00    3.30
   2  21  -9   21.70    3.70
  -2  21   9   19.50    2.50
  -1 -21   9   74.59    5.60
  -1 -21   9   77.19    4.70
   1 -21  -9   76.19    4.30
  -1  21   9   72.29    4.00
   1  21  -9   77.49    4.40
   0 -21   9   67.29    4.00
   0 -21  -9   72.49    3.90
   0  21  -9   69.69    4.10
   0  21   9   71.49    4.10
   1 -21   9    5.10    1.60
  -1 -21  -9    6.60    1.60
   1  21   9    7.90    2.70
  -1  21  -9    7.30    1.70
  -2 -21  -9   44.70    2.80
  -2 -21  -9   40.80    3.20
   2 -21   9   41.80    2.80
  -2  21  -9   50.89    3.00
   3 -21   9   13.60    1.70
  -3 -21  -9   11.10    2.40
  -3 -21  -9   14.50    1.80
  -3  21  -9   11.10    1.80
  -3 -22   9    2.90    1.80
  -3  22   9    9.80    2.50
   2 -22  -9   10.60    1.90
  -2  22   9   12.40    2.30
  -1 -22   9   -1.60    2.00
   1 -22  -9    1.10    1.60
  -1  22   9   -0.70    1.40
   1  22  -9    0.20    2.00
   0 -22  -9    4.20    1.50
   0 -22   9    6.40    1.80
   0  22  -9    3.70    1.80
   0  22   9    4.60    1.70
   1 -22   9    4.60    1.50
  -1 -22  -9    6.10    1.50
  -1  22  -9   10.00    2.50
   1  22   9    9.70    3.20
  -2 -22  -9   19.90    2.10
  -2 -22  -9   24.70    3.30
   2 -22   9   21.00    2.10
  -2  22  -9   20.40    2.20
  -3 -23   9   32.50    3.30
  -3  23   9   31.30    3.00
  -2 -23   9    2.80    2.20
   2 -23  -9    0.90    1.80
  -2  23   9    0.10    1.40
  -1 -23   9  123.69    5.50
   1 -23  -9  126.59    5.30
   1  23  -9  134.69    5.80
  -1  23   9  128.09    5.40
   0 -23   9    9.80    1.80
   0 -23  -9   12.00    2.50
   0  23   9   12.40    2.90
   0  23  -9   12.20    2.00
   1 -23   9    8.20    2.00
  -1 -23  -9    5.00    1.40
  -1  23  -9    3.30    1.60
  -2 -23  -9    1.80    1.10
   2 -23   9    0.60    1.00
  -2  23  -9    2.00    1.40
  -2  24   9   -1.50    1.40
   1 -24  -9   11.10    2.40
  -1 -24   9   11.10    2.90
  -1  24   9   14.20    2.40
   0 -24  -9    2.20    1.40
   0 -24   9    4.40    1.50
   0  24  -9    0.40    2.10
   0  24   9    4.00    1.80
   1 -24   9   21.00    2.40
  -1 -24  -9   19.00    2.30
  -1  24  -9   23.30    2.60
   2 -24   9    8.30    1.70
  -2 -24  -9   11.20    1.80
  -2  24  -9    9.70    1.70
   2 -25  -9    7.70    1.80
  -2  25   9    9.40    1.80
   1 -25  -9   13.90    2.30
  -1 -25   9   14.50    3.10
  -1  25   9   16.70    2.60
   0 -25  -9   13.40    2.20
   0 -25   9   15.20    2.70
   0  25   9    9.90    2.10
   1 -25   9   18.10    2.80
  -1 -25  -9   14.40    2.40
  -1  25  -9   15.60    3.00
  -1 -26   9    0.70    2.10
   1 -26  -9   -0.80    1.40
  -1  26   9   -0.20    1.60
   0 -26   9   92.09    3.90
   0 -26  -9   84.19    4.90
  -1 -26  -9   30.70    2.20
   1 -26   9   34.60    2.30
   1 -27  -9    4.30    1.50
   0 -27  -9   18.10    2.10
   0 -27   9   16.00    2.30
  -6   0  10   38.90    2.30
  -5   0  10    0.30    1.60
  -5   0  10    1.60    1.40
  -5   0  10    0.20    1.50
  -4   0  10   32.20    3.10
  -4   0  10   29.30    3.30
  -4   0  10   36.90    3.70
  -3   0  10    1.20    2.10
  -3   0  10    0.90    1.50
  -3   0  10    2.70    2.00
  -2   0  10  794.42   24.40
  -2   0  10  751.62   25.20
  -1   0  10    1.00    2.70
  -1   0  10   -0.70    1.40
   0   0 -10  266.37    9.80
  -1   0 -10    2.20    1.90
  -1   0 -10   -0.20    2.80
  -2   0 -10   17.70    3.50
  -2   0 -10   14.00    3.40
  -3   0 -10    0.70    1.60
  -3   0 -10    0.40    1.80
  -4   0 -10  526.95   16.40
  -4   0 -10  520.95   16.80
  -6  -1  10   58.99    2.90
  -6   1  10   60.39    2.90
  -5  -1  10    3.30    1.70
  -5  -1  10    3.50    1.70
  -5  -1  10    1.90    1.50
  -5   1  10    5.60    1.80
  -5   1  10    2.20    1.40
  -5   1  10    4.00    1.60
  -4  -1  10    1.30    1.70
  -4  -1  10    1.60    1.50
  -4  -1  10    3.00    2.00
  -4   1  10    2.80    1.60
  -4   1  10    3.00    1.80
  -4   1  10    2.00    1.80
  -3  -1  10  102.29    5.00
  -3  -1  10  102.49    5.40
  -3   1  10  104.39    5.60
  -3   1  10  107.19    5.40
  -3   1  10  110.99    5.00
  -2   1  10   26.60    4.00
  -2   1  10   16.70    2.50
  -1  -1  10    4.40    2.60
  -1  -1  10    7.50    1.80
  -1   1  10    2.90    1.50
  -1   1  10    0.80    2.70
   0  -1 -10  213.38    8.40
   0   1 -10  223.08    8.50
  -1  -1 -10    0.40    3.00
  -1  -1 -10    0.80    1.90
  -1   1 -10   -2.20    1.90
  -1   1 -10    0.40    2.60
  -2  -1 -10   43.80    4.00
  -2  -1 -10   44.50    4.10
  -2   1 -10   41.10    3.70
  -2   1 -10   39.00    4.10
  -2   1 -10   43.90    5.40
  -3  -1 -10   -2.30    1.80
  -3  -1 -10    0.70    1.60
  -3   1 -10   -2.30    1.70
  -4  -1 -10   11.10    2.50
  -4  -1 -10   14.50    2.50
  -4   1 -10   16.50    2.60
  -4   1 -10   17.10    2.40
  -6  -2  10    1.90    1.10
  -6   2  10   -0.50    1.10
  -5  -2  10   19.80    2.60
  -5  -2  10   30.60    3.00
  -5   2  10   24.40    3.10
  -5   2  10   26.30    2.60
  -5   2  10   22.40    2.90
  -4  -2  10    0.50    1.50
  -4  -2  10    2.40    1.80
  -4  -2  10    3.20    2.00
  -4   2  10    2.10    1.70
  -4   2  10    2.00    1.90
  -4   2  10    2.10    1.50
  -3  -2  10  178.18    6.80
  -3  -2  10  171.78    7.20
  -3   2  10  161.18    7.30
  -3   2  10  169.58    6.70
  -3   2  10  164.58    7.20
  -2  -2  10    3.50    1.60
  -2  -2  10    5.90    2.80
  -2   2  10    9.60    2.70
  -2   2  10    4.10    1.30
  -1  -2  10    5.50    1.80
  -1  -2  10    3.90    2.40
   1   2 -10    7.60    2.30
  -1   2  10    3.50    1.50
  -1   2  10    6.10    3.00
   0  -2 -10  127.49    6.00
   0   2 -10  136.39    6.10
   0   2  10  128.79    5.90
  -1  -2 -10    4.00    2.20
  -1  -2 -10   -2.30    4.10
  -1   2 -10   -0.90    2.40
  -1   2 -10    0.40    1.90
  -2  -2 -10    1.90    2.50
  -2  -2 -10    3.10    2.10
  -2  -2 -10    0.20    1.90
  -2   2 -10    2.80    2.80
  -2   2 -10    1.30    2.10
  -3  -2 -10   11.30    2.70
  -3  -2 -10    8.40    2.10
  -3   2 -10   11.10    3.40
  -3   2 -10    4.70    1.90
  -4  -2 -10   20.30    2.50
  -4  -2 -10   19.40    2.70
  -4   2 -10   20.10    2.80
  -4   2 -10   24.00    2.60
  -6  -3  10   -0.90    1.20
  -6   3  10   -0.30    1.10
  -5  -3  10   97.09    4.60
  -5  -3  10   97.09    4.70
  -5   3  10   99.29    4.50
  -5   3  10  109.59    5.10
  -5   3  10   93.09    4.60
  -4  -3  10   -0.70    1.60
  -4  -3  10   -0.90    1.80
  -4   3  10   -0.70    1.80
  -4   3  10   -0.40    1.80
  -4   3  10   -0.10    1.50
  -3  -3  10   95.89    4.80
  -3  -3  10   96.49    5.30
  -3   3  10  103.89    4.80
  -3   3  10  103.99    5.50
  -3   3  10   99.09    5.40
  -2  -3  10   -1.50    2.00
  -2  -3  10   -0.10    1.30
  -2   3  10    0.40    1.30
  -2   3  10    3.50    2.70
  -1  -3  10  111.99    4.90
  -1  -3  10  109.09    5.70
   1   3 -10   97.59    5.20
  -1   3  10  110.69    6.50
  -1   3  10  106.39    4.80
   0  -3 -10    4.10    2.10
   0   3 -10    7.40    2.00
   0   3  10    6.10    2.20
  -1  -3 -10  297.57   10.90
  -1   3 -10  293.37   10.90
  -1   3 -10  307.37   10.90
  -2  -3 -10   12.50    2.80
  -2  -3 -10    9.80    2.30
  -2  -3 -10   11.60    2.20
  -2   3 -10   11.00    2.90
  -2   3 -10    8.90    2.20
  -3  -3 -10   21.00    3.50
  -3  -3 -10   23.00    3.00
  -3   3 -10   15.50    2.80
  -3   3 -10   19.20    3.70
  -3   3 -10   20.20    3.30
  -4  -3 -10   13.80    2.80
  -4  -3 -10   14.30    2.30
  -4   3 -10   18.50    2.80
  -4   3 -10   14.90    2.50
  -6  -4  10    1.40    1.30
  -6   4  10   -0.90    1.10
  -5  -4  10    4.90    1.60
  -5  -4  10   11.50    2.80
  -5   4  10    6.30    1.50
  -5   4  10    3.00    1.50
  -4  -4  10   -3.70    1.70
  -4  -4  10    1.70    1.60
  -4   4  10    1.70    1.60
  -4   4  10   -1.20    1.80
  -3  -4  10  159.28    6.40
  -3  -4  10  153.18    6.60
  -3   4  10  151.08    6.80
  -3   4  10  150.38    6.80
  -2  -4  10   55.59    3.50
  -2  -4  10   58.59    4.20
  -2   4  10   55.49    5.00
  -2   4  10   57.49    3.50
  -1  -4  10   -1.80    2.30
  -1  -4  10   -1.40    1.70
  -1   4  10    0.70    3.40
  -1   4  10    0.70    1.50
   1   4 -10    0.90    1.90
   0  -4 -10   91.29    6.20
   0   4 -10   90.79    5.00
   0   4  10   90.49    4.90
  -1  -4 -10    1.20    3.60
  -1  -4 -10    9.30    2.30
  -1   4 -10   11.60    2.40
  -1   4 -10    9.30    2.40
  -2  -4 -10   27.30    4.20
  -2  -4 -10   25.10    3.50
  -2  -4 -10   22.70    3.60
  -2   4 -10   26.10    4.10
  -2   4 -10   17.00    3.50
  -3  -4 -10   71.09    4.00
  -3  -4 -10   71.69    4.60
  -3   4 -10   68.39    4.40
  -3   4 -10   61.69    4.50
  -3   4 -10   65.19    4.60
  -4  -4 -10   49.10    2.90
  -4  -4 -10   51.59    3.40
  -4  -4 -10   50.09    2.80
  -4   4 -10   47.70    3.00
  -6  -5  10   12.60    1.80
  -6   5  10   12.30    1.70
  -5  -5  10   79.39    4.40
  -5  -5  10   71.09    3.80
  -5   5  10   66.09    3.80
  -5   5  10   71.89    3.70
  -5   5  10   71.09    4.50
  -4  -5  10    0.90    1.70
  -4  -5  10    3.10    1.50
  -4   5  10    0.30    1.80
  -4   5  10    2.40    1.50
  -4   5  10    3.70    1.80
  -3  -5  10   46.60    3.70
  -3  -5  10   65.29    4.20
  -3   5  10   67.29    4.50
  -3   5  10   59.49    3.70
  -3   5  10   56.69    4.50
  -2  -5  10   76.89    4.70
  -2  -5  10   74.29    4.10
  -2   5  10   74.99    3.90
  -2   5  10   70.99    7.00
  -1  -5  10  300.37   11.00
  -1  -5  10  302.07   10.40
  -1   5  10  287.97   14.10
  -1   5  10  313.57   10.40
   1   5 -10  285.47   10.70
   0  -5 -10    5.10    2.20
   0   5  10    3.60    2.00
   0   5 -10    0.30    2.20
  -1  -5 -10   65.39    5.50
  -1  -5 -10   74.79    4.90
  -1   5 -10   83.19    4.90
  -1   5 -10   75.19    4.70
  -2  -5 -10    0.70    2.40
  -2  -5 -10   -3.20    1.90
  -2  -5 -10    6.20    2.40
  -2   5 -10    1.30    2.20
  -2   5 -10    0.60    2.10
  -3  -5 -10   29.80    3.10
  -3  -5 -10   23.30    3.90
  -3   5 -10   18.80    3.50
  -3   5 -10   25.30    3.30
  -4  -5 -10    2.10    1.20
  -4  -5 -10    1.80    1.60
  -4  -5 -10    1.60    1.20
  -4   5 -10    0.50    1.20
  -4   5 -10    2.90    1.80
  -5  -6  10   56.39    3.40
  -5   6  10   57.89    4.00
  -5   6  10   56.59    3.30
  -5   6  10   52.19    3.40
  -4  -6  10   -1.70    1.60
  -4  -6  10    2.50    1.40
  -4   6  10    2.50    1.80
  -4   6  10    0.20    1.80
  -4   6  10    0.30    1.50
  -3  -6  10    5.40    2.00
  -3   6  10    1.60    2.40
  -3   6  10    6.70    2.20
  -2  -6  10   32.80    3.80
  -2  -6  10   31.00    3.00
  -2   6  10   35.30    2.90
  -1  -6  10   41.30    3.30
   1   6 -10   38.60    3.90
  -1   6  10   41.40    3.20
   0  -6 -10  153.18    6.90
   0   6  10  165.08    6.60
  -1  -6 -10   -1.70    1.90
  -1  -6 -10    4.80    2.80
  -1   6 -10    3.00    2.30
  -1   6 -10    0.30    2.00
  -2  -6 -10   -3.10    2.40
  -2  -6 -10    1.50    2.30
  -2  -6 -10    1.80    1.90
  -2   6 -10   -0.40    2.10
  -2   6 -10   -2.40    1.90
  -3  -6 -10   54.39    3.40
  -3  -6 -10   51.79    4.20
  -3   6 -10   49.00    4.00
  -4  -6 -10   11.00    1.90
  -4  -6 -10   16.40    2.20
  -4  -6 -10   22.40    2.30
  -4   6 -10   18.40    4.30
  -4   6 -10   16.90    2.30
  -5  -7  10   20.90    2.80
  -5  -7  10   15.80    2.40
  -5   7  10   15.00    2.40
  -5   7  10   21.20    3.30
  -5   7  10   16.60    2.40
  -4  -7  10   99.59    5.10
  -4  -7  10   90.99    4.70
  -4   7  10  107.29    5.20
  -4   7  10  102.99    5.10
  -4   7  10  100.09    4.90
  -3  -7  10    4.60    1.50
  -3  -7  10    7.30    2.00
  -3   7  10    6.50    2.50
  -3   7  10    2.70    1.50
  -3   7  10    7.20    2.30
  -2  -7  10   -1.70    1.60
  -2  -7  10   -2.20    2.00
  -2   7  10    3.00    3.40
  -2   7  10    0.70    1.30
  -1  -7  10   70.29    4.20
  -1   7  10   71.69    4.00
   1   7 -10   72.29    5.10
   0  -7 -10   29.60    3.80
   0   7  10   36.00    3.60
   0   7 -10   31.20    4.10
  -1  -7 -10   44.90    5.00
  -1  -7 -10   57.69    4.40
  -1   7 -10   49.60    4.80
  -1   7 -10   55.69    4.00
  -2  -7 -10    4.70    2.00
  -2  -7 -10    3.10    2.40
  -2  -7 -10    3.60    2.30
  -2   7 -10   -3.30    2.00
  -2   7 -10    0.10    2.10
  -3  -7 -10   43.70    3.50
  -3  -7 -10   49.40    3.40
  -3  -7 -10   39.80    4.10
  -3   7 -10   45.90    3.70
  -3   7 -10   47.00    3.60
  -4  -7 -10    4.60    1.20
   4  -7  10    5.00    1.30
  -4  -7 -10    3.00    1.30
  -4   7 -10    0.70    2.20
  -4   7 -10    2.30    1.30
  -5  -8  10   42.80    3.00
  -5  -8  10   47.50    3.40
  -5   8  10   43.60    3.10
  -5   8  10   42.60    3.10
  -5   8  10   41.20    3.80
  -4  -8  10  124.59    5.60
  -4  -8  10  130.19    5.90
  -4   8  10  124.29    5.60
  -4   8  10  135.29    5.90
  -4   8  10  136.89    6.10
  -3  -8  10   16.80    3.20
  -3  -8  10   22.60    2.80
  -3   8  10   19.70    4.20
  -3   8  10   19.40    2.60
  -3   8  10   18.90    3.50
  -2  -8  10  731.03   23.90
  -2  -8  10  752.72   23.60
  -2   8  10  774.02   23.60
   2   8 -10  716.93   23.80
  -1  -8  10   65.79    4.20
  -1   8  10   64.19    3.80
   0  -8 -10   11.80    2.50
   0   8 -10   16.60    2.70
   0   8  10   16.10    3.30
  -1  -8 -10   23.30    4.50
  -1  -8 -10   21.30    4.60
   1  -8  10   16.50    4.00
  -1  -8 -10   16.30    3.80
  -1   8 -10   22.00    3.30
  -1   8 -10   19.10    4.10
  -2  -8 -10   35.10    4.10
  -2  -8 -10   41.40    3.80
  -2  -8 -10   43.90    4.10
  -2   8 -10   43.20    3.90
  -2   8 -10   38.70    4.30
  -3  -8 -10    1.90    1.60
  -3  -8 -10    1.30    1.40
  -3  -8 -10   -0.80    2.00
  -3   8 -10    0.00    1.70
  -3   8 -10   -0.90    1.70
  -4  -8 -10   17.40    2.10
   4  -8  10   21.90    2.20
  -4  -8 -10   17.80    3.10
  -4  -8 -10   17.80    2.10
  -4   8 -10   21.10    3.00
  -4   8 -10   18.30    2.20
  -5  -9  10    4.10    1.80
  -5  -9  10   10.40    2.20
  -5   9  10   10.10    2.40
  -5   9  10    7.40    1.70
  -5   9  10    9.40    2.20
  -4  -9  10   -0.40    1.70
  -4  -9  10    2.50    1.40
  -4   9  10   -0.50    1.60
  -4   9  10    2.60    1.50
  -3  -9  10   27.50    2.90
  -3  -9  10   32.50    3.40
  -3   9  10   25.80    2.80
  -3   9  10   28.00    4.70
  -2  -9  10    1.00    1.50
  -2  -9  10    0.40    2.10
  -2   9  10   -0.40    1.40
   2   9 -10    2.00    2.40
   1  -9 -10    8.40    2.50
  -1  -9  10   15.10    3.20
  -1   9  10   13.20    2.60
   1   9 -10   12.10    2.70
   0  -9 -10   75.39    5.00
   0   9  10   80.29    4.50
   0   9 -10   73.39    5.30
   1  -9  10  129.19    6.10
  -1  -9 -10  123.19   10.10
  -1  -9 -10  121.09    6.30
  -1  -9 -10  120.79    6.30
  -1   9 -10  126.19    6.40
  -1   9 -10  127.99    5.80
  -2  -9 -10   68.69    4.90
  -2  -9 -10   68.69    4.20
  -2  -9 -10   72.19    4.60
  -2   9 -10   72.19    4.70
  -2   9 -10   65.19    4.40
  -3  -9 -10  156.58    6.20
   3  -9  10  151.88    6.20
  -3  -9 -10  162.38    6.90
  -3   9 -10  162.68    6.50
  -3   9 -10  161.18    6.60
   4  -9  10    0.80    1.00
  -4  -9 -10   -0.40    1.10
  -4   9 -10   -0.10    1.30
  -4   9 -10    3.40    1.70
  -5 -10  10   19.10    2.40
  -5 -10  10   23.50    3.00
  -5  10  10   19.70    2.60
  -5  10  10   19.90    3.70
  -4 -10  10    0.80    1.50
  -4  10  10   -0.30    2.50
  -4  10  10    1.70    2.10
  -4  10  10    2.90    1.60
  -3 -10  10   85.39    4.70
  -3 -10  10   76.29    4.40
  -3  10  10   82.69    5.80
  -3  10  10   79.29    4.20
  -2 -10  10  113.89    5.70
  -2 -10  10  116.29    5.30
   2  10 -10  103.09    6.30
  -2  10  10  119.09    5.20
  -1 -10  10   47.10    4.00
   1 -10 -10   44.30    4.20
  -1  10  10   49.99    3.40
   1  10 -10   50.99    5.20
   0 -10  10   11.60    3.10
   0 -10 -10   12.30    2.60
   0  10 -10    8.70    3.10
   0  10  10   11.70    2.10
   0  10 -10   14.30    2.90
  -1 -10 -10   72.89    5.20
  -1 -10 -10   79.59    5.40
   1 -10  10   86.69    5.10
  -1  10 -10   83.99    5.40
  -1  10 -10   81.09    4.60
  -2 -10 -10    9.40    2.60
  -2 -10 -10   10.30    2.40
   2 -10  10   19.90    3.10
  -2 -10 -10   14.50    3.50
  -2  10 -10    9.20    2.20
  -2  10 -10   16.10    3.80
  -3 -10 -10   10.40    2.50
  -3 -10 -10    6.50    1.60
  -3 -10 -10    2.60    2.20
   3 -10  10    7.30    1.70
  -3  10 -10    5.90    1.70
  -3  10 -10    4.40    1.90
  -4 -10 -10   40.30    2.50
   4 -10  10   42.20    2.50
  -4 -10 -10   43.10    2.70
  -4  10 -10   42.10    2.90
  -5 -11  10   82.09    3.90
  -5 -11  10   78.99    4.10
  -5  11  10   71.99    4.90
  -5  11  10   69.79    3.90
  -4 -11  10    9.70    2.00
  -4 -11  10   12.30    2.40
  -4  11  10    6.30    1.60
  -4  11  10    4.60    2.30
  -3 -11  10    5.20    2.00
  -3 -11  10    3.70    1.70
  -3  11  10    2.80    1.40
  -1 -11  10   41.60    3.90
   1 -11 -10   50.29    4.40
  -1  11  10   44.60    3.20
   0 -11 -10   82.59    5.40
   0 -11  10   86.29    5.70
   0  11  10   94.59    4.70
   0  11 -10   86.89    4.70
   0  11 -10   87.09    6.30
  -1 -11 -10   67.69    4.70
  -1 -11 -10   59.89    5.30
   1 -11  10   64.99    4.50
  -1  11 -10   61.29    4.10
  -1  11 -10   63.29    5.10
  -2 -11 -10    1.20    2.50
  -2 -11 -10    1.30    1.90
   2 -11  10    1.70    1.70
  -2 -11 -10   -2.30    2.10
  -2  11 -10   -0.60    2.40
  -2  11 -10   -0.50    1.80
  -3 -11 -10   28.20    2.60
  -3 -11 -10   28.70    2.80
   3 -11  10   25.40    2.70
  -3 -11 -10   20.50    4.10
  -3  11 -10   30.30    2.80
  -3  11 -10   27.20    3.30
  -4 -11 -10    9.40    2.00
  -4 -11 -10    8.50    1.80
  -4  11 -10   10.80    2.60
  -4  11 -10   11.90    2.10
  -5 -12  10    7.90    2.00
  -5  12  10    6.10    2.30
  -4 -12  10   17.90    2.70
  -4 -12  10   14.30    2.60
  -4  12  10   14.10    2.90
  -4  12  10   14.20    2.60
  -3 -12  10   51.69    3.80
  -3 -12  10   44.60    3.40
  -3  12  10   42.10    3.20
  -2 -12  10   83.09    4.50
  -2  12  10   88.29    4.40
  -1 -12  10   95.59    5.20
   1 -12 -10   94.99    5.60
  -1  12  10  100.19    4.70
   0 -12  10  136.19    6.90
   0 -12 -10  144.49    7.10
   0  12  10  156.48    6.30
   0  12 -10  151.58    6.30
   0  12 -10  137.39    7.80
  -1 -12 -10    3.80    2.90
  -1 -12 -10    8.60    2.50
   1 -12  10   10.60    2.30
  -1  12 -10    5.90    2.10
  -1  12 -10   12.90    3.00
  -2 -12 -10   16.80    3.50
  -2 -12 -10   12.00    2.30
  -2 -12 -10   19.70    3.50
   2 -12  10   18.90    2.90
  -2  12 -10   23.80    4.10
  -2  12 -10   15.10    2.80
  -3 -12 -10   63.99    3.60
  -3 -12 -10   60.89    3.50
   3 -12  10   63.09    3.40
  -3  12 -10   62.09    3.70
  -3  12 -10   68.09    4.10
  -4 -12 -10   -2.50    1.00
   4 -12  10    0.20    0.90
  -4 -12 -10    1.00    1.10
  -4  12 -10    1.00    3.00
  -4  12 -10    1.50    1.50
  -5 -13  10   64.29    3.90
  -4 -13  10   11.60    2.50
  -4  13  10    4.20    1.60
  -3 -13  10   87.69    4.60
  -3  13  10   98.19    4.60
  -2 -13  10   10.10    2.00
  -2  13  10   11.20    2.40
   1 -13 -10  125.19    6.30
  -1  13  10  119.69    5.40
   0 -13 -10    9.50    3.00
   0 -13  10    8.40    2.60
   0 -13 -10    8.30    2.90
   0  13 -10    9.40    2.00
   0  13  10    7.00    2.00
  -1 -13 -10   -4.20    3.10
  -1 -13 -10    0.10    2.20
   1 -13  10   -0.70    2.00
  -1  13 -10    1.60    3.20
  -1  13 -10    1.90    1.80
   2 -13  10   26.50    4.80
  -2 -13 -10   19.30    3.40
  -2  13 -10   25.30    3.00
  -2  13 -10   24.20    4.40
   3 -13  10    1.20    1.20
  -3 -13 -10    0.30    1.40
  -3 -13 -10    0.70    1.30
  -3  13 -10   -1.60    2.10
  -3  13 -10    0.20    1.30
  -4 -13 -10    0.80    1.10
   4 -13  10   -0.20    0.90
  -4 -13 -10   -0.90    1.10
  -4 -14  10   40.60    3.20
  -4  14  10   43.70    3.20
  -3 -14  10    4.30    1.80
  -3  14  10    1.90    1.40
  -2 -14  10   76.39    4.40
  -2  14  10   80.59    4.10
  -1 -14  10    5.80    2.30
   1 -14 -10    4.50    2.60
  -1  14  10    7.60    1.70
   0 -14  10   31.50    4.40
   0 -14 -10   33.70    4.60
   0 -14 -10   47.00    5.20
   0  14  10   42.90    3.50
   0  14 -10   33.00    3.20
   1 -14  10   15.60    3.30
  -1 -14 -10    8.30    2.40
  -1  14 -10   11.60    2.70
  -2 -14 -10   34.80    3.30
   2 -14  10   29.90    2.90
  -2 -14 -10   28.40    3.50
  -2  14 -10   26.20    5.00
  -2  14 -10   30.10    3.10
  -3 -14 -10    0.10    1.20
   3 -14  10   -1.40    1.20
  -3 -14 -10    0.50    1.20
  -3  14 -10   -1.50    1.30
  -4  15  10   14.50    2.60
  -3 -15  10   25.00    3.10
  -3  15  10   29.00    2.80
   2 -15 -10   18.80    4.20
  -2 -15  10   20.90    3.10
  -2  15  10   20.10    2.60
  -1 -15  10    3.10    2.40
   1 -15 -10    4.20    2.90
  -1  15  10    4.00    1.50
   0 -15 -10   19.20    4.10
   0 -15  10   26.10    4.00
   0  15  10   13.50    3.10
   0  15 -10   22.20    3.00
   1 -15  10  127.19    5.70
  -1 -15 -10  124.99    5.80
  -1  15 -10  128.19    5.80
  -2 -15 -10   52.39    3.90
  -2 -15 -10   55.29    3.60
   2 -15  10   56.69    3.40
  -2  15 -10   54.99    3.40
   3 -15  10   -0.20    1.10
  -3 -15 -10   -0.10    1.20
  -3 -15 -10    0.80    1.20
  -3  15 -10    1.30    1.30
  -4 -16  10   33.80    3.00
  -4  16  10   33.50    3.10
  -3 -16  10    3.30    1.60
  -3  16  10   -0.40    1.30
   2 -16 -10   59.29    5.80
  -2 -16  10   47.30    3.70
  -2  16  10   43.00    3.30
  -1 -16  10  148.49    7.00
  -1  16  10  145.79    6.10
   1  16 -10  149.99    6.20
   0 -16  10  125.39    6.10
   0 -16 -10  131.19    6.10
   0  16 -10  129.79    5.70
   0  16  10  123.79    5.70
  -1 -16 -10    6.80    2.10
   1 -16  10    7.10    2.10
  -1  16 -10    6.50    1.90
  -2 -16 -10   19.80    3.30
   2 -16  10   26.60    2.70
  -2 -16 -10   27.60    2.90
  -2  16 -10   25.70    2.70
  -3 -16 -10    1.90    1.20
   3 -16  10    2.90    1.10
  -3 -16 -10    3.90    1.80
  -3  16 -10    3.10    1.30
  -4 -17  10   25.90    2.80
  -4  17  10   28.10    3.00
  -3 -17  10    2.40    1.60
  -3  17  10    2.00    1.30
  -2 -17  10   24.00    3.40
  -2  17  10   23.50    2.80
  -1 -17  10   16.80    3.20
   1 -17 -10   11.50    2.60
   1  17 -10   15.10    2.80
  -1  17  10   12.80    2.50
   0 -17  10   17.90    3.90
   0 -17 -10   15.80    3.70
   0  17  10   11.70    3.00
   0  17 -10    8.80    1.90
  -1 -17 -10   58.09    3.90
   1 -17  10   58.79    3.70
  -2 -17 -10   18.10    2.50
   2 -17  10   12.80    2.40
  -2 -17 -10   15.40    3.40
  -2  17 -10   12.70    2.20
  -3 -17 -10   14.10    2.40
   3 -17  10   10.60    1.80
  -3  17 -10   11.50    1.80
  -4 -18  10    1.10    1.70
  -4  18  10   -0.10    1.90
  -3 -18  10    4.20    1.70
  -3  18  10    3.10    1.50
  -2 -18  10    0.90    1.90
   2  18 -10   -3.30    1.60
  -2  18  10    0.90    1.50
  -1 -18  10    7.20    3.10
   1 -18 -10    4.90    2.40
  -1  18  10    5.20    1.70
   1  18 -10    5.40    1.70
   0 -18 -10   -3.00    2.10
   0 -18  10   -3.30    2.00
   0  18 -10    0.40    1.70
   0  18  10   -3.40    1.80
  -1 -18 -10   73.49    4.00
   1 -18  10   71.99    4.10
  -1  18 -10   74.69    4.00
  -2 -18 -10    5.30    1.50
   2 -18  10   10.10    2.30
  -2 -18 -10    8.50    2.20
  -2  18 -10    6.00    1.40
  -3 -18 -10   -2.90    1.60
   3 -18  10    1.30    1.10
  -3 -18 -10    1.00    1.20
  -3  18 -10    0.20    1.20
  -4 -19  10    7.20    2.00
  -3 -19  10    1.20    1.80
  -3  19  10   -0.60    1.30
   3  19 -10    3.50    1.80
  -2 -19  10   18.70    3.50
   2  19 -10   13.40    2.70
  -2  19  10   17.90    2.60
   1 -19 -10  110.19    5.50
  -1  19  10  109.99    5.00
   1  19 -10  116.69    5.10
   0 -19  10  142.99    6.00
   0 -19 -10  135.29    5.90
   0  19 -10  143.09    5.90
   0  19  10  136.09    6.00
  -1 -19 -10  174.58    6.70
   1 -19  10  182.68    6.90
  -1  19 -10  182.88    6.90
  -2 -19 -10   25.90    2.50
   2 -19  10   22.10    2.30
  -2  19 -10   23.80    2.20
   3 -19  10   23.80    1.90
  -3 -19 -10   24.20    2.00
  -3 -20  10   12.90    2.80
   3  20 -10   22.30    4.20
  -3  20  10   18.40    2.50
   2  20 -10    1.40    1.70
  -2  20  10    0.80    1.40
   1 -20 -10   27.10    3.50
   1  20 -10   23.80    2.80
  -1  20  10   20.00    2.70
   0 -20 -10  175.78    6.80
   0 -20  10  176.38    6.90
   0  20 -10  178.28    6.90
   0  20  10  182.68    7.00
  -1 -20 -10    0.20    1.50
   1 -20  10    1.30    1.50
  -1  20 -10   -0.60    1.30
  -2 -20 -10   18.20    2.30
   2 -20  10   20.30    2.20
  -2  20 -10   21.40    2.10
  -3 -21  10   21.80    3.00
  -3  21  10   25.40    2.70
  -2 -21  10   16.00    3.50
  -2  21  10   15.70    3.40
   2  21 -10   17.80    3.00
   1 -21 -10   25.30    3.30
  -1  21  10   25.50    2.80
   1  21 -10   25.50    3.00
   0 -21  10   -0.50    1.80
   0 -21 -10    0.00    1.70
   0  21 -10    1.20    1.50
   0  21  10   -1.40    1.80
   1 -21  10    1.00    1.40
  -1 -21 -10   -2.50    1.30
  -1  21 -10   -0.30    1.30
   2 -21  10    9.90    1.80
  -2 -21 -10   14.10    2.30
  -3 -22  10   29.50    4.40
  -3  22  10   30.20    2.90
  -2 -22  10  154.98    6.70
  -2  22  10  162.38    6.10
   2  22 -10  136.59    8.30
   1 -22 -10    1.40    1.90
  -1  22  10    2.20    1.50
   1  22 -10    4.50    1.80
   0 -22 -10   16.30    2.90
   0 -22  10   12.30    2.80
   0  22 -10   16.50    2.40
   0  22  10   13.00    3.10
   1 -22  10    4.80    1.30
  -1 -22 -10    5.10    1.40
  -1  22 -10    5.20    1.40
  -2 -22 -10    1.50    1.20
   2 -22  10    2.30    1.10
  -2  22 -10    0.50    1.30
  -2  23  10    3.70    1.50
   1 -23 -10    1.00    2.10
  -1  23  10    2.00    1.50
   1  23 -10   -0.40    2.00
   0 -23 -10    2.20    1.60
   0 -23  10    4.10    1.60
   0  23  10    1.20    2.10
   0  23 -10    3.20    1.50
  -1 -23 -10    1.90    1.80
  -1  23 -10    1.30    2.00
  -2  24  10   65.69    3.60
   1 -24 -10   12.80    3.10
  -1  24  10    2.60    1.70
   0 -24  10   11.90    2.80
   0 -24 -10   11.60    2.50
   0  24 -10    4.10    1.90
   1 -24  10    2.80    1.30
  -1 -24 -10    2.50    1.20
  -1  24 -10    0.60    1.60
   1 -25 -10   35.20    4.40
   0 -25  10    3.50    1.70
   0 -25 -10    2.50    1.50
  -5   0  11   40.40    3.30
  -5   0  11   37.60    2.70
  -4   0  11   -0.20    1.50
  -4   0  11   -0.20    1.70
  -3   0  11  351.96   12.40
  -3   0  11  370.66   12.70
  -2   0  11   -0.30    2.30
  -2   0  11   -3.30    1.50
  -1   0  11    6.70    2.00
   1   0 -11    5.80    1.80
   0   0 -11   -1.20    1.80
  -1   0 -11   -1.20    3.00
  -1   0 -11    3.60    2.00
  -2   0 -11    1.30    1.90
  -3   0 -11   -1.20    1.60
  -4   0 -11   -0.20    1.20
  -5  -1  11   38.20    2.60
  -5  -1  11   38.10    3.10
  -5   1  11   36.00    3.10
  -5   1  11   38.90    2.70
  -4  -1  11   19.60    3.00
  -4  -1  11   19.10    2.70
  -4   1  11   20.30    2.80
  -4   1  11   15.20    3.10
  -3  -1  11  144.59    6.10
  -3  -1  11  146.89    6.50
  -3   1  11  144.79    6.60
  -3   1  11  143.99    6.10
  -2  -1  11   22.10    3.60
  -2  -1  11   22.90    2.90
  -2   1  11   26.10    2.90
  -2   1  11   21.70    3.90
   1  -1 -11   87.99    5.00
  -1  -1  11  102.99    4.90
  -1   1  11   96.19    4.90
   1   1 -11   96.59    5.00
   0  -1 -11    0.00    1.70
   0   1 -11    0.40    1.70
  -1  -1 -11   13.40    2.40
  -1   1 -11   15.90    3.10
  -1   1 -11    8.00    2.10
  -2  -1 -11    2.30    2.10
  -2   1 -11    8.40    2.20
  -3  -1 -11   12.70    2.90
  -3   1 -11   13.90    2.70
  -4  -1 -11   26.40    2.40
  -4   1 -11   30.20    2.40
  -5  -2  11   23.80    2.30
  -5  -2  11   23.40    2.80
  -5   2  11   19.40    2.20
  -5   2  11   21.40    2.80
  -4  -2  11    0.10    1.70
  -4  -2  11    4.70    1.70
  -4   2  11    2.30    1.90
  -4   2  11    4.00    1.60
  -3  -2  11  111.09    5.20
  -3  -2  11  116.89    5.60
  -3   2  11  101.39    5.10
  -3   2  11  116.89    5.70
  -2  -2  11    6.40    2.40
  -2  -2  11    4.30    1.60
  -2   2  11    5.30    1.60
  -2   2  11    5.10    2.60
  -1  -2  11   11.20    2.10
   1  -2 -11    7.10    1.90
  -1   2  11   10.70    2.00
   1   2 -11    6.90    1.90
   0  -2 -11  329.87   12.10
   0  -2 -11  297.67   11.20
   0   2 -11  315.57   11.30
  -1  -2 -11   49.10    4.10
  -1   2 -11   43.10    4.00
  -1   2 -11   37.30    4.30
  -2  -2 -11   16.00    3.50
  -2  -2 -11   11.50    2.40
  -2   2 -11   11.30    2.30
  -2   2 -11   19.20    3.20
  -3  -2 -11   16.70    2.80
  -3  -2 -11   16.20    2.50
  -3   2 -11   18.20    2.80
  -4   2 -11    0.10    1.10
  -5  -3  11    4.70    1.30
  -5  -3  11    7.20    1.80
  -5   3  11    4.60    1.80
  -5   3  11    5.90    1.50
  -4  -3  11   -1.50    1.40
  -4  -3  11    2.50    1.70
  -4   3  11    1.40    1.40
  -4   3  11    2.10    1.80
  -3  -3  11    1.60    2.00
  -3  -3  11    5.70    1.70
  -3   3  11    4.40    2.30
  -3   3  11    4.60    1.70
  -2  -3  11   76.59    4.70
  -2  -3  11   73.29    4.10
  -2   3  11   66.69    5.00
  -2   3  11   69.69    3.90
  -1  -3  11   26.10    3.40
   1  -3 -11   22.70    3.20
  -1   3  11   23.70    3.00
   1   3 -11   21.80    3.20
   0  -3 -11   94.39    5.10
   0   3 -11   98.79    5.20
  -1  -3 -11    1.70    1.90
  -1   3 -11    3.20    2.10
  -1   3 -11    1.00    2.30
  -2  -3 -11    5.60    2.10
  -2  -3 -11   -0.50    2.00
  -2   3 -11    2.00    2.60
  -2   3 -11    4.50    2.00
  -3  -3 -11    6.90    1.80
  -3  -3 -11    9.40    2.10
  -3   3 -11    5.70    1.70
  -4  -3 -11   17.10    2.20
  -4   3 -11   17.30    2.00
  -5  -4  11    1.10    1.30
  -5  -4  11    0.50    1.70
  -5   4  11   -0.40    1.30
  -5   4  11    0.00    1.70
  -4  -4  11   49.40    3.60
  -4  -4  11   53.69    3.70
  -4   4  11   58.59    3.50
  -4   4  11   66.79    4.20
  -3  -4  11  154.08    6.60
  -3  -4  11  142.19    6.20
  -3   4  11  158.88    6.90
  -3   4  11  143.49    6.20
  -2  -4  11  193.48    7.50
  -2  -4  11  191.88    7.90
  -2   4  11  191.38    8.30
  -2   4  11  199.58    7.50
   1  -4 -11   12.00    3.00
  -1  -4  11   21.90    3.40
   1   4 -11   17.00    3.30
  -1   4  11   20.20    2.80
   0  -4 -11  258.37    9.50
   0   4 -11  247.28    9.50
  -1  -4 -11   -0.70    1.90
  -1   4 -11    3.70    2.20
  -1   4 -11    2.40    2.10
  -2  -4 -11  145.29    6.60
  -2  -4 -11  141.99    6.30
  -2   4 -11  140.89    6.50
  -2   4 -11  144.39    6.40
  -3  -4 -11    2.00    1.50
  -3  -4 -11    0.60    1.70
  -3  -4 -11    3.40    2.00
  -3   4 -11   -0.90    1.50
  -3   4 -11    2.10    2.50
   4  -4  11    1.80    1.40
  -4  -4 -11    1.90    1.40
  -4   4 -11    2.30    1.60
  -5  -5  11    1.80    1.30
  -5  -5  11    4.70    1.70
  -5   5  11    4.10    2.10
  -5   5  11    1.70    1.40
  -4  -5  11    2.70    1.70
  -4  -5  11    3.30    1.50
  -4   5  11    4.70    1.50
  -3  -5  11   17.50    2.50
  -3  -5  11   23.40    3.00
  -3   5  11   18.90    3.60
  -3   5  11   16.00    2.60
  -2  -5  11   17.70    2.90
  -2  -5  11   14.00    3.40
  -2   5  11   12.20    2.50
  -2   5  11   22.60    4.50
   1  -5 -11   11.30    2.10
  -1  -5  11   15.40    3.20
  -1   5  11   12.10    2.10
   1   5 -11   14.60    2.50
   0  -5 -11    1.40    1.80
   0   5 -11   -1.20    1.90
  -1  -5 -11    0.30    1.80
  -1   5 -11   -0.30    2.00
  -1   5 -11   -1.20    2.10
  -2  -5 -11    4.00    1.90
  -2  -5 -11    4.30    2.10
  -2   5 -11    7.60    2.40
  -2   5 -11    3.50    1.90
  -3  -5 -11    0.40    1.50
  -3  -5 -11    1.00    1.90
  -3  -5 -11    1.30    1.80
  -3   5 -11    2.40    2.30
  -3   5 -11    0.10    1.50
  -4  -5 -11    3.50    1.50
   4  -5  11    4.20    1.20
  -4   5 -11    2.80    1.30
  -5  -6  11   75.39    4.00
  -5  -6  11   70.89    3.60
  -5   6  11   78.59    3.80
  -5   6  11   79.89    4.30
  -4  -6  11    0.60    1.40
  -4   6  11    0.20    1.50
  -4   6  11    2.90    1.90
  -3  -6  11    0.60    1.40
  -3  -6  11    1.30    1.90
  -3   6  11   -1.20    2.40
  -3   6  11    3.80    1.40
  -2  -6  11    3.40    1.90
  -2  -6  11   -0.60    1.70
   2   6 -11   -1.70    1.80
  -2   6  11    0.50    3.20
   1  -6 -11    2.30    1.80
  -1  -6  11    0.60    2.10
   1   6 -11   -1.80    2.00
  -1   6  11    0.50    1.60
   0  -6 -11   12.40    3.10
   0   6 -11   17.90    3.60
   0   6  11   17.70    3.70
  -1  -6 -11  168.98    7.20
   1  -6  11  164.68    7.30
  -1   6 -11  160.38    7.40
  -1   6 -11  166.98    7.00
  -2  -6 -11   10.70    4.00
  -2  -6 -11    2.10    2.00
  -2  -6 -11    2.80    2.20
  -2   6 -11    0.50    1.80
  -2   6 -11    5.60    2.10
  -3  -6 -11   20.90    3.10
  -3  -6 -11   16.70    3.10
  -3  -6 -11   22.80    2.80
  -3   6 -11   19.50    3.10
  -3   6 -11   20.90    2.70
  -4  -6 -11   -0.50    1.70
   4  -6  11    0.90    1.10
  -4   6 -11    2.50    1.20
  -5  -7  11    2.20    1.70
  -5  -7  11    1.80    1.30
  -5   7  11   -1.00    2.00
  -5   7  11   -0.30    1.40
  -4  -7  11    3.80    1.60
  -4  -7  11    1.80    1.60
  -4   7  11    2.60    1.60
  -4   7  11    4.50    2.10
  -3  -7  11   79.39    4.50
  -3  -7  11   67.89    4.00
  -3   7  11   75.39    5.10
  -3   7  11   65.29    3.80
  -2  -7  11   34.90    3.80
  -2   7  11   33.10    5.70
   2   7 -11   35.70    3.90
  -2   7  11   36.70    3.40
   1  -7 -11  113.39    5.70
  -1  -7  11  115.29    5.70
   1   7 -11  111.59    5.70
  -1   7  11  122.19    5.30
   0  -7 -11    7.50    2.10
   0   7 -11    8.30    2.50
   0   7 -11    8.40    2.20
   0   7  11   10.10    2.60
   1  -7  11   14.50    2.80
  -1  -7 -11   15.00    3.50
  -1   7 -11   10.40    2.50
  -1   7 -11    8.50    2.10
  -2  -7 -11   22.60    3.90
  -2  -7 -11   19.40    3.50
  -2   7 -11   27.20    3.30
  -2   7 -11   24.50    3.40
   3  -7  11  104.49    4.50
  -3  -7 -11   96.39    4.50
  -3  -7 -11   97.79    4.90
  -3  -7 -11   94.19    4.50
  -3   7 -11   95.49    4.70
  -3   7 -11   97.79    4.60
   4  -7  11    0.00    1.00
  -4   7 -11   -1.00    1.10
  -5  -8  11   71.79    3.90
  -5  -8  11   64.39    3.40
  -5   8  11   71.09    3.50
  -5   8  11   75.39    4.30
  -4  -8  11    5.90    1.80
  -4  -8  11   13.00    2.50
  -4   8  11   10.60    2.30
  -4   8  11   10.40    1.80
  -3  -8  11    4.80    1.90
  -3  -8  11    3.40    1.60
  -3   8  11    2.00    1.30
   3   8 -11    4.00    2.60
  -3   8  11    6.10    2.80
  -2  -8  11   34.40    3.60
  -2  -8  11   20.20    3.00
  -2   8  11   26.40    2.80
   2   8 -11   22.80    3.90
  -1  -8  11    8.50    2.50
   1  -8 -11    7.00    2.10
  -1   8  11    5.60    1.70
   1   8 -11    9.20    2.40
   0  -8 -11   43.10    3.90
   0   8  11   37.70    4.20
   0   8 -11   39.00    3.40
   0   8 -11   38.50    4.30
  -1  -8 -11    6.80    2.30
   1  -8  11    8.60    2.50
  -1   8 -11    5.50    2.30
  -1   8 -11    7.40    2.00
  -2  -8 -11   -1.40    2.40
   2  -8  11    2.80    3.00
  -2   8 -11    5.50    2.20
  -2   8 -11    4.00    1.90
  -3  -8 -11    5.30    1.60
  -3  -8 -11    6.10    1.70
  -3  -8 -11    8.80    1.90
   3  -8  11    6.40    1.50
  -3   8 -11   11.30    2.60
  -3   8 -11    8.80    1.90
   4  -8  11   -1.30    1.00
  -4   8 -11   -2.70    1.30
  -5  -9  11   38.40    2.70
  -5  -9  11   38.00    3.10
  -5   9  11   39.90    3.90
  -4  -9  11   69.69    3.90
  -4  -9  11   66.39    3.80
  -4   9  11   70.99    3.90
  -4   9  11   67.89    4.30
  -3  -9  11   13.70    2.70
  -3  -9  11   20.70    3.10
  -3   9  11   17.40    2.50
   3   9 -11   21.90    4.10
  -3   9  11   13.20    3.30
  -2  -9  11   70.59    4.20
   2   9 -11   75.19    5.10
  -2   9  11   68.19    4.00
  -1  -9  11   27.40    4.50
   1  -9 -11   26.50    3.50
   1   9 -11   35.90    4.40
   0  -9 -11   -0.10    2.20
   0   9 -11   -2.00    2.30
   0   9 -11    1.50    1.60
   1  -9  11   24.70    4.00
  -1  -9 -11   38.10    4.30
  -1   9 -11   28.50    3.20
  -1   9 -11   27.80    4.20
   2  -9  11    0.00    1.70
  -2  -9 -11   -2.10    2.20
  -2  -9 -11    0.30    1.90
  -2  -9 -11    6.50    2.10
  -3  -9 -11   41.00    3.00
  -3  -9 -11   38.50    3.00
  -3  -9 -11   39.80    3.50
   3  -9  11   39.10    2.80
  -3   9 -11   41.00    3.00
  -3   9 -11   40.40    3.20
  -5 -10  11   16.20    2.90
  -5  10  11    7.70    2.10
  -4 -10  11   90.79    4.50
  -4 -10  11   93.29    4.40
  -4  10  11   89.69    5.10
  -4  10  11   95.39    4.60
  -3 -10  11   -1.20    1.60
  -3 -10  11   -2.40    1.80
  -3  10  11    2.10    1.40
  -2 -10  11  127.39    5.60
  -2  10  11  115.89    5.30
   2  10 -11  122.89    6.60
   1 -10 -11    1.20    2.00
  -1 -10  11    3.80    2.50
   1  10 -11    1.00    2.70
  -1  10  11    1.40    1.70
   0 -10 -11   -1.00    2.20
   0  10 -11    3.40    2.60
   0  10 -11    3.80    1.80
   0  10  11   -0.10    2.20
   1 -10  11    3.50    2.20
  -1 -10 -11    5.70    2.40
  -1  10 -11    7.60    2.50
  -1  10 -11    6.60    2.00
  -2 -10 -11    4.00    2.10
  -2 -10 -11    1.60    1.90
  -2 -10 -11    6.20    2.20
   2 -10  11    8.80    1.90
  -2  10 -11    5.90    1.70
  -2  10 -11    3.00    2.10
  -3 -10 -11    2.20    1.50
  -3 -10 -11    6.60    3.00
   3 -10  11    2.50    1.20
  -3 -10 -11    1.80    1.50
  -3  10 -11    2.00    1.50
  -3  10 -11    1.80    1.70
  -5 -11  11    1.10    2.80
  -4 -11  11   47.60    3.30
  -4 -11  11   57.19    3.40
  -4  11  11   51.69    3.50
  -4  11  11   61.99    5.00
  -3 -11  11    1.60    1.50
  -3  11  11    6.40    1.70
  -2 -11  11    8.70    2.00
  -2  11  11    6.60    1.70
  -1 -11  11  266.97    9.90
   1 -11 -11  266.97    9.80
  -1  11  11  269.97    9.50
   1  11 -11  248.48   10.20
   0 -11 -11  128.49    6.40
   0  11  11  136.29    6.20
   0  11 -11  128.89    7.00
   0  11 -11  128.09    5.80
   1 -11  11   22.60    3.80
  -1 -11 -11   21.40    4.40
  -1  11 -11   29.70    3.00
  -1  11 -11   20.80    4.30
  -2 -11 -11    7.70    2.10
  -2 -11 -11   15.50    3.40
   2 -11  11   14.80    2.80
  -2 -11 -11   13.50    2.70
  -2  11 -11   12.00    2.40
  -2  11 -11   13.70    2.50
   3 -11  11   14.80    2.10
  -3 -11 -11   12.30    2.50
  -3 -11 -11   13.70    2.40
  -3  11 -11   15.80    2.30
  -3  11 -11   13.20    2.80
  -4 -12  11   38.60    3.40
  -3 -12  11    2.40    1.60
  -3  12  11    3.40    1.50
  -2 -12  11   43.50    3.50
  -2  12  11   49.30    3.30
  -1 -12  11    3.30    2.70
   1 -12 -11    2.70    2.20
  -1  12  11    0.40    1.60
   0 -12 -11  245.48    9.30
   0  12  11  226.18    8.90
   0  12 -11  238.78    9.60
   0  12 -11  244.18    8.90
  -1 -12 -11    7.00    3.00
   1 -12  11    3.40    2.00
  -1 -12 -11    6.50    2.70
  -1  12 -11    6.90    1.90
  -1  12 -11    7.50    2.80
  -2 -12 -11   70.19    4.10
   2 -12  11   77.09    3.90
  -2 -12 -11   73.49    4.60
  -2 -12 -11   71.39    5.20
  -2  12 -11   74.49    4.70
  -2  12 -11   71.99    4.00
  -3 -12 -11    8.80    1.60
   3 -12  11   15.40    2.00
  -3 -12 -11    9.30    2.20
  -3  12 -11   16.50    2.10
  -3  12 -11    4.30    2.80
  -4 -13  11    1.30    1.60
  -4  13  11    2.30    1.50
  -3 -13  11   23.20    2.90
  -3  13  11   28.30    2.80
  -2 -13  11   96.69    4.90
   2 -13 -11  100.29    5.00
  -2  13  11   94.39    4.70
  -1 -13  11  167.68    7.70
   1 -13 -11  197.68    7.60
  -1  13  11  175.88    7.10
   0 -13 -11  162.58    7.30
   0 -13  11  166.88    7.60
   0  13 -11  163.18    6.70
   0  13  11  156.28    6.90
   1 -13  11   15.80    3.40
  -1 -13 -11   21.50    4.00
  -1 -13 -11   15.30    3.00
  -1  13 -11   19.60    2.80
  -1  13 -11   12.60    3.30
  -2 -13 -11   18.40    3.10
   2 -13  11   16.30    2.50
  -2 -13 -11   15.70    3.70
  -2  13 -11   17.50    2.90
  -2  13 -11   13.90    2.30
  -3 -13 -11   19.80    2.50
  -3 -13 -11   22.50    2.40
   3 -13  11   21.90    2.10
  -3  13 -11   24.70    3.60
  -3  13 -11   23.20    2.20
  -4 -14  11   -0.30    1.50
  -4  14  11   -1.10    1.50
  -3 -14  11   30.70    3.10
  -3  14  11   31.90    2.90
  -2 -14  11   31.00    3.40
   2 -14 -11   32.80    4.90
  -2  14  11   27.60    2.80
   1 -14 -11   63.89    4.70
  -1  14  11   61.19    3.90
   1  14 -11   66.69    4.00
   0 -14 -11   75.69    6.00
   0  14 -11   76.79    4.20
   0  14  11   69.49    4.60
  -1 -14 -11    3.10    2.30
   1 -14  11    0.10    1.80
   2 -14  11   16.70    2.40
  -2 -14 -11   11.50    2.30
  -2 -14 -11   20.80    3.00
  -2  14 -11   16.80    2.40
   3 -14  11   26.20    2.30
  -3 -14 -11   20.70    2.40
  -3 -14 -11   23.80    3.00
  -3  14 -11   24.90    2.10
  -4 -15  11   10.80    2.50
  -4  15  11    5.30    1.70
  -3 -15  11   97.99    4.70
  -3  15  11   96.49    4.50
  -2 -15  11    1.00    1.80
   2 -15 -11    0.10    2.10
  -2  15  11    0.40    1.50
   1  15 -11   40.20    3.10
  -1  15  11   37.10    3.30
   0 -15  11    1.90    2.50
   0  15  11    0.80    2.10
   0  15 -11    5.70    1.80
   1 -15  11   17.40    3.10
  -1 -15 -11   11.20    2.30
  -1  15 -11   10.10    2.30
   2 -15  11    4.50    1.40
  -2 -15 -11    4.10    1.60
  -2  15 -11    3.80    1.50
  -3 -15 -11   19.50    4.90
   3 -15  11   11.70    1.90
  -3 -15 -11   11.20    1.50
  -3  15 -11   15.00    1.90
  -4 -16  11    0.80    1.70
   4 -16 -11    0.90    1.80
  -4  16  11   -2.90    1.70
  -3 -16  11    5.30    1.80
   3 -16 -11    5.60    2.00
  -3  16  11    4.50    1.50
   2 -16 -11    1.90    2.40
  -2 -16  11   -0.60    2.00
  -2  16  11    3.30    1.40
  -1  16  11   49.99    3.50
   1  16 -11   51.59    3.40
   0 -16  11   59.09    4.50
   0  16  11   55.19    4.20
   1 -16  11  216.38    7.70
  -1 -16 -11  203.68    7.70
  -1  16 -11  206.38    7.80
   2 -16  11    4.60    1.40
  -2 -16 -11    7.10    1.70
  -2  16 -11    8.40    1.90
   3 -16  11    2.50    1.00
  -3  16 -11    1.10    1.20
  -4 -17  11   -0.80    1.90
   4  17 -11   -1.30    1.80
  -3 -17  11   91.49    4.60
  -3  17  11   90.79    4.30
  -2 -17  11   62.39    4.30
   2  17 -11   60.39    3.60
  -2  17  11   64.79    3.70
  -1  17  11   10.90    2.50
   1  17 -11   11.60    2.30
   0 -17  11  109.69    5.50
   0 -17 -11  123.69    6.70
   0  17  11  103.19    5.40
   0  17 -11  114.79    5.00
  -1 -17 -11   -2.10    1.80
   1 -17  11   -1.80    1.60
  -1  17 -11    0.40    1.30
  -2 -17 -11    3.90    1.60
   2 -17  11    3.60    1.30
  -2  17 -11    1.80    1.20
  -3 -18  11   12.30    3.00
   3  18 -11   16.50    2.30
  -3  18  11   17.00    2.50
  -2 -18  11   24.90    4.10
   2  18 -11   27.50    2.60
  -2  18  11   26.70    2.60
  -1  18  11    2.20    1.60
   1  18 -11    3.70    1.50
   0 -18  11   52.89    4.00
   0 -18 -11   51.29    4.50
   0  18  11   47.60    5.50
   0  18 -11   52.39    3.30
  -1 -18 -11    5.00    1.70
   1 -18  11   11.00    2.70
  -1  18 -11    2.60    1.30
  -2 -18 -11    8.10    1.60
   2 -18  11   12.60    2.10
  -2  18 -11   13.90    1.80
  -3 -19  11    1.50    2.00
  -3  19  11    0.40    1.50
  -2 -19  11   16.20    2.80
  -2  19  11   19.10    2.80
   2  19 -11   16.10    2.40
   1  19 -11    5.20    1.50
  -1  19  11    5.00    1.70
   0 -19  11   74.99    4.50
   0 -19 -11   80.19    4.60
   0  19 -11   78.79    3.80
   0  19  11   78.39    4.80
  -1 -19 -11    7.20    1.70
   1 -19  11    7.90    1.70
  -1  19 -11    9.10    1.90
   2 -19  11   13.00    2.00
  -2 -19 -11   12.20    2.50
  -2  19 -11   10.20    1.80
  -3 -20  11    7.70    3.40
  -3  20  11    5.30    1.60
   3  20 -11    6.70    2.40
  -2 -20  11   22.70    4.50
   2  20 -11   16.90    2.40
  -2  20  11   18.40    2.60
  -1  20  11    1.20    1.70
   1  20 -11    3.20    1.40
   0 -20 -11    0.50    2.10
   0 -20  11    3.30    2.10
   0  20  11    6.70    2.70
   0  20 -11    5.00    1.40
   1 -20  11  124.89    4.90
  -1 -20 -11  119.89    5.50
  -1  20 -11  128.79    4.90
   2 -20  11    0.50    1.10
  -2 -20 -11   -0.60    2.20
  -2  20 -11    0.20    1.10
  -2  21  11   12.10    2.50
   2  21 -11    9.10    2.70
   1  21 -11    0.50    1.40
  -1  21  11    3.40    1.70
   0 -21 -11   28.00    3.70
   0 -21  11   31.30    3.50
   0  21  11   26.10    4.60
   0  21 -11   27.90    2.40
   1 -21  11   -2.70    1.40
  -1 -21 -11    2.00    1.70
  -1  21 -11   -1.10    1.20
   2  22 -11   32.60    4.70
  -2  22  11   29.50    2.80
   1  22 -11   30.50    3.60
  -1  22  11   22.70    3.00
   0  22 -11    3.50    1.40
  -1 -22 -11   -0.10    2.10
   1 -22  11    4.70    1.50
  -1  22 -11    1.70    1.30
   1  23 -11   27.60    3.00
   0  23 -11   11.20    2.30
  -5   0  12    0.70    1.70
  -5   0  12   -0.10    1.20
  -4   0  12   59.39    3.60
  -4   0  12   54.59    3.50
  -3   0  12    1.40    1.90
  -3   0  12   -0.50    1.40
  -2   0  12 1131.59   34.30
  -2   0  12 1061.09   33.90
  -1   0  12   -3.80    3.30
   1   0 -12    0.60    1.70
   0   0 -12   63.59    4.70
   0   0 -12   63.29    4.30
  -1   0 -12    3.50    2.10
  -2   0 -12    0.20    2.80
  -3   0 -12    0.60    1.30
  -5  -1  12    2.70    1.30
  -5  -1  12    6.10    1.80
  -5   1  12    4.40    1.30
  -5   1  12    1.30    1.70
  -4  -1  12   59.29    3.60
  -4  -1  12   57.29    3.50
  -4   1  12   56.49    3.60
  -4   1  12   55.09    3.60
  -3  -1  12    0.90    1.50
  -3  -1  12    0.30    1.90
  -3   1  12   -1.30    1.40
  -3   1  12    1.80    2.00
  -2  -1  12   14.20    3.50
  -2  -1  12   13.50    2.70
  -2   1  12   28.60    3.80
   2   1 -12   17.00    3.40
  -1  -1  12   48.40    5.30
   1  -1 -12   46.00    3.70
  -1   1  12   47.30    4.20
   1   1 -12   49.70    3.80
   0  -1 -12   28.80    4.40
   0  -1 -12   21.30    3.30
   0   1 -12   30.10    3.60
   0   1 -12   34.40    3.80
  -1  -1 -12   17.10    3.40
  -1   1 -12   15.60    3.30
  -1   1 -12   13.80    3.00
  -2  -1 -12   32.80    4.00
  -2   1 -12   39.50    5.20
  -3  -1 -12   -2.00    1.30
  -3   1 -12    0.60    1.40
  -5  -2  12    4.80    1.30
  -5  -2  12    6.30    1.90
  -5   2  12    7.20    1.80
  -5   2  12    7.80    1.80
  -4  -2  12    4.90    1.50
  -4  -2  12   10.20    2.40
  -4   2  12    9.60    2.40
  -4   2  12    4.80    1.70
  -3  -2  12    8.10    1.70
  -3  -2  12    8.60    2.10
  -3   2  12    8.10    2.20
  -3   2  12    8.10    1.70
  -2  -2  12   24.20    3.80
  -2  -2  12   21.50    3.00
  -2   2  12   15.10    3.80
   2   2 -12   23.80    3.10
  -2   2  12   26.70    3.00
  -1  -2  12   27.60    4.20
   1  -2 -12   19.00    3.00
  -1   2  12   19.80    3.50
   1   2 -12   26.50    3.10
   0  -2 -12   16.20    3.30
   0   2 -12   27.80    3.50
   0   2 -12   23.00    3.60
  -1  -2 -12   66.49    4.60
  -1   2 -12   65.39    4.60
  -1   2 -12   63.59    4.80
  -2  -2 -12   30.60    3.20
  -2   2 -12   26.80    3.30
  -3  -2 -12    0.40    1.30
  -3   2 -12    2.00    1.40
  -5  -3  12   52.79    2.80
  -5  -3  12   52.59    3.40
  -5   3  12   54.89    3.50
  -5   3  12   43.20    2.80
  -4  -3  12  101.89    4.70
  -4  -3  12   96.89    4.70
  -4   3  12   96.99    4.70
  -4   3  12  105.59    4.70
  -3  -3  12   13.00    2.80
  -3  -3  12   20.90    3.10
  -3   3  12   22.00    3.50
  -3   3  12   20.20    2.80
  -2  -3  12    6.40    2.20
  -2  -3  12    7.10    1.90
  -2   3  12    8.00    1.80
   2   3 -12   13.00    3.00
  -2   3  12    8.90    2.70
   1  -3 -12  110.69    5.50
  -1  -3  12  122.29    6.00
  -1   3  12  114.39    5.60
   1   3 -12  120.49    5.70
   0  -3 -12    3.70    2.00
   0   3 -12    2.50    2.00
   0   3 -12    2.50    2.00
  -1  -3 -12  174.58    7.30
  -1   3 -12  166.48    7.20
  -1   3 -12  173.38    7.40
  -2  -3 -12    6.70    1.90
  -2   3 -12    4.40    2.70
  -2   3 -12   10.90    2.60
  -3  -3 -12   18.00    2.60
  -3   3 -12   14.50    2.20
  -5  -4  12   36.80    2.40
  -5  -4  12   43.40    3.10
  -5   4  12   37.90    2.60
  -5   4  12   44.00    3.40
   5   4 -12   41.70    3.30
  -4  -4  12    2.10    1.50
  -4  -4  12    4.30    1.50
  -4   4  12    3.70    1.70
  -4   4  12    2.70    1.50
  -3  -4  12   21.90    2.80
  -3  -4  12   21.90    3.20
  -3   4  12   27.90    3.60
  -3   4  12   22.90    2.80
  -2  -4  12  111.69    5.30
  -2  -4  12  119.69    5.80
   2   4 -12  115.19    5.50
  -2   4  12  115.49    6.10
  -2   4  12  110.79    5.20
   1  -4 -12   24.20    3.20
  -1  -4  12   25.10    4.00
   1   4 -12   22.90    3.40
  -1   4  12   24.30    3.30
   0  -4 -12   40.60    3.80
   0   4 -12   43.00    4.00
   0   4 -12   43.30    3.70
  -1  -4 -12  107.09    5.60
  -1   4 -12  105.89    5.60
  -1   4 -12  110.69    5.50
  -2  -4 -12   -0.10    1.60
  -2   4 -12    0.30    1.70
  -2   4 -12    2.80    2.40
   3  -4  12    9.30    2.40
  -3  -4 -12   11.00    2.40
  -3   4 -12   10.80    2.30
  -5  -5  12   10.60    1.80
  -5  -5  12   12.90    2.70
  -5   5  12   13.00    3.00
   5   5 -12    7.80    2.10
  -5   5  12    4.90    1.70
  -4  -5  12   51.89    3.30
  -4  -5  12   58.99    3.50
  -4   5  12   55.49    3.50
  -4   5  12   56.39    3.50
  -3  -5  12   15.50    2.80
  -3  -5  12   16.80    2.50
   3   5 -12   15.20    3.30
  -3   5  12   16.60    2.70
  -3   5  12   18.40    3.70
  -2  -5  12    1.10    1.60
   2   5 -12    2.90    2.00
  -2   5  12    0.70    1.50
  -2   5  12   -4.50    2.90
  -1  -5  12  108.09    5.70
   1  -5 -12   98.09    5.20
  -1   5  12  102.99    5.10
   1   5 -12  109.79    5.40
   0  -5 -12    2.30    1.90
   0   5 -12   -2.40    1.80
   0   5 -12    1.80    1.80
  -1  -5 -12   29.90    3.80
  -1   5 -12   21.00    3.40
  -1   5 -12   29.70    3.50
   2  -5  12   20.10    3.20
  -2  -5 -12   20.10    3.10
  -2   5 -12   24.40    3.10
  -2   5 -12   15.30    3.30
  -3  -5 -12    0.90    1.40
   3  -5  12    2.00    1.30
  -3   5 -12    2.90    1.40
  -5  -6  12    5.00    1.90
  -5  -6  12    9.00    1.70
  -5   6  12    4.60    1.60
  -4  -6  12   55.89    3.40
  -4  -6  12   56.19    3.60
   4   6 -12   57.09    4.00
  -4   6  12   60.69    3.50
  -4   6  12   56.49    3.70
  -3  -6  12    0.30    1.40
  -3  -6  12    1.30    1.70
   3   6 -12    2.70    1.70
  -3   6  12   -1.00    1.40
  -2  -6  12   -0.20    1.70
  -2   6  12    1.00    3.40
   2   6 -12    0.20    1.80
  -2   6  12   -0.40    1.30
   1  -6 -12  266.17    9.90
  -1  -6  12  271.27   10.00
  -1   6  12  272.17    9.70
   1   6 -12  265.57    9.90
   0  -6 -12   50.09    4.10
   0   6 -12   49.50    3.70
   0   6 -12   50.59    4.00
  -1  -6 -12    2.20    2.00
  -1   6 -12   -2.60    1.90
  -1   6 -12    1.70    1.90
   2  -6  12   27.40    3.20
  -2  -6 -12   21.40    3.20
  -2   6 -12   17.40    3.30
  -2   6 -12   25.80    3.30
   3  -6  12    1.20    1.40
  -3  -6 -12    2.30    1.50
  -3   6 -12    3.00    1.40
  -5  -7  12   13.30    2.00
  -5   7  12   18.10    2.50
  -4  -7  12    0.60    1.40
  -4  -7  12    2.90    1.50
   4   7 -12   -0.50    1.90
  -4   7  12    1.20    2.00
  -4   7  12   -0.80    1.30
  -3  -7  12    6.90    1.70
  -3  -7  12    6.40    2.00
  -3   7  12    4.20    2.60
  -3   7  12    6.60    1.60
  -2  -7  12    3.50    1.80
  -2   7  12    3.00    1.60
   2   7 -12    3.50    2.10
   1  -7 -12   66.99    4.30
  -1  -7  12   66.79    5.40
  -1   7  12   64.79    4.10
   1   7 -12   66.49    4.60
   0  -7 -12  115.89    5.60
   0   7 -12  112.59    5.60
   0   7 -12  117.59    5.40
   1  -7  12   -1.70    2.90
  -1  -7 -12    1.80    2.00
  -1   7 -12   -0.40    2.00
  -1   7 -12    2.10    1.90
  -2  -7 -12   23.50    3.20
   2  -7  12   19.40    3.00
  -2   7 -12   18.30    2.90
  -2   7 -12   15.70    3.00
   3  -7  12   -1.00    1.20
  -3  -7 -12    3.00    1.80
  -3   7 -12    5.20    2.40
  -3   7 -12   -0.90    1.40
  -5   8  12    2.70    2.10
  -4  -8  12   28.20    3.30
  -4  -8  12   29.70    2.70
  -4   8  12   28.30    3.40
  -3  -8  12    2.10    1.80
  -3  -8  12   -1.40    1.60
  -3   8  12    0.90    1.40
   3   8 -12   -3.20    2.00
  -3   8  12    2.70    2.90
  -2  -8  12    1.60    1.80
   2  -8 -12    2.30    1.90
   2   8 -12    0.90    2.10
  -2   8  12    0.70    1.50
   1  -8 -12    0.80    1.70
  -1   8  12    2.00    1.80
   1   8 -12   -1.00    2.20
   0  -8 -12   18.90    3.40
   0   8 -12   22.00    3.00
   0   8 -12   25.00    3.80
  -1  -8 -12   28.90    3.80
   1  -8  12   22.80    3.90
  -1   8 -12   25.60    3.50
  -1   8 -12   24.30    3.20
   2  -8  12    0.10    1.60
  -2  -8 -12    1.70    1.70
  -2  -8 -12   -2.60    2.30
  -2   8 -12    3.30    1.80
  -2   8 -12    0.60    1.60
  -3  -8 -12   -0.20    1.70
   3  -8  12    0.40    1.30
  -3   8 -12    0.50    2.10
  -3   8 -12   -0.70    1.40
  -4  -9  12   14.30    2.50
  -4  -9  12    9.40    2.10
  -4   9  12   14.20    2.40
  -4   9  12    3.40    2.50
  -3  -9  12   14.40    2.60
   3   9 -12   10.30    2.60
  -3   9  12    7.90    1.70
   2  -9 -12    2.30    1.60
  -2  -9  12    2.20    1.80
   2   9 -12    2.20    2.30
  -2   9  12    1.90    1.50
   1  -9 -12  112.49    5.50
  -1   9  12  105.59    5.20
   1   9 -12  112.09    5.90
   0  -9 -12   69.19    4.40
   0   9 -12   60.29    3.90
   0   9 -12   62.79    4.70
   1  -9  12   30.40    4.20
  -1   9 -12   40.30    3.80
  -2  -9 -12    2.90    2.00
   2  -9  12    2.80    1.60
  -2   9 -12    5.70    1.90
  -2   9 -12    6.40    1.80
   3  -9  12    3.50    1.50
  -3  -9 -12    2.70    2.10
  -3   9 -12    0.60    1.80
  -3   9 -12    1.80    1.90
  -4 -10  12    9.60    2.50
  -4  10  12    6.10    1.70
  -3 -10  12    7.80    1.90
  -3  10  12   16.10    2.30
   2 -10 -12   60.09    3.90
  -2 -10  12   50.09    3.90
  -2  10  12   54.39    3.50
   1 -10 -12  131.99    5.90
   1  10 -12  127.79    6.30
  -1  10  12  129.39    5.70
   0 -10 -12   15.50    3.30
   0  10 -12    8.10    2.60
   0  10 -12    8.50    1.80
   1 -10  12    0.80    2.20
  -1 -10 -12    5.70    2.30
  -1  10 -12    5.30    2.10
  -1  10 -12    2.10    2.10
  -2 -10 -12    0.90    1.90
   2 -10  12    2.40    1.60
  -2  10 -12    0.90    1.50
  -2  10 -12   -0.90    1.80
   3 -10  12   38.10    2.40
  -3  10 -12   30.50    2.80
  -3  10 -12   30.70    2.80
  -4 -11  12   27.00    2.70
  -4  11  12   21.60    2.70
  -3 -11  12   11.10    2.60
  -3  11  12    4.50    1.40
  -2 -11  12    8.40    2.10
   2 -11 -12    5.10    1.80
  -2  11  12    7.90    1.80
   1 -11 -12  241.98    9.00
  -1  11  12  240.38    8.90
   1  11 -12  248.98    9.70
   0 -11 -12   45.90    4.10
   0  11 -12   52.29    3.50
  -1 -11 -12   -2.30    2.10
   1 -11  12    1.40    2.00
  -1  11 -12    2.10    1.50
  -1  11 -12    2.30    2.30
  -2 -11 -12   46.50    4.10
   2 -11  12   49.20    3.20
  -2  11 -12   50.09    3.90
  -2  11 -12   43.90    2.90
   3 -11  12   14.40    2.00
  -3  11 -12   14.30    2.90
  -3  11 -12   15.60    2.20
  -4 -12  12    4.00    1.70
  -4  12  12    3.20    1.50
  -3 -12  12   46.50    3.50
  -3  12  12   48.50    3.10
  -2 -12  12  202.88    7.80
   2 -12 -12  202.48    7.80
  -2  12  12  203.98    7.70
   1 -12 -12   11.60    2.80
  -1  12  12   11.80    2.90
   1  12 -12   15.20    2.50
   0 -12 -12    6.70    2.10
   0  12 -12    7.50    1.80
   0  12 -12    7.80    2.90
   1 -12  12   -1.60    2.00
  -1 -12 -12    1.20    2.20
  -1  12 -12   -2.90    2.50
  -1  12 -12    1.70    1.50
   2 -12  12   14.50    2.50
  -2  12 -12   13.20    2.10
  -2  12 -12   13.00    2.50
   3 -12  12   17.30    2.10
  -3  12 -12   13.90    2.30
   4 -13 -12   44.80    2.90
  -4 -13  12   36.60    3.10
  -4  13  12   45.50    3.20
  -3 -13  12   13.90    3.30
   3 -13 -12   16.40    2.50
  -3  13  12   11.60    2.30
  -2 -13  12   21.00    3.50
   2 -13 -12   16.60    3.00
  -2  13  12   13.70    2.50
   1 -13 -12   32.20    3.70
  -1  13  12   33.50    3.30
   1  13 -12   38.10    2.90
   0 -13 -12    3.00    2.10
   0  13 -12    0.60    2.30
  -1 -13 -12   15.50    2.80
   1 -13  12   19.60    3.40
  -1  13 -12   18.00    2.40
   2 -13  12    0.10    1.40
  -2  13 -12    0.80    1.30
  -4 -14  12   14.50    2.80
   4 -14 -12   11.70    2.30
  -4  14  12    7.10    1.80
   3 -14 -12   15.20    2.80
  -3 -14  12   22.10    2.80
  -3  14  12   22.90    3.90
   2 -14 -12  114.09    5.20
  -2 -14  12  104.99    5.50
  -2  14  12  105.49    4.80
   1 -14 -12    2.30    2.10
  -1  14  12    1.30    1.70
   1  14 -12    0.60    1.30
   0 -14 -12   36.20    4.50
   0  14 -12   32.10    2.80
   1 -14  12   46.60    3.80
  -1  14 -12   41.60    3.00
   2 -14  12   19.00    2.60
  -2  14 -12   18.20    2.00
   4 -15 -12    7.00    1.80
  -3 -15  12   41.00    3.30
   3 -15 -12   39.40    3.30
  -3  15  12   41.30    3.00
  -2 -15  12    1.60    2.40
   2 -15 -12    2.60    2.10
  -2  15  12    0.80    1.40
   1 -15 -12    1.90    2.30
   1  15 -12   -0.90    1.30
  -1  15  12   -0.80    1.60
   0  15 -12   71.19    3.70
   1 -15  12    1.00    1.90
  -1  15 -12   -0.20    1.30
   2 -15  12    9.80    2.40
  -2  15 -12    8.40    1.80
   4  16 -12   14.70    2.30
  -3 -16  12   14.10    3.20
   3 -16 -12   24.80    3.30
  -3  16  12   16.80    2.30
   2 -16 -12    2.50    2.30
  -2 -16  12    1.50    2.70
  -2  16  12    1.60    2.30
   2  16 -12    0.70    1.20
   1  16 -12   29.30    2.50
  -1  16  12   25.70    3.80
   0  16 -12    3.40    1.40
   1 -16  12   -1.10    2.00
  -1  16 -12    2.10    1.20
   2 -16  12   59.89    3.10
  -2  16 -12   54.99    2.80
  -3 -17  12   46.90    4.00
   3  17 -12   49.30    2.70
  -3  17  12   44.30    3.00
  -2 -17  12   10.50    5.30
   2  17 -12    6.50    1.40
  -2  17  12    5.30    1.60
   1  17 -12   82.69    3.90
  -1  17  12   81.09    4.30
   0  17 -12    4.40    1.40
   1 -17  12   21.70    3.30
  -1  17 -12   20.90    2.20
   2 -17  12   27.10    2.70
  -2  17 -12   33.60    2.20
  -3  18  12   38.60    2.90
   3  18 -12   41.10    2.60
   2  18 -12    2.30    1.30
  -2  18  12    0.60    1.50
  -1  18  12    6.30    1.90
   1  18 -12    5.70    1.40
   0  18 -12   10.40    2.00
   1 -18  12    2.70    1.90
  -1  18 -12    2.70    1.20
   3  19 -12    4.00    1.80
   2  19 -12   16.30    2.10
  -2  19  12   14.60    2.60
   1  19 -12   66.79    3.40
  -1  19  12   71.39    4.10
   0  19 -12    4.70    1.30
  -1  19 -12   33.10    2.20
  -2  20  12    2.40    1.80
   2  20 -12    2.70    1.50
   1  20 -12   21.30    2.20
  -1  20  12   32.30    3.60
   0  20 -12    0.50    1.20
  -1  20 -12    0.70    1.10
   2  21 -12    4.70    1.80
   1  21 -12    6.10    1.40
   0  21 -12   25.40    2.10
   1  22 -12    8.70    1.70
   0  22 -12    0.90    1.40
   5   0 -13   37.50    2.40
  -4   0  13   -0.80    1.30
  -4   0  13    0.80    1.40
  -3   0  13   59.09    3.60
   3   0 -13   54.89    3.70
  -3   0  13   55.79    3.70
   2   0 -13    0.80    1.50
  -2   0  13    0.80    1.70
   1   0 -13   66.99    4.10
   0   0 -13    0.50    1.80
  -2   0 -13    2.40    1.50
  -3   0 -13    1.70    1.40
  -5  -1  13   44.00    2.70
   5  -1 -13   65.49    2.80
   5   1 -13   68.49    3.00
  -5   1  13   49.00    2.80
  -4  -1  13   12.70    2.30
  -4  -1  13   10.70    2.20
  -4   1  13   10.90    2.40
  -4   1  13   10.10    2.30
  -3  -1  13    7.60    2.00
  -3  -1  13    7.10    1.80
   3   1 -13    3.80    1.40
  -3   1  13    6.50    1.60
  -3   1  13    3.00    1.80
  -2  -1  13  136.39    6.00
   2  -1 -13  138.89    6.10
  -2   1  13  137.59    6.00
   2   1 -13  152.38    6.20
   1  -1 -13    1.60    1.70
   1   1 -13   -0.70    1.50
  -1   1  13   -1.70    2.60
   0  -1 -13   68.59    4.20
   0   1 -13   63.59    4.30
   0   1 -13   64.99    4.50
  -2  -1 -13    9.10    2.30
  -2   1 -13   13.40    2.60
  -3   1 -13   19.90    3.30
  -5  -2  13    3.80    1.30
   5  -2 -13    3.20    1.30
   5   2 -13    5.90    1.60
  -5   2  13    5.00    1.40
  -4  -2  13    8.00    2.00
  -4  -2  13    6.10    1.60
  -4   2  13    8.60    1.80
   4   2 -13   12.90    2.50
  -4   2  13    3.80    1.60
  -3  -2  13   13.10    2.80
  -3  -2  13   17.20    2.60
  -3   2  13   13.60    2.70
  -3   2  13   21.60    3.10
   3   2 -13   16.90    2.60
   2  -2 -13    3.00    1.50
  -2  -2  13    0.50    1.90
  -2   2  13    0.40    1.70
   2   2 -13    2.90    1.70
   1  -2 -13    5.20    1.80
   1   2 -13    6.30    1.70
  -1   2  13    1.20    2.60
   0  -2 -13    0.80    1.70
   0   2 -13   -0.10    1.70
   0   2 -13    3.50    2.10
  -1  -2 -13  110.49    5.80
  -1   2 -13  101.59    5.60
  -1   2 -13   96.29    5.60
  -2  -2 -13   -0.30    1.40
  -2   2 -13    1.70    1.40
  -3   2 -13    7.00    1.90
   5  -3 -13   59.69    2.90
  -4  -3  13   92.69    4.30
  -4  -3  13   98.49    4.50
  -4   3  13  101.49    4.50
  -4   3  13  103.19    4.50
   4   3 -13   97.19    4.30
  -3  -3  13    5.20    1.60
  -3  -3  13    6.10    1.90
   3   3 -13    4.60    1.50
  -3   3  13    7.30    1.60
  -3   3  13    3.90    2.00
  -2  -3  13   99.39    5.00
   2  -3 -13  106.59    5.00
   2   3 -13  103.89    5.00
  -2   3  13   95.59    4.90
   1  -3 -13   59.49    3.90
  -1   3  13   52.39    4.70
   1   3 -13   55.59    3.90
   0  -3 -13   62.29    4.00
   0   3 -13   50.69    4.00
   0   3 -13   50.09    3.90
  -1  -3 -13    3.20    1.70
  -1   3 -13    5.70    1.70
  -1   3 -13    2.60    2.30
  -2  -3 -13   12.40    2.50
  -2   3 -13   13.90    2.50
  -3  -3 -13    1.30    1.20
  -3   3 -13    2.50    1.30
   5  -4 -13   10.00    1.80
  -5   4  13    9.20    2.30
  -4  -4  13   29.60    2.50
  -4  -4  13   30.20    2.70
  -4   4  13   31.60    2.80
   4   4 -13   30.70    2.80
  -4   4  13   30.40    2.90
  -3  -4  13    1.10    1.70
  -3  -4  13   -0.80    1.50
  -3   4  13    0.10    1.40
   3   4 -13    0.10    1.50
  -3   4  13    3.60    2.10
   2  -4 -13  166.68    6.70
  -2  -4  13  160.78    6.60
   2   4 -13  154.48    6.50
  -2   4  13  159.18    6.50
   1  -4 -13   12.00    2.20
   1   4 -13   17.00    3.10
  -1   4  13   13.80    2.70
   0  -4 -13   75.69    4.40
   0   4 -13   69.69    4.30
   0   4 -13   68.09    4.20
  -1  -4 -13   13.90    2.90
  -1   4 -13   17.80    2.80
  -1   4 -13   15.70    3.20
   2  -4  13   25.40    3.50
  -2  -4 -13   32.60    2.80
  -2   4 -13   28.40    2.80
  -3  -4 -13   -0.20    1.30
  -3   4 -13    2.70    1.20
   5  -5 -13    0.80    1.10
  -4  -5  13   12.80    2.50
  -4  -5  13    8.00    2.00
  -4   5  13    6.80    1.90
   4   5 -13    7.40    1.70
  -4   5  13    9.40    1.70
  -3  -5  13   11.50    2.40
   3   5 -13   11.40    2.70
  -3   5  13   10.80    2.50
  -3   5  13   11.60    2.60
  -2  -5  13   -1.70    1.90
   2  -5 -13   -3.20    1.30
   2   5 -13   -2.90    1.60
  -2   5  13    3.20    1.80
   1  -5 -13  120.89    5.60
  -1   5  13  118.19    6.00
   1   5 -13  127.39    5.70
   0  -5 -13   17.60    3.00
   0   5 -13   14.70    3.20
   0   5 -13   12.50    2.90
  -1  -5 -13   11.50    2.80
  -1   5 -13   12.90    3.00
  -1   5 -13   11.70    2.80
   2  -5  13    9.60    2.40
  -2  -5 -13   11.80    2.60
  -2   5 -13    9.30    2.50
  -2   5 -13    4.90    1.50
  -3  -5 -13   12.10    2.30
  -3   5 -13   15.40    2.10
  -4  -6  13    2.30    1.60
  -4   6  13    1.70    1.50
   4   6 -13    4.90    1.90
  -4   6  13    3.20    1.90
  -3  -6  13    4.50    1.70
   3   6 -13    8.10    1.80
  -3   6  13    7.20    1.70
   2  -6 -13   67.39    4.00
  -2  -6  13   67.39    4.20
  -2   6  13   68.09    4.10
   1  -6 -13    4.70    1.70
  -1   6  13    4.70    2.40
   1   6 -13    5.90    2.00
   0  -6 -13    0.60    1.80
   0   6 -13   -1.10    1.90
  -1  -6 -13  142.19    6.00
  -1   6 -13  139.99    5.90
  -1   6 -13  130.59    5.70
  -2  -6 -13    1.90    1.60
  -2   6 -13   -2.80    1.30
  -2   6 -13    3.60    2.00
  -3  -6 -13    1.60    1.60
  -3   6 -13    1.50    1.30
  -4  -7  13   14.90    2.50
  -4   7  13   13.30    2.50
  -4   7  13   16.30    3.60
   3  -7 -13   82.99    4.20
  -3  -7  13   81.19    4.20
  -3   7  13   83.99    4.20
   3   7 -13   76.39    4.30
  -2  -7  13   12.00    2.30
  -2   7  13   15.80    2.90
   2   7 -13   14.60    3.10
   1  -7 -13   15.80    2.90
   1   7 -13   15.40    3.40
  -1   7  13   14.50    2.70
   0   7 -13   13.10    3.20
  -1  -7 -13   32.00    3.10
  -1   7 -13   26.40    3.20
  -1   7 -13   33.00    3.00
  -2  -7 -13   -0.90    1.50
   2  -7  13    4.60    2.70
  -2   7 -13    1.20    1.50
  -2   7 -13    0.40    1.80
  -4  -8  13    0.40    1.60
  -4   8  13    1.60    1.50
  -3  -8  13    1.20    1.60
   3  -8 -13    0.70    1.50
  -3   8  13    1.20    1.50
   3   8 -13    0.20    2.10
  -2  -8  13    4.00    2.10
   2  -8 -13   10.00    2.50
  -2   8  13    3.90    1.60
   2   8 -13    2.80    2.10
   1  -8 -13  118.59    5.70
  -1   8  13  108.59    5.40
   1   8 -13  106.09    5.50
   0  -8 -13    2.50    1.60
   0   8 -13    0.50    2.10
   0   8 -13    0.20    1.50
  -1  -8 -13    1.20    1.70
  -1   8 -13    0.00    1.50
  -1   8 -13    0.20    1.70
   2  -8  13    5.90    2.00
  -2  -8 -13    4.20    1.70
  -2   8 -13    4.60    1.70
  -2   8 -13    3.90    1.50
   4  -9 -13    4.50    1.30
  -4  -9  13   11.40    2.50
  -4   9  13    3.90    1.60
   3  -9 -13   44.30    2.90
  -3  -9  13   32.90    4.40
  -3   9  13   44.40    3.20
   2  -9 -13    3.80    1.60
  -2  -9  13    4.10    2.20
   2   9 -13   -2.80    2.30
  -2   9  13    5.10    1.60
   1  -9 -13    4.10    1.70
  -1   9  13    6.00    2.20
   1   9 -13    5.00    2.20
   0  -9 -13  274.17    9.70
   0   9 -13  276.47    9.80
   0   9 -13  264.37    9.60
  -1  -9 -13   -0.20    1.80
  -1   9 -13    1.30    1.50
  -1   9 -13   -0.90    1.90
   2  -9  13   13.70    3.20
  -2  -9 -13   20.40    3.30
  -2   9 -13   13.20    2.40
  -2   9 -13   11.50    2.50
   4 -10 -13   18.10    1.90
  -4 -10  13   23.50    2.80
  -4  10  13   17.10    2.60
  -3 -10  13   14.30    2.80
   3 -10 -13   12.80    2.20
  -3  10  13   24.80    4.10
   2 -10 -13    5.90    1.70
  -2 -10  13    3.30    2.40
  -2  10  13    3.50    1.60
   1 -10 -13   -3.20    1.60
   1  10 -13    0.00    1.30
  -1  10  13   -1.00    2.00
   1  10 -13   -0.80    2.50
   0 -10 -13  179.98    6.90
   0  10 -13  176.08    7.10
   0  10 -13  171.28    6.70
  -1 -10 -13   62.39    4.10
  -1  10 -13   66.89    3.60
  -1  10 -13   65.09    4.30
  -2 -10 -13    3.10    2.10
   2 -10  13    6.30    2.00
  -2  10 -13    5.00    2.20
  -2  10 -13    4.20    1.60
   4 -11 -13   46.30    3.10
  -4 -11  13   63.49    3.90
  -3 -11  13   -2.70    1.80
   3 -11 -13   -1.10    1.30
  -3  11  13    0.60    1.50
   2 -11 -13   19.60    2.70
  -2 -11  13   20.20    4.10
  -2  11  13   14.80    2.60
   1 -11 -13   94.19    4.70
  -1  11  13   97.79    5.00
   1  11 -13   94.19    4.40
   0 -11 -13   56.29    3.90
   0  11 -13   51.29    3.20
   0  11 -13   50.89    4.70
  -1 -11 -13   27.90    3.60
  -1  11 -13   30.00    2.70
  -1  11 -13   34.70    3.50
   2 -11  13    4.20    2.00
  -2  11 -13    4.90    1.90
  -2  11 -13    2.60    2.20
   4 -12 -13    9.90    2.00
   3 -12 -13    0.40    1.40
  -3 -12  13   -1.40    1.90
  -3  12  13    2.20    1.50
  -2 -12  13   19.00    3.00
   2 -12 -13   20.20    2.80
  -2  12  13   16.90    2.90
   1 -12 -13   68.99    4.10
   1  12 -13   65.39    3.60
   0 -12 -13   42.70    3.80
   0  12 -13   45.20    2.90
  -1 -12 -13    2.20    2.20
  -1  12 -13    2.90    1.30
  -2  12 -13   18.30    2.00
   4 -13 -13  149.49    5.40
  -3 -13  13   29.50    3.50
   3 -13 -13   35.10    2.70
  -3  13  13   31.70    2.80
   2 -13 -13   26.20    2.90
   2  13 -13   27.90    2.40
  -2  13  13   26.30    2.80
   1 -13 -13   -2.60    1.80
   1  13 -13    0.50    1.10
  -1  13  13    4.10    2.10
   0 -13 -13    1.70    2.20
   0  13 -13    0.90    1.20
  -1  13 -13    3.10    1.20
  -2  13 -13   33.40    2.30
  -3 -14  13    8.80    2.40
   3 -14 -13   13.60    2.70
  -3  14  13   17.50    2.70
   2 -14 -13   11.90    2.90
  -2  14  13    7.50    1.60
   2  14 -13    7.90    1.80
   1 -14 -13   21.50    3.40
   1  14 -13   19.90    2.20
  -1  14  13   20.50    3.60
   0 -14 -13    2.40    2.60
   0  14 -13   -0.10    1.20
  -1  14 -13   42.50    2.60
   3 -15 -13   14.60    3.10
  -3  15  13   13.60    2.70
   3  15 -13   10.80    1.70
   2  15 -13    2.30    1.20
  -2  15  13    2.10    1.50
  -1  15  13    7.30    2.40
   0  15 -13   14.80    1.90
  -1  15 -13    2.30    1.10
   3  16 -13    6.90    1.70
   2  16 -13    1.00    1.10
  -2  16  13    0.80    1.50
  -1  16  13    5.00    2.50
   1  16 -13    2.00    1.10
   0  16 -13   21.70    2.10
  -1  16 -13  190.48    6.60
   3  17 -13   63.49    3.00
   2  17 -13   15.40    1.80
  -2  17  13   15.20    2.80
   1  17 -13   15.80    1.90
   0  17 -13    1.20    1.10
  -1  17 -13    7.70    1.60
   2  18 -13    0.00    1.10
   1  18 -13    1.10    1.10
   0  18 -13   23.50    1.90
   2  19 -13   11.30    1.90
   1  19 -13    0.60    1.10
   0  19 -13    4.10    1.10
   1  20 -13    4.50    1.30
  -4   0  14   65.59    3.60
   4   0 -14   63.09    3.10
   3   0 -14   -1.20    1.20
  -3   0  14   -0.70    1.50
  -2   0  14   32.80    3.70
   2   0 -14   39.70    3.00
   1   0 -14    2.00    2.00
   1   0 -14   -0.60    1.50
   0   0 -14    3.80    1.50
  -1   0 -14   -0.60    1.40
  -2   0 -14    1.70    1.20
  -4  -1  14   -4.30    1.60
   4  -1 -14    0.60    1.10
   4   1 -14   -0.10    1.20
  -4   1  14    1.40    1.60
  -3  -1  14    4.40    1.70
   3  -1 -14   -0.70    1.20
   3   1 -14    0.50    1.30
  -3   1  14    0.60    1.70
  -2  -1  14    0.50    2.00
   2  -1 -14    1.00    1.40
   2   1 -14    0.00    1.40
  -2   1  14   -2.70    2.10
   1  -1 -14    2.80    2.40
   1  -1 -14    0.90    1.50
   1   1 -14    1.90    1.90
   1   1 -14    3.30    1.50
   0  -1 -14   90.39    4.50
   0   1 -14   91.79    5.40
   0   1 -14   82.59    4.40
  -1  -1 -14    1.90    1.40
  -1   1 -14    2.10    1.40
  -2  -1 -14   62.89    3.20
  -2   1 -14   66.99    3.30
  -4  -2  14   -1.40    1.70
   4  -2 -14    0.30    1.10
  -4   2  14    0.40    1.60
   3  -2 -14    0.50    1.20
  -3  -2  14    4.80    1.80
   3   2 -14    3.00    1.40
  -3   2  14    2.30    1.70
  -2  -2  14   -0.20    3.20
   2  -2 -14    1.30    1.40
  -2   2  14    0.90    2.10
   2   2 -14   -0.20    1.30
   1  -2 -14  304.17   10.50
   1   2 -14  299.57   10.40
   1   2 -14  293.17   10.30
   0  -2 -14    0.60    1.40
   0   2 -14   -0.10    1.60
   0   2 -14   -1.50    2.20
  -1  -2 -14   24.30    2.80
  -1   2 -14   20.40    2.60
  -2  -2 -14   29.20    2.30
  -2   2 -14   23.80    2.30
  -4  -3  14   11.80    2.70
   4  -3 -14    8.20    1.70
   4   3 -14   14.70    2.20
  -4   3  14   13.20    2.50
  -3  -3  14   -1.40    1.60
   3  -3 -14    2.00    1.30
   3   3 -14    2.10    1.40
  -3   3  14    0.90    1.60
   2  -3 -14   30.20    2.80
  -2   3  14   29.60    3.40
   2   3 -14   32.20    2.90
   1  -3 -14   49.80    3.40
   1   3 -14   47.10    3.40
   1   3 -14   47.40    3.50
   0  -3 -14    1.30    1.40
   0   3 -14    2.90    1.90
   0   3 -14    3.40    1.70
  -1  -3 -14   35.50    3.00
  -1   3 -14   36.00    3.00
  -2  -3 -14   20.30    2.20
  -2   3 -14   18.10    2.20
  -4  -4  14    0.60    1.70
   4  -4 -14    0.10    1.00
  -4   4  14    0.30    1.60
   4   4 -14   -0.40    1.50
  -3  -4  14  145.79    5.80
   3  -4 -14  143.69    5.60
   3   4 -14  138.89    5.60
  -3   4  14  137.09    5.70
   2  -4 -14   21.30    2.60
  -2  -4  14   18.60    4.10
   2   4 -14   28.50    2.90
  -2   4  14   19.40    3.80
   1  -4 -14   31.20    2.90
   1   4 -14   24.30    2.80
   1   4 -14   29.90    3.00
   0  -4 -14   25.00    2.70
   0   4 -14   27.70    3.10
   0   4 -14   27.00    3.10
  -1  -4 -14    9.90    2.40
  -1   4 -14   13.60    2.40
  -1   4 -14    7.50    1.60
  -2  -4 -14    3.80    1.40
  -2   4 -14   -1.10    1.20
   4  -5 -14    1.50    1.00
   4   5 -14    4.00    1.90
  -4   5  14    1.90    1.60
   3  -5 -14   22.40    2.40
  -3  -5  14   18.40    3.20
   3   5 -14   18.80    2.60
  -3   5  14   21.10    2.60
   2  -5 -14    9.80    2.20
  -2  -5  14    6.10    2.70
   2   5 -14    7.10    1.80
   1  -5 -14   25.40    2.70
   1   5 -14   27.60    2.70
   1   5 -14   25.70    3.00
   0  -5 -14   10.10    2.60
   0   5 -14    6.70    1.90
   0   5 -14    5.10    1.80
  -1  -5 -14    1.90    1.40
  -1   5 -14   -1.60    1.30
  -1   5 -14    0.70    2.00
  -2  -5 -14   27.90    2.70
   4  -6 -14   25.80    2.10
   3  -6 -14    0.80    1.20
  -3  -6  14    2.80    1.90
   3   6 -14   -0.20    1.70
  -3   6  14    0.00    1.60
  -2  -6  14    2.60    2.70
   2  -6 -14    2.10    1.30
  -2   6  14   -0.30    2.00
   2   6 -14    1.50    1.70
   1  -6 -14    3.90    1.50
   1   6 -14    7.50    1.70
   1   6 -14    8.90    2.20
   0  -6 -14    3.30    1.60
   0   6 -14    1.60    1.50
   0   6 -14    1.80    1.70
  -1  -6 -14   10.30    2.50
  -1   6 -14    4.80    1.90
  -1   6 -14    7.90    1.60
  -2  -6 -14    0.30    1.40
  -2   6 -14    0.90    1.20
   4  -7 -14   23.40    2.20
   3  -7 -14    1.20    1.10
  -3  -7  14    1.90    2.00
   3   7 -14    5.40    2.20
  -3   7  14    4.00    1.70
   2  -7 -14   11.20    2.30
  -2   7  14   15.30    3.10
   2   7 -14   10.10    2.00
   1  -7 -14    1.60    1.50
   1   7 -14    0.90    1.40
   1   7 -14    1.10    1.70
   0  -7 -14  271.87    9.40
   0   7 -14  263.77    9.30
   0   7 -14  267.47    9.40
  -1  -7 -14    2.30    1.50
  -1   7 -14    1.20    1.60
  -1   7 -14    1.50    1.70
   4  -8 -14   39.90    2.30
   3  -8 -14   -0.80    1.20
  -3  -8  14   -0.90    2.00
  -3   8  14    0.00    1.60
   2  -8 -14   -0.40    1.20
  -2   8  14    3.60    1.90
   2   8 -14    2.00    1.90
   1  -8 -14   84.49    4.30
   1   8 -14   89.99    4.60
   1   8 -14   88.69    4.10
   0  -8 -14   -1.00    1.50
   0   8 -14   -0.80    1.40
   0   8 -14    0.20    1.80
  -1  -8 -14    0.30    1.50
  -1   8 -14    0.40    1.60
  -1   8 -14   -1.20    1.50
  -2  -8 -14    1.50    1.70
  -2   8 -14    3.30    1.70
   4  -9 -14    9.20    1.80
  -3  -9  14    3.80    2.30
   3  -9 -14    5.50    1.30
  -3   9  14    1.20    1.60
   2  -9 -14    0.70    1.30
  -2   9  14    0.90    2.00
   2   9 -14    1.00    2.40
   1  -9 -14    2.70    1.50
   1   9 -14    3.60    1.30
   1   9 -14    2.70    2.10
   0  -9 -14   13.60    2.70
   0   9 -14    4.30    1.50
   0   9 -14    7.20    2.00
  -1  -9 -14   16.80    2.60
  -1   9 -14   17.70    2.30
  -1   9 -14   24.40    4.10
   3 -10 -14   74.09    3.50
   2 -10 -14   19.50    2.40
   2  10 -14   14.70    2.10
  -2  10  14   18.50    3.20
   1 -10 -14   14.30    2.60
   1  10 -14   14.00    2.80
   1  10 -14   14.50    2.00
   0 -10 -14   13.60    2.80
   0  10 -14   15.10    3.40
   0  10 -14   14.70    2.20
  -1 -10 -14    4.60    1.80
  -1  10 -14    2.00    2.10
  -1  10 -14    2.30    1.40
   3 -11 -14   -1.60    1.70
  -3  11  14    0.70    1.50
   2 -11 -14    2.00    1.40
   2  11 -14    4.80    1.20
  -2  11  14    4.50    2.10
   1 -11 -14    0.90    1.50
   1  11 -14    2.40    1.20
   0 -11 -14   31.00    3.20
   0  11 -14   26.60    2.20
  -1 -11 -14    9.30    2.20
  -1  11 -14   12.70    2.30
   3 -12 -14   56.59    3.00
   3  12 -14   52.09    2.60
   2 -12 -14   36.90    2.80
  -2  12  14   35.00    3.60
   2  12 -14   32.80    2.20
   1 -12 -14   32.20    3.00
   1  12 -14   27.00    2.20
   0 -12 -14   -1.60    2.90
   0  12 -14   -0.60    1.10
  -1  12 -14    1.80    1.30
   3 -13 -14    0.70    1.60
   3  13 -14    2.00    1.00
   2 -13 -14    4.10    1.70
  -2  13  14    3.60    3.10
   2  13 -14    4.80    1.10
   1  13 -14   85.79    3.80
   0 -13 -14  117.19    5.50
   0  13 -14  111.09    4.50
  -1  13 -14   58.89    2.90
   3  14 -14    0.40    1.00
   2 -14 -14   17.70    3.10
   2  14 -14   14.90    1.70
   1 -14 -14   56.99    4.50
   1  14 -14   55.29    2.80
   0  14 -14    2.20    1.10
  -1  14 -14    0.70    1.20
   2  15 -14    3.60    1.50
   1  15 -14    2.70    1.10
   2  16 -14   40.20    2.20
   1  16 -14   23.60    2.00
   0  16 -14   24.70    1.90
   1  17 -14   16.90    1.70
   3   0 -15   10.50    1.90
   2   0 -15   -0.90    1.20
   2   0 -15   -1.90    2.10
   1   0 -15  371.96   12.30
   0   0 -15    0.70    1.40
  -1   0 -15   63.79    3.20
   3  -1 -15   63.89    3.10
   3   1 -15   66.89    3.20
   2  -1 -15   -0.10    1.20
   2   1 -15    2.10    1.60
   2   1 -15    0.60    1.30
   1  -1 -15   71.99    3.60
   1   1 -15   65.99    3.60
   1   1 -15   73.59    5.90
   0  -1 -15    1.50    1.40
   0   1 -15    0.70    1.30
  -1  -1 -15    0.30    1.10
  -1   1 -15    1.80    1.20
   3  -2 -15    7.80    1.70
   3   2 -15   13.10    2.20
   2  -2 -15   -0.40    1.10
   2   2 -15    3.20    1.30
   2   2 -15    1.40    1.50
   1  -2 -15    5.90    1.40
   1   2 -15    5.30    1.50
   1   2 -15    6.80    2.00
   0  -2 -15   38.50    2.90
   0   2 -15   40.80    2.80
  -1  -2 -15    1.80    1.20
  -1   2 -15    2.50    1.30
   3  -3 -15   13.30    1.80
   2  -3 -15   33.60    2.60
   2   3 -15   31.70    2.70
   2   3 -15   38.30    2.60
   1  -3 -15   40.90    2.80
   1   3 -15   36.30    3.10
   1   3 -15   39.50    2.90
   0  -3 -15   28.50    2.60
   0   3 -15   28.10    2.60
  -1  -3 -15    8.30    2.00
  -1   3 -15   10.00    2.10
   3  -4 -15    9.30    1.70
   3   4 -15   13.60    2.40
   2  -4 -15    5.20    1.30
   2   4 -15    6.60    1.50
   2   4 -15    8.00    1.90
   1  -4 -15    2.20    1.20
   1   4 -15   -0.50    1.50
   1   4 -15   -0.70    1.40
   0  -4 -15    9.40    1.60
   0   4 -15    8.60    2.20
   0   4 -15    5.30    1.50
  -1  -4 -15   -1.10    1.20
  -1   4 -15   -1.00    1.70
   3  -5 -15    3.80    1.10
   3   5 -15    4.10    1.80
   2  -5 -15    2.00    1.20
   2   5 -15    3.40    1.50
   2   5 -15    6.20    1.30
   1  -5 -15   19.80    2.30
   1   5 -15   18.40    2.40
   1   5 -15   16.70    2.60
   0  -5 -15   10.20    1.70
   0   5 -15   12.90    2.60
   0   5 -15    7.50    1.60
  -1  -5 -15    1.50    1.30
  -1   5 -15   -2.30    1.20
   3  -6 -15   -0.20    1.00
   3   6 -15    0.60    2.20
   2  -6 -15    4.10    1.30
   2   6 -15    4.20    1.30
   2   6 -15    4.10    1.70
   1  -6 -15   20.20    2.30
   1   6 -15   22.20    2.90
   1   6 -15   19.90    2.30
   0  -6 -15   15.20    2.30
   0   6 -15   18.00    2.50
   0   6 -15   18.10    2.70
  -1  -6 -15   37.40    2.70
   3  -7 -15   20.50    2.30
   3   7 -15   20.10    1.80
   2  -7 -15    1.80    1.20
   2   7 -15   -0.50    1.10
   2   7 -15   -5.30    1.90
   1  -7 -15   22.70    2.30
   1   7 -15   24.20    3.00
   1   7 -15   27.30    2.30
   0  -7 -15   35.70    2.60
   0   7 -15   34.90    2.80
  -1  -7 -15   -0.40    1.50
  -1   7 -15    0.60    1.60
   3  -8 -15   47.40    2.60
   3   8 -15   50.09    2.40
   2  -8 -15    0.80    1.20
   2   8 -15    1.00    1.10
   1  -8 -15    1.20    1.30
   1   8 -15   -1.30    1.90
   1   8 -15    1.70    1.20
   0  -8 -15   -0.20    1.30
   0   8 -15   -0.80    1.50
   0   8 -15   -1.60    1.90
   3  -9 -15   11.50    1.90
   3   9 -15   12.90    1.50
   2  -9 -15   17.80    2.20
   2   9 -15   16.00    1.80
   1  -9 -15   20.80    2.40
   1   9 -15   20.90    2.00
   0  -9 -15   24.20    2.50
   0   9 -15   18.10    3.60
   0   9 -15   22.40    2.30
   2  10 -15    9.60    1.60
   1 -10 -15   62.69    3.70
   1  10 -15   74.69    3.20
   0 -10 -15   50.89    3.20
   0  10 -15   50.89    2.70
   2 -11 -15   12.50    2.20
   2  11 -15   10.80    1.60
   1 -11 -15    7.10    1.70
   1  11 -15    7.40    2.00
   0 -11 -15    2.70    2.00
   0  11 -15   -0.60    1.20
   2 -12 -15    2.20    1.70
   2  12 -15    0.30    1.00
   1 -12 -15   20.50    3.10
   1  12 -15   26.80    1.90
   0  12 -15   10.90    1.80
   1  13 -15    1.00    1.10
   2   0 -16   12.70    1.90
   0   0 -16    2.20    1.20
   2  -1 -16    9.20    1.80
   2   1 -16    9.70    2.00
   1  -1 -16   12.40    2.10
   0  -1 -16   35.70    2.40
   0   1 -16   41.70    2.60
   2  -2 -16    0.60    1.10
   2   2 -16   -0.20    1.30
   1  -2 -16   74.99    4.10
   1   2 -16   72.49    3.50
   0  -2 -16    9.60    1.80
   0   2 -16    3.80    1.30
   2  -3 -16   36.90    2.30
   2   3 -16   34.40    2.60
   1   3 -16   50.29    2.90
   0  -3 -16    0.00    1.10
   0   3 -16    0.90    1.20
   2  -4 -16   -0.70    1.00
   2   4 -16    3.60    2.60
   2   4 -16    0.30    1.60
   1  -4 -16   46.10    2.60
   1   4 -16   42.90    2.90
   0  -4 -16   16.20    2.10
   0   4 -16   18.00    2.30
   2  -5 -16    1.90    1.10
   2   5 -16   -2.40    1.50
   1  -5 -16   -1.40    1.20
   1   5 -16    1.00    1.50
   2  -6 -16   52.39    2.70
   2   6 -16   52.39    2.80
   1  -6 -16    1.20    1.20
   1   6 -16    1.40    2.20
   1  -7 -16    1.90    1.30
_computing_structure_solution     'SHELXT 2014/4 (Sheldrick, 2014)'
;
_shelx_hkl_checksum              74909
_shelx_res_file
;
    SKM190_0m_a.res created by SHELXL-2014/7
TITL SKM190_0m_a.res in P2(1)/n
CELL  1.54178   5.6473  26.7798  13.3219   90.000   99.743   90.000
ZERR    4.000   0.0002   0.0009   0.0004    0.000    0.002    0.000
LATT 1
SYMM 1/2-X, 1/2+Y, 1/2-Z
SFAC C  H  N  O  S
UNIT 88  88  8  16  4
REM Old TITL SKM190_0m in P2(1)/n
REM SHELXT solution in P2(1)/n
REM R1 0.110,  Rweak 0.004,  Alpha 0.025,  Orientation as input
REM Formula found by SHELXT:  C22 N O5 S
L.S. 5
BOND $H
FMAP 2
PLAN 5
ACTA 140
HTAB N2 O3
EQIV $1 -x+2, -y+1, -z+1
HTAB N2 O3_$1
MPLA C1 > C6
MPLA C9 > C13 N1
MPLA C10 C11 C15 C16 S1
SIZE 0.045 0.08 0.202
CONF
TEMP -123
WGHT    0.044300    0.617100
FVAR       0.42701
S1    5    0.816652    0.316952    0.515873    11.00000    0.03129    0.02053 =
         0.02670   -0.00271    0.01026   -0.00010
O1    4   -0.011622    0.377520    0.800937    11.00000    0.03049    0.02936 =
         0.03519    0.00380    0.00906    0.00740
O2    4    0.193145    0.313056    0.881897    11.00000    0.02666    0.02942 =
         0.02335    0.00391    0.00775    0.00384
O3    4    1.026024    0.450584    0.443480    11.00000    0.04990    0.02420 =
         0.04328   -0.00345    0.02340   -0.00614
O4    4    1.107969    0.372411    0.396657    11.00000    0.03421    0.02662 =
         0.03000    0.00083    0.01506    0.00099
N1    3    0.507777    0.282451    0.630055    11.00000    0.03091    0.01974 =
         0.02423   -0.00131    0.00663   -0.00198
N2    3    0.690996    0.457586    0.575155    11.00000    0.04279    0.01968 =
         0.03688    0.00022    0.01941   -0.00002
H2A   2    0.600524    0.470883    0.611409    11.00000    0.03890
H2B   2    0.789355    0.476611    0.542526    11.00000    0.04281
C1    1    0.497895    0.504734    0.840707    11.00000    0.02624    0.02090 =
         0.02321   -0.00228    0.00619   -0.00201
C2    1    0.687436    0.521204    0.914012    11.00000    0.02439    0.02625 =
         0.02622   -0.00059    0.00383   -0.00169
AFIX  43
H2    2    0.833417    0.502826    0.925248    11.00000   -1.20000
AFIX   0
C3    1    0.667410    0.563821    0.970841    11.00000    0.03543    0.02787 =
         0.02682   -0.00516    0.00441   -0.00780
AFIX  43
H3    2    0.798010    0.574183    1.021126    11.00000   -1.20000
AFIX   0
C4    1    0.457291    0.591237    0.954304    11.00000    0.04124    0.02364 =
         0.03082   -0.00713    0.01116   -0.00393
AFIX  43
H4    2    0.441985    0.620261    0.993708    11.00000   -1.20000
AFIX   0
C5    1    0.268513    0.576135    0.879746    11.00000    0.03406    0.02639 =
         0.03846   -0.00465    0.00786    0.00475
AFIX  43
H5    2    0.125029    0.595315    0.867183    11.00000   -1.20000
AFIX   0
C6    1    0.288321    0.533135    0.823429    11.00000    0.02877    0.02587 =
         0.03142   -0.00451    0.00236    0.00141
AFIX  43
H6    2    0.157978    0.523027    0.772765    11.00000   -1.20000
AFIX   0
C7    1    0.525382    0.456778    0.790159    11.00000    0.02496    0.02206 =
         0.02527   -0.00252    0.00459    0.00343
AFIX  43
H7    2    0.680635    0.442065    0.803074    11.00000   -1.20000
AFIX   0
C8    1    0.356649    0.431713    0.728295    11.00000    0.02378    0.01987 =
         0.02457   -0.00085    0.00515    0.00256
AFIX  43
H8    2    0.202920    0.446438    0.708107    11.00000   -1.20000
AFIX   0
C9    1    0.404063    0.381077    0.690127    11.00000    0.02152    0.02059 =
         0.02009   -0.00217    0.00035    0.00007
C10   1    0.563582    0.372895    0.621119    11.00000    0.02383    0.02035 =
         0.02031   -0.00153    0.00203   -0.00059
C11   1    0.609100    0.323104    0.596829    11.00000    0.02569    0.02169 =
         0.01965   -0.00254    0.00178   -0.00105
C12   1    0.351986    0.290128    0.693615    11.00000    0.02839    0.02221 =
         0.02121   -0.00059    0.00389   -0.00130
C13   1    0.300913    0.338715    0.727241    11.00000    0.02264    0.02206 =
         0.01965   -0.00075    0.00149    0.00044
C14   1    0.232168    0.243796    0.724351    11.00000    0.04385    0.02191 =
         0.03360   -0.00206    0.01444   -0.00469
AFIX 137
H14A  2    0.243485    0.217192    0.674873    11.00000   -1.50000
H14B  2    0.062739    0.250896    0.726232    11.00000   -1.50000
H14C  2    0.312153    0.233089    0.791988    11.00000   -1.50000
AFIX   0
C15   1    0.702132    0.407305    0.569477    11.00000    0.02505    0.02088 =
         0.02195   -0.00101    0.00285   -0.00122
C16   1    0.845138    0.381946    0.511495    11.00000    0.02745    0.02160 =
         0.02387   -0.00019    0.00548   -0.00056
C17   1    0.998590    0.405610    0.449302    11.00000    0.02817    0.02649 =
         0.02261   -0.00206    0.00609    0.00006
C18   1    1.264809    0.393346    0.331773    11.00000    0.02993    0.03510 =
         0.02589    0.00594    0.01097    0.00127
AFIX  23
H18A  2    1.404023    0.410094    0.373481    11.00000   -1.20000
H18B  2    1.176820    0.418167    0.284454    11.00000   -1.20000
AFIX   0
C19   1    1.347358    0.350963    0.273667    11.00000    0.05987    0.04067 =
         0.04371    0.00833    0.02992    0.01312
AFIX 137
H19A  2    1.436591    0.327007    0.321330    11.00000   -1.50000
H19B  2    1.451957    0.363678    0.227800    11.00000   -1.50000
H19C  2    1.207738    0.334371    0.233712    11.00000   -1.50000
AFIX   0
C20   1    0.141560    0.345701    0.804789    11.00000    0.02388    0.02172 =
         0.02188   -0.00117    0.00237   -0.00191
C21   1    0.035520    0.313262    0.958197    11.00000    0.03394    0.03028 =
         0.02281   -0.00011    0.01136   -0.00133
AFIX  23
H21A  2   -0.005804    0.348133    0.972858    11.00000   -1.20000
H21B  2    0.120729    0.298256    1.022148    11.00000   -1.20000
AFIX   0
C22   1   -0.190984    0.284400    0.921698    11.00000    0.03034    0.03739 =
         0.03361    0.00286    0.00757   -0.00154
AFIX 137
H22A  2   -0.279623    0.300270    0.860364    11.00000   -1.50000
H22B  2   -0.290963    0.284056    0.975075    11.00000   -1.50000
H22C  2   -0.150037    0.250056    0.905859    11.00000   -1.50000
AFIX   0
HKLF 4
REM  SKM190_0m_a.res in P2(1)/n
REM R1 =  0.0372 for    3158 Fo > 4sig(Fo)  and  0.0481 for all    3830 data
REM    273 parameters refined using      0 restraints
END
WGHT      0.0442      0.6150
REM Highest difference peak  0.171,  deepest hole -0.307,  1-sigma level  0.056
Q1    1   0.7860  0.5725  1.0638  11.00000  0.05    0.17
Q2    1   0.1870  0.2944  1.0011  11.00000  0.05    0.17
Q3    1   1.0116  0.3050  0.5727  11.00000  0.05    0.17
Q4    1   1.2294  0.3484  0.4924  11.00000  0.05    0.16
Q5    1   1.5444  0.3843  0.4577  11.00000  0.05    0.16
;
_shelx_res_checksum              92461
loop_
_space_group_symop_operation_xyz
'x, y, z'
'-x+1/2, y+1/2, -z+1/2'
'-x, -y, -z'
'x-1/2, -y-1/2, z-1/2'
loop_
_atom_site_type_symbol
_atom_site_label
_atom_site_fract_x
_atom_site_fract_y
_atom_site_fract_z
_atom_site_U_iso_or_equiv
_atom_site_adp_type
_atom_site_calc_flag
_atom_site_occupancy
S S1 0.81665(7) 0.31695(2) 0.51587(3) 0.02555(12) Uani d 1
O O1 -0.0116(2) 0.37752(4) 0.80094(9) 0.0313(3) Uani d 1
O O2 0.1931(2) 0.31306(4) 0.88190(9) 0.0261(3) Uani d 1
O O3 1.0260(3) 0.45058(5) 0.44348(11) 0.0373(3) Uani d 1
O O4 1.1080(2) 0.37241(4) 0.39666(9) 0.0292(3) Uani d 1
N N1 0.5078(2) 0.28245(5) 0.63005(10) 0.0247(3) Uani d 1
N N2 0.6910(3) 0.45759(5) 0.57515(13) 0.0316(3) Uani d 1
H H2A 0.601(4) 0.4709(8) 0.6114(17) 0.039(6) Uiso d 1
H H2B 0.789(4) 0.4766(8) 0.5425(17) 0.043(6) Uiso d 1
C C1 0.4979(3) 0.50473(6) 0.84071(12) 0.0232(3) Uani d 1
C C2 0.6874(3) 0.52120(6) 0.91401(13) 0.0257(3) Uani d 1
H H2 0.8334 0.5028 0.9252 0.031 Uiso calc 1
C C3 0.6674(3) 0.56382(6) 0.97084(13) 0.0301(4) Uani d 1
H H3 0.7980 0.5742 1.0211 0.036 Uiso calc 1
C C4 0.4573(3) 0.59124(6) 0.95430(14) 0.0313(4) Uani d 1
H H4 0.4420 0.6203 0.9937 0.038 Uiso calc 1
C C5 0.2685(3) 0.57614(7) 0.87975(14) 0.0328(4) Uani d 1
H H5 0.1250 0.5953 0.8672 0.039 Uiso calc 1
C C6 0.2883(3) 0.53313(6) 0.82343(13) 0.0290(4) Uani d 1
H H6 0.1580 0.5230 0.7728 0.035 Uiso calc 1
C C7 0.5254(3) 0.45678(6) 0.79016(12) 0.0241(3) Uani d 1
H H7 0.6806 0.4421 0.8031 0.029 Uiso calc 1
C C8 0.3566(3) 0.43171(6) 0.72829(12) 0.0226(3) Uani d 1
H H8 0.2029 0.4464 0.7081 0.027 Uiso calc 1
C C9 0.4041(3) 0.38108(6) 0.69013(12) 0.0211(3) Uani d 1
C C10 0.5636(3) 0.37290(6) 0.62112(12) 0.0217(3) Uani d 1
C C11 0.6091(3) 0.32310(6) 0.59683(12) 0.0226(3) Uani d 1
C C12 0.3520(3) 0.29013(6) 0.69361(12) 0.0240(3) Uani d 1
C C13 0.3009(3) 0.33872(6) 0.72724(12) 0.0217(3) Uani d 1
C C14 0.2322(3) 0.24380(6) 0.72435(14) 0.0322(4) Uani d 1
H H14A 0.2435 0.2172 0.6749 0.048 Uiso calc 1
H H14B 0.0627 0.2509 0.7262 0.048 Uiso calc 1
H H14C 0.3122 0.2331 0.7920 0.048 Uiso calc 1
C C15 0.7021(3) 0.40730(6) 0.56948(12) 0.0228(3) Uani d 1
C C16 0.8451(3) 0.38195(6) 0.51149(12) 0.0242(3) Uani d 1
C C17 0.9986(3) 0.40561(6) 0.44930(13) 0.0255(3) Uani d 1
C C18 1.2648(3) 0.39335(7) 0.33177(13) 0.0296(4) Uani d 1
H H18A 1.4040 0.4101 0.3735 0.035 Uiso calc 1
H H18B 1.1768 0.4182 0.2845 0.035 Uiso calc 1
C C19 1.3474(4) 0.35096(8) 0.27367(17) 0.0456(5) Uani d 1
H H19A 1.4366 0.3270 0.3213 0.068 Uiso calc 1
H H19B 1.4520 0.3637 0.2278 0.068 Uiso calc 1
H H19C 1.2077 0.3344 0.2337 0.068 Uiso calc 1
C C20 0.1416(3) 0.34570(6) 0.80479(12) 0.0227(3) Uani d 1
C C21 0.0355(3) 0.31326(7) 0.95820(13) 0.0282(4) Uani d 1
H H21A -0.0058 0.3481 0.9729 0.034 Uiso calc 1
H H21B 0.1207 0.2983 1.0221 0.034 Uiso calc 1
C C22 -0.1910(3) 0.28440(7) 0.92170(14) 0.0335(4) Uani d 1
H H22A -0.2796 0.3003 0.8604 0.050 Uiso calc 1
H H22B -0.2910 0.2841 0.9751 0.050 Uiso calc 1
H H22C -0.1500 0.2501 0.9059 0.050 Uiso calc 1
loop_
_atom_site_aniso_label
_atom_site_aniso_U_11
_atom_site_aniso_U_22
_atom_site_aniso_U_33
_atom_site_aniso_U_12
_atom_site_aniso_U_13
_atom_site_aniso_U_23
S1 0.0313(2) 0.0205(2) 0.0267(2) -0.00010(16) 0.01026(16) -0.00271(15)
O1 0.0305(6) 0.0294(6) 0.0352(7) 0.0074(5) 0.0091(5) 0.0038(5)
O2 0.0267(6) 0.0294(6) 0.0234(6) 0.0038(5) 0.0078(5) 0.0039(5)
O3 0.0499(8) 0.0242(6) 0.0433(8) -0.0061(6) 0.0234(6) -0.0035(5)
O4 0.0342(6) 0.0266(6) 0.0300(7) 0.0010(5) 0.0151(5) 0.0008(5)
N1 0.0309(7) 0.0197(6) 0.0242(7) -0.0020(6) 0.0066(6) -0.0013(5)
N2 0.0428(9) 0.0197(7) 0.0369(9) 0.0000(7) 0.0194(7) 0.0002(6)
C1 0.0262(8) 0.0209(7) 0.0232(8) -0.0020(6) 0.0062(6) -0.0023(6)
C2 0.0244(8) 0.0262(8) 0.0262(9) -0.0017(7) 0.0038(6) -0.0006(7)
C3 0.0354(9) 0.0279(9) 0.0268(9) -0.0078(7) 0.0044(7) -0.0052(7)
C4 0.0412(10) 0.0236(8) 0.0308(9) -0.0039(7) 0.0112(8) -0.0071(7)
C5 0.0341(9) 0.0264(9) 0.0385(10) 0.0047(7) 0.0079(8) -0.0047(8)
C6 0.0288(9) 0.0259(8) 0.0314(9) 0.0014(7) 0.0024(7) -0.0045(7)
C7 0.0250(8) 0.0221(8) 0.0253(8) 0.0034(6) 0.0046(6) -0.0025(6)
C8 0.0238(8) 0.0199(8) 0.0246(8) 0.0026(6) 0.0051(6) -0.0009(6)
C9 0.0215(7) 0.0206(7) 0.0201(8) 0.0001(6) 0.0003(6) -0.0022(6)
C10 0.0238(8) 0.0204(7) 0.0203(8) -0.0006(6) 0.0020(6) -0.0015(6)
C11 0.0257(8) 0.0217(8) 0.0197(8) -0.0011(6) 0.0018(6) -0.0025(6)
C12 0.0284(8) 0.0222(8) 0.0212(8) -0.0013(6) 0.0039(6) -0.0006(6)
C13 0.0226(8) 0.0221(8) 0.0196(8) 0.0004(6) 0.0015(6) -0.0008(6)
C14 0.0439(10) 0.0219(8) 0.0336(10) -0.0047(7) 0.0144(8) -0.0021(7)
C15 0.0250(8) 0.0209(8) 0.0220(8) -0.0012(6) 0.0029(6) -0.0010(6)
C16 0.0274(8) 0.0216(8) 0.0239(8) -0.0006(6) 0.0055(6) -0.0002(6)
C17 0.0282(8) 0.0265(8) 0.0226(8) 0.0001(7) 0.0061(6) -0.0021(6)
C18 0.0299(9) 0.0351(9) 0.0259(9) 0.0013(7) 0.0110(7) 0.0059(7)
C19 0.0599(13) 0.0407(11) 0.0437(12) 0.0131(10) 0.0299(10) 0.0083(9)
C20 0.0239(8) 0.0217(7) 0.0219(8) -0.0019(6) 0.0024(6) -0.0012(6)
C21 0.0339(9) 0.0303(9) 0.0228(8) -0.0013(7) 0.0114(7) -0.0001(7)
C22 0.0303(9) 0.0374(10) 0.0336(10) -0.0015(8) 0.0076(7) 0.0029(8)
loop_
_atom_type_symbol
_atom_type_description
_atom_type_scat_dispersion_real
_atom_type_scat_dispersion_imag
_atom_type_scat_source
C C 0.0181 0.0091 'International Tables Vol C Tables 4.2.6.8 and 6.1.1.4'
H H 0.0000 0.0000 'International Tables Vol C Tables 4.2.6.8 and 6.1.1.4'
N N 0.0311 0.0180 'International Tables Vol C Tables 4.2.6.8 and 6.1.1.4'
O O 0.0492 0.0322 'International Tables Vol C Tables 4.2.6.8 and 6.1.1.4'
S S 0.3331 0.5567 'International Tables Vol C Tables 4.2.6.8 and 6.1.1.4'
loop_
_geom_angle_atom_site_label_1
_geom_angle_atom_site_label_2
_geom_angle_atom_site_label_3
_geom_angle
C11 S1 C16 90.11(8)
C20 O2 C21 116.82(13)
C17 O4 C18 115.82(13)
C12 N1 C11 116.63(14)
C15 N2 H2A 119.6(15)
C15 N2 H2B 119.4(14)
H2A N2 H2B 121(2)
C6 C1 C2 118.27(15)
C6 C1 C7 123.63(15)
C2 C1 C7 118.00(15)
C3 C2 C1 121.34(16)
C3 C2 H2 119.3
C1 C2 H2 119.3
C4 C3 C2 119.90(16)
C4 C3 H3 120.1
C2 C3 H3 120.1
C3 C4 C5 119.62(16)
C3 C4 H4 120.2
C5 C4 H4 120.2
C4 C5 C6 120.36(17)
C4 C5 H5 119.8
C6 C5 H5 119.8
C5 C6 C1 120.48(16)
C5 C6 H6 119.8
C1 C6 H6 119.8
C8 C7 C1 127.15(15)
C8 C7 H7 116.4
C1 C7 H7 116.4
C7 C8 C9 121.31(14)
C7 C8 H8 119.3
C9 C8 H8 119.3
C13 C9 C10 116.98(14)
C13 C9 C8 120.46(14)
C10 C9 C8 122.44(14)
C11 C10 C9 117.36(14)
C11 C10 C15 110.97(14)
C9 C10 C15 131.64(14)
N1 C11 C10 126.14(15)
N1 C11 S1 120.07(12)
C10 C11 S1 113.79(12)
N1 C12 C13 122.07(15)
N1 C12 C14 114.88(14)
C13 C12 C14 123.03(15)
C9 C13 C12 120.71(15)
C9 C13 C20 118.53(14)
C12 C13 C20 120.75(14)
C12 C14 H14A 109.5
C12 C14 H14B 109.5
H14A C14 H14B 109.5
C12 C14 H14C 109.5
H14A C14 H14C 109.5
H14B C14 H14C 109.5
N2 C15 C16 123.83(16)
N2 C15 C10 124.82(15)
C16 C15 C10 111.34(14)
C15 C16 C17 124.61(15)
C15 C16 S1 113.78(12)
C17 C16 S1 121.57(12)
O3 C17 O4 123.05(16)
O3 C17 C16 124.46(16)
O4 C17 C16 112.48(14)
O4 C18 C19 106.91(15)
O4 C18 H18A 110.3
C19 C18 H18A 110.3
O4 C18 H18B 110.3
C19 C18 H18B 110.3
H18A C18 H18B 108.6
C18 C19 H19A 109.5
C18 C19 H19B 109.5
H19A C19 H19B 109.5
C18 C19 H19C 109.5
H19A C19 H19C 109.5
H19B C19 H19C 109.5
O1 C20 O2 123.53(15)
O1 C20 C13 124.74(15)
O2 C20 C13 111.70(13)
O2 C21 C22 111.01(14)
O2 C21 H21A 109.4
C22 C21 H21A 109.4
O2 C21 H21B 109.4
C22 C21 H21B 109.4
H21A C21 H21B 108.0
C21 C22 H22A 109.5
C21 C22 H22B 109.5
H22A C22 H22B 109.5
C21 C22 H22C 109.5
H22A C22 H22C 109.5
H22B C22 H22C 109.5
loop_
_geom_bond_atom_site_label_1
_geom_bond_atom_site_label_2
_geom_bond_distance
S1 C11 1.7297(17)
S1 C16 1.7498(16)
O1 C20 1.209(2)
O2 C20 1.3428(19)
O2 C21 1.4601(19)
O3 C17 1.218(2)
O4 C17 1.346(2)
O4 C18 1.451(2)
N1 C12 1.336(2)
N1 C11 1.339(2)
N2 C15 1.351(2)
N2 H2A 0.84(2)
N2 H2B 0.92(2)
C1 C6 1.393(2)
C1 C2 1.393(2)
C1 C7 1.470(2)
C2 C3 1.385(2)
C2 H2 0.9500
C3 C4 1.381(3)
C3 H3 0.9500
C4 C5 1.389(3)
C4 H4 0.9500
C5 C6 1.389(2)
C5 H5 0.9500
C6 H6 0.9500
C7 C8 1.331(2)
C7 H7 0.9500
C8 C9 1.488(2)
C8 H8 0.9500
C9 C13 1.403(2)
C9 C10 1.409(2)
C10 C11 1.406(2)
C10 C15 1.455(2)
C12 C13 1.421(2)
C12 C14 1.503(2)
C13 C20 1.492(2)
C14 H14A 0.9800
C14 H14B 0.9800
C14 H14C 0.9800
C15 C16 1.386(2)
C16 C17 1.443(2)
C18 C19 1.492(3)
C18 H18A 0.9900
C18 H18B 0.9900
C19 H19A 0.9800
C19 H19B 0.9800
C19 H19C 0.9800
C21 C22 1.503(2)
C21 H21A 0.9900
C21 H21B 0.9900
C22 H22A 0.9800
C22 H22B 0.9800
C22 H22C 0.9800
loop_
_geom_hbond_atom_site_label_D
_geom_hbond_atom_site_label_H
_geom_hbond_atom_site_label_A
_geom_hbond_site_symmetry_A
_geom_hbond_distance_DH
_geom_hbond_distance_HA
_geom_hbond_distance_DA
_geom_hbond_angle_DHA
N2 H2B O3 . 0.92(2) 2.15(2) 2.796(2) 127.0(18)
N2 H2B O3 3_766 0.92(2) 2.20(2) 2.966(2) 140.2(19)
C19 H19B Cg1 3_766 0.98 2.95 3.766(2) 141
C22 H22A Cg2 1_455 0.98 2.95 3.9206(19) 170
C7 H7 O1 1_655 0.95 2.46 3.352(2) 157
loop_
_geom_torsion_atom_site_label_1
_geom_torsion_atom_site_label_2
_geom_torsion_atom_site_label_3
_geom_torsion_atom_site_label_4
_geom_torsion
C6 C1 C2 C3 1.9(3)
C7 C1 C2 C3 -174.57(16)
C1 C2 C3 C4 -0.9(3)
C2 C3 C4 C5 -0.8(3)
C3 C4 C5 C6 1.4(3)
C4 C5 C6 C1 -0.2(3)
C2 C1 C6 C5 -1.4(3)
C7 C1 C6 C5 174.92(17)
C6 C1 C7 C8 -5.4(3)
C2 C1 C7 C8 170.89(17)
C1 C7 C8 C9 -174.13(16)
C7 C8 C9 C13 107.59(19)
C7 C8 C9 C10 -68.3(2)
C13 C9 C10 C11 -1.1(2)
C8 C9 C10 C11 174.93(14)
C13 C9 C10 C15 -179.21(15)
C8 C9 C10 C15 -3.1(3)
C12 N1 C11 C10 -1.2(2)
C12 N1 C11 S1 178.99(12)
C9 C10 C11 N1 2.8(2)
C15 C10 C11 N1 -178.75(15)
C9 C10 C11 S1 -177.40(11)
C15 C10 C11 S1 1.06(17)
C16 S1 C11 N1 179.19(14)
C16 S1 C11 C10 -0.63(13)
C11 N1 C12 C13 -1.9(2)
C11 N1 C12 C14 176.71(14)
C10 C9 C13 C12 -1.7(2)
C8 C9 C13 C12 -177.87(14)
C10 C9 C13 C20 176.70(13)
C8 C9 C13 C20 0.6(2)
N1 C12 C13 C9 3.5(2)
C14 C12 C13 C9 -175.08(15)
N1 C12 C13 C20 -174.94(14)
C14 C12 C13 C20 6.5(2)
C11 C10 C15 N2 177.80(16)
C9 C10 C15 N2 -4.0(3)
C11 C10 C15 C16 -1.02(19)
C9 C10 C15 C16 177.15(16)
N2 C15 C16 C17 -0.5(3)
C10 C15 C16 C17 178.33(15)
N2 C15 C16 S1 -178.27(14)
C10 C15 C16 S1 0.57(18)
C11 S1 C16 C15 0.02(13)
C11 S1 C16 C17 -177.82(14)
C18 O4 C17 O3 0.4(2)
C18 O4 C17 C16 179.71(13)
C15 C16 C17 O3 2.6(3)
S1 C16 C17 O3 -179.77(15)
C15 C16 C17 O4 -176.65(15)
S1 C16 C17 O4 0.9(2)
C17 O4 C18 C19 -174.66(15)
C21 O2 C20 O1 7.0(2)
C21 O2 C20 C13 -174.78(13)
C9 C13 C20 O1 43.9(2)
C12 C13 C20 O1 -137.68(17)
C9 C13 C20 O2 -134.31(14)
C12 C13 C20 O2 44.1(2)
C20 O2 C21 C22 80.53(18)

_cod_database_fobs_code 1542541
