#------------------------------------------------------------------------------
#$Date: 2016-08-07 11:00:38 +0300 (Sun, 07 Aug 2016) $
#$Revision: 185131 $
#$URL: file:///home/coder/svn-repositories/cod/cif/1/54/29/1542968.cif $
#------------------------------------------------------------------------------
#
# This file is available in the Crystallography Open Database (COD),
# http://www.crystallography.net/
#
# All data on this site have been placed in the public domain by the
# contributors.
#
data_1542968
loop_
_publ_author_name
'Huang, Manna'
'Yu, Ruina'
'Xu, Ke'
'Ye, Shuxian'
'Kuang, Shi'
'Zhu, Xinhai'
'Wan, Yiqian'
_publ_section_title
;
 An arch-bridge-type fluorophore for bridging the gap between
 aggregation-caused quenching (ACQ) and aggregation-induced emission (AIE)
;
_journal_issue                   7
_journal_name_full               'Chem. Sci.'
_journal_page_first              4485
_journal_paper_doi               10.1039/C6SC01254J
_journal_volume                  7
_journal_year                    2016
_chemical_formula_sum            'C24 H20 Cl N3 O2 S3'
_chemical_formula_weight         514.07
_chemical_name_systematic
N-(2-(8-(2-chlorophenyl)-6-isopropylthiazolo[5,4-b]thieno[3,2-e]pyridin-2-yl)phenyl)methanesulfonamide
_space_group_crystal_system      triclinic
_space_group_IT_number           2
_space_group_name_Hall           '-P 1'
_space_group_name_H-M_alt        'P -1'
_symmetry_space_group_name_Hall  '-P 1'
_symmetry_space_group_name_H-M   'P -1'
_atom_sites_solution_hydrogens   mixed
_audit_creation_method           SHELXL-2014/7
_audit_update_record
;
2015-11-08 deposited with the CCDC.
2016-03-29 downloaded from the CCDC.
;
_cell_angle_alpha                87.285(5)
_cell_angle_beta                 86.081(5)
_cell_angle_gamma                83.966(5)
_cell_formula_units_Z            2
_cell_length_a                   9.5948(6)
_cell_length_b                   10.3128(7)
_cell_length_c                   12.0188(8)
_cell_measurement_reflns_used    2482
_cell_measurement_temperature    293(10)
_cell_measurement_theta_max      60.7250
_cell_measurement_theta_min      3.6460
_cell_volume                     1178.93(13)
_computing_cell_refinement       'Bruker FRAMBO'
_computing_data_collection       'Bruker FRAMBO'
_computing_data_reduction        'Bruker SAINT'
_computing_molecular_graphics    'Bruker SHELXTL'
_computing_publication_material  'Bruker SHELXTL'
_computing_structure_refinement  'SHELXL-2014/7 (Sheldrick, 2014)'
_computing_structure_solution    'Bruker SHELXTL'
_diffrn_ambient_temperature      293(2)
_diffrn_detector_area_resol_mean 16.0855
_diffrn_measured_fraction_theta_full 0.979
_diffrn_measured_fraction_theta_max 0.979
_diffrn_measurement_device_type  'Xcalibur, Sapphire3, Gemini ultra'
_diffrn_measurement_method       'phi and omega scans'
_diffrn_radiation_type           CuK\a
_diffrn_radiation_wavelength     1.54178
_diffrn_reflns_av_R_equivalents  0.0307
_diffrn_reflns_av_unetI/netI     0.0420
_diffrn_reflns_Laue_measured_fraction_full 0.979
_diffrn_reflns_Laue_measured_fraction_max 0.979
_diffrn_reflns_limit_h_max       7
_diffrn_reflns_limit_h_min       -10
_diffrn_reflns_limit_k_max       11
_diffrn_reflns_limit_k_min       -11
_diffrn_reflns_limit_l_max       13
_diffrn_reflns_limit_l_min       -13
_diffrn_reflns_number            6797
_diffrn_reflns_point_group_measured_fraction_full 0.979
_diffrn_reflns_point_group_measured_fraction_max 0.979
_diffrn_reflns_theta_full        61.136
_diffrn_reflns_theta_max         61.136
_diffrn_reflns_theta_min         3.689
_diffrn_source                   'Enhance Ultra (Cu) X-ray Source'
_exptl_absorpt_coefficient_mu    4.147
_exptl_absorpt_correction_T_max  1.00000
_exptl_absorpt_correction_T_min  0.13818
_exptl_absorpt_correction_type   multi-scan
_exptl_crystal_colour            colorless
_exptl_crystal_density_diffrn    1.448
_exptl_crystal_description       block
_exptl_crystal_F_000             532
_exptl_crystal_recrystallization_method
'Re-crystallisation from solvent: THF/EtOH'
_exptl_crystal_size_max          0.15
_exptl_crystal_size_mid          0.12
_exptl_crystal_size_min          0.10
_refine_diff_density_max         0.591
_refine_diff_density_min         -0.510
_refine_diff_density_rms         0.062
_refine_ls_extinction_method     none
_refine_ls_goodness_of_fit_ref   1.046
_refine_ls_hydrogen_treatment    constr
_refine_ls_matrix_type           full
_refine_ls_number_parameters     266
_refine_ls_number_reflns         3550
_refine_ls_number_restraints     1
_refine_ls_restrained_S_all      1.046
_refine_ls_R_factor_all          0.0756
_refine_ls_R_factor_gt           0.0651
_refine_ls_shift/su_max          0.000
_refine_ls_shift/su_mean         0.000
_refine_ls_structure_factor_coef Fsqd
_refine_ls_weighting_details
'w=1/[\s^2^(Fo^2^)+(0.0884P)^2^+1.2481P] where P=(Fo^2^+2Fc^2^)/3'
_refine_ls_weighting_scheme      calc
_refine_ls_wR_factor_gt          0.1708
_refine_ls_wR_factor_ref         0.1820
_reflns_Friedel_coverage         0.000
_reflns_number_gt                2945
_reflns_number_total             3550
_reflns_threshold_expression     'I > 2\s(I)'
_cod_data_source_file            c6sc01254j2.cif
_cod_data_source_block           added_by_encifer
_cod_depositor_comments
'Adding full bibliography for 1542965--1542969.cif.'
_cod_database_code               1542968
_shelx_shelxl_version_number     2014/7
_shelx_space_group_comment
; 
The symmetry employed for this shelxl refinement is uniquely defined 
by the following loop, which should always be used as a source of 
symmetry information in preference to the above space-group names. 
They are only intended as comments. 
;
_shelx_res_file
; 
  
    exp_20322.res created by SHELXL-2014/7 
  
TITL exp_20322 in P-1 
CELL 1.54178   9.5948  10.3128  12.0188  87.285  86.081  83.966 
ZERR    2.00   0.0006   0.0007   0.0008   0.005   0.005   0.005 
LATT 1 
SFAC C  H  N  O  S  Cl 
UNIT 48 40 6 4 6 2 
L.S. 20 
ACTA 
BOND 
FMAP 2 
PLAN 0 
EADP CL1 CL1' 
EADP C20 C20' C21 C21' C22 C22' C23 C23' C24 C24' C25 C25' 
SADI C25 CL1 C25' CL1' 
WGHT    0.088400    1.248100 
FVAR       6.25927   0.54931 
S1    5    0.624129    0.915649    0.106794    11.00000    0.06627    0.05305 = 
         0.07501   -0.00367    0.00199   -0.02463 
S2    5    0.325548    0.582252   -0.086581    11.00000    0.07043    0.05618 = 
         0.05387   -0.01087    0.00346   -0.01628 
S3    5    0.123741    0.183890    0.248520    11.00000    0.07592    0.06062 = 
         0.07079    0.00087    0.00441   -0.02921 
N1    3    0.474640    0.752568    0.007181    11.00000    0.06335    0.04853 = 
         0.05955   -0.00518    0.00395   -0.01574 
N2    3    0.088944    0.311596    0.164875    11.00000    0.07148    0.05096 = 
         0.07144   -0.00972    0.00068   -0.01417 
AFIX   3 
H2D   2    0.005734    0.350946    0.190965    11.00000   -1.20000 
AFIX   0 
O1    4    0.023651    0.094375    0.240788    11.00000    0.09564    0.07326 = 
         0.12232    0.00749    0.00255   -0.04537 
O2    4    0.138091    0.236737    0.353668    11.00000    0.18600    0.09317 = 
         0.06723    0.00367   -0.00507   -0.04923 
C1    1    0.732247    0.940912    0.425325    11.00000    0.16196    0.10060 = 
         0.10881    0.00120   -0.05793   -0.06633 
AFIX  33 
H1A   2    0.767446    0.850272    0.425062    11.00000   -1.50000 
H1B   2    0.799967    0.989857    0.454974    11.00000   -1.50000 
H1C   2    0.645925    0.951231    0.470838    11.00000   -1.50000 
AFIX   0 
C2    1    0.651218    1.130741    0.301622    11.00000    0.14203    0.05617 = 
         0.15837   -0.01832   -0.05823   -0.03149 
AFIX  33 
H2A   2    0.636991    1.155748    0.224950    11.00000   -1.50000 
H2B   2    0.563568    1.144167    0.345083    11.00000   -1.50000 
H2C   2    0.717611    1.182792    0.329219    11.00000   -1.50000 
AFIX   0 
C3    1    0.706784    0.989049    0.310414    11.00000    0.07559    0.06323 = 
         0.09202   -0.00623   -0.01445   -0.02893 
AFIX  13 
H3A   2    0.798764    0.981954    0.269131    11.00000   -1.20000 
AFIX   0 
C4    1    0.616992    0.905378    0.251483    11.00000    0.06018    0.04590 = 
         0.08004   -0.00685   -0.00893   -0.01197 
C5    1    0.529434    0.818541    0.294625    11.00000    0.06359    0.05088 = 
         0.06541   -0.00648   -0.00617   -0.01815 
AFIX  43 
H5A   2    0.512552    0.802451    0.370890    11.00000   -1.20000 
AFIX   0 
C6    1    0.465090    0.753625    0.211613    11.00000    0.05162    0.04020 = 
         0.06203   -0.00592   -0.00288   -0.00858 
C7    1    0.370800    0.658404    0.223712    11.00000    0.05497    0.04495 = 
         0.05719   -0.00210   -0.00395   -0.01286 
C8    1    0.334244    0.609258    0.124898    11.00000    0.05057    0.04062 = 
         0.05155   -0.00727   -0.00066   -0.00853 
N9    3    0.246112    0.512568    0.116584    11.00000    0.05548    0.04306 = 
         0.05759   -0.00715   -0.00307   -0.01274 
C10   1    0.231857    0.488136    0.012526    11.00000    0.05457    0.04089 = 
         0.05584   -0.00895   -0.00240   -0.00510 
C11   1    0.147544    0.390730   -0.025439    11.00000    0.05426    0.04179 = 
         0.06382   -0.01454   -0.00615   -0.00249 
C12   1    0.079902    0.303544    0.048154    11.00000    0.05266    0.04444 = 
         0.07234   -0.01339   -0.00520   -0.00535 
C13   1    0.000995    0.213055    0.005370    11.00000    0.06501    0.04957 = 
         0.09246   -0.01373   -0.01210   -0.01265 
AFIX  43 
H13A  2   -0.045382    0.156247    0.053623    11.00000   -1.20000 
AFIX   0 
C14   1   -0.008064    0.208023   -0.108068    11.00000    0.06844    0.05953 = 
         0.10159   -0.02768   -0.02276   -0.00629 
AFIX  43 
H14A  2   -0.058565    0.145812   -0.135771    11.00000   -1.20000 
AFIX   0 
C15   1    0.055441    0.292317   -0.180548    11.00000    0.07969    0.06541 = 
         0.07837   -0.02238   -0.01871   -0.00397 
AFIX  43 
H15A  2    0.047265    0.288690   -0.256969    11.00000   -1.20000 
AFIX   0 
C16   1    0.132317    0.383479   -0.139184    11.00000    0.07327    0.05856 = 
         0.07052   -0.01385   -0.01304   -0.01009 
AFIX  43 
H16A  2    0.174963    0.441476   -0.188786    11.00000   -1.20000 
AFIX   0 
C17   1    0.387701    0.659803    0.022336    11.00000    0.05517    0.04461 = 
         0.05417   -0.01098    0.00329   -0.00729 
C18   1    0.510686    0.795928    0.103090    11.00000    0.05403    0.04117 = 
         0.06642   -0.00431    0.00347   -0.00948 
C19   1    0.284513    0.110932    0.198173    11.00000    0.07600    0.11602 = 
         0.13217    0.04221    0.00428    0.00756 
AFIX  33 
H19A  2    0.354706    0.170010    0.202525    11.00000   -1.50000 
H19B  2    0.309206    0.032791    0.242156    11.00000   -1.50000 
H19C  2    0.278985    0.089447    0.121857    11.00000   -1.50000 
PART 1 
AFIX   0 
CL1   6    0.166865    0.816292    0.376210    21.00000    0.09230    0.06978 = 
         0.09155   -0.01757    0.00707   -0.00367 
AFIX  66 
C20   1    0.327452    0.594374    0.332054    21.00000    0.10520    0.08643 = 
         0.05354   -0.00365    0.00258   -0.04579 
C21   1    0.384295    0.467895    0.358130    21.00000    0.10520    0.08643 = 
         0.05354   -0.00365    0.00258   -0.04579 
AFIX  43 
H21A  2    0.447202    0.423549    0.307287    21.00000   -1.20000 
AFIX  65 
C22   1    0.347114    0.407696    0.460195    21.00000    0.10520    0.08643 = 
         0.05354   -0.00365    0.00258   -0.04579 
AFIX  43 
H22A  2    0.385146    0.323073    0.477641    21.00000   -1.20000 
AFIX  65 
C23   1    0.253091    0.473976    0.536186    21.00000    0.10520    0.08643 = 
         0.05354   -0.00365    0.00258   -0.04579 
AFIX  43 
H23A  2    0.228216    0.433698    0.604475    21.00000   -1.20000 
AFIX  65 
C24   1    0.196248    0.600455    0.510112    21.00000    0.10520    0.08643 = 
         0.05354   -0.00365    0.00258   -0.04579 
AFIX  43 
H24A  2    0.133340    0.644800    0.560956    21.00000   -1.20000 
AFIX  65 
C25   1    0.233427    0.660655    0.408047    21.00000    0.10520    0.08643 = 
         0.05354   -0.00365    0.00258   -0.04579 
PART 2 
AFIX   0 
CL1'  6    0.445057    0.401110    0.346200   -21.00000    0.09230    0.06978 = 
         0.09155   -0.01757    0.00707   -0.00367 
AFIX  66 
C20'  1    0.294680    0.634787    0.339633   -21.00000    0.10520    0.08643 = 
         0.05354   -0.00365    0.00258   -0.04579 
C21'  1    0.196610    0.730670    0.383906   -21.00000    0.10520    0.08643 = 
         0.05354   -0.00365    0.00258   -0.04579 
AFIX  43 
H21B  2    0.181999    0.811626    0.346735   -21.00000   -1.20000 
AFIX  65 
C22'  1    0.120380    0.705553    0.483735   -21.00000    0.10520    0.08643 = 
         0.05354   -0.00365    0.00258   -0.04579 
AFIX  43 
H22B  2    0.054765    0.769706    0.513356   -21.00000   -1.20000 
AFIX  65 
C23'  1    0.142218    0.584554    0.539293   -21.00000    0.10520    0.08643 = 
         0.05354   -0.00365    0.00258   -0.04579 
AFIX  43 
H23B  2    0.091214    0.567751    0.606085   -21.00000   -1.20000 
AFIX  65 
C24'  1    0.240286    0.488671    0.495021   -21.00000    0.10520    0.08643 = 
         0.05354   -0.00365    0.00258   -0.04579 
AFIX  43 
H24B  2    0.254897    0.407715    0.532193   -21.00000   -1.20000 
AFIX  65 
C25'  1    0.316518    0.513786    0.395192   -21.00000    0.10520    0.08643 = 
         0.05354   -0.00365    0.00258   -0.04579 
PART 0 
AFIX   0 
HKLF 4 
  
REM  exp_20322 in P-1 
REM R1 =  0.0651 for    2945 Fo > 4sig(Fo)  and  0.0756 for all    3550 data 
REM    266 parameters refined using      1 restraints 
  
END 
  
WGHT      0.0884      1.2486 
  
REM Highest difference peak  0.591,  deepest hole -0.510,  1-sigma level  0.062 
Q1    1   0.4967  0.4267  0.3801  11.00000  0.05    0.59 
Q2    1   0.4198  0.3775  0.3042  11.00000  0.05    0.53 
Q3    1   0.1406  0.3840  0.1819  11.00000  0.05    0.41 
Q4    1   0.1028  0.6573  0.5044  11.00000  0.05    0.32 
Q5    1   0.1604  0.8432  0.3590  11.00000  0.05    0.30 
Q6    1   0.1350  0.7403  0.4552  11.00000  0.05    0.27 
Q7    1   0.2723  0.5400 -0.0372  11.00000  0.05    0.25 
Q8    1   0.3856  0.5812 -0.1622  11.00000  0.05    0.24 
Q9    1   0.0699  0.2043  0.3255  11.00000  0.05    0.24 
Q10   1   0.5802  0.9247  0.1847  11.00000  0.05    0.24 
Q11   1   0.3327  0.4519  0.5259  11.00000  0.05    0.23 
Q12   1   0.6536  1.0037  0.3860  11.00000  0.05    0.23 
Q13   1   0.2010  0.4870  0.1676  11.00000  0.05    0.23 
Q14   1   0.0702  0.0723  0.1709  11.00000  0.05    0.21 
Q15   1   0.2153  0.1823  0.3259  11.00000  0.05    0.20 
Q16   1   0.2710  0.5359  0.5257  11.00000  0.05    0.20 
Q17   1   0.4764  0.7804  0.1620  11.00000  0.05    0.19 
Q18   1   0.1618  0.5144  0.5468  11.00000  0.05    0.19 
Q19   1   0.7247  0.8456  0.0623  11.00000  0.05    0.18 
Q20   1   0.5586  0.9109  0.2803  11.00000  0.05    0.18 
;
_shelx_res_checksum              44118
_shelx_hkl_file
; 
   0   0  -1 191269. 1365.37   2 
   0   0  -1 189347. 1401.85   1 
   0   0   1 188562. 1332.52   3 
   0   0  -2 3626.17 280.906   2 
   0   0  -2 3463.97 278.377   1 
   0   0  -3 8404.83 539.164   1 
   0   0  -3 8289.39 524.335   2 
   0   0  -4 4094.60 464.785   1 
   0   0  -4 4590.41 462.279   2 
   0   0  -5 6779.49 663.241   1 
   0   0  -5 8196.22 681.448   2 
   0   0  -6 2833.12 513.744   1 
   0   0  -6 2203.42 397.282   2 
   0   0  -7 5960.91 318.577   6 
   0   0  -8 40648.9 915.937   6 
   0   0  -9 17127.0 654.692   6 
   0   0 -10 2909.01 300.307   6 
   0   0 -11 3738.74 349.807   6 
   0   0 -11 3223.71 324.022   9 
   0   0 -12 1624.74 241.674   6 
   0   0 -13 113.299 98.3487   6 
   0   0 -13-23.0632 102.994   5 
   0   1 -13 17.5771 86.8313   6 
   0   1 -12 634.148 165.114   6 
   0   1 -11 13880.7 664.011   6 
   0   1 -10 3134.93 312.647   6 
   0   1  -9 557.355 126.823   6 
   0   1  -8 417.833 119.456   6 
   0   1  -7 10799.6 434.244   6 
   0   1  -6 15442.7 1111.71   2 
   0   1  -5 9170.26 766.375   2 
   0   1  -5 7501.99 601.149   1 
   0   1  -4 30078.2 1068.01   1 
   0  -1   4 31103.8 1042.39   3 
   0   1  -4 30455.6 1223.96   2 
   0   1  -3 53448.7 1415.71   2 
   0  -1   3 49987.2 1137.02   3 
   0  -1   2 378053. 2710.80   3 
   0   1  -2 392864. 3363.18   2 
   0  -1   1 40180.7 780.919   3 
   0  -1   0 59486.7 1638.72   1 
   0  -1  -1 3911.64 457.649   1 
   0  -1  -2 155088. 2717.66   1 
   0  -1  -2 140051. 1857.91   2 
   0  -1  -3 86023.1 2290.60   1 
   0  -1  -3 82348.8 1672.33   2 
   0  -1  -4 3538.67 545.103   1 
   0  -1  -4 2936.93 365.608   2 
   0  -1  -5 15728.2 924.356   2 
   0  -1  -5 15108.6 1306.40   1 
   0  -1  -6 46526.0 2752.12   1 
   0  -1  -7 193.543 75.7235   6 
   0  -1  -7 239.115 321.176   1 
   0  -1  -8 3267.38 269.540   6 
   0  -1  -9 643.982 155.277   6 
   0  -1  -9 793.373 162.982   9 
   0  -1 -10 2876.87 296.063   9 
   0  -1 -10 2947.63 310.331   6 
   0  -1 -11 11825.6 622.064   6 
   0  -1 -12 37.7292 97.9048   6 
   0  -1 -12-26.0754 109.619   5 
   0  -1 -13 372.288 129.381   5 
   0   2 -13 96.2263 77.6167   6 
   0   2 -12 962.307 186.101   6 
   0   2 -11 150.298 116.803   6 
   0   2 -10 15269.6 670.959   6 
   0   2  -9 18047.6 685.624   6 
   0   2  -8 2829.56 252.245   6 
   0   2  -7 5364.60 322.014   6 
   0  -2   7 5075.71 348.729   5 
   0   2  -6 2175.52 463.979   2 
   0   2  -5 22809.7 1008.30   1 
   0   2  -5 25940.3 1391.10   2 
   0   2  -4 70427.5 2098.46   2 
   0  -2   4 77669.2 1685.35   3 
   0  -2   3 359003. 3460.51   3 
   0   2  -3 358100. 4341.70   2 
   0  -2   2 20304.5 788.435   3 
   0  -2   1 962.927 201.008   3 
   0  -2   0 34945.7 1660.63   1 
   0  -2  -1 42342.7 2482.96   1 
   0  -2  -2 43364.8 2576.28   1 
   0  -2  -3 114743. 4262.71   1 
   0  -2  -4 1540.10 579.506   1 
   0  -2  -5 110249. 5126.06   1 
   0  -2  -6 30696.8 3118.36   1 
   0  -2  -7 1912.19 200.027   9 
   0  -2  -7 2202.10 204.797   6 
   0  -2  -8 24250.4 744.690   6 
   0  -2  -8 23824.7 731.513   9 
   0  -2  -9 3094.21 285.709   9 
   0  -2  -9 3340.91 310.966   6 
   0  -2 -10 4569.90 378.810   6 
   0  -2 -11 204.027 139.301   5 
   0  -2 -12 1132.92 241.560   5 
   0  -2 -13 38.3775 78.1623   5 
   0   3 -13 55.9973 76.0928   6 
   0   3 -12 265.337 110.787   6 
   0   3 -11 805.160 172.556   6 
   0   3 -10 6183.88 443.717   6 
   0   3  -9 8421.25 482.874   6 
   0  -3   8 35242.6 1026.64   5 
   0   3  -8 33242.2 897.783   6 
   0   3  -7 2848.20 591.137   2 
   0   3  -7 2920.59 255.922   6 
   0  -3   7 2962.67 278.807   5 
   0   3  -6 38989.5 2034.79   2 
   0   3  -6 40834.1 853.764   6 
   0  -3   6 42680.7 948.303   5 
   0   3  -5 14568.6 1151.27   2 
   0   3  -4 2570.34 467.318   2 
   0  -3   4 2714.83 362.482   3 
   0  -3   3 23104.2 1037.07   3 
   0  -3   2 4218.49 448.840   3 
   0  -3   1 6452.42 654.422   3 
   0  -3   0 52584.2 2302.67   1 
   0  -3  -1 557.029 364.452   1 
   0  -3  -2 18938.5 2044.82   1 
   0  -3  -3 3160.43 978.883   1 
   0  -3  -4 44.0379 392.334   1 
   0  -3  -5-70.4845 679.594   1 
   0  -3  -6 1186.42 1100.78   1 
   0  -3  -6 1986.17 230.095   5 
   0  -3  -7 286.118 111.080   5 
   0  -3  -7 421.124 661.660   1 
   0  -3  -7 241.553 99.5706   6 
   0  -3  -7 236.944 80.9528   9 
   0  -3  -8 2689.75 338.269   5 
   0  -3  -8 3154.67 273.277   9 
   0  -3  -8 3340.91 297.957   6 
   0  -3  -9 3777.05 402.172   5 
   0  -3 -10 5373.85 474.857   5 
   0  -3 -11 1826.06 285.211   5 
   0  -3 -12 30.7945 72.5369   5 
   0  -3 -13 234.278 100.025   5 
   0   4 -12 1236.04 187.781   6 
   0   4 -11 1472.86 218.641   6 
   0   4 -10 527.947 146.388   6 
   0   4  -9 460.937 140.700   6 
   0  -4   8 11101.5 603.534   5 
   0   4  -8 11523.5 554.924   6 
   0   4  -7 12069.7 540.210   6 
   0  -4   7 13638.3 618.905   5 
   0   4  -7 11652.5 1275.15   2 
   0   4  -6 9632.31 1121.15   2 
   0   4  -6 10025.4 461.223   6 
   0  -4   6 8930.23 473.049   5 
   0  -4   5 1504.77 177.989   5 
   0   4  -5 1765.68 181.663   6 
   0   4  -5 1673.25 435.076   2 
   0   4  -4 1143.37 359.414   2 
   0  -4   3 6701.20 659.188   3 
   0  -4   2 17336.4 1108.63   3 
   0  -4   1 45619.4 1958.61   3 
   0  -4   0 26580.4 1780.84   1 
   0  -4  -1 14651.0 1544.45   1 
   0  -4  -2 24644.4 2346.15   1 
   0  -4  -3 3322.54 1047.86   1 
   0  -4  -4 6688.33 1634.36   1 
   0  -4  -5 73215.7 5754.62   1 
   0  -4  -5 88469.9 1390.68   5 
   0  -4  -6 6134.32 1813.65   1 
   0  -4  -6 5821.59 343.105   9 
   0  -4  -6 6528.81 424.785   5 
   0  -4  -7 2914.69 329.441   5 
   0  -4  -7 2931.45 259.173   9 
   0  -4  -7 3148.37 1317.72   1 
   0  -4  -8 6471.20 1801.72   1 
   0  -4  -8 9526.78 594.012   5 
   0  -4  -9 620.947 170.795   5 
   0  -4 -10 878.806 209.674   5 
   0  -4 -11 254.227 134.092   5 
   0  -4 -12 75.3591 80.3087   5 
   0   5 -12 347.033 103.678   6 
   0   5 -11-60.9846 76.7660   6 
   0   5 -10 1482.44 218.289   6 
   0   5  -9 474.666 140.878   6 
   0  -5   9 425.429 147.199   5 
   0   5  -8 43.4534 76.0371   6 
   0  -5   8 25.5737 89.6653   5 
   0   5  -7 246.052 219.202   2 
   0  -5   7 82.7328 73.1843   5 
   0   5  -7 95.1664 71.1032   6 
   0   5  -6 987.045 165.488   6 
   0   5  -6 1284.86 433.476   2 
   0  -5   6 1030.85 171.831   5 
   0   5  -5 13255.2 522.934   6 
   0  -5   5 11938.7 539.759   5 
   0   5  -5 13498.7 1365.77   2 
   0   5  -4 764.791 326.727   2 
   0  -5   4 947.891 144.505   5 
   0   5  -4 863.706 132.837   6 
   0  -5   3 63482.3 2311.33   3 
   0  -5   3 60621.6 1026.30   5 
   0  -5   2 5191.86 729.809   3 
   0  -5   1 12023.0 1176.88   3 
   0  -5   0 21759.1 1723.69   3 
   0  -5  -1 1068.82 455.734   1 
   0  -5  -2 3504.28 853.900   1 
   0  -5  -3 9144.15 1555.13   1 
   0  -5  -4 18458.7 2474.39   1 
   0  -5  -4 20163.1 660.503   5 
   0   5   5 2296.75 195.561  13 
   0  -5  -5 2549.19 255.327   5 
   0  -5  -5 2757.09 234.900   9 
   0  -5  -6 7584.57 484.484   5 
   0  -5  -6 6613.14 385.954   9 
   0  -5  -6 5857.33 1707.29   1 
   0  -5  -7 3804.87 1339.96   1 
   0  -5  -7 5596.58 441.833   5 
   0  -5  -8 1069.71 230.593   5 
   0  -5  -9 300.616 133.825   5 
   0  -5 -10 160.548 94.9075   5 
   0  -5 -11 690.575 182.586   5 
   0  -5 -12-33.6568 75.6453   5 
   0   6 -11 3326.91 276.993   6 
   0   6 -10 2250.32 252.644   6 
   0   6  -9 1396.02 209.679   6 
   0  -6   9 1250.97 240.068   5 
   0   6  -8 145.794 109.811   6 
   0  -6   8 168.437 99.9549   5 
   0  -6   7 1310.76 225.185   5 
   0   6  -7 1285.76 210.749   6 
   0   6  -6 1014.69 179.534   6 
   0  -6   6 834.593 174.519   5 
   0   6  -5 13166.0 557.358   6 
   0  -6   5 13134.5 603.742   5 
   0   6  -5 12718.0 1449.73   2 
   0   6  -4 4313.02 310.950   6 
   0  -6   4 4634.41 342.902   5 
   0   6  -4 5199.68 913.259   2 
   0  -6   3 2691.46 245.323   5 
   0  -6   2 22523.9 1634.50   3 
   0  -6   2 20729.0 645.413   5 
   0  -6   1 31358.8 795.623   5 
   0  -6   1 33793.5 2135.12   3 
   0  -6   0 11966.5 1357.15   3 
   0  -6   0 11231.5 459.316   5 
   0  -6  -1 1420.99 513.516   3 
   0  -6  -1 968.539 137.336   5 
   0  -6  -2 483.733 111.062   5 
   0   6   2 698.732 121.766  10 
   0  -6  -2 798.125 441.581   1 
   0   6   3 24093.6 677.869  10 
   0  -6  -3 24078.1 731.702   5 
   0  -6  -4 30455.9 885.988   5 
   0  -6  -4 29494.4 2947.11   1 
   0   6   4 29279.3 775.832  10 
   0   6   4 28806.3 743.601  13 
   0  -6  -5 4728.70 372.015   5 
   0  -6  -5 3922.90 1194.56   1 
   0   6   5 4389.42 319.475  10 
   0   6   5 3773.59 273.503  13 
   0  -6  -6 1752.41 249.453   5 
   0   6   6 1875.16 225.611  10 
   0  -6  -6 2163.64 924.470   1 
   0  -6  -7 6237.52 488.150   5 
   0  -6  -8 2226.54 301.299   5 
   0  -6  -9 5706.56 469.879   5 
   0   6  10 137.610 73.0420  10 
   0  -6 -10-70.3652 77.8103   5 
   0  -6 -11 674.394 152.286   5 
   0   6  11 548.025 113.242  10 
   0   7 -10 266.234 106.614   6 
   0   7  -9 72.9967 72.6311   6 
   0  -7   9 12.6233 73.7817   5 
   0  -7   8 2259.38 306.474   5 
   0   7  -8 2253.93 256.295   6 
   0   7  -7 4584.60 370.952   6 
   0  -7   7 4404.31 402.586   5 
   0  -7   6 331.284 137.368   5 
   0   7  -6 322.443 121.940   6 
   0  -7   5 316.172 123.735   5 
   0   7  -5 240.412 97.4266   6 
   0   7  -4 280.447 91.2520   6 
   0  -7   4 566.034 148.275   5 
   0  -7   3 2283.41 249.990   5 
   0  -7   2 11740.8 542.031   5 
   0  -7   1 3493.39 295.360   5 
   0   7  -1 3012.85 296.487  10 
   0  -7   0 13412.9 560.148   5 
   0   7   0 12400.7 560.770  10 
   0  -7   0 13219.6 1528.39   3 
   0   7   1 6121.08 374.587  10 
   0  -7  -1 5999.59 1063.04   3 
   0  -7  -1 6396.65 385.932   5 
   0   7   2 24432.8 734.579  10 
   0  -7  -2 23303.5 2207.49   3 
   0  -7  -2 24718.2 772.561   5 
   0   7   3 4861.90 334.662  10 
   0  -7  -3 3874.21 964.068   1 
   0  -7  -3 4665.08 365.086   5 
   0  -7  -4 729.856 156.047   5 
   0   7   4 864.387 149.538  10 
   0   7   5 5986.96 384.661  10 
   0  -7  -5 5425.22 426.561   5 
   0  -7  -6 611.935 165.411   5 
   0   7   6 738.227 152.696  10 
   0  -7  -7 2134.18 288.719   5 
   0   7   7 1994.32 241.805  10 
   0  -7  -8 22597.9 907.723   5 
   0   7   8 23246.3 810.559  10 
   0   7   9 16259.8 656.686  10 
   0  -7  -9 15744.7 753.337   5 
   0  -7 -10 4124.87 356.986   5 
   0  -7 -11 1062.85 171.331   5 
   0   8  -9-71.4310 68.2111   6 
   0  -8   8 2932.46 312.319   5 
   0   8  -8 3245.47 283.309   6 
   0   8  -7 1314.63 188.535   6 
   0  -8   7 1297.78 225.433   5 
   0  -8   6 2946.65 325.976   5 
   0   8  -6 3432.39 314.753   6 
   0  -8   5 5757.72 440.239   5 
   0   8  -5 5726.76 389.545   6 
   0   8  -4 3654.75 305.391   6 
   0  -8   4 3337.10 326.996   5 
   0  -8   3 14440.9 658.563   5 
   0   8  -3 14148.0 585.440   6 
   0  -8   2 13013.8 615.719   5 
   0  -8   1 4232.81 345.781   5 
   0  -8   0 4332.52 347.309   5 
   0  -8  -1 8775.89 491.000   5 
   0  -8  -2 4300.67 362.015   5 
   0  -8  -3 3924.86 346.735   5 
   0  -8  -4 1061.47 203.027   5 
   0  -8  -5 305.004 135.927   5 
   0  -8  -6 18576.6 828.092   5 
   0  -8  -7 16030.9 750.736   5 
   0  -8  -8 5481.08 440.940   5 
   0  -8  -9 4529.69 369.278   5 
   0  -8 -10 125.699 71.3196   5 
   0  -9   8 150.445 93.5372   5 
   0   9  -7 415.366 115.765   6 
   0  -9   7 385.810 122.451   5 
   0   9  -6 1202.18 173.440   6 
   0  -9   6 996.977 196.482   5 
   0   9  -5 1546.91 201.936   6 
   0  -9   5 1278.74 217.027   5 
   0   9  -4 1312.17 192.210   6 
   0  -9   4 958.017 187.696   5 
   0  -9   3 957.765 179.132   5 
   0   9  -3 806.166 152.324   6 
   0  -9   2 469.605 130.261   5 
   0  -9   1 489.111 131.276   5 
   0  -9   0 2394.29 273.440   5 
   0  -9  -1 2737.42 302.661   5 
   0  -9  -2 360.733 113.450   5 
   0  -9  -3 557.930 154.739   5 
   0  -9  -4 429.973 138.290   5 
   0  -9  -5 5039.66 413.497   5 
   0  -9  -6 371.335 125.728   5 
   0  -9  -7-96.6845 79.1140   5 
   0  -9  -8 1253.90 197.310   5 
   0  -9  -9-34.2548 69.8179   5 
   0 -10   6 2322.94 239.186   5 
   0 -10   5 6965.74 431.690   5 
   0 -10   4-17.3207 64.1240   5 
   0 -10   3 6083.07 423.590   5 
   0 -10   2 1744.47 229.400   5 
   0 -10   1 7709.46 482.629   5 
   0 -10   0 18868.1 747.970   5 
   0 -10  -1-41.9985 91.1966   5 
   0 -10  -2 1860.21 241.945   5 
   0 -10  -3 13187.8 637.790   5 
   0 -10  -4 5935.21 429.968   5 
   0 -10  -5 586.850 155.857   5 
   0 -10  -6 99.9241 77.5379   5 
   0 -10  -7 494.106 120.934   5 
   0 -11   3 1027.94 150.275   5 
   0 -11   2 5214.87 354.241   5 
   0 -11   1 300.437 96.2841   5 
   0 -11   0-67.0165 64.1417   5 
   0 -11  -1 423.707 114.643   5 
   0 -11  -2 752.907 143.920   5 
   0 -11  -3 580.746 134.487   5 
   0 -11  -4 378.555 107.391   5 
   1 -11  -3 302.637 113.671   5 
   1 -11  -2 678.445 134.715   5 
   1 -11  -1 472.967 117.046   5 
   1 -11   0 1253.27 180.391   5 
   1 -11   1 472.205 117.441   5 
  -1  11  -1 289.225 83.9293  17 
   1 -11   2 127.430 65.9905   5 
   1 -11   3 1581.97 183.355   5 
   1 -10  -6 347.244 108.179   5 
   1 -10  -5 9202.04 517.176   5 
   1 -10  -4 2352.90 276.935   5 
   1 -10  -3 114.803 84.7565   5 
   1 -10  -2-81.8464 68.7453   5 
   1 -10  -1 140.945 100.994   5 
   1 -10   0 690.963 147.305   5 
   1 -10   1 2303.49 262.652   5 
   1 -10   2 29.2002 64.9511   5 
   1 -10   3 155.851 74.3644   5 
   1 -10   4 590.258 144.241   5 
   1 -10   5 2913.42 271.186   5 
   1 -10   6 3975.26 292.571   5 
   1  -9  -8 58.3168 74.7696   5 
   1  -9  -7 179.539 94.4314   5 
  -1   9   7 125.812 71.2152  10 
  -1   9   6 84.9770 70.6767  10 
   1  -9  -6 42.3135 74.7463   5 
   1  -9  -5 0.91476 78.1185   5 
  -1   9   5 5.39627 52.2875  10 
   1  -9  -4 3232.81 334.738   5 
  -1   9   4 3219.61 299.233  10 
   1  -9  -3 80.3299 98.0431   5 
  -1   9   3 175.358 93.8221  10 
   1  -9  -2 8841.10 536.779   5 
  -1   9   2 8433.20 496.791  10 
   1  -9  -1 1132.19 199.028   5 
  -1   9   1 981.066 171.860  10 
   1  -9   0 4316.33 356.517   5 
   1  -9   1 1351.99 207.324   5 
   1  -9   2 257.228 101.694   5 
   1  -9   3 2406.61 277.573   5 
   1  -9   4 1289.92 211.340   5 
   1  -9   5 1251.73 206.584   5 
   1  -9   6 1626.65 232.972   5 
  -1   9  -7 146.447 86.4074  12 
   1  -9   7-14.2526 62.5630   5 
   1  -8  -9 1581.25 215.308   5 
  -1   8   9 1434.24 182.472  10 
  -1   8   8 8924.37 482.490  10 
   1  -8  -8 8869.94 527.324   5 
  -1   8   7 81.3803 70.4351  10 
   1  -8  -7 161.313 87.0955   5 
   1  -8  -6 213.050 113.061   5 
  -1   8   6 47.0694 80.4478  10 
  -1   8   5 269.325 97.6904  10 
   1  -8  -5 503.611 147.853   5 
  -1   8   4 1188.09 191.543  10 
   1  -8  -4 1091.35 201.731   5 
   1  -8  -3 14183.3 660.538   5 
  -1   8   3 14533.8 642.458  10 
   1  -8  -2 11601.8 582.908   5 
  -1   8   2 11678.9 580.952  10 
  -1   8   1 1995.74 247.169  10 
   1  -8  -1 1820.79 227.528   5 
  -1   8   0 13298.5 636.299  10 
   1  -8   0 12678.8 587.914   5 
   1  -8   1 11448.0 570.095   5 
   1  -8   2 4115.87 343.218   5 
   1  -8   3 7061.38 452.644   5 
   1  -8   4 1522.73 224.004   5 
   1  -8   5 242.348 102.943   5 
   1  -8   6 372.911 129.789   5 
   1  -8   7 2414.10 296.294   5 
  -1   8  -7 2541.91 237.826   6 
   1  -8   8 1183.49 195.849   5 
  -1   8  -9 339.818 97.4606  12 
  -1   7  10 162.588 77.8079  10 
   1  -7 -10 115.505 76.8990   5 
  -1   7   9 177.845 97.2637  10 
   1  -7  -9 101.475 85.7520   5 
   1  -7  -8 1918.42 269.231   5 
  -1   7   8 1609.42 227.275  10 
  -1   7   7 318.404 95.0780  10 
   1  -7  -7 283.901 124.659   5 
  -1   7   6 815.053 165.511  10 
  -1   7   6 500.787 120.022  13 
   1  -7  -6 710.915 164.848   5 
   1  -7  -5 7740.99 519.591   5 
  -1   7   5 7956.88 477.745  10 
  -1   7   4 1132.33 180.727  10 
   1  -7  -4 978.458 180.540   5 
   1  -7  -3 5171.18 1212.12   1 
  -1   7   3 6052.43 392.219  10 
   1  -7  -3 4985.84 389.662   5 
   1  -7  -2 689.159 141.856   5 
  -1   7   2 552.262 134.909  10 
   1  -7  -1 3778.79 870.586   3 
   1  -7  -1 3472.86 292.879   5 
  -1   7   1 3050.41 281.845  10 
   1  -7   0 1010.90 432.930   3 
  -1   7   0 665.711 140.630  10 
   1  -7   0 645.708 128.001   5 
   1  -7   1 16907.1 631.840   5 
  -1   7  -1 14900.0 661.237  10 
   1  -7   2 315.784 99.7252   5 
  -1   7  -3 4324.17 866.734   2 
   1  -7   3 4442.93 337.848   5 
   1  -7   4 11082.7 559.798   5 
  -1   7  -4 11009.4 484.082   6 
   1  -7   5 176.739 98.4172   5 
  -1   7  -5 220.863 103.064   6 
   1  -7   6 108.021 91.3844   5 
  -1   7  -6 171.685 86.4595   6 
   1  -7   7 360.958 138.053   5 
  -1   7  -7 510.622 121.148   6 
   1  -7   8 64.8716 89.0219   5 
  -1   7  -8 54.8891 73.7694   6 
  -1   7  -9 136.994 84.5421   6 
   1  -7   9 21.1487 84.5277   5 
  -1   7 -10 71.6113 51.7475   6 
  -1   7 -10 120.246 82.9529  12 
  -1   6  11 966.530 157.108  10 
   1  -6 -11 610.354 139.034   5 
   1  -6 -10-16.5933 86.9745   5 
  -1   6  10-10.7057 59.7134  10 
  -1   6   9 2682.82 302.291  10 
   1  -6  -9 2224.92 296.788   5 
   1  -6  -8 731.474 187.763   5 
   1  -6  -7 13586.2 709.966   5 
  -1   6   7 12575.3 536.440  13 
  -1   6   7 13160.4 643.973  10 
  -1   6   6 2691.13 250.133  13 
   1  -6  -6 2891.90 333.165   5 
  -1   6   6 2762.09 284.965  10 
   1  -6  -5 86.2277 75.2088   5 
  -1   6   5 233.516 88.7472  10 
  -1   6   5 98.1638 73.9668  13 
  -1   6   4 57.8249 68.2126  13 
   1  -6  -4 11.2250 57.3573   5 
  -1   6   4 45.1202 49.5153  10 
   1  -6  -3 29014.8 3030.14   1 
   1  -6  -3 30157.2 826.841   5 
  -1   6   3 29596.7 757.862  13 
  -1   6   3 31363.5 830.258  10 
  -1   6   2 18808.2 603.556  13 
   1  -6  -2 20249.3 633.071   5 
   1  -6  -2 18674.3 2184.49   1 
  -1   6   2 19266.7 635.318  10 
   1  -6  -1 25163.4 2239.52   1 
  -1   6   1 26140.5 731.990  10 
   1  -6  -1 25385.8 690.521   5 
   1  -6   0 30182.7 749.838   5 
  -1   6   0 28377.2 779.317  10 
   1  -6   0 30556.0 2291.39   3 
   1  -6   1 285.948 81.4250   5 
   1  -6   1 314.255 227.938   3 
  -1   6  -1 229.910 73.8451  10 
   1  -6   2 32375.8 807.244   5 
  -1   6  -2 29019.9 864.843  10 
  -1   6  -3 22977.5 620.886   6 
  -1   6  -3 26883.9 2020.97   2 
   1  -6   3 25206.0 741.240   5 
   1  -6   4 4661.54 340.827   5 
  -1   6  -4 4602.32 298.350   6 
  -1   6  -4 4476.27 842.366   2 
  -1   6  -5 14983.9 567.601   6 
   1  -6   5 15277.3 654.531   5 
  -1   6  -5 13411.5 1499.56   2 
   1  -6   6 6945.51 475.340   5 
  -1   6  -6 6872.24 412.747   6 
  -1   6  -7 5277.57 376.037   6 
   1  -6   7 5333.97 437.333   5 
  -1   6  -8 1762.42 222.569   6 
   1  -6   8 1730.96 264.918   5 
  -1   6  -9 634.624 144.368   6 
   1  -6   9 372.931 144.780   5 
  -1   6 -10 93.5739 81.7698   6 
  -1   6 -11 216.591 84.5909  12 
  -1   6 -11 272.987 102.729   6 
   1  -5 -12 432.675 117.616   5 
  -1   5  12 652.921 132.847  10 
   1  -5 -11 2303.11 280.388   5 
   1  -5 -10 62.3601 76.0384   5 
   1  -5  -9 8408.08 582.254   5 
   1  -5  -8 8923.46 589.819   5 
  -1   5   7 417.927 113.740  13 
   1  -5  -7 503.144 155.373   5 
   1  -5  -6 237.625 103.831   5 
  -1   5   6 424.248 100.164  13 
   1  -5  -5 3433.44 1485.55   1 
   1  -5  -5 4636.85 361.820   5 
  -1   5   5 4450.89 285.681  13 
   1  -5  -4 253.689 104.128   5 
  -1   5   4 299.594 85.5717  13 
   1  -5  -4 615.533 669.092   1 
   1  -5  -3 2228.73 959.199   1 
   1  -5  -2 4011.90 1130.26   1 
   1  -5  -1 524.485 399.829   1 
   1  -5   0 5089.51 955.677   1 
   1  -5   1 9879.83 1121.63   3 
   1  -5   2 17932.0 1299.80   3 
  -1   5  -3 34923.5 2091.46   2 
   1  -5   3 35299.4 791.731   5 
  -1   5  -4 1023.94 131.465   6 
   1  -5   4 866.412 130.704   5 
   1  -5   5 1514.60 199.487   5 
  -1   5  -5 1182.69 152.611   6 
  -1   5  -6 92.7212 125.623   2 
  -1   5  -6 205.222 73.4889   6 
   1  -5   6 164.882 92.6499   5 
  -1   5  -7 9056.72 474.361   6 
   1  -5   7 9255.55 547.895   5 
  -1   5  -8 8046.77 461.696   6 
   1  -5   8 8169.06 539.291   5 
   1  -5   9 139.543 101.327   5 
  -1   5  -9 106.995 92.4844   6 
  -1   5 -10 62.0325 92.3224   6 
  -1   5 -11 582.974 133.209  12 
  -1   5 -11 564.842 135.100   6 
   1  -4 -12 105.564 98.5607   5 
   1  -4 -11 4635.11 417.775   5 
   1  -4 -10 1373.49 239.855   5 
   1  -4  -9 958.654 218.774   5 
   1  -4  -8 263.387 155.062   5 
   1  -4  -7 15129.5 700.130   5 
  -1   4   7 12895.4 483.133  13 
  -1   4   6 14770.3 491.502  13 
   1  -4  -6 14774.4 645.783   5 
   1  -4  -5 21102.7 3220.50   1 
   1  -4  -5 26984.7 806.546   5 
   1  -4  -4 72517.2 5592.86   1 
   1  -4  -3 1784.61 918.744   1 
   1  -4  -2 1475.65 828.605   1 
   1  -4  -1 3254.59 994.425   1 
   1  -4   0 101048. 4186.56   1 
   1  -4   1 18979.7 1339.45   1 
   1  -4   2 5228.49 615.609   3 
  -1   4  -3 572.389 248.638   2 
  -1   4  -4 100570. 3325.81   2 
  -1   4  -5 48283.3 893.755   6 
   1  -4   5 49329.0 1007.20   5 
  -1   4  -5 49548.1 2453.30   2 
   1  -4   6 65.3514 81.0382   5 
  -1   4  -6-84.6779 144.113   2 
  -1   4  -6 186.604 80.2511   6 
  -1   4  -7 159.644 100.327   6 
   1  -4   7 27.7158 65.0649   5 
  -1   4  -7 86.1479 134.733   2 
  -1   4  -8 3842.12 317.165   6 
   1  -4   8 3895.89 366.088   5 
  -1   4  -9 182.358 100.737   6 
  -1   4 -10 3354.94 319.715   6 
  -1   4 -11 1181.41 192.173   6 
  -1   4 -12 28.5094 65.3061   6 
   1  -3 -13 621.365 147.902   5 
  -1   3  12 3569.03 264.656   4 
   1  -3 -12 2614.74 318.284   5 
   1  -3 -11 876.754 200.963   5 
   1  -3 -10 555.552 182.149   5 
   1  -3  -9 6628.74 515.115   5 
   1  -3  -8 2006.82 278.511   5 
   1  -3  -8 2216.85 1161.08   1 
   1  -3  -7 57940.8 1091.11   6 
  -1   3   7 60053.0 970.005  13 
   1  -3  -6 22339.2 2830.43   1 
   1  -3  -6 34792.9 925.398   5 
   1  -3  -5 3090.74 991.576   1 
   1  -3  -4 1117.59 610.059   1 
   1  -3  -3 10253.3 1483.16   1 
   1  -3  -2 537.744 456.919   1 
   1  -3  -1 8863.32 1424.57   1 
   1  -3   0 1523.65 524.112   1 
   1  -3   1 2000.43 438.643   1 
   1  -3   2 5611.05 518.037   3 
   1  -3   3 26088.0 929.675   3 
  -1   3  -3 26171.6 1454.59   2 
  -1   3  -4 15971.5 1183.35   2 
  -1   3  -5 4451.64 677.313   2 
  -1   3  -6 184.368 72.6458   6 
   1  -3   6 9.20347 60.6949   5 
   1  -3   7 3340.04 304.389   5 
  -1   3  -7 3176.98 254.677   6 
  -1   3  -7 2938.46 625.119   2 
   1  -3   8 778.858 166.855   5 
  -1   3  -8 879.408 156.894   6 
  -1   3  -9 92.1778 97.0704   6 
  -1   3 -10 1915.12 239.371   6 
  -1   3 -11 200.670 106.595   6 
  -1   3 -12 1309.84 202.219   6 
  -1   2  13 1736.94 174.013   4 
   1  -2 -13 894.496 169.893   5 
   1  -2 -12 0.25487 83.8013   5 
   1  -2 -11 304.673 138.698   5 
   1  -2 -10 16656.3 707.064   6 
   1  -2 -10 12312.3 715.836   5 
   1  -2  -9 9675.74 508.064   6 
   1  -2  -8 9109.79 1824.09   1 
   1  -2  -8 13310.7 551.425   6 
   1  -2  -7 18989.6 2211.09   1 
   1  -2  -7 20484.2 617.944   6 
   1  -2  -6 20838.7 1985.25   1 
   1  -2  -5 60487.0 2913.59   1 
   1  -2  -4 1558.37 445.747   1 
   1  -2  -3 34483.4 1766.42   1 
   1  -2  -2 366.813 235.745   1 
   1  -2  -1 153143. 3339.78   1 
   1  -2   0 8304.83 961.756   1 
   1  -2   1 496044. 5824.05   1 
   1  -2   2 3259.32 275.034   3 
  -1   2  -2 3705.03 452.745   2 
   1  -2   3 7078.29 340.833   3 
  -1   2  -3 7195.39 664.231   2 
  -1   2  -4 75533.3 2331.26   2 
  -1   2  -5 7475.54 798.848   2 
  -1   2  -6 40055.1 2031.93   2 
  -1   2  -7 20378.7 1570.93   2 
  -1   2  -7 20401.5 613.064   6 
   1  -2   7 20617.9 690.414   5 
  -1   2  -8 9559.00 457.151   6 
  -1   2  -9 10047.9 510.070   6 
  -1   2 -10 1091.35 191.980   6 
  -1   2 -11 1345.40 214.923   6 
  -1   2 -12 1443.18 216.868   6 
  -1   2 -12 1342.79 219.661   9 
  -1   2 -13 1447.82 198.339   6 
  -1   2 -13 1151.20 171.220   9 
   1  -1 -13 130.660 92.4093   5 
   1  -1 -12 62.7395 95.3152   6 
   1  -1 -12-16.5873 97.5980   5 
   1  -1 -11 937.595 206.192   6 
   1  -1 -10 54088.0 1273.52   6 
   1  -1  -9 1824.75 223.296   6 
   1  -1  -8-688.362 424.785   1 
   1  -1  -8 25.5671 70.1395   6 
   1  -1  -7-8.62087 184.077   1 
   1  -1  -7 144.678 70.7756   6 
   1  -1  -6 477.514 256.638   1 
   1  -1  -5 47.8753 135.770   1 
   1  -1  -4 332.906 168.807   1 
   1  -1  -3 14872.6 925.669   1 
   1  -1  -2 60195.8 1618.80   1 
   1  -1  -1 238702. 2687.96   1 
   1  -1   0 11708.8 492.468   1 
  -1   1  -1 266059. 2759.86   2 
   1  -1   1 264723. 3397.44   1 
  -1   1  -2 55892.9 1455.17   2 
  -1   1  -3 2535.06 355.506   2 
  -1   1  -3 1655.39 170.716   1 
  -1   1  -4 39827.7 1206.68   1 
  -1   1  -4 42907.5 1617.46   2 
  -1   1  -5 20964.6 1268.44   2 
  -1   1  -6 9895.18 964.463   2 
  -1   1  -7 7681.73 364.143   6 
  -1   1  -7 7567.04 916.707   2 
  -1   1  -8 2879.68 252.016   6 
  -1   1  -9 6612.65 408.936   6 
  -1   1 -10 1105.65 190.906   6 
  -1   1 -11 1978.79 261.822   6 
  -1   1 -12 2628.06 303.866   6 
  -1   1 -12 2200.01 262.532   9 
  -1   1 -13 19.3527 61.1940   9 
  -1   1 -13 79.5387 84.3714   6 
   1   0 -13 392.934 130.853   6 
   1   0 -13-141.075 108.772   5 
   1   0 -12 71.9259 87.3131   6 
   1   0 -11 839.293 185.775   6 
   1   0 -10 2648.87 289.608   6 
   1   0  -9 806.765 153.744   6 
   1   0  -8 5875.04 357.934   6 
   1   0  -7 170.924 85.6061   6 
  -1   0   7 106.523 66.9015  16 
   1   0  -6 67704.7 2449.59   1 
   1   0  -5 2995.89 465.604   1 
   1   0  -4 500.979 114.856   2 
   1   0  -4 440.268 175.987   1 
   1   0  -3 80315.3 1250.57   2 
   1   0  -3 82843.1 1981.78   1 
  -1   0   3 84648.3 1950.82   3 
   1   0  -2 44560.9 639.049   2 
  -1   0   2 59292.1 1388.62   3 
  -1   0   1 34655.9 895.650   3 
  -1   0   0 10581.4 393.620   3 
  -1   0   0 9604.23 338.161   2 
  -1   0  -1 81176.2 824.566   3 
  -1   0  -1 77603.0 1347.91   2 
  -1   0  -2 43340.4 1200.78   2 
  -1   0  -2 41875.3 1381.73   1 
  -1   0  -3 143.233 291.916   1 
  -1   0  -3 130.724 93.6641   2 
  -1   0  -4 68197.8 1985.72   2 
  -1   0  -4 73556.7 3102.24   1 
  -1   0  -5 113789. 2860.59   2 
  -1   0  -5 128877. 4943.31   1 
  -1   0  -6 37470.9 1800.02   2 
  -1   0  -7 1751.90 425.631   2 
  -1   0  -7 1677.27 174.851   6 
  -1   0  -8 74.3417 77.4353   6 
  -1   0  -9 62438.6 1244.40   6 
  -1   0 -10 19219.4 745.653   6 
  -1   0 -11 544.056 152.132   9 
  -1   0 -11 502.146 152.099   6 
  -1   0 -12 412.512 128.979   6 
  -1   0 -12 289.263 102.597   9 
  -1   0 -13 94.7484 101.527   5 
   1   1 -13 2399.19 256.683   6 
   1   1 -12 49.1385 78.0638   6 
   1   1 -11 1048.76 203.215   6 
   1   1 -10 169.162 101.437   6 
   1   1  -9 961.095 170.055   6 
   1   1  -8 627.419 128.600   6 
  -1  -1   8 652.564 112.756  16 
  -1  -1   7 23423.5 574.994  13 
   1   1  -7 25514.5 673.006   6 
  -1  -1   7 25027.0 573.654  16 
   1   1  -6 5326.61 644.554   1 
   1   1  -5 95761.6 2226.52   2 
  -1  -1   5 92453.9 2389.92   3 
   1   1  -4 8235.71 568.606   2 
  -1  -1   4 7590.26 617.650   3 
  -1  -1   3 429.684 155.770   3 
   1   1  -3 261.952 113.337   2 
  -1  -1   2 144592. 2246.49   3 
  -1  -1   1 10875.1 551.644   3 
  -1  -1   0 3449.54 290.748   3 
  -1  -1  -1 84999.9 1623.67   3 
  -1  -1  -1 81722.7 1513.16   2 
  -1  -1  -1 85118.8 1729.78   1 
  -1  -1  -2 21360.7 892.394   2 
  -1  -1  -2 24671.5 1616.49   1 
  -1  -1  -3 236726. 3440.30   2 
  -1  -1  -3 269756. 7035.88   1 
  -1  -1  -4 2507.71 879.283   1 
  -1  -1  -4 3587.82 464.909   2 
  -1  -1  -5 49293.1 3949.46   1 
  -1  -1  -5 46614.9 1842.17   2 
  -1  -1  -6 31013.3 3555.12   1 
  -1  -1  -6 30593.4 1629.02   2 
  -1  -1  -7 11233.2 1058.12   2 
  -1  -1  -7 12715.2 478.305   6 
  -1  -1  -8 1956.59 220.555   6 
  -1  -1  -9 600.478 126.273   6 
  -1  -1  -9 604.828 145.984   9 
  -1  -1 -10 4269.50 377.578   9 
  -1  -1 -10 4636.80 381.195   6 
  -1  -1 -11 1802.24 259.330   6 
  -1  -1 -11 1411.98 226.120   9 
  -1  -1 -12 132.914 77.9110   9 
  -1  -1 -12 3.06241 106.959   5 
  -1  -1 -12 173.161 110.707   6 
  -1  -1 -13 256.783 130.658   5 
   1   2 -13 671.741 139.360   6 
   1   2 -12 1163.00 207.867   6 
   1   2 -11 692.717 159.846   6 
   1   2 -10 434.282 140.258   6 
   1   2  -9 2162.07 255.551   6 
   1   2  -8 6620.30 401.588   6 
  -1  -2   8 6815.42 346.727  13 
  -1  -2   7 814.447 157.211   5 
   1   2  -7 750.592 131.369   6 
  -1  -2   7 834.070 111.081  16 
   1   2  -6 13952.8 1036.26   1 
  -1  -2   5 35149.5 1478.30   3 
   1   2  -5 36156.6 1537.67   2 
  -1  -2   4 55555.8 1737.32   3 
   1   2  -4 55783.1 1770.75   2 
  -1  -2   3 1536.22 285.294   3 
  -1  -2   2 65348.4 1687.67   3 
  -1  -2   1 13435.9 739.476   3 
  -1  -2   0 578935. 5009.28   3 
  -1  -2  -1 10484.9 828.072   1 
  -1  -2  -2 16550.4 1439.87   1 
  -1  -2  -3 73624.0 3842.38   1 
  -1  -2  -4 11919.3 911.561   2 
  -1  -2  -4 9920.80 1665.84   1 
  -1  -2  -5 49417.5 4305.78   1 
  -1  -2  -5 61877.2 2208.83   2 
  -1  -2  -6 125479. 7322.79   1 
  -1  -2  -6 116071. 3243.03   2 
  -1  -2  -7 36626.9 874.484   9 
  -1  -2  -7 36349.9 850.077   6 
  -1  -2  -7 39227.5 4201.47   1 
  -1  -2  -8 2108.39 233.927   9 
  -1  -2  -8 2549.80 259.092   6 
  -1  -2  -9 2625.56 281.912   9 
  -1  -2  -9 2527.74 272.500   6 
  -1  -2 -10 788.454 166.003   6 
  -1  -2 -10 823.140 175.452   9 
  -1  -2 -11 758.039 214.827   5 
  -1  -2 -11 1051.76 193.705   9 
  -1  -2 -12 9351.38 511.286   9 
  -1  -2 -12 6300.59 513.975   5 
  -1  -2 -13 5.80531 82.0407   5 
   1   3 -12 156.461 108.745   6 
   1   3 -11 1206.45 205.127   6 
   1   3 -10 513.879 153.075   6 
   1   3  -9 9018.57 514.175   6 
  -1  -3   8 11232.6 584.838   5 
   1   3  -8 10577.7 531.875   6 
  -1  -3   7 1155.36 177.548   5 
   1   3  -7 991.235 156.986   6 
   1   3  -6 4472.66 297.174   6 
  -1  -3   6 4288.63 317.358   5 
  -1  -3   5 14476.3 998.732   3 
   1   3  -5 14962.1 1138.92   2 
  -1  -3   4 59753.8 1963.78   3 
  -1  -3   3 4983.65 556.831   3 
  -1  -3   2 11391.2 814.088   3 
  -1  -3   1 16419.5 974.221   3 
  -1  -3   0 7726.10 725.202   3 
  -1  -3  -1 59105.4 2337.78   1 
  -1  -3  -2 20777.1 1664.26   1 
  -1  -3  -3 398.271 314.127   1 
  -1  -3  -4 1164.21 686.164   1 
  -1  -3  -5 50177.0 4146.00   1 
  -1  -3  -6 24504.6 3079.06   1 
  -1  -3  -6 26115.3 782.150   5 
  -1  -3  -7 2008.49 256.715   5 
  -1  -3  -7 3041.01 1057.95   1 
  -1  -3  -7 2269.47 226.784   6 
  -1  -3  -7 2311.09 233.899   9 
  -1  -3  -8 17923.8 743.549   5 
  -1  -3  -8 16449.1 652.840   9 
  -1  -3  -9 296.188 144.704   5 
  -1  -3  -9 487.450 139.142   9 
  -1  -3 -10 114.806 76.4686   9 
  -1  -3 -10 32.0562 74.3059   5 
  -1  -3 -11-51.0769 79.4889   9 
  -1  -3 -11 185.665 122.170   5 
  -1  -3 -12 728.746 211.135   5 
  -1  -3 -13-2.60354 83.2708   5 
   1   4 -12 1018.44 177.987   6 
   1   4 -11 34.9804 81.8884   6 
   1   4 -10 4270.53 367.866   6 
   1   4  -9-182.007 107.409   6 
  -1  -4   8 259.794 131.823   5 
   1   4  -8 289.488 119.215   6 
   1   4  -7 6108.14 401.065   6 
  -1  -4   7 5862.54 406.821   5 
   1   4  -6 6001.03 831.272   2 
   1   4  -6 5566.91 352.087   6 
  -1  -4   6 5154.83 366.383   5 
   1   4  -5 221.433 84.9879   6 
  -1  -4   5 315.843 98.9737   5 
  -1  -4   4 61134.2 2202.54   3 
  -1  -4   3 206046. 3932.62   3 
  -1  -4   2 19886.2 1243.60   3 
  -1  -4   1 964.061 298.487   3 
  -1  -4   0 5933.74 756.096   3 
  -1  -4  -1 90776.0 3228.04   1 
  -1  -4  -1 94381.9 3236.95   3 
  -1  -4  -2 122016. 4188.21   1 
  -1  -4  -3 53583.8 3170.43   1 
  -1  -4  -4 126.065 336.066   1 
  -1  -4  -5 2947.57 252.462   5 
  -1  -4  -5 3143.91 1055.70   1 
  -1  -4  -6 1530.61 190.627   9 
  -1  -4  -6 1783.59 216.901   5 
  -1  -4  -6 2101.03 931.491   1 
  -1  -4  -7 9463.52 522.176   5 
  -1  -4  -7 7616.64 1669.14   1 
  -1  -4  -7 9148.69 471.998   9 
  -1  -4  -8 5974.14 449.072   5 
  -1  -4  -8 5230.78 381.736   9 
  -1  -4  -9 264.489 125.384   9 
  -1  -4  -9 116.441 87.3420   5 
  -1  -4 -10 1634.11 234.565   9 
  -1  -4 -10 1680.44 267.360   5 
  -1  -4 -11 3239.42 371.878   5 
  -1  -4 -12 714.325 185.484   5 
  -1  -4 -13 713.471 161.603   5 
   1   5 -11-62.0887 89.2495   6 
   1   5 -10 209.757 119.980   6 
   1   5  -9 1688.94 237.414   6 
  -1  -5   9 1878.38 264.168   5 
  -1  -5   8 1089.69 203.299   5 
   1   5  -8 1214.53 208.747   6 
  -1  -5   7 1258.68 209.301   5 
   1   5  -7 1279.50 224.845   6 
  -1  -5   6 13916.1 615.076   5 
   1   5  -6 13006.7 574.891   6 
  -1  -5   5 3647.62 299.285   5 
   1   5  -5 3684.44 293.686   6 
   1   5  -5 3885.87 719.869   2 
  -1  -5   4 1510.47 183.141   5 
  -1  -5   3 13683.2 1155.20   3 
  -1  -5   3 12036.6 461.447   5 
  -1  -5   2 14480.0 1213.27   3 
  -1  -5   1 30287.9 1801.88   3 
  -1  -5   0 17151.6 1429.17   3 
  -1  -5  -1 4948.13 827.801   3 
  -1  -5  -2 35754.8 2389.26   1 
  -1  -5  -3-29.5280 210.464   1 
  -1  -5  -4 14218.3 533.797   5 
  -1  -5  -4 15152.5 522.243   9 
  -1  -5  -5 6252.01 393.986   5 
  -1  -5  -5 5264.29 1200.57   1 
  -1  -5  -5 6290.87 367.971   9 
  -1  -5  -6 9501.77 516.655   5 
  -1  -5  -6 9803.18 483.652   9 
  -1  -5  -6 9769.66 1752.75   1 
  -1  -5  -7 9058.36 492.847   9 
  -1  -5  -7 7977.71 1612.78   1 
  -1  -5  -7 9979.10 571.845   5 
  -1  -5  -8 18722.4 833.398   5 
  -1  -5  -8 18444.7 724.773   9 
  -1  -5  -9 1106.18 231.095   5 
  -1  -5  -9 1257.82 200.145   9 
  -1  -5 -10 732.703 152.142   9 
  -1  -5 -10 858.040 206.074   5 
  -1  -5 -11 28.8487 74.1789   5 
  -1  -5 -12 9.53284 63.3365   5 
   1   6 -11 662.480 134.435   6 
   1   6 -10 118.544 88.4475   6 
  -1  -6   9 705.300 169.801   5 
   1   6  -9 647.107 164.283   6 
  -1  -6   8 445.070 140.026   5 
   1   6  -8 304.786 129.036   6 
  -1  -6   7 26597.6 953.652   5 
   1   6  -7 27257.6 918.000   6 
   1   6  -6 1176.62 193.533   6 
  -1  -6   6 1049.67 195.680   5 
  -1  -6   5 7060.91 442.753   5 
   1   6  -5 6770.45 421.238   6 
   1   6  -5 7503.66 1118.52   2 
  -1  -6   4 782.015 153.339   5 
  -1  -6   3 383.610 107.146   5 
  -1  -6   3 159.131 146.707   3 
  -1  -6   2 31114.0 806.951   5 
  -1  -6   2 35762.3 2146.14   3 
  -1  -6   1 96860.4 3680.01   3 
  -1  -6   1 92498.0 1356.93   5 
  -1  -6   0 28434.8 2016.97   3 
  -1  -6   0 25676.9 704.465   5 
  -1  -6  -1 5169.39 905.557   3 
  -1  -6  -1 5592.94 326.956   5 
  -1  -6  -2 11028.9 473.841   5 
  -1  -6  -2 11488.6 1415.48   3 
  -1  -6  -3 18232.9 1899.66   1 
  -1  -6  -3 18669.2 1897.94   3 
  -1  -6  -3 20347.1 655.666   5 
  -1  -6  -4 14039.6 1765.88   1 
  -1  -6  -4 14772.5 587.709   5 
  -1  -6  -5 9815.54 1599.35   1 
  -1  -6  -5 11012.1 549.099   5 
  -1  -6  -6 219.161 98.4010   5 
  -1  -6  -6 1666.57 737.943   1 
  -1  -6  -7 4026.44 379.841   5 
  -1  -6  -8 8191.92 558.851   5 
  -1  -6  -9 1258.49 232.822   5 
  -1  -6 -10 280.927 134.089   5 
  -1  -6 -11 409.121 135.400   5 
  -1  -6 -12 58.8818 60.4161   5 
   1   7 -10 378.182 110.702   6 
  -1  -7   9 743.680 173.448   5 
   1   7  -9 767.944 152.119   6 
  -1  -7   8 1462.06 233.300   5 
   1   7  -8 1301.20 210.517   6 
  -1  -7   7 374.312 130.420   5 
   1   7  -7 422.684 142.085   6 
   1   7  -6 34.9150 78.7673   6 
  -1  -7   6 264.551 105.979   5 
  -1  -7   5 1645.62 247.301   5 
   1   7  -5 1673.72 229.545   6 
   1   7  -4 6830.26 442.237   6 
  -1  -7   4 6942.10 455.620   5 
  -1  -7   3 4728.86 359.068   5 
  -1  -7   2 1400.30 195.131   5 
  -1  -7   2 762.254 349.928   3 
  -1  -7   1 284.754 225.351   3 
  -1  -7   1 32.2713 63.6522   5 
  -1  -7   0 48.5800 153.151   3 
  -1  -7   0 98.4847 61.0206   5 
  -1  -7  -1 4921.42 351.662   5 
  -1  -7  -1 5222.40 949.529   3 
  -1  -7  -2 745.175 395.936   3 
  -1  -7  -2 1064.56 173.432   5 
  -1  -7  -3 573.647 136.958   5 
  -1  -7  -3 1051.63 475.265   3 
  -1  -7  -4 4409.59 355.461   5 
  -1  -7  -4 4262.34 992.569   3 
  -1  -7  -5 1044.30 189.554   5 
  -1  -7  -6 1713.64 241.063   5 
  -1  -7  -7 1306.14 223.121   5 
  -1  -7  -8 878.587 204.601   5 
  -1  -7  -9 1146.28 224.378   5 
  -1  -7 -10-17.1127 78.5763   5 
  -1  -7 -11 192.606 88.0603   5 
   1   8  -9 84.6049 71.5158   6 
  -1  -8   8-103.793 90.0557   5 
   1   8  -8-44.4897 87.9475   6 
  -1  -8   7 114.336 86.3057   5 
   1   8  -7 15.1808 76.3847   6 
  -1  -8   6 2990.58 331.848   5 
   1   8  -6 3440.18 323.658   6 
   1   8  -5 25472.2 865.876   6 
  -1  -8   5 25915.8 935.797   5 
  -1  -8   4 13995.6 676.288   5 
   1   8  -4 14333.4 644.040   6 
  -1  -8   3 562.920 142.514   5 
  -1  -8   2 5594.69 415.746   5 
  -1  -8   1 4820.63 380.444   5 
  -1  -8   0 103.266 84.2141   5 
  -1  -8  -1 23052.5 812.399   5 
  -1  -8  -2 3087.50 295.074   5 
  -1  -8  -3 6080.84 431.405   5 
  -1  -8  -4 10681.2 572.893   5 
  -1  -8  -5 15773.5 718.846   5 
  -1  -8  -6 35.0232 72.6220   5 
  -1  -8  -7 1237.07 217.351   5 
  -1  -8  -8 130.488 84.3518   5 
  -1  -8  -9 3731.90 342.950   5 
  -1  -8 -10 935.713 167.825   5 
  -1  -9   8 183.345 89.7460   5 
   1   9  -7 6134.03 382.861   6 
  -1  -9   7 6043.58 417.178   5 
  -1  -9   6 3340.91 333.299   5 
   1   9  -6 3309.16 308.118   6 
   1   9  -5 590.354 131.196   6 
  -1  -9   5 602.336 157.892   5 
  -1  -9   4 2505.15 294.913   5 
   1   9  -4 2019.33 250.050   6 
  -1  -9   3 164.243 83.7742   5 
   1   9  -3 15.7827 69.4389   6 
  -1  -9   2 5343.58 417.766   5 
  -1  -9   1 6835.36 463.656   5 
  -1  -9   0 194.758 106.790   5 
  -1  -9  -1 6567.29 452.118   5 
  -1  -9  -2 646.573 152.389   5 
  -1  -9  -3 1206.70 207.753   5 
  -1  -9  -4 1304.06 214.324   5 
  -1  -9  -5 136.483 88.6245   5 
  -1  -9  -6 3896.69 362.806   5 
  -1  -9  -7 195.114 90.9864   5 
  -1  -9  -8-14.5725 82.6656   5 
  -1  -9  -9 1776.38 205.574   5 
   1  10  -6 5.95441 76.6155   6 
  -1 -10   6-106.560 84.2283   5 
   1  10  -5 40.3589 61.1255   6 
  -1 -10   5 94.4428 69.4168   5 
   1  10  -4 1997.38 218.796   6 
  -1 -10   4 2190.83 257.473   5 
   1  10  -3 112.585 75.4326   6 
  -1 -10   3-8.52883 57.0725   5 
  -1 -10   2 1210.90 196.224   5 
   1  10  -2 1191.29 179.375   6 
  -1 -10   1 1623.39 225.987   5 
  -1 -10   0 9941.02 551.755   5 
  -1 -10  -1 15133.4 680.746   5 
  -1 -10  -2 2655.42 281.433   5 
  -1 -10  -3 74.1838 61.7806   5 
  -1 -10  -4 20485.3 782.043   5 
  -1 -10  -5 5244.43 405.164   5 
  -1 -10  -6 2468.83 268.997   5 
  -1 -10  -7 1479.28 199.365   5 
  -1 -11   4-45.2377 48.5466   5 
  -1 -11   3 161.267 73.7306   5 
  -1 -11   2 1474.54 191.366   5 
  -1 -11   1 2077.99 235.334   5 
  -1 -11   0 563.143 130.366   5 
  -1 -11  -1 862.490 149.628   5 
  -1 -11  -2 76.0684 64.0145   5 
  -1 -11  -3 144.398 78.8477   5 
  -1 -11  -4 1271.24 181.978   5 
  -1 -11  -5 1362.23 180.922   5 
  -2  11   2 85.1309 70.9112  17 
  -2  11   1 2657.93 245.004  17 
  -2  11   0 170.274 77.6305  17 
  -2  11  -1 133.267 63.5404  17 
   2 -10  -5 16.4325 50.8592   5 
  -2  10   5 97.4505 56.3922  10 
   2 -10  -4 1864.33 219.592   5 
  -2  10   4 1657.65 200.227  10 
  -2  10   3 1463.57 188.608  10 
   2 -10  -3 1840.17 219.121   5 
  -2  10   2 2961.46 290.613  10 
   2 -10  -2 3006.05 288.671   5 
   2 -10  -1 3507.78 304.238   5 
   2 -10   0 1250.13 177.746   5 
  -2  10  -1 1716.63 213.231  17 
   2 -10   1 1949.15 225.254   5 
  -2  10  -2 1473.83 188.402  17 
   2 -10   2 1419.56 190.719   5 
   2 -10   3 234.083 93.3864   5 
  -2  10  -4 3920.72 298.188  14 
   2 -10   4 3761.53 297.528   5 
  -2  10  -5 3179.21 245.104  14 
   2 -10   5 3022.38 252.815   5 
   2  -9  -7 3910.24 309.473   5 
  -2   9   7 4124.10 312.026  10 
  -2   9   6 1279.33 192.548  10 
   2  -9  -6 1354.62 202.659   5 
  -2   9   5 122.617 70.0356  10 
   2  -9  -5 258.771 123.697   5 
  -2   9   4 1553.54 226.374  10 
   2  -9  -4 1435.63 217.639   5 
  -2   9   3 30.1596 62.6397  10 
   2  -9  -3-78.8081 78.4724   5 
   2  -9  -2 983.204 177.241   5 
  -2   9   2 903.899 169.682  10 
  -2   9   1 149.980 83.0251  10 
   2  -9  -1 231.910 104.850   5 
  -2   9   0 2969.25 321.973  10 
   2  -9   0 2929.56 291.863   5 
   2  -9   1 243.960 99.4456   5 
   2  -9   2 4213.95 342.382   5 
  -2   9  -3 72.6267 67.6851  17 
   2  -9   3 54.5080 67.7248   5 
   2  -9   4 242.635 94.8118   5 
  -2   9  -5 994.982 170.758  14 
   2  -9   5 902.479 167.632   5 
   2  -9   6-52.0735 83.4165   5 
  -2   9  -7 134.127 69.3730  12 
   2  -9   7 35.3062 51.7778   5 
  -2   8   9 666.139 128.508  10 
   2  -8  -9 866.232 138.153   5 
   2  -8  -8-48.6083 65.5171   5 
  -2   8   8 6.01746 52.0408  10 
   2  -8  -7 118.148 84.9622   5 
  -2   8   7 52.7892 71.5385  10 
   2  -8  -6 7757.75 497.933   5 
  -2   8   6 7723.52 485.653  10 
  -2   8   5 783.885 159.472  10 
   2  -8  -5 851.476 170.144   5 
   2  -8  -4 6436.78 451.202   5 
  -2   8   4 6541.69 449.234  10 
  -2   8   3 5361.47 409.222  10 
   2  -8  -3 5627.55 411.145   5 
   2  -8  -2 914.840 168.565   5 
  -2   8   2 942.957 173.956  10 
  -2   8   1 1489.25 224.188  10 
   2  -8  -1 1356.84 191.502   5 
  -2   8   0 407.611 125.911  10 
   2  -8   0 321.039 106.448   5 
   2  -8   1 24644.4 794.528   5 
  -2   8  -1 27195.3 979.885  10 
   2  -8   2 2873.46 281.848   5 
   2  -8   3-34.8796 70.3286   5 
  -2   8  -3 30.7335 64.4587  17 
   2  -8   4 140.135 83.6205   5 
   2  -8   5 814.059 167.183   5 
  -2   8  -6 2873.86 275.484  14 
  -2   8  -6 3596.99 326.931  12 
   2  -8   6 2644.09 290.333   5 
  -2   8  -7 2045.55 250.800  12 
   2  -8   7 1558.08 220.510   5 
   2  -8   8 85.9757 70.1533   5 
  -2   8  -8 50.1309 85.8762  12 
  -2   8  -9 1010.61 144.990  12 
   2  -7 -10 1346.66 172.093   5 
  -2   7  10 1212.66 177.852  10 
  -2   7   9 240.275 96.5205  10 
   2  -7  -9 135.686 82.0679   5 
  -2   7   8 596.058 152.007  10 
   2  -7  -8 489.672 149.983   5 
  -2   7   8 402.670 108.790  13 
   2  -7  -7 2880.10 311.774   5 
  -2   7   7 2861.73 279.492  13 
  -2   7   7 3052.18 321.007  10 
   2  -7  -6 91.2206 87.2405   5 
  -2   7   6-53.3602 107.161  13 
  -2   7   6 45.8547 74.2188  10 
   2  -7  -5 4347.89 380.569   5 
  -2   7   5 4069.37 333.038  13 
  -2   7   5 4484.11 376.627  10 
   2  -7  -4 16919.6 691.183   5 
  -2   7   4 16060.0 650.420  13 
  -2   7   4 16998.5 706.866  10 
  -2   7   3 3340.04 307.756  10 
   2  -7  -3 3937.93 1131.45   1 
   2  -7  -3 2807.88 294.386   5 
   2  -7  -2 3625.33 971.314   1 
  -2   7   2 4307.08 347.415  10 
   2  -7  -2 3795.54 309.578   5 
  -2   7   1 3015.76 296.126  10 
   2  -7  -1 3089.92 265.264   5 
   2  -7   0 336.165 107.491   5 
  -2   7   0 318.692 240.721   2 
  -2   7   0 194.496 84.7948  10 
  -2   7  -1 164.886 184.411   2 
   2  -7   1 290.097 95.0539   5 
  -2   7  -1 244.567 103.854  10 
  -2   7  -2 1213.52 458.793   2 
   2  -7   2 1438.03 190.665   5 
   2  -7   3 880.195 164.597   5 
  -2   7  -4 56.5076 69.4871  17 
   2  -7   4 176.760 88.0873   5 
   2  -7   5 1558.07 225.436   5 
   2  -7   6 252.684 108.587   5 
  -2   7  -6 404.377 119.650  14 
   2  -7   7 311.778 127.815   5 
   2  -7   8-20.7397 76.5537   5 
  -2   7  -9 144.309 88.2386  12 
  -2   7 -10 912.874 147.752  12 
  -2   6  11 159.995 83.3580  10 
   2  -6 -10 237.880 96.7952   5 
  -2   6  10 520.064 128.605  10 
  -2   6   9 3297.74 335.289  10 
   2  -6  -9 2740.51 300.274   5 
   2  -6  -8 2210.94 288.585   5 
  -2   6   8 2582.48 254.326  13 
  -2   6   8 2606.40 304.567  10 
   2  -6  -7 652.310 179.780   5 
  -2   6   7 621.675 163.438  10 
  -2   6   7 655.124 138.829  13 
  -2   6   6 5054.54 400.992  10 
   2  -6  -6 5483.14 427.790   5 
  -2   6   6 5072.49 360.975  13 
   2  -6  -5 7874.60 471.379   5 
  -2   6   5 7271.56 420.169  13 
  -2   6   5 7087.87 455.017  10 
   2  -6  -4 1375.03 197.584   5 
  -2   6   4 1598.02 203.031  13 
   2  -6  -4 1146.56 859.079   1 
  -2   6   4 1355.87 198.161  10 
   2  -6  -3 18833.1 640.582   5 
  -2   6   3 17540.8 617.417  13 
  -2   6   3 18764.5 677.804  10 
  -2   6   2 3809.26 305.216  10 
  -2   6   2 3662.93 286.456  13 
   2  -6  -2 3660.15 1092.32   1 
   2  -6  -2 3877.92 280.950   5 
   2  -6  -1 3148.51 247.373   5 
  -2   6   1 3607.67 295.977  10 
   2  -6  -1 3703.80 941.310   1 
   2  -6   0 1239.86 150.967   5 
  -2   6   0 1057.07 166.254  10 
   2  -6   1 1600.26 178.683   5 
  -2   6  -1 1837.06 515.514   2 
  -2   6  -1 1455.29 198.869  10 
   2  -6   2 2091.69 206.954   5 
  -2   6  -2 2531.28 618.673   2 
  -2   6  -2 2378.70 258.984  10 
   2  -6   3 182.197 80.3638   5 
  -2   6  -3 50.3579 132.958   2 
  -2   6  -4 874.259 387.260   2 
   2  -6   4 742.027 143.089   5 
  -2   6  -4 824.203 130.232  17 
   2  -6   5 3763.85 328.991   5 
  -2   6  -6 2093.28 237.692  14 
   2  -6   6 1807.81 247.758   5 
   2  -6   7 1154.49 214.480   5 
  -2   6  -7 1034.48 169.819  14 
  -2   6  -7 1046.45 165.054   6 
  -2   6  -8 879.318 158.294   6 
   2  -6   8 687.483 175.182   5 
  -2   6  -9 1797.47 212.483   6 
  -2   6 -10 300.257 112.342  12 
  -2   6 -10 249.921 79.0154   6 
  -2   6 -11 139.092 71.2161  12 
   2  -5 -11 19.5165 53.0535   5 
   2  -5 -10 80.8617 76.6850   5 
   2  -5  -9 734.304 163.266   5 
   2  -5  -8 833.331 183.878   5 
  -2   5   8 1164.60 178.747  13 
   2  -5  -7 3488.15 349.255   5 
  -2   5   7 3569.24 296.095  13 
   2  -5  -6 24864.9 855.187   5 
  -2   5   6 22499.7 712.501  13 
  -2   5   5 4645.58 313.721  13 
   2  -5  -5 5107.77 363.509   5 
   2  -5  -4 4003.05 1531.82   1 
  -2   5   4 3163.49 273.709  10 
  -2   5   4 3659.03 264.147  13 
   2  -5  -4 3617.70 279.847   5 
  -2   5   3 181.828 69.2464  13 
   2  -5  -3 117.388 54.4006   5 
  -2   5   3 128.975 61.5071  10 
  -2   5   2 3229.05 230.393  13 
  -2   5   2 4089.16 278.027  10 
   2  -5  -2 2704.75 1051.01   1 
   2  -5  -1 277.167 444.576   1 
   2  -5   0 5093.33 1038.92   1 
  -2   5  -1 1256.97 161.402  10 
  -2   5  -2 14778.5 1360.41   2 
  -2   5  -2 16086.4 580.920  10 
  -2   5  -3 11393.3 523.100  11 
  -2   5  -3 12764.0 1302.56   2 
   2  -5   3 13756.7 496.726   5 
  -2   5  -4 2899.32 215.853  17 
  -2   5  -4 3462.40 331.947  11 
  -2   5  -4 3412.59 695.286   2 
   2  -5   4 3292.92 258.821   5 
  -2   5  -5 1142.77 210.379  11 
   2  -5   5 1404.65 197.446   5 
  -2   5  -5 1412.42 475.038   2 
  -2   5  -6 2828.85 262.726  14 
  -2   5  -6 3348.97 756.428   2 
  -2   5  -6 3428.87 270.599   6 
   2  -5   6 2919.90 296.783   5 
  -2   5  -7 2288.72 231.885   6 
  -2   5  -7 2209.21 233.249  14 
   2  -5   7 2006.73 267.159   5 
   2  -5   8 174.643 106.876   5 
  -2   5  -8 751.297 150.172   6 
  -2   5  -9 1466.80 199.117   6 
  -2   5 -10 4918.83 348.832   6 
  -2   5 -10 5109.54 372.927  12 
  -2   5 -11 1495.57 194.768   6 
  -2   5 -11 1567.15 195.373  12 
   2  -4 -12 1690.88 215.532   5 
   2  -4 -11 66.9381 72.0779   5 
  -2   4  10 2128.05 221.518   4 
   2  -4 -10 1491.02 238.332   5 
   2  -4  -9 5213.38 436.140   5 
  -2   4   9 5110.05 346.611   4 
  -2   4   8 737.174 138.678  13 
   2  -4  -8 615.991 168.082   5 
  -2   4   8 609.970 119.033   4 
  -2   4   7 12290.7 510.104  13 
  -2   4   7 13615.3 506.410   4 
   2  -4  -7 14353.7 670.457   5 
   2  -4  -6 55034.7 1248.43   5 
  -2   4   6 56156.3 1036.70  13 
  -2   4   6 53735.9 935.953   4 
   2  -4  -5 5341.94 384.088   5 
  -2   4   5 5785.44 318.895  13 
  -2   4   5 5275.93 272.286   4 
   2  -4  -4 2491.21 1010.31   1 
  -2   4   4 3814.46 241.654  13 
   2  -4  -3 330.158 483.670   1 
   2  -4  -2 4838.30 1289.09   1 
   2  -4  -1 2169.11 840.013   1 
   2  -4   0 3164.15 917.642   1 
  -2   4  -1 4355.98 644.740   2 
   2  -4   1 4734.90 832.194   1 
  -2   4  -2 51373.6 2288.67   2 
  -2   4  -3 1450.77 399.527   2 
  -2   4  -4 4464.75 736.209   2 
   2  -4   5 85296.9 1323.47   5 
  -2   4  -5 89427.0 3460.65   2 
  -2   4  -5 89621.2 1787.62  11 
  -2   4  -5 83577.6 1153.56   6 
  -2   4  -6 5365.93 323.189   6 
  -2   4  -6 5343.62 901.275   2 
  -2   4  -6 4947.40 315.779  14 
   2  -4   6 5214.52 364.738   5 
   2  -4   7 11749.6 583.412   5 
  -2   4  -7 11050.7 498.174  14 
  -2   4  -7 11138.7 1344.29   2 
  -2   4  -7 12102.5 511.421   6 
  -2   4  -8 10427.0 502.762   6 
   2  -4   8 8977.59 560.684   5 
  -2   4  -9 14829.6 629.925   6 
  -2   4 -10 914.569 172.662   6 
  -2   4 -10 1084.17 186.266  12 
  -2   4 -11 194.881 96.8239  12 
  -2   4 -11 178.721 99.7407   6 
  -2   4 -12 455.436 119.580   6 
   2  -3 -12 117.503 104.410   5 
  -2   3  12 326.499 80.6741   4 
   2  -3 -11 53.3393 68.2536   5 
  -2   3  11 88.5953 62.8138   4 
   2  -3 -10 3614.06 373.014   5 
  -2   3  10 4347.50 327.866   4 
   2  -3  -9 20613.0 855.644   5 
  -2   3   8 242.802 103.787  13 
   2  -3  -8 158.593 101.788   5 
   2  -3  -7 2473.69 276.480   5 
  -2   3   7 2391.26 220.729  13 
   2  -3  -7 2204.59 811.820   1 
   2  -3  -6 17.1225 65.6233   5 
  -2   3   6 201.388 79.3497  13 
   2  -3  -6 452.460 488.210   1 
   2  -3  -5 1001.21 511.479   1 
   2  -3  -4 2963.95 761.087   1 
   2  -3  -3 13911.4 1490.83   1 
   2  -3  -2 51300.4 2687.73   1 
   2  -3  -1 83369.3 3453.58   1 
   2  -3   0 8731.07 1300.39   1 
  -2   3  -1 259704. 4333.64   2 
   2  -3   1 296679. 7089.56   1 
  -2   3  -2 3014.32 495.975   2 
  -2   3  -3 26601.8 1542.08   2 
  -2   3  -4 585.369 254.041   2 
  -2   3  -5 6999.90 906.159   2 
  -2   3  -6 2402.47 204.845   6 
  -2   3  -6 2156.05 528.774   2 
  -2   3  -6 2136.04 197.291  14 
   2  -3   6 2279.23 220.475   5 
  -2   3  -7 6291.01 962.480   2 
  -2   3  -7 6235.36 352.697  14 
  -2   3  -7 6764.80 367.369   6 
   2  -3   7 5903.22 391.584   5 
  -2   3  -8 1285.31 459.427   2 
  -2   3  -8 1544.08 202.733   6 
  -2   3  -9 1891.10 232.274   6 
  -2   3 -10 6653.45 432.457   6 
  -2   3 -10 6808.56 429.442  12 
  -2   3 -11 62.5165 71.2762  12 
  -2   3 -11-76.1171 89.7428   6 
  -2   3 -12 244.951 103.829   6 
   2  -2 -12 84.7591 85.4178   5 
  -2   2  12 212.169 70.8290   4 
   2  -2 -11 101.756 94.9193   5 
   2  -2 -10 3578.51 373.560   5 
   2  -2  -9 21177.4 856.134   5 
  -2   2   9 27012.4 735.632  13 
  -2   2   8 1589.68 178.782  13 
   2  -2  -8 1397.39 667.593   1 
  -2   2   7 504.720 105.641  13 
   2  -2  -7-28.0356 198.678   1 
  -2   2   6 11451.7 412.483  13 
   2  -2  -6 9579.73 1238.26   1 
   2  -2  -5 1413.75 474.524   1 
   2  -2  -4 37514.5 2008.67   1 
   2  -2  -3 17486.1 1280.44   1 
   2  -2  -2 2452.92 431.625   1 
   2  -2  -1 592759. 5918.24   1 
  -2   2   1 553969. 4383.49   2 
   2  -2   0 999999. 7143.19   1 
  -2   2   0 959858. 6456.93   2 
   2  -2   1 572827. 7038.52   1 
  -2   2  -1 584513. 5542.19   2 
  -2   2  -2 247679. 3940.51   2 
  -2   2  -3 9848.75 859.793   2 
  -2   2  -4 5697.22 696.030   2 
  -2   2  -5 17804.3 1336.73   2 
  -2   2  -6 5510.80 806.339   2 
  -2   2  -6 6019.22 304.822   6 
   2  -2   6 5140.07 313.226   5 
  -2   2  -7 7103.79 359.175  14 
  -2   2  -7 7184.31 981.189   2 
   2  -2   7 7103.19 411.534   5 
  -2   2  -7 7701.49 381.756   6 
  -2   2  -8-337.805 228.593   2 
  -2   2  -8 101.591 84.1437   6 
  -2   2  -9 66.7305 70.6194   6 
  -2   2 -10 27831.7 808.803  12 
  -2   2 -10 28552.6 901.651   6 
  -2   2 -11 4480.27 374.622   6 
  -2   2 -12 244.827 106.036   9 
  -2   2 -12 317.740 115.442   6 
  -2   2 -13 73.5243 67.3953   9 
  -2   2 -13 152.000 86.7775   6 
  -2   1  13 539.768 106.467   4 
   2  -1 -12 4407.04 405.055   5 
   2  -1 -11 1564.50 259.741   5 
   2  -1 -10 1869.16 246.235   6 
   2  -1  -9 9889.89 500.047   6 
  -2   1   9 10466.1 455.255  13 
  -2   1   8-17.3144 78.0902  13 
   2  -1  -8 98.7302 71.8406   6 
   2  -1  -8 52.5552 219.782   1 
   2  -1  -7 2212.51 574.506   1 
  -2   1   7 2595.33 210.925  13 
  -2   1   7 2623.90 215.324  16 
   2  -1  -6 24429.6 1738.74   1 
  -2   1   6 27576.8 612.299  16 
   2  -1  -5 230.617 180.264   1 
   2  -1  -4 51683.3 2071.07   1 
   2  -1  -3 4528.32 582.674   1 
   2  -1  -2 14796.7 916.064   1 
  -2   1   1 910321. 3970.62   2 
   2  -1  -1 912302. 6312.63   1 
   2  -1   0 389998. 3509.49   1 
  -2   1   0 394612. 3366.76   2 
  -2   1  -1 654.800 175.599   2 
   2  -1   1 620.708 115.853   1 
  -2   1  -2 21345.4 1042.07   2 
  -2   1  -3 494.897 212.862   2 
  -2   1  -4 13265.6 1010.73   2 
  -2   1  -5 373.049 206.926   2 
  -2   1  -6 4449.82 697.385   2 
  -2   1  -7 1998.29 497.229   2 
  -2   1  -7 1558.04 175.699   6 
  -2   1  -8 15257.9 583.916   6 
  -2   1  -8 16724.5 1542.27   2 
  -2   1  -9 257.890 118.207   6 
  -2   1 -10 4114.84 357.221   6 
  -2   1 -11 2389.72 284.490   6 
  -2   1 -12 263.571 114.395   9 
  -2   1 -12 331.724 127.337   6 
  -2   1 -13-36.3622 55.9842   9 
  -2   1 -13 18.5456 69.2176   6 
   2   0 -12 234.748 123.373   6 
   2   0 -12 1.97311 93.2151   5 
   2   0 -11 927.051 177.782   6 
   2   0 -10 10101.2 545.527   6 
   2   0  -9 107.444 78.0282   6 
  -2   0   9 114.614 61.9310  13 
   2   0  -8 3987.39 298.060   6 
   2   0  -8 3707.69 757.686   1 
  -2   0   8 4339.77 289.891  13 
  -2   0   8 4467.30 294.853  16 
   2   0  -7 37318.6 802.357   6 
  -2   0   7 37543.6 787.353  13 
   2   0  -7 36385.2 2155.66   1 
  -2   0   7 37750.4 770.607  16 
   2   0  -6 205.914 172.170   1 
   2   0  -5 26153.2 1525.55   1 
  -2   0   4 138753. 3159.67   3 
   2   0  -4 132995. 3187.07   1 
  -2   0   3 17522.1 1023.08   3 
  -2   0   2 12106.2 776.375   3 
  -2   0   1 397552. 3957.28   3 
  -2   0   0 10704.2 504.850   2 
  -2   0   0 10856.6 577.926   3 
  -2   0  -1 3134.60 270.789   3 
  -2   0  -1 3494.75 352.888   2 
  -2   0  -2 57619.7 946.478   3 
  -2   0  -2 63276.7 1739.93   2 
  -2   0  -3 683.790 227.015   2 
  -2   0  -3 364.172 64.4053   3 
  -2   0  -4 4108.56 550.011   2 
  -2   0  -5 453.755 210.927   2 
  -2   0  -6 13810.1 1189.67   2 
  -2   0  -7 52871.3 2505.64   2 
  -2   0  -7 55031.6 1008.22   6 
  -2   0  -8 5085.01 348.347   6 
  -2   0  -8 5141.78 832.015   2 
  -2   0  -9 1232.24 192.855   6 
  -2   0 -10 3387.09 327.407   6 
  -2   0 -11 1235.78 218.914   9 
  -2   0 -11 1522.30 225.535   6 
  -2   0 -12 584.230 149.991   9 
  -2   0 -12 782.592 168.351   6 
  -2   0 -13 1455.39 195.182   9 
  -2   0 -13 611.199 154.307   5 
   2   1 -12 772.065 163.327   6 
   2   1 -11 852.392 181.951   6 
   2   1 -10 26483.9 886.862   6 
  -2  -1   9 25245.0 722.574  16 
   2   1  -9 24938.2 814.713   6 
  -2  -1   9 26096.0 730.174  13 
   2   1  -8 6737.74 395.366   6 
  -2  -1   8 6204.73 347.964  13 
  -2  -1   8 6814.04 357.269  16 
   2   1  -7 2066.59 506.292   1 
  -2  -1   7 2769.29 213.578  16 
   2   1  -7 2565.45 224.906   6 
  -2  -1   7 2603.38 214.944  13 
   2   1  -6 2892.33 545.071   1 
   2   1  -5 55689.2 2229.29   1 
  -2  -1   5 56853.2 2144.07   3 
  -2  -1   4 15172.5 1022.33   3 
  -2  -1   3 7465.58 665.313   3 
  -2  -1   2 1761.08 308.007   3 
  -2  -1   1 55440.8 1582.61   3 
  -2  -1   0 14110.2 736.646   3 
  -2  -1  -1 243935. 3052.57   2 
  -2  -1  -1 235079. 2826.82   3 
  -2  -1  -2 548169. 5177.78   2 
  -2  -1  -2 542115. 4293.62   3 
  -2  -1  -3 31332.4 1131.49   3 
  -2  -1  -3 35860.2 1480.14   2 
  -2  -1  -4 16229.0 1136.98   1 
  -2  -1  -4 17196.4 1120.18   2 
  -2  -1  -4 15123.3 903.037   3 
  -2  -1  -5 24221.4 1609.03   1 
  -2  -1  -5 24014.8 1452.16   2 
  -2  -1  -6 6749.48 838.462   2 
  -2  -1  -7 1245.34 146.023   8 
  -2  -1  -7 1248.02 163.246   6 
  -2  -1  -8 1898.78 507.091   2 
  -2  -1  -8 1629.94 183.204   8 
  -2  -1  -8 1593.77 206.791   6 
  -2  -1  -9 17245.4 714.456   9 
  -2  -1  -9 17444.6 690.574   6 
  -2  -1 -10 471.991 139.951   9 
  -2  -1 -10 381.484 124.514   6 
  -2  -1 -11 541.664 149.421   6 
  -2  -1 -11 585.715 160.951   9 
  -2  -1 -12 402.095 107.001   9 
  -2  -1 -12 116.957 98.9181   5 
  -2  -1 -13-149.584 106.068   5 
  -2  -1 -13 81.1328 70.3913   9 
   2   2 -12-76.2887 74.7925   6 
   2   2 -11 223.399 113.867   6 
   2   2 -10 23.7590 102.474   6 
  -2  -2   9 13882.2 551.574  13 
  -2  -2   9 13870.5 536.972  16 
   2   2  -9 14186.6 631.652   6 
  -2  -2   8 3470.94 271.719  13 
  -2  -2   8 3686.81 260.747  16 
   2   2  -8 3180.26 291.845   6 
   2   2  -7 8187.39 432.020   6 
  -2  -2   7 8017.77 368.043  16 
   2   2  -6 10974.0 1086.68   1 
  -2  -2   6 12216.9 406.226  16 
  -2  -2   6 12602.2 502.603   5 
  -2  -2   6 12151.0 1081.95   3 
   2   2  -6 12887.4 486.008   6 
  -2  -2   5 27147.1 1496.73   3 
   2   2  -4 111649. 2392.29   2 
  -2  -2   4 105429. 2789.68   3 
  -2  -2   3 703.703 218.214   3 
  -2  -2   2 50534.3 1737.04   3 
  -2  -2   1 4680.46 511.291   3 
  -2  -2   0 29008.0 1209.13   3 
  -2  -2  -1 219863. 3348.86   3 
  -2  -2  -2 128150. 2730.94   3 
  -2  -2  -3 4214.14 551.086   2 
  -2  -2  -3 3505.99 521.735   3 
  -2  -2  -3 3545.44 561.498   1 
  -2  -2  -4 94987.5 2803.35   2 
  -2  -2  -4 89463.5 3296.86   1 
  -2  -2  -5 37356.1 1891.61   2 
  -2  -2  -5 34388.5 2375.84   1 
  -2  -2  -6 1222.25 371.779   2 
  -2  -2  -6 1904.15 576.771   1 
  -2  -2  -7 1207.77 387.004   2 
  -2  -2  -7 876.404 150.672   9 
  -2  -2  -7 1048.95 161.656   6 
  -2  -2  -7 986.040 131.892   8 
  -2  -2  -8 3047.63 240.709   8 
  -2  -2  -8 3011.61 291.194   9 
  -2  -2  -8 3234.36 290.835   6 
  -2  -2  -9 6995.38 461.535   9 
  -2  -2  -9 7279.19 461.715   6 
  -2  -2 -10 69.9187 106.848   5 
  -2  -2 -10 47.4780 70.3921   9 
  -2  -2 -10 110.081 106.376   6 
  -2  -2 -11 178.444 94.7302   9 
  -2  -2 -11 22.7158 77.7091   5 
  -2  -2 -12 856.908 166.637   9 
  -2  -2 -12 431.598 127.834   5 
  -2  -2 -13 291.387 106.073   9 
  -2  -2 -13 270.862 111.739   5 
   2   3 -12 82.6279 98.1754   6 
   2   3 -11 1234.11 206.624   6 
   2   3 -10 205.802 122.699   6 
  -2  -3   9-10.1881 66.1933  13 
   2   3  -9 102.319 108.339   6 
   2   3  -8 6056.72 417.598   6 
  -2  -3   8 6259.43 345.633  16 
  -2  -3   7 2032.00 188.166  16 
   2   3  -7 2203.28 246.913   6 
  -2  -3   7 2144.05 242.299   5 
  -2  -3   6 1646.54 158.527  16 
   2   3  -6 1529.65 184.030   6 
  -2  -3   6 1685.64 200.094   5 
  -2  -3   6 1485.61 385.125   3 
  -2  -3   5 1756.77 402.234   3 
  -2  -3   4 2089.10 425.378   3 
  -2  -3   3 2008.30 403.969   3 
  -2  -3   2 5277.89 619.038   3 
  -2  -3   1 21230.8 1207.57   3 
  -2  -3   0 25679.4 1318.32   3 
  -2  -3  -1 764.244 245.117   3 
  -2  -3  -2 102.101 169.040   3 
  -2  -3  -3 39825.9 2063.23   3 
  -2  -3  -3 43722.6 2265.48   1 
  -2  -3  -4 16511.7 1580.36   1 
  -2  -3  -5 48706.0 2983.01   1 
  -2  -3  -6 9104.77 384.558   8 
  -2  -3  -6 11178.8 498.854   5 
  -2  -3  -6 10267.0 455.553   9 
  -2  -3  -6 9547.70 1460.01   1 
  -2  -3  -7 17359.6 640.641   9 
  -2  -3  -7 14889.1 662.416   5 
  -2  -3  -8 2630.96 276.833   9 
  -2  -3  -8 2450.24 294.524   5 
  -2  -3  -9 3844.84 384.290   5 
  -2  -3  -9 4128.21 365.112   9 
  -2  -3 -10 5323.12 419.904   9 
  -2  -3 -10 4641.67 437.447   5 
  -2  -3 -11 307.207 123.239   9 
  -2  -3 -11 21.7688 90.0746   5 
  -2  -3 -12 151.851 94.5672   5 
  -2  -3 -12 236.894 115.368   9 
  -2  -3 -13 3.80312 62.5550   5 
   2   4 -12 1982.99 222.138   6 
   2   4 -11 321.255 116.810   6 
   2   4 -10 2968.47 319.213   6 
  -2  -4  10 3076.91 258.207  13 
   2   4  -9 5668.60 433.011   6 
  -2  -4   9 6669.92 397.966  13 
   2   4  -8 2084.41 264.991   6 
  -2  -4   8 2244.86 275.459   5 
  -2  -4   7 1227.67 200.679   5 
   2   4  -7 1475.78 205.892   6 
  -2  -4   6 31233.8 684.154  16 
   2   4  -6 31682.7 876.872   6 
  -2  -4   6 32414.6 874.673   5 
  -2  -4   5 8635.46 334.923  16 
   2   4  -5 9724.46 447.384   6 
  -2  -4   5 9314.20 445.097   5 
  -2  -4   5 8654.90 934.328   3 
  -2  -4   4 3976.95 616.854   3 
  -2  -4   3 430.900 193.255   3 
  -2  -4   2 344.185 173.900   3 
  -2  -4   1 131475. 3420.38   3 
  -2  -4   0 38325.7 1869.22   3 
  -2  -4  -1 20141.3 1403.16   3 
  -2  -4  -2-30.5124 116.629   3 
  -2  -4  -3 46402.7 2468.80   3 
  -2  -4  -4 1675.30 558.956   1 
  -2  -4  -5 30034.5 787.782   5 
  -2  -4  -5 25275.8 685.516   9 
  -2  -4  -5 27413.7 2332.95   1 
  -2  -4  -6 23261.9 782.135   5 
  -2  -4  -6 26061.5 760.365   9 
  -2  -4  -6 21863.0 2227.57   1 
  -2  -4  -7 7000.44 429.657   9 
  -2  -4  -7 6998.94 454.012   5 
  -2  -4  -7 6619.29 1290.87   1 
  -2  -4  -8 1164.57 188.586   9 
  -2  -4  -8 1260.26 222.479   5 
  -2  -4  -9 4062.56 359.242   9 
  -2  -4  -9 4429.56 409.715   5 
  -2  -4 -10 4.25841 92.2083   9 
  -2  -4 -10-18.0699 67.9978   5 
  -2  -4 -11 605.342 146.746   9 
  -2  -4 -11 571.754 171.103   5 
  -2  -4 -12 5808.04 384.536   9 
  -2  -4 -12 4411.09 394.458   5 
   2   5 -11 1511.20 209.104   6 
   2   5 -10 958.344 183.171   6 
  -2  -5  10 1086.77 163.904  13 
   2   5  -9 874.191 186.851   6 
  -2  -5   8 6515.20 465.683   5 
   2   5  -8 6607.54 477.196   6 
  -2  -5   7 307.176 105.808   5 
   2   5  -7 524.545 157.390   6 
   2   5  -6 2868.71 291.125   6 
  -2  -5   6 2842.69 283.419   5 
   2   5  -5 3867.72 769.441   2 
   2   5  -5 3406.97 292.886   6 
  -2  -5   5 3520.16 286.039   5 
  -2  -5   4 1300.82 136.427  16 
  -2  -5   4 1285.17 382.965   3 
  -2  -5   4 1155.92 162.997   5 
  -2  -5   3 20880.5 1530.19   3 
  -2  -5   3 19403.7 592.054   5 
  -2  -5   2 21899.7 1582.88   3 
  -2  -5   1 2304.88 522.151   3 
  -2  -5   0 21667.3 1612.11   3 
  -2  -5  -1 12949.8 1263.32   3 
  -2  -5  -2 46428.9 2505.82   3 
  -2  -5  -3 16612.3 1575.05   3 
  -2  -5  -4 3962.67 280.679   9 
  -2  -5  -4 4201.08 293.203   5 
  -2  -5  -4 3883.29 813.007   3 
  -2  -5  -5 6304.40 373.991   9 
  -2  -5  -5 5961.69 377.230   5 
  -2  -5  -5 5244.51 1058.87   1 
  -2  -5  -5 5541.84 1019.61   3 
  -2  -5  -6 1884.26 222.759   9 
  -2  -5  -6 1828.31 230.718   5 
  -2  -5  -6 1754.06 630.473   1 
  -2  -5  -6 1705.52 597.030   3 
  -2  -5  -7 30788.1 922.421   9 
  -2  -5  -7 27647.8 949.153   5 
  -2  -5  -8 7126.31 466.710   9 
  -2  -5  -8 7503.39 517.312   5 
  -2  -5  -9 11475.0 603.668   9 
  -2  -5  -9 10866.7 645.582   5 
  -2  -5 -10 4394.27 400.570   5 
  -2  -5 -10 4172.06 360.602   9 
  -2  -5 -11 61.4815 90.4278   5 
  -2  -5 -11-60.3974 93.6007   9 
  -2  -5 -12-11.8937 74.0262   5 
   2   6 -11 86.2620 68.7275   6 
   2   6 -10 853.465 170.354   6 
   2   6  -9 43.6768 84.8756   6 
   2   6  -8 564.165 162.793   6 
  -2  -6   8 753.089 178.626   5 
   2   6  -7 6094.54 445.865   6 
  -2  -6   7 6253.47 465.245   5 
   2   6  -6 937.376 192.526   6 
  -2  -6   6 812.722 175.373   5 
   2   6  -5 6080.99 418.350   6 
   2   6  -5 6713.19 1022.72   2 
  -2  -6   5 6345.16 423.878   5 
  -2  -6   4 28017.5 832.648   5 
  -2  -6   3 39889.2 2332.88   3 
  -2  -6   3 37769.5 909.682   5 
  -2  -6   3 34063.1 715.557  16 
  -2  -6   2 17806.8 530.055  16 
  -2  -6   2 18964.5 1640.01   3 
  -2  -6   2 18036.0 623.019   5 
  -2  -6   1 436.735 107.500   5 
  -2  -6   1 564.378 304.530   3 
  -2  -6   0 20419.8 654.517   5 
  -2  -6   0 21222.8 1768.22   3 
  -2  -6  -1 613.061 327.315   3 
  -2  -6  -1 546.129 112.483   5 
  -2  -6  -2 72875.3 3379.32   3 
  -2  -6  -2 79309.0 1268.54   5 
  -2  -6  -3 14480.4 1568.13   3 
  -2  -6  -3 14330.5 561.245   5 
  -2  -6  -4 95.5285 70.1063   5 
  -2  -6  -4 157.659 202.147   3 
  -2  -6  -5 2606.15 266.208   5 
  -2  -6  -5 2466.55 713.896   3 
  -2  -6  -6 7168.81 1275.06   3 
  -2  -6  -6 7696.85 480.768   5 
  -2  -6  -7 20928.8 804.280   9 
  -2  -6  -7 19085.1 807.317   5 
  -2  -6  -8 50615.6 1266.10   9 
  -2  -6  -8 48461.4 1310.56   5 
  -2  -6  -9 18137.0 807.868   5 
  -2  -6 -10 75.3072 74.0537   5 
  -2  -6 -11 2409.96 285.911   5 
   2   7 -10 52.5217 68.0284   6 
   2   7  -9 2253.50 260.682   6 
   2   7  -8 31.1184 97.3978   6 
  -2  -7   8 139.987 81.3467   5 
   2   7  -7 2123.23 272.811   6 
  -2  -7   7 1849.83 269.372   5 
   2   7  -6 18228.5 784.275   6 
  -2  -7   6 18014.7 788.010   5 
  -2  -7   5 5185.12 412.440   5 
   2   7  -5 5255.64 405.513   6 
  -2  -7   4 13529.4 634.787   5 
  -2  -7   3 8765.68 1175.53   3 
  -2  -7   3 7920.15 468.366   5 
  -2  -7   2 10067.2 427.942  16 
  -2  -7   2 11493.7 1373.21   3 
  -2  -7   2 11254.5 543.387   5 
  -2  -7   1 6656.70 416.610   5 
  -2  -7   1 7358.74 1124.32   3 
  -2  -7   0 4970.31 357.110   5 
  -2  -7   0 5328.02 949.371   3 
  -2  -7  -1 4103.03 322.273   5 
  -2  -7  -1 3974.65 848.240   3 
  -2  -7  -2 1716.70 576.125   3 
  -2  -7  -2 2191.19 244.258   5 
  -2  -7  -3 135.410 71.9139   5 
  -2  -7  -3 186.366 218.395   3 
  -2  -7  -4 11464.3 562.337   5 
  -2  -7  -4 10869.3 1514.03   3 
  -2  -7  -5 124.665 92.3854   5 
  -2  -7  -6 2402.40 282.994   5 
  -2  -7  -7 161.343 94.4507   5 
  -2  -7  -8 420.532 141.647   5 
  -2  -7  -9 82.5925 88.7421   5 
  -2  -7 -10 525.888 139.697   5 
  -2  -7 -11-20.7031 53.3624   5 
   2   8  -9 406.986 116.758   6 
   2   8  -8 155.770 93.0957   6 
  -2  -8   8-65.5428 89.6949   5 
   2   8  -7 2856.64 300.429   6 
  -2  -8   7 2317.91 296.727   5 
   2   8  -6 3682.15 348.940   6 
  -2  -8   6 3502.03 359.119   5 
   2   8  -5 2140.60 275.364   6 
  -2  -8   5 1991.24 268.472   5 
   2   8  -4 5646.34 438.473   6 
  -2  -8   4 6509.71 463.538   5 
  -2  -8   3 613.001 150.908   5 
  -2  -8   2 8345.66 509.283   5 
  -2  -8   1 67634.6 1419.27   5 
  -2  -8   1 65910.8 1167.58  16 
  -2  -8   0 19450.8 753.180   5 
  -2  -8  -1 192.646 89.0100   5 
  -2  -8  -2 13097.7 618.329   5 
  -2  -8  -3 7088.94 462.604   5 
  -2  -8  -4 4708.43 374.219   5 
  -2  -8  -5 40368.3 1122.57   5 
  -2  -8  -6 1456.61 226.425   5 
  -2  -8  -7 12015.5 628.591   5 
  -2  -8  -8 909.841 184.344   5 
  -2  -8  -9 162.237 93.3352   5 
  -2  -8 -10 2188.53 230.392   5 
   2   9  -7 21.9416 80.5101   6 
  -2  -9   7 4.25957 61.7529   5 
  -2  -9   6 7680.75 498.569   5 
   2   9  -6 8209.91 495.190   6 
   2   9  -5 626.481 145.823   6 
  -2  -9   5 597.660 156.261   5 
   2   9  -4 5590.67 419.542   6 
  -2  -9   4 6431.14 467.263   5 
  -2  -9   3 4876.03 407.560   5 
  -2  -9   2 2962.41 310.858   5 
  -2  -9   1 5351.38 416.419   5 
  -2  -9   0 1223.43 213.601   5 
  -2  -9  -1 2278.63 269.271   5 
  -2  -9  -2 360.133 113.900   5 
  -2  -9  -3 10739.6 586.357   5 
  -2  -9  -4 282.155 117.266   5 
  -2  -9  -5 3730.62 349.933   5 
  -2  -9  -6 3881.95 355.071   5 
  -2  -9  -7 31.5616 83.0910   5 
  -2  -9  -8 1142.71 182.225   5 
  -2  -9  -9 1119.60 168.278   5 
  -2 -10   6 118.861 84.2228   5 
   2  10  -6 67.3397 57.9002   6 
   2  10  -5 4241.21 321.441   6 
  -2 -10   5 3514.77 314.208   5 
   2  10  -4 3192.98 294.215   6 
  -2 -10   4 3108.56 298.774   5 
   2  10  -3 2045.01 245.031   6 
  -2 -10   3 2310.23 266.060   5 
  -2 -10   2 720.231 154.237   5 
  -2 -10   1 402.655 135.372   5 
  -2 -10   0 2971.13 300.160   5 
  -2 -10  -1 6280.01 438.417   5 
  -2 -10  -2 5636.34 407.354   5 
  -2 -10  -3 1239.28 193.143   5 
  -2 -10  -4 1744.18 235.687   5 
  -2 -10  -5 245.770 100.069   5 
  -2 -10  -6 138.792 76.1841   5 
  -2 -10  -7 955.976 162.900   5 
   2  11  -3 181.007 82.3842   6 
  -2 -11   3 111.968 73.8071   5 
   2  11  -2-25.9729 68.8840   6 
  -2 -11   2-39.8324 46.9019   5 
   2  11  -1 3080.84 258.110   6 
  -2 -11   1 3379.79 290.055   5 
  -2 -11   0 111.939 54.5787   5 
  -2 -11  -1 3532.13 296.155   5 
  -2 -11  -2-32.6404 67.5659   5 
  -2 -11  -3 458.438 114.333   5 
  -2 -11  -4 412.446 102.885   5 
  -2 -11  -5 1302.95 169.484   5 
  -3  10   4 158.640 67.7079  10 
  -3  10   4 111.207 72.5217  17 
  -3  10   3 865.617 149.646  10 
  -3  10   3 1166.68 179.519  17 
  -3  10   2 1988.34 240.606  17 
  -3  10   2 2131.81 243.854  10 
  -3  10   1 93.2301 69.3708  17 
  -3  10   0 950.004 164.178  17 
  -3  10  -1 986.198 166.403  17 
  -3  10  -2 7579.04 411.042  17 
  -3  10  -3 111.768 73.3279  17 
  -3  10  -4 163.910 81.4880  14 
  -3   9   7 143.090 73.9245  10 
  -3   9   6 708.602 144.303  10 
  -3   9   5 334.916 111.821  10 
  -3   9   4 723.788 155.696  10 
  -3   9   3 6505.55 455.979  10 
  -3   9   2 905.093 175.854  10 
  -3   9   1 1564.36 235.290  10 
  -3   9  -1 532.868 144.867  17 
  -3   9  -2 217.820 99.4181  17 
  -3   9  -3 265.138 95.2833  17 
  -3   9  -4 218.411 102.745  14 
  -3   9  -5 251.099 89.0476  14 
  -3   9  -6-206.024 78.2688  14 
  -3   8   8-2.06269 57.7796  10 
  -3   8   7 807.785 157.440  10 
  -3   8   6 416.119 121.067  10 
  -3   8   5 106.292 83.1755  10 
  -3   8   4 16.5240 71.2919  10 
  -3   8   3 678.708 165.988  10 
  -3   8   2 14393.3 684.503  10 
  -3   8   1 13692.2 679.492  10 
  -3   8   0 115.014 67.1209  10 
  -3   8  -1 136.875 87.2019  10 
  -3   8  -2 59.4341 71.0748  17 
   3  -8   3 5761.44 364.554   5 
  -3   8  -3 6463.77 413.480  17 
  -3   8  -4 2963.67 271.670  17 
   3  -8   4 2842.76 261.240   5 
  -3   8  -5 4788.37 372.380  14 
   3  -8   5 4259.78 326.402   5 
  -3   8  -5 4849.29 369.159  12 
   3  -8   6 323.193 102.233   5 
  -3   8  -6 336.697 92.6978  14 
  -3   8  -6 383.115 109.062  12 
  -3   8  -7 516.521 121.657  14 
  -3   8  -7 647.466 140.039  12 
  -3   8  -8 126.575 78.8039  12 
  -3   7   9 1455.95 203.567  10 
  -3   7   8 1585.65 202.434  13 
  -3   7   8 1957.26 250.278  10 
  -3   7   7 322.027 105.746  13 
  -3   7   7 403.359 135.281  10 
  -3   7   6 2986.81 296.119  13 
  -3   7   6 2664.04 302.493  10 
  -3   7   5 3139.41 308.533  13 
  -3   7   5 3028.38 320.055  10 
  -3   7   4 618.769 148.899  10 
  -3   7   4 714.458 160.015  13 
  -3   7   3 269.542 111.703  10 
  -3   7   3 281.302 116.966  13 
  -3   7   2 2723.35 287.691  10 
  -3   7   1 3760.86 340.914  10 
  -3   7   0 133.646 74.3372  10 
  -3   7  -1 750.036 172.523  10 
  -3   7  -2 15793.7 639.750  17 
  -3   7  -3 1136.01 175.041  17 
   3  -7   3 1313.41 174.228   5 
   3  -7   4 164.657 69.3531   5 
  -3   7  -4 245.460 121.534  12 
  -3   7  -4 27.4858 82.1230  17 
  -3   7  -5 3392.22 321.007  14 
  -3   7  -5 3965.92 349.148  12 
   3  -7   5 3150.31 287.376   5 
  -3   7  -6 395.640 129.405  14 
   3  -7   6 253.210 91.3756   5 
   3  -7   7 47.8298 59.8210   5 
  -3   7  -7-19.9723 67.9695  14 
   3  -7   8 437.976 117.094   5 
  -3   7  -8 773.073 160.087  12 
  -3   7  -9 663.242 138.410  12 
  -3   6  10 141.445 83.2516  10 
  -3   6   9 1523.97 228.584  10 
  -3   6   9 1318.03 175.097  13 
  -3   6   8 451.169 143.634  10 
  -3   6   8 450.484 119.786  13 
  -3   6   7-8.09736 84.8914  13 
  -3   6   7 55.4459 75.1803  10 
  -3   6   6 7363.04 502.290  10 
  -3   6   6 7102.98 450.126  13 
  -3   6   5 18115.2 695.803  13 
  -3   6   5 17700.2 743.767  10 
  -3   6   4 10024.3 508.134  13 
  -3   6   4 9849.08 534.179  10 
  -3   6   3 60.6218 81.2211  13 
  -3   6   3 194.074 86.7286  10 
  -3   6   2 4148.66 309.083  13 
  -3   6   2 3913.58 325.252  10 
  -3   6   1 836.734 151.691  10 
  -3   6   1 823.044 152.052  13 
  -3   6   0 7550.55 1027.87   2 
  -3   6   0 9345.89 490.145  10 
  -3   6  -1 23810.3 1892.93   2 
  -3   6  -1 23961.9 795.202  10 
  -3   6  -2 2461.49 624.150   2 
  -3   6  -2 2299.35 269.277  10 
  -3   6  -3 15585.1 1634.74   2 
  -3   6  -3 14245.4 564.990  17 
  -3   6  -3 15044.0 604.806  12 
   3  -6   3 14621.2 538.741   5 
  -3   6  -3 15482.0 615.537  11 
  -3   6  -4 3832.23 293.538  17 
  -3   6  -4 4217.71 349.517  11 
   3  -6   4 3517.94 286.929   5 
  -3   6  -5 2001.05 254.334  11 
  -3   6  -5 2252.89 249.356  14 
   3  -6   5 1998.34 232.186   5 
  -3   6  -6 14377.1 626.320  14 
   3  -6   6 12941.8 607.649   5 
  -3   6  -7 1998.25 277.993  12 
   3  -6   7 1620.86 221.476   5 
  -3   6  -7 1842.11 231.053  14 
   3  -6   8 179.470 91.7141   5 
  -3   6  -8 229.094 101.848  14 
  -3   6  -8 424.502 155.369  12 
  -3   6  -9 267.743 114.555  12 
  -3   6 -10 356.659 111.879  12 
  -3   5  11 1028.89 169.446  10 
  -3   5  10 1637.45 236.772  10 
  -3   5   9 1218.80 217.723  10 
  -3   5   9 1175.55 175.260  13 
  -3   5   8 5161.34 372.991  13 
  -3   5   7 8115.28 464.219  13 
  -3   5   6 2873.89 285.744  13 
  -3   5   6 3440.38 335.874  10 
  -3   5   5 24996.1 770.459  13 
  -3   5   5 23318.9 824.002  10 
  -3   5   4 1648.59 200.236  13 
  -3   5   4 1475.33 203.002  10 
   3  -5  -4 824.590 769.450   1 
  -3   5   3 68.2128 52.4007  10 
  -3   5   3 129.257 86.0310  13 
   3  -5  -2 3567.45 1274.93   1 
  -3   5   2 4837.55 308.075  13 
  -3   5   2 4696.51 318.866  10 
  -3   5   1 31537.0 712.345  11 
  -3   5   1 32936.2 792.992  13 
  -3   5   1 34390.5 839.543  10 
  -3   5   0 18394.3 547.514  11 
  -3   5   0 18773.5 580.834  13 
  -3   5   0 18590.4 613.806  10 
  -3   5   0 18790.3 1484.79   2 
  -3   5  -1 473.876 110.169  10 
  -3   5  -1 538.306 300.929   2 
  -3   5  -1 393.779 98.2511  11 
  -3   5  -2 27116.3 792.470  10 
  -3   5  -2 25946.8 712.101  11 
  -3   5  -2 28052.5 1957.73   2 
  -3   5  -2 24913.5 661.031  12 
  -3   5  -3 844.417 130.907  17 
  -3   5  -3 764.472 342.302   2 
  -3   5  -3 810.556 140.323  11 
  -3   5  -4 10469.0 451.055  17 
  -3   5  -4 11641.8 571.029  11 
   3  -5   4 10954.8 467.726   5 
   3  -5   5-17.0415 61.5440   5 
  -3   5  -5 152.015 83.8695  17 
  -3   5  -5 57.9457 100.608  11 
  -3   5  -6 4085.55 332.166  14 
   3  -5   6 3831.59 335.976   5 
   3  -5   7 407.064 122.209   5 
  -3   5  -7 675.637 143.664  14 
  -3   5  -8 394.241 157.922  12 
   3  -5   8 286.977 116.549   5 
  -3   5  -8 378.432 118.408  14 
  -3   5  -9 290.880 121.073  12 
  -3   5 -10 346.047 112.988  12 
  -3   5 -11 42.0098 67.8262  12 
  -3   4  11 350.522 94.1793   4 
  -3   4  10 2816.27 255.279   4 
  -3   4  10 2709.41 241.859  13 
  -3   4   9 18562.5 667.571  13 
  -3   4   9 18929.4 682.811   4 
  -3   4   8 7262.43 428.961  13 
  -3   4   8 7788.19 436.128   4 
  -3   4   7 309.691 94.8960   4 
  -3   4   7 662.163 146.496  13 
   3  -4  -6 2428.16 1126.46   1 
  -3   4   6 3457.87 286.126  13 
  -3   4   6 3196.27 258.124   4 
   3  -4  -5 847.926 590.669   1 
  -3   4   5 324.986 81.7031   4 
  -3   4   5 463.239 112.262  13 
  -3   4   4 933.754 123.040   4 
  -3   4   4 933.182 144.303  13 
  -3   4   3 9913.20 403.760  13 
  -3   4   3 9592.10 427.159  10 
   3  -4  -2 22972.9 2526.33   1 
   3  -4  -1 7893.11 1506.00   1 
  -3   4   1 10084.1 900.562   2 
   3  -4   0 24466.4 2586.66   1 
  -3   4   0 28100.0 1624.70   2 
  -3   4  -1 11159.0 1084.96   2 
  -3   4  -2 511.883 285.335   2 
  -3   4  -3 35384.4 736.778  17 
  -3   4  -3 34229.6 837.541  11 
  -3   4  -4 13155.1 463.344  17 
  -3   4  -4 13404.4 576.230  11 
  -3   4  -5 1068.41 201.772  11 
  -3   4  -5 1044.79 143.484  17 
  -3   4  -5 1349.69 458.455   2 
  -3   4  -5 784.264 132.377  14 
   3  -4   5 972.363 145.135   5 
  -3   4  -6 5278.31 348.219  14 
  -3   4  -6 5469.54 441.508  11 
   3  -4   6 4779.09 346.702   5 
   3  -4   7 2475.64 273.677   5 
  -3   4  -7 3901.47 315.917  14 
  -3   4  -8-111.435 78.2555   6 
  -3   4  -8-11.4458 66.3004  14 
  -3   4  -9 33.7023 78.6562   6 
  -3   4  -9 116.307 99.7017  12 
  -3   4 -10 340.855 111.272   6 
  -3   4 -10 181.649 95.7629  12 
  -3   4 -11 1184.48 177.894   6 
  -3   4 -11 1497.59 189.188  12 
  -3   3  12 56.9495 52.1862   4 
  -3   3  11 9801.78 471.961   4 
  -3   3  10 5905.10 362.991  13 
  -3   3  10 6155.09 397.169   4 
  -3   3   9 7474.76 423.635  13 
  -3   3   9 7469.57 441.180   4 
  -3   3   8 11936.5 531.902  13 
  -3   3   8 11396.3 531.139   4 
  -3   3   7 477.010 108.590   4 
  -3   3   7 735.543 146.474  13 
  -3   3   6 5833.04 348.227  13 
  -3   3   6 5788.17 336.004   4 
  -3   3   5 23818.9 620.986   4 
  -3   3   5 23125.5 641.569  13 
   3  -3  -5 21375.9 2114.37   1 
  -3   3   4 540.586 98.3213  13 
   3  -3  -4 293.872 262.918   1 
   3  -3  -3 22388.0 1823.51   1 
   3  -3  -2 8182.38 1018.80   1 
   3  -3  -1 4238.33 720.227   1 
  -3   3   1 3823.29 462.847   2 
   3  -3   0 45476.0 2400.25   1 
  -3   3   0 44240.4 1750.52   2 
  -3   3  -1 330.575 225.403   2 
  -3   3  -2 7894.51 850.960   2 
  -3   3  -3 1763.35 448.735   2 
  -3   3  -4 1915.01 486.575   2 
  -3   3  -5 41.8512 55.8719  14 
  -3   3  -5 109.608 59.0300  17 
  -3   3  -5 48.4122 113.909   2 
  -3   3  -5-67.7046 93.6153  11 
  -3   3  -6 490.286 141.338  11 
  -3   3  -6 480.423 105.666  14 
  -3   3  -6 351.279 250.892   2 
   3  -3   6 492.783 115.069   5 
   3  -3   7 4963.26 368.927   5 
  -3   3  -7 6407.51 1025.19   2 
  -3   3  -7 6180.31 358.049   6 
  -3   3  -7 5951.39 370.876  14 
  -3   3  -8 2831.66 265.359   6 
  -3   3  -8 2869.93 306.164  12 
  -3   3  -8 2492.29 259.389  14 
  -3   3  -9 2378.49 257.199   6 
  -3   3  -9 2437.51 282.690  12 
  -3   3 -10 2443.13 267.352   6 
  -3   3 -10 2269.88 256.108  12 
  -3   3 -11 3070.19 263.389  12 
  -3   3 -11 3006.20 289.196   6 
  -3   3 -12 52.9183 59.4647   9 
  -3   3 -12 49.2135 59.3472   6 
  -3   2  12 203.272 72.8038   4 
  -3   2  11 55.9181 53.5055   4 
  -3   2  10 341.303 113.280   4 
  -3   2  10 446.840 114.040  13 
  -3   2   9 1115.15 167.108  13 
  -3   2   8 7741.40 421.455  13 
   3  -2  -7 5732.58 1115.34   1 
  -3   2   7 7242.79 393.610  13 
  -3   2   6 70183.6 1069.80  16 
  -3   2   6 69356.0 1132.81  13 
   3  -2  -6 67572.9 3449.02   1 
  -3   2   5 1743.17 172.182  13 
  -3   2   5 1721.12 153.552  16 
  -3   2   5 1896.19 178.530   7 
   3  -2  -4 11458.2 1187.31   1 
   3  -2  -3 25780.7 1645.09   1 
   3  -2  -2 10017.4 943.586   1 
   3  -2  -1 32380.2 1528.56   1 
  -3   2   1 32347.5 1096.02   2 
   3  -2   0 87761.2 2258.85   1 
  -3   2   0 78024.4 1997.28   2 
  -3   2  -1 30716.0 1408.38   2 
   3  -2   1 29815.1 1213.39   1 
  -3   2  -2 25785.5 1416.92   2 
  -3   2  -3 3581.07 584.168   2 
  -3   2  -4 1022.98 335.579   2 
  -3   2  -5 18630.0 641.744  11 
  -3   2  -5 20649.3 1564.41   2 
  -3   2  -6 13251.0 489.185  14 
  -3   2  -6 12562.2 454.145   6 
  -3   2  -6 12333.9 1298.85   2 
  -3   2  -6 11536.4 569.883  11 
   3  -2   6 11345.5 471.141   5 
  -3   2  -7 166.222 166.734   2 
  -3   2  -7 164.767 80.5348  14 
  -3   2  -7 164.055 66.6918   6 
  -3   2  -8 17358.1 637.738   6 
  -3   2  -8 17510.9 669.093  12 
  -3   2  -8 15571.8 1611.86   2 
  -3   2  -9 12534.0 580.796   6 
  -3   2  -9 11966.4 562.076  12 
  -3   2 -10 5287.91 402.745   6 
  -3   2 -10 5082.72 360.106  12 
  -3   2 -11 3574.61 331.573   6 
  -3   2 -12 11.3068 70.1170   9 
  -3   2 -12 80.9946 86.1858   6 
  -3   1  12-12.0266 49.8769   4 
  -3   1  11 3768.19 313.513   4 
  -3   1  10 655.730 130.769  13 
  -3   1   9 2991.99 266.003  13 
  -3   1   8 6714.45 382.373  16 
  -3   1   8 6663.67 384.606  13 
  -3   1   7 1060.96 156.410  16 
  -3   1   7 989.033 150.846  13 
   3  -1  -7 588.976 332.355   1 
   3  -1  -6 1072.49 400.935   1 
  -3   1   6 1029.71 151.486   7 
  -3   1   6 1042.48 139.843  13 
  -3   1   6 1097.98 142.895  16 
   3  -1  -5 2336.97 526.547   1 
   3  -1  -4 4536.05 694.172   1 
   3  -1  -3 23717.3 1460.50   1 
   3  -1  -2 35877.3 1633.68   1 
  -3   1   1 773.566 157.595   2 
   3  -1  -1 821.063 250.639   1 
   3  -1   0 118077. 2377.43   1 
  -3   1   0 111798. 2157.82   2 
  -3   1  -1 9517.92 728.047   2 
   3  -1   1 9745.20 595.235   1 
   3  -1   2 23056.0 668.721   1 
  -3   1  -2 22763.9 1259.35   2 
  -3   1  -3 5893.38 693.680   2 
  -3   1  -4 4680.71 683.899   2 
  -3   1  -5 1640.12 435.521   2 
  -3   1  -6 9355.12 404.464  14 
  -3   1  -6 8963.21 1062.15   2 
  -3   1  -6 9107.38 409.738  12 
  -3   1  -6 8611.15 453.217  11 
  -3   1  -7 7368.22 1004.75   2 
  -3   1  -7 8606.36 419.655   6 
  -3   1  -7 8083.83 406.894  12 
  -3   1  -8 550.153 297.865   2 
  -3   1  -8 276.086 103.793   6 
  -3   1  -8 232.097 102.003  12 
  -3   1  -9 4788.99 357.820   8 
  -3   1  -9 4888.81 365.040   6 
  -3   1  -9 5029.12 334.985  12 
  -3   1 -10 9500.83 529.566   6 
  -3   1 -11 1125.75 199.452   9 
  -3   1 -11 821.472 175.722   6 
  -3   1 -12 41.2578 76.0493   9 
  -3   1 -12-64.6514 87.8384   6 
  -3   1 -13 903.434 157.841   9 
  -3   0  12 23.1988 46.7954   4 
  -3   0  10 1602.58 192.710  13 
  -3   0   9 14814.1 587.793  13 
  -3   0   9 14084.4 581.517  16 
  -3   0   8 8531.18 436.443  13 
  -3   0   8 9026.12 436.566  16 
  -3   0   7 1950.49 197.455  16 
  -3   0   7 1875.40 199.965  13 
   3   0  -7 2420.33 612.315   1 
  -3   0   6 186.678 65.4066  13 
   3   0  -6 206.187 168.673   1 
  -3   0   6 229.217 83.9379   7 
  -3   0   6 255.885 84.9487  16 
   3   0  -5 6787.29 895.700   1 
   3   0  -4 8828.08 950.431   1 
  -3   0   4 9703.34 944.205   3 
  -3   0   3 63918.8 2240.22   3 
  -3   0   2 33137.1 1476.08   3 
  -3   0   1 114416. 1721.90   2 
  -3   0   1 120618. 2634.57   3 
  -3   0   0 21023.5 882.911   2 
  -3   0   0 19981.1 980.204   3 
  -3   0  -1 31645.4 1261.14   2 
  -3   0  -1 30222.3 1098.92   3 
  -3   0  -2 27831.2 1315.46   2 
  -3   0  -2 23400.5 826.845   3 
  -3   0  -3 320.365 169.074   2 
  -3   0  -4 4681.33 657.597   2 
  -3   0  -5 94386.4 3146.68   2 
  -3   0  -6 58298.2 2639.33   2 
  -3   0  -7 7832.92 1038.54   2 
  -3   0  -7 7826.20 399.376   6 
  -3   0  -7 7475.23 353.728  12 
  -3   0  -8 3758.04 314.686   6 
  -3   0  -8 3664.01 744.281   2 
  -3   0  -8 3919.63 306.292   8 
  -3   0  -9 463.220 121.041   8 
  -3   0  -9 569.644 145.969   6 
  -3   0 -10 4045.06 367.809   6 
  -3   0 -10 4154.53 383.733   9 
  -3   0 -11 4534.11 390.352   9 
  -3   0 -11 3919.34 361.867   6 
  -3   0 -12 2187.49 263.007   9 
  -3   0 -12 341.208 190.923   5 
  -3   0 -13 27.1086 52.4088   9 
  -3   0 -13-100.142 76.1653   5 
  -3  -1  10 599.237 129.027  13 
  -3  -1   9 202.174 109.443  16 
  -3  -1   9 220.914 120.776  13 
   3   1  -9-9.42836 105.155   6 
   3   1  -8 4676.13 332.597   6 
  -3  -1   8 4400.17 314.034  16 
  -3  -1   8 4541.75 319.300  13 
   3   1  -8 4135.49 834.409   1 
  -3  -1   7 5716.72 332.350   7 
   3   1  -7 5617.36 332.162   6 
  -3  -1   7 4967.93 321.170  13 
  -3  -1   7 5487.77 318.562  16 
  -3  -1   6 27154.0 655.468   7 
  -3  -1   6 26384.0 640.365  16 
  -3  -1   6 26847.2 686.517  13 
  -3  -1   5 15995.2 1290.17   3 
  -3  -1   4 23951.3 1478.78   3 
  -3  -1   3 236.211 126.519   3 
  -3  -1   2 4181.43 539.572   3 
  -3  -1   1 3594.87 470.357   3 
  -3  -1   0 54402.2 1748.54   3 
  -3  -1  -1 249.261 135.267   2 
  -3  -1  -1 179.806 123.926   3 
  -3  -1  -2 47796.4 1465.23   3 
  -3  -1  -2 46305.8 1724.70   2 
  -3  -1  -3 12800.6 709.243   3 
  -3  -1  -3 11379.6 939.704   2 
  -3  -1  -4 47455.7 2074.40   2 
  -3  -1  -5 1050.87 332.591   2 
  -3  -1  -6 7527.07 361.620   8 
  -3  -1  -6 6675.04 898.618   2 
  -3  -1  -6 7122.17 353.532   6 
  -3  -1  -7 5111.45 835.656   2 
  -3  -1  -7 4964.51 315.259   8 
  -3  -1  -7 5158.57 341.242   6 
  -3  -1  -8 10178.0 521.661   9 
  -3  -1  -8 9447.04 469.648   8 
  -3  -1  -8 9263.88 498.772   6 
  -3  -1  -8 9947.06 1218.52   2 
  -3  -1  -9 8361.79 505.547   9 
  -3  -1  -9 8187.18 452.278   8 
  -3  -1  -9 8549.63 501.265   6 
  -3  -1 -10 2285.26 290.715   9 
  -3  -1 -10 2456.49 290.156   6 
  -3  -1 -11 973.104 237.762   5 
  -3  -1 -11 4708.08 397.500   9 
  -3  -1 -12 367.558 112.421   9 
  -3  -1 -12 155.897 101.404   5 
  -3  -1 -13 60.2552 72.1078   9 
  -3  -1 -13-47.9425 66.8975   5 
   3   2 -11 1159.29 190.073   6 
  -3  -2  10 172.138 74.3515  13 
   3   2 -10-86.0296 117.770   6 
  -3  -2  10 121.961 80.7988  16 
  -3  -2   9 2140.40 238.079  16 
  -3  -2   9 2123.86 237.502  13 
   3   2  -9 1773.83 228.984   6 
  -3  -2   8 7.94239 79.1475  16 
  -3  -2   8 89.8092 75.6566  13 
   3   2  -8-47.0379 87.3896   6 
  -3  -2   7 4521.27 285.403   7 
  -3  -2   7 4487.99 292.701  16 
   3   2  -7 4398.30 323.683   6 
  -3  -2   7 4841.56 318.915  13 
  -3  -2   6 3534.79 650.561   3 
  -3  -2   6 3935.80 249.335  16 
   3   2  -6 4146.86 289.198   6 
   3   2  -6 4051.25 763.647   1 
  -3  -2   6 4222.16 257.983   7 
  -3  -2   5 15617.8 454.904  16 
  -3  -2   5 14473.8 1231.48   3 
  -3  -2   4 91779.5 2965.60   3 
  -3  -2   3 6931.57 771.551   3 
  -3  -2   2 221498. 4220.61   3 
  -3  -2   1 23651.2 1293.99   3 
  -3  -2   0 169545. 3362.40   3 
  -3  -2  -1 5325.06 581.213   3 
  -3  -2  -2 193869. 3483.40   3 
  -3  -2  -3 80054.9 2262.14   3 
  -3  -2  -3 84345.1 2631.98   2 
  -3  -2  -4 32031.8 1451.82   3 
  -3  -2  -4 32633.1 1768.22   2 
  -3  -2  -5 23872.8 1623.34   2 
  -3  -2  -6 610.412 116.305   9 
  -3  -2  -6 612.183 116.998   8 
  -3  -2  -6 538.158 256.780   2 
  -3  -2  -6 483.531 116.499   6 
  -3  -2  -7 41339.7 1000.87   9 
  -3  -2  -7 45090.3 949.382   8 
  -3  -2  -7 42716.0 996.986   6 
  -3  -2  -7 45455.1 2555.72   2 
  -3  -2  -8 8414.71 489.717   9 
  -3  -2  -8 8008.32 427.692   8 
  -3  -2  -8 8296.34 480.621   6 
  -3  -2  -8 7586.83 1101.93   2 
  -3  -2  -9 142.802 85.2362   9 
  -3  -2  -9-106.302 106.038   5 
  -3  -2  -9 130.284 72.8742   8 
  -3  -2 -10 730.323 163.409   9 
  -3  -2 -10 13.6812 108.608   5 
  -3  -2 -11 9.62662 76.2723   9 
  -3  -2 -11-0.45390 65.7270   5 
  -3  -2 -12 1720.72 226.579   9 
  -3  -2 -12 677.518 174.382   5 
  -3  -2 -13 2348.51 235.831   9 
  -3  -2 -13 1295.72 188.664   5 
   3   3 -12 133.119 101.969   6 
   3   3 -11 29.7623 80.8950   6 
  -3  -3  10 4174.92 302.823  16 
  -3  -3  10 4433.94 320.786  13 
   3   3 -10 4091.81 356.254   6 
  -3  -3   9 6784.80 411.888  13 
   3   3  -9 6107.17 435.617   6 
  -3  -3   9 6957.96 397.140  16 
  -3  -3   8-26.4942 78.2875  13 
   3   3  -8-63.6868 106.124   6 
  -3  -3   8-38.9026 70.4254  16 
  -3  -3   7 4290.73 290.410  16 
   3   3  -7 3947.05 325.115   6 
  -3  -3   7 3812.16 316.891   5 
   3   3  -6 414.455 122.108   6 
  -3  -3   6 443.924 237.319   3 
  -3  -3   6 275.796 96.4499   5 
  -3  -3   6 384.617 98.2264  16 
  -3  -3   5 14895.0 459.675  16 
   3   3  -5 15733.7 550.733   6 
  -3  -3   5 14756.2 1292.54   3 
  -3  -3   4 26500.2 1652.02   3 
  -3  -3   3 9374.52 955.243   3 
  -3  -3   2 789.145 258.740   3 
  -3  -3   1 4435.85 610.327   3 
  -3  -3   0 5335.62 659.334   3 
  -3  -3  -1 46737.4 1944.69   3 
  -3  -3  -2 108623. 3027.23   3 
  -3  -3  -3 438.556 235.725   3 
  -3  -3  -4 3142.17 560.912   3 
  -3  -3  -5 2580.97 217.642   9 
  -3  -3  -5 2764.32 217.976   8 
  -3  -3  -5 2335.63 485.985   3 
  -3  -3  -6 1045.45 161.764   9 
  -3  -3  -6 1217.46 156.511   8 
  -3  -3  -6 1121.66 169.140   5 
  -3  -3  -6 1015.54 136.964  15 
  -3  -3  -7 4367.87 336.745   9 
  -3  -3  -7 4853.99 324.973   8 
  -3  -3  -7 4608.09 348.771   5 
  -3  -3  -7 4136.57 274.197  15 
  -3  -3  -8 1993.76 248.003   9 
  -3  -3  -8 1702.85 274.078   5 
  -3  -3  -9 116.032 82.1672   9 
  -3  -3  -9-80.4897 108.712   5 
  -3  -3 -10 511.077 140.388   9 
  -3  -3 -10 417.713 142.553   5 
  -3  -3 -11 53.0780 85.3245   9 
  -3  -3 -11 13.7641 64.2912   5 
  -3  -3 -12 86.0096 61.6365   9 
  -3  -3 -12 111.433 81.4046   5 
   3   4 -11 3768.01 318.436   6 
   3   4 -10 846.978 178.235   6 
  -3  -4  10 1180.23 173.362  13 
  -3  -4   9 161.287 80.5332  16 
  -3  -4   9 222.479 111.370  13 
   3   4  -9 43.0645 74.8413   6 
  -3  -4   8 970.558 160.419  16 
   3   4  -8 1098.36 194.308   6 
  -3  -4   7 3204.45 295.802   5 
  -3  -4   7 3306.85 254.236  16 
   3   4  -7 3440.58 325.976   6 
  -3  -4   6 861.187 336.313   3 
   3   4  -6 760.906 154.983   6 
  -3  -4   6 638.713 141.862   5 
  -3  -4   6 666.477 118.285  16 
  -3  -4   5 3158.94 614.909   3 
   3   4  -5 3653.23 291.563   6 
  -3  -4   5 3311.25 233.036  16 
  -3  -4   5 3434.98 268.386   5 
  -3  -4   4 50.4576 43.8162  16 
  -3  -4   4 197.763 166.765   3 
  -3  -4   3 9194.69 1008.89   3 
  -3  -4   2 23140.9 1558.82   3 
  -3  -4   1 50905.9 2286.31   3 
  -3  -4   0 54333.0 2353.73   3 
  -3  -4  -1 36709.8 1962.27   3 
  -3  -4  -2 23475.6 1605.27   3 
  -3  -4  -3 100045. 3431.35   3 
  -3  -4  -4 28306.8 693.825   9 
  -3  -4  -4 27256.7 1859.94   3 
  -3  -4  -4 27920.3 658.909  15 
  -3  -4  -5 752.988 127.061   9 
  -3  -4  -5 574.705 109.141  15 
  -3  -4  -5 545.341 289.690   3 
  -3  -4  -5 544.020 118.987   5 
  -3  -4  -6 1958.94 222.337   9 
  -3  -4  -6 2271.44 243.671   5 
  -3  -4  -6 1903.92 192.926  15 
  -3  -4  -7 84.6776 77.8029   9 
  -3  -4  -7 107.801 86.5895   5 
  -3  -4  -8 181.753 97.0145   9 
  -3  -4  -8 232.329 113.897   5 
  -3  -4  -9 9456.45 560.642   9 
  -3  -4  -9 9043.64 573.330   5 
  -3  -4 -10 4346.56 451.851   5 
  -3  -4 -10 5954.14 445.084   9 
  -3  -4 -11 74.3073 68.8877   9 
  -3  -4 -11 83.7528 104.283   5 
  -3  -4 -12 663.241 140.950   9 
  -3  -4 -12 463.081 131.396   5 
   3   5 -11 25.9221 70.9518   6 
   3   5 -10 847.725 163.168   6 
  -3  -5  10 884.771 150.648  13 
   3   5  -9 21.3149 75.2401   6 
  -3  -5   9 50.5752 63.9054  13 
   3   5  -8 22632.6 856.490   6 
  -3  -5   8 20644.9 792.564   5 
  -3  -5   7 4264.48 296.170  16 
   3   5  -7 4476.18 383.048   6 
  -3  -5   7 4454.05 363.061   5 
  -3  -5   6 2362.74 211.996  16 
   3   5  -6 2494.16 275.115   6 
  -3  -5   6 2241.59 251.791   5 
   3   5  -5 3746.77 322.004   6 
  -3  -5   5 3888.94 261.737  16 
  -3  -5   5 2844.12 609.465   3 
  -3  -5   5 3616.89 301.335   5 
  -3  -5   4 1845.51 179.711  16 
  -3  -5   4 2071.28 553.242   3 
  -3  -5   4 2053.02 208.401   5 
  -3  -5   3 3482.65 233.637  16 
  -3  -5   3 3432.38 668.805   3 
  -3  -5   3 3517.68 249.094   5 
  -3  -5   2 66518.2 2904.44   3 
  -3  -5   2 63430.1 982.476  16 
  -3  -5   1 29860.3 1939.28   3 
  -3  -5   0 32298.7 2032.86   3 
  -3  -5  -1 25291.7 1816.11   3 
  -3  -5  -2 1295.41 425.163   3 
  -3  -5  -3 2737.08 626.559   3 
  -3  -5  -4 102.435 64.9713   9 
  -3  -5  -4 194.023 79.8853   5 
  -3  -5  -4-24.5886 120.581   3 
  -3  -5  -5 10161.1 482.094   9 
  -3  -5  -5 9963.11 474.972   5 
  -3  -5  -6 673.018 140.443   5 
  -3  -5  -6 551.216 137.162   9 
  -3  -5  -7 25534.8 861.434   9 
  -3  -5  -7 24014.4 858.376   5 
  -3  -5  -8 243.680 115.816   9 
  -3  -5  -8-9.94497 78.4178   5 
  -3  -5  -9 266.092 107.239   9 
  -3  -5  -9 632.979 167.236   5 
  -3  -5 -10 205.880 118.667   9 
  -3  -5 -10-9.72489 88.8009   5 
  -3  -5 -11 49.2667 69.9482   9 
  -3  -5 -11 99.6050 72.9476   5 
  -3  -5 -12 300.974 103.540   9 
  -3  -5 -12 117.086 84.1402   5 
   3   6 -10 55.3134 77.9093   6 
  -3  -6  10 22.4470 51.1328  13 
  -3  -6   9 344.701 112.175  13 
   3   6  -9 200.595 116.980   6 
  -3  -6   8 460.690 141.090   5 
   3   6  -8 360.849 123.331   6 
  -3  -6   7 6.42152 74.2605   5 
   3   6  -7 249.244 135.513   6 
  -3  -6   6 12748.0 494.933  16 
   3   6  -6 13132.7 658.730   6 
  -3  -6   6 12279.0 612.347   5 
  -3  -6   5 28493.8 723.915  16 
   3   6  -5 29116.2 946.112   6 
  -3  -6   5 28384.6 885.706   5 
  -3  -6   4 126.508 68.2283  16 
  -3  -6   4 91.5402 78.7544   5 
  -3  -6   3 2907.67 234.164  16 
  -3  -6   3 3242.03 702.961   3 
  -3  -6   3 3048.48 265.417   5 
  -3  -6   2 23412.1 713.712   5 
  -3  -6   2 25020.1 1961.87   3 
  -3  -6   2 23734.6 662.157  16 
  -3  -6   1 2186.27 215.239   5 
  -3  -6   1 1985.99 566.907   3 
  -3  -6   0 27934.1 765.433   5 
  -3  -6   0 29166.4 2127.92   3 
  -3  -6  -1 960.198 139.171   5 
  -3  -6  -1 804.633 347.770   3 
  -3  -6  -1 696.117 112.731   7 
  -3  -6  -2 4237.13 300.275   5 
  -3  -6  -2 3443.20 745.474   3 
  -3  -6  -3 24.5838 139.395   3 
  -3  -6  -3 230.657 85.9423   5 
  -3  -6  -4 3038.32 271.004   5 
  -3  -6  -4 3406.76 787.930   3 
  -3  -6  -5 19073.7 700.093   5 
  -3  -6  -5 16248.6 1729.56   3 
  -3  -6  -6 17638.5 712.339   9 
  -3  -6  -6 18020.0 728.884   5 
  -3  -6  -7 1981.12 257.880   9 
  -3  -6  -7 1584.52 237.440   5 
  -3  -6  -8 10766.5 595.550   9 
  -3  -6  -8 11961.4 638.522   5 
  -3  -6  -9 3364.09 329.328   9 
  -3  -6  -9 3045.34 331.386   5 
  -3  -6 -10-23.9841 70.2540   5 
  -3  -6 -11 1969.35 233.199   5 
  -3  -7   9-31.3939 69.3832  13 
   3   7  -9-62.0928 79.1523   6 
   3   7  -8 2455.58 289.487   6 
  -3  -7   8 1917.60 252.542   5 
   3   7  -7 1951.06 274.480   6 
  -3  -7   7 1635.30 239.167   5 
   3   7  -6 4562.12 404.399   6 
  -3  -7   6 4729.25 397.550   5 
   3   7  -5 40127.6 1166.16   6 
  -3  -7   5 39433.1 1114.67   5 
  -3  -7   4 592.878 144.145   5 
  -3  -7   4 431.122 103.495  16 
  -3  -7   3 39658.5 886.153  16 
  -3  -7   3 40105.3 1049.14   5 
  -3  -7   2 2928.51 278.238   5 
  -3  -7   2 2567.60 233.158  16 
  -3  -7   2 2969.57 730.249   3 
  -3  -7   1 22.8097 61.7563  16 
  -3  -7   1-163.699 177.116   3 
  -3  -7   1 87.6019 86.8012   5 
  -3  -7   0 721.292 375.430   3 
  -3  -7   0 552.395 130.144   5 
  -3  -7  -1 592.022 332.143   3 
  -3  -7  -1 632.931 164.469   5 
  -3  -7  -2 2094.32 236.897   5 
  -3  -7  -2 2310.38 657.972   3 
  -3  -7  -3 12875.5 575.061   5 
  -3  -7  -3 11971.6 1518.70   3 
  -3  -7  -4 21709.7 763.104   5 
  -3  -7  -5 4806.55 375.049   5 
  -3  -7  -6 6062.88 435.956   5 
  -3  -7  -7-12.0619 80.4041   5 
  -3  -7  -8 23.0686 64.1728   5 
  -3  -7  -9 76.9907 67.4616   5 
  -3  -7 -10 625.305 140.660   5 
   3   8  -8 169.941 111.017   6 
  -3  -8   8 117.901 84.0040   5 
  -3  -8   7-28.6712 70.8154   5 
   3   8  -7 78.4556 88.8979   6 
   3   8  -6 5544.40 446.826   6 
  -3  -8   6 5202.46 418.667   5 
   3   8  -5 4500.94 399.460   6 
  -3  -8   5 4251.30 380.920   5 
  -3  -8   4 429.261 134.292   5 
   3   8  -4 468.238 140.534   6 
  -3  -8   3 5707.49 349.273  16 
  -3  -8   3 5988.54 436.963   5 
  -3  -8   2 4780.96 328.744  16 
  -3  -8   2 4979.96 393.209   5 
  -3  -8   1 11980.4 598.450   5 
  -3  -8   1 11312.5 517.545  16 
  -3  -8   0-87.5398 82.7854   5 
  -3  -8  -1 7937.05 483.197   5 
  -3  -8  -2 26190.5 869.986   5 
  -3  -8  -3 7487.14 467.862   5 
  -3  -8  -4 10401.7 558.655   5 
  -3  -8  -4 9958.49 481.670   7 
  -3  -8  -5 3084.81 306.083   5 
  -3  -8  -6 1570.35 227.502   5 
  -3  -8  -7 2872.15 306.484   5 
  -3  -8  -8 6512.51 440.356   5 
  -3  -8  -9 1119.38 175.231   5 
   3   9  -7 59.2680 86.5980   6 
  -3  -9   7-23.3177 55.1814   5 
  -3  -9   6 1069.17 184.344   5 
   3   9  -6 1287.66 212.754   6 
  -3  -9   5 219.307 88.0158   5 
   3   9  -5 558.629 156.437   6 
   3   9  -4 5457.27 436.221   6 
  -3  -9   4 4759.14 397.091   5 
  -3  -9   3 15.4631 74.4266   5 
  -3  -9   2 24.7495 63.3835   5 
  -3  -9   1 8864.01 529.842   5 
  -3  -9   1 9717.57 463.369  16 
  -3  -9   0 49248.4 1229.27   5 
  -3  -9   0 48949.7 1110.28  16 
  -3  -9  -1 2792.99 296.011   5 
  -3  -9  -2 9720.81 547.299   5 
  -3  -9  -3 4815.98 379.149   5 
  -3  -9  -4 11418.2 584.177   5 
  -3  -9  -5 808.671 159.682   5 
  -3  -9  -6-80.7305 82.3843   5 
  -3  -9  -7 454.978 120.952   5 
  -3  -9  -7 282.308 92.0065   7 
  -3  -9  -8 318.510 115.292   5 
  -3  -9  -8 299.707 81.9645   7 
   3  10  -5 139.983 100.549   6 
  -3 -10   5 4.37204 58.8199   5 
  -3 -10   4 19.5594 63.9134   5 
   3  10  -4 16.1048 73.6459   6 
  -3 -10   3 92.9315 80.6086   5 
   3  10  -3 52.6107 93.7066   6 
  -3 -10   2 25.7747 61.9187   5 
  -3 -10   1 7101.91 454.287   5 
  -3 -10   0 9089.44 421.199  16 
  -3 -10   0 9252.86 511.860   5 
  -3 -10  -1 896.185 141.567  16 
  -3 -10  -1 1090.18 182.393   5 
  -3 -10  -2 4704.25 367.563   5 
  -3 -10  -3 658.603 148.556   5 
  -3 -10  -4 3466.45 304.761   5 
  -3 -10  -5 5682.70 384.065   5 
  -3 -10  -6 27.6720 59.4008   5 
  -3 -10  -7 679.140 132.062   5 
  -3 -11   2 18.8738 49.3458   5 
   3  11  -2-10.1924 63.0891   6 
  -3 -11   1 596.737 124.973   5 
  -3 -11   0 2678.97 249.062   5 
  -3 -11  -1-23.0759 57.3875   5 
  -3 -11  -2 1131.56 159.709   5 
  -3 -11  -3 513.257 103.798  16 
  -3 -11  -3 517.617 110.196   5 
  -3 -11  -4 2.01744 55.0845   5 
  -4  10   3 1756.01 197.122  10 
  -4  10   2 2029.28 215.756  17 
  -4  10   1 15.5339 62.4151  17 
  -4  10   0 397.595 105.474  17 
  -4  10  -1 106.935 70.9331  17 
  -4  10  -2 1591.45 185.615  17 
  -4  10  -2 1405.21 176.387  14 
  -4  10  -3 355.208 96.8214  14 
  -4   9   6 213.841 82.0140  10 
  -4   9   5 5199.07 364.923  10 
  -4   9   4 383.389 107.117  10 
  -4   9   4 449.639 122.017  17 
  -4   9   3 15.5118 60.7560  10 
  -4   9   3 189.777 93.1216  17 
  -4   9   2 350.552 108.882  10 
  -4   9   2 331.937 122.003  17 
  -4   9   1 1334.20 213.098  17 
  -4   9   1 1335.33 209.966  10 
  -4   9   0 921.877 177.892  17 
  -4   9  -1 95.0730 77.7710  17 
  -4   9  -2 328.272 104.137  17 
  -4   9  -3 97.3115 85.8065  14 
  -4   9  -3 104.905 69.5010  17 
  -4   9  -4-227.759 82.1235  17 
  -4   9  -4-53.8022 57.6621  14 
  -4   9  -5-19.3695 55.2488  14 
  -4   8   7 1619.12 213.343  10 
  -4   8   6 39.7300 69.5142  10 
  -4   8   5 4550.90 379.420  10 
  -4   8   4 2374.68 281.054  10 
  -4   8   4 2306.76 257.250  17 
  -4   8   3 168.583 98.9238  10 
  -4   8   3 219.965 107.636  17 
  -4   8   2 182.085 102.081  10 
  -4   8   2 165.315 97.3549  17 
  -4   8   1 323.519 123.968  10 
  -4   8   1 460.400 137.921  17 
  -4   8   0 414.019 126.622  10 
  -4   8   0 453.800 137.064  17 
  -4   8  -1 777.544 168.377  17 
  -4   8  -2 1716.92 242.364  17 
  -4   8  -3 613.610 151.806  17 
  -4   8  -4 1437.94 210.524  14 
  -4   8  -4 1355.90 194.337  17 
  -4   8  -5-74.4180 73.8746  14 
  -4   8  -6 184.542 83.3077  14 
  -4   8  -6-53.8520 77.9596  12 
  -4   8  -7 563.050 113.188  14 
  -4   8  -7 330.369 95.1378  12 
  -4   7   9 1308.50 179.889  10 
  -4   7   8 1735.70 199.819  13 
  -4   7   8 1739.62 228.889  10 
  -4   7   7 1335.41 212.352  10 
  -4   7   7 1417.37 201.050  13 
  -4   7   6 1483.99 217.676  13 
  -4   7   6 1688.12 244.405  10 
  -4   7   5 29.8091 61.5887  10 
  -4   7   5-14.5477 83.9306  13 
  -4   7   4 5015.10 390.831  13 
  -4   7   4 5530.28 432.473  10 
  -4   7   3 196.658 111.553  10 
  -4   7   3 98.2661 81.0157  13 
  -4   7   2 5.33825 61.8556  10 
  -4   7   1 1058.45 189.725  10 
  -4   7   0 1742.49 237.898  17 
  -4   7   0 1533.92 230.414  10 
  -4   7  -1 1129.87 207.820  10 
  -4   7  -1 1239.07 205.787  17 
  -4   7  -2 4379.22 361.611  17 
  -4   7  -3 1407.16 209.687  17 
  -4   7  -4 1070.15 174.635  17 
  -4   7  -4 1239.55 202.541  14 
  -4   7  -4 1324.80 191.749  12 
  -4   7  -5 1166.92 195.792  12 
  -4   7  -5 1175.98 181.277  17 
  -4   7  -5 1064.57 188.770  14 
  -4   7  -6 302.379 111.393  14 
  -4   7  -6 401.573 138.239  12 
  -4   7  -7 259.403 91.1866  14 
  -4   7  -7 12.8078 77.8943  12 
  -4   7  -8 238.019 107.691  12 
  -4   7  -8 152.884 76.7076  14 
  -4   7  -9 996.032 144.709  12 
  -4   6  10 367.349 103.976  10 
  -4   6   9 1111.87 185.654  10 
  -4   6   9 943.982 148.854  13 
  -4   6   8 2681.68 270.846  13 
  -4   6   8 2849.99 317.392  10 
  -4   6   7 540.730 144.138  10 
  -4   6   7 723.852 160.795  13 
  -4   6   6 2596.69 288.287  13 
  -4   6   6 2797.21 317.278  10 
  -4   6   5 2244.80 270.800  13 
  -4   6   5 2185.02 272.312  10 
  -4   6   4 1840.29 239.168  13 
  -4   6   4 1932.57 257.292  10 
  -4   6   3 355.361 126.125  10 
  -4   6   3 434.020 141.115  13 
  -4   6   2 10181.0 460.099  11 
  -4   6   2 10298.7 511.641  13 
  -4   6   2 10340.3 536.283  10 
  -4   6   1 2827.74 266.662  13 
  -4   6   1 2787.86 241.119  11 
  -4   6   1 2540.26 276.227  10 
  -4   6   0 1051.40 185.393  10 
  -4   6   0 984.861 167.503  17 
  -4   6   0 927.283 149.926  11 
  -4   6  -1 2612.62 274.718  17 
  -4   6  -1 2669.80 248.900  11 
  -4   6  -1 2285.73 261.058  10 
  -4   6  -2 2009.21 237.433  17 
  -4   6  -2 1999.45 581.099   2 
  -4   6  -2 2207.69 234.580  11 
  -4   6  -2 2160.22 259.330  10 
  -4   6  -3 124.251 68.1056  17 
  -4   6  -3 61.1358 79.7254  12 
  -4   6  -3 74.9426 74.0823  11 
  -4   6  -4 8980.19 480.530  17 
  -4   6  -4 9964.77 545.876  11 
  -4   6  -4 10068.6 529.315  12 
  -4   6  -5 17515.4 658.201  17 
  -4   6  -5 19461.2 753.246  14 
  -4   6  -5 19178.4 768.773  12 
  -4   6  -5 19158.0 784.054  11 
  -4   6  -6 616.560 155.562  14 
  -4   6  -6 840.347 182.484  12 
  -4   6  -7 3137.99 304.618  14 
  -4   6  -7 4082.94 359.818  12 
  -4   6  -8 2516.22 278.659  12 
  -4   6  -8 2202.37 242.385  14 
  -4   6  -9 1967.07 226.819  12 
  -4   6 -10 2460.98 220.995  12 
  -4   5  10 5365.62 321.527  13 
  -4   5  10 4964.88 367.855  10 
  -4   5   9 3336.53 287.937  13 
  -4   5   9 2851.19 308.086  10 
  -4   5   8 252.860 111.745  10 
  -4   5   8 164.186 100.012  13 
  -4   5   7 5631.09 412.976  13 
  -4   5   7 4935.36 432.420  10 
  -4   5   6 922.065 191.327  10 
  -4   5   6 1028.74 183.581  13 
  -4   5   5 2671.99 278.905  13 
  -4   5   5 2097.68 262.689  10 
   4  -5  -4 4130.13 1627.15   1 
  -4   5   4 3015.72 283.006  13 
  -4   5   4 2591.14 273.626  10 
  -4   5   3 694.472 145.711  10 
   4  -5  -3 285.045 513.647   1 
  -4   5   3 629.433 148.742  13 
  -4   5   2 306.829 99.1135  10 
  -4   5   2 334.161 99.1189  13 
  -4   5   1 1367.70 175.232  13 
  -4   5   1 1049.04 148.227  11 
  -4   5   1 1108.92 167.103  10 
  -4   5   0 168.398 77.5413  10 
  -4   5   0 188.232 96.9214  17 
  -4   5   0 107.360 66.0410  13 
  -4   5   0 310.892 99.1538  11 
  -4   5  -1 4366.21 326.650  17 
  -4   5  -1 3541.54 690.156   2 
  -4   5  -1 4288.96 305.362  11 
  -4   5  -1 4341.96 323.934  10 
  -4   5  -2 602.368 138.589  10 
  -4   5  -2 711.634 143.953  17 
  -4   5  -2 586.916 312.711   2 
  -4   5  -2 513.817 114.767  12 
  -4   5  -2 695.490 137.713  11 
  -4   5  -3 569.256 314.698   2 
  -4   5  -3 196.124 79.6513  17 
  -4   5  -3 334.088 107.289  12 
  -4   5  -3 275.383 114.487  11 
  -4   5  -4 1383.83 187.931  17 
  -4   5  -4 1601.45 533.181   2 
  -4   5  -4 1601.68 205.329  14 
  -4   5  -4 1498.04 219.499  12 
  -4   5  -4 1687.87 227.379  11 
  -4   5  -5 901.228 157.384  17 
  -4   5  -5 790.229 184.089  12 
  -4   5  -5 1138.40 202.941  11 
  -4   5  -5 1116.73 187.981  14 
  -4   5  -6 823.500 193.636  12 
  -4   5  -6 936.380 176.001  14 
  -4   5  -6 823.324 189.766  11 
  -4   5  -7 243.144 103.744  14 
  -4   5  -7 305.473 145.685  12 
  -4   5  -8 1006.71 176.802  14 
  -4   5  -8 1099.35 220.918  12 
  -4   5  -9 185.197 104.501  12 
  -4   5 -10-57.7534 68.0944  12 
  -4   4  11-37.1339 54.8172  10 
  -4   4  10 192.355 97.4048  10 
  -4   4  10 159.080 89.7458  13 
  -4   4  10 147.183 81.8668   4 
  -4   4   9 1205.56 193.041  13 
  -4   4   9 1173.01 181.091   4 
  -4   4   8 4604.86 363.611  13 
  -4   4   8 5333.34 379.502   4 
  -4   4   7 9972.73 525.340  13 
  -4   4   7 10990.8 529.207   4 
  -4   4   6 2631.22 270.443  13 
  -4   4   6 2696.93 258.292   4 
  -4   4   5 24646.4 762.643  13 
  -4   4   5 23182.1 711.466   4 
  -4   4   5 22825.6 792.774  10 
  -4   4   4 45.0605 63.0253  10 
  -4   4   4 135.194 82.7280  13 
   4  -4  -3 3531.42 1055.89   1 
  -4   4   3 3136.31 249.861  13 
  -4   4   3 3057.81 262.900  10 
  -4   4   2 3270.79 250.466  13 
   4  -4  -2 2705.31 892.045   1 
  -4   4   2 2979.00 249.770  10 
  -4   4   1 6363.03 336.250  13 
  -4   4   1 6189.40 343.942  10 
  -4   4   0 151895. 1690.72  17 
  -4   4   0 150107. 1528.71  13 
  -4   4   0 150111. 1623.43  11 
  -4   4   0 150334. 1679.50  10 
  -4   4  -1 224936. 2064.85  17 
  -4   4  -1 224408. 5076.15   2 
  -4   4  -1 225151. 2056.52  10 
  -4   4  -1 221989. 2054.26  11 
  -4   4  -2 36923.7 840.839  17 
  -4   4  -2 35762.6 786.619  12 
  -4   4  -2 36063.2 854.531  11 
  -4   4  -2 36920.0 2203.16   2 
  -4   4  -2 36261.4 859.579  10 
  -4   4  -3 6162.93 352.521  17 
  -4   4  -3 6079.31 360.235  12 
  -4   4  -3 6040.64 374.136  11 
  -4   4  -3 7138.53 1020.86   2 
  -4   4  -4 96.3651 76.2740  17 
  -4   4  -4 44.4206 54.3823  14 
  -4   4  -4 208.601 244.811   2 
  -4   4  -4 135.006 89.3450  12 
  -4   4  -4 158.599 105.640  11 
  -4   4  -5 135.497 82.4338  14 
  -4   4  -5 68.1937 157.414   2 
  -4   4  -5 163.563 79.7530  17 
  -4   4  -5 173.425 115.916  12 
  -4   4  -5 71.0560 78.3292  11 
  -4   4  -6 3448.46 274.147  17 
  -4   4  -6 3316.06 340.553  11 
  -4   4  -6 3200.93 324.272  12 
  -4   4  -6 3357.93 301.816  14 
  -4   4  -7 1540.10 210.063  14 
  -4   4  -7 1551.83 248.794  12 
  -4   4  -8 1349.47 239.595  12 
  -4   4  -8 1412.06 204.442  14 
  -4   4  -9 6984.57 467.320  12 
  -4   4 -10 4377.67 336.754  12 
  -4   4 -11 1097.14 154.625  12 
  -4   3  11 2013.16 193.697  13 
  -4   3  11 2178.90 219.866   4 
  -4   3  10 12246.0 532.592  13 
  -4   3  10 12334.9 561.945   4 
  -4   3   9 3015.66 289.068  13 
  -4   3   9 3086.54 295.631   4 
  -4   3   8 392.113 139.399  13 
  -4   3   8 371.262 113.545   4 
  -4   3   7 4768.42 355.500  13 
  -4   3   7 4950.94 357.904   4 
  -4   3   6 895.928 167.843  13 
  -4   3   6 581.577 115.523   4 
  -4   3   5 623.153 130.209  13 
  -4   3   5 477.501 108.445   4 
   4  -3  -4 3627.62 844.136   1 
  -4   3   4 3643.45 254.179   4 
  -4   3   4 3472.13 249.453   7 
  -4   3   4 3693.20 268.997  13 
   4  -3  -3 2110.53 628.200   1 
  -4   3   3 1772.91 183.102  13 
  -4   3   3 1903.53 182.858   4 
  -4   3   3 1517.28 173.136  10 
   4  -3  -2 84992.9 3493.92   1 
   4  -3  -1 215138. 5197.97   1 
  -4   3   0 106644. 2857.15   2 
   4  -3   0 105176. 3598.54   1 
  -4   3  -1 7687.28 847.176   2 
  -4   3  -2 1301.94 149.748  17 
  -4   3  -2 1192.50 369.560   2 
  -4   3  -3 5569.93 307.722  14 
  -4   3  -3 5378.97 315.744  12 
  -4   3  -3 5158.18 816.067   2 
  -4   3  -3 5166.54 320.957  11 
  -4   3  -3 5402.68 301.191  17 
  -4   3  -4 8999.58 396.272  17 
  -4   3  -4 8724.81 410.506  14 
  -4   3  -4 8836.63 440.474  12 
  -4   3  -4 9732.05 1171.22   2 
  -4   3  -4 8614.58 447.437  11 
  -4   3  -5 856.195 379.992   2 
  -4   3  -5 922.949 143.619  14 
  -4   3  -5 798.910 159.014  12 
  -4   3  -5 655.389 122.702  17 
  -4   3  -5 626.079 141.247  11 
  -4   3  -6 8057.85 475.313  12 
  -4   3  -6 8343.83 1189.02   2 
  -4   3  -6 8073.57 431.760  14 
  -4   3  -6 7884.15 488.411  11 
  -4   3  -7 2994.14 281.033  14 
  -4   3  -7 3238.09 318.792  12 
  -4   3  -8 481.046 147.737  12 
  -4   3  -9 1645.01 237.375  12 
  -4   3 -10 426.495 124.047  12 
  -4   3 -10 354.459 105.253   8 
  -4   3 -11 108.947 76.8159  12 
  -4   3 -12 316.714 95.9391   9 
  -4   2  12 73.9955 64.9265   4 
  -4   2  11 213.059 91.6859  13 
  -4   2  11 206.754 81.2206   4 
  -4   2  10 112.383 87.7136  13 
  -4   2  10 87.8207 66.6465   4 
  -4   2   9 6756.46 425.899  13 
  -4   2   9 7178.95 453.726   4 
  -4   2   8 12227.3 560.946  13 
  -4   2   8 11975.1 573.641   4 
  -4   2   7 3960.68 320.970  13 
  -4   2   7 3462.66 296.821   4 
   4  -2  -6 3304.20 833.854   1 
  -4   2   6 2464.37 226.261  16 
  -4   2   6 2933.41 258.739  13 
  -4   2   6 2762.97 250.991   4 
   4  -2  -5 448.763 319.840   1 
  -4   2   5 401.773 99.1434  16 
  -4   2   5 260.422 102.063  13 
  -4   2   5 299.424 94.2059   7 
  -4   2   5 257.136 85.3484   4 
   4  -2  -4 11756.4 1312.23   1 
  -4   2   4 11892.8 393.774  16 
  -4   2   4 12244.8 427.480   7 
  -4   2   4 12423.5 453.255  13 
  -4   2   4 12257.5 443.394   4 
   4  -2  -3 6794.20 933.392   1 
   4  -2  -2 34145.3 1907.46   1 
   4  -2  -1 4086.30 612.182   1 
   4  -2   0 35673.5 1609.69   1 
  -4   2   0 33360.5 1435.10   2 
  -4   2  -1 12604.4 994.146   2 
  -4   2  -2 573.440 251.306   2 
  -4   2  -3 32398.4 1894.94   2 
  -4   2  -4 3214.26 642.339   2 
  -4   2  -4 2793.53 208.963  17 
  -4   2  -4 2819.80 231.115  12 
  -4   2  -4 2986.52 243.382  11 
  -4   2  -4 2821.20 216.572  14 
  -4   2  -5 115.101 166.983   2 
  -4   2  -5 162.290 68.2817  17 
  -4   2  -5 179.320 74.6662  14 
  -4   2  -5 171.602 80.9333  12 
  -4   2  -5 112.025 61.8576  11 
  -4   2  -6 7153.95 395.891  14 
  -4   2  -6 7498.29 1101.30   2 
  -4   2  -6 7010.68 411.842  12 
  -4   2  -6 7065.49 441.613  11 
  -4   2  -7 7081.51 1087.02   2 
  -4   2  -7 7553.73 426.247  14 
  -4   2  -7 8341.68 470.639  12 
  -4   2  -8 527.130 144.660  12 
  -4   2  -9 2827.46 282.169   6 
  -4   2  -9 2872.80 283.654  12 
  -4   2 -10 5678.86 385.871   8 
  -4   2 -10 6241.71 417.174   6 
  -4   2 -10 5850.71 382.012  12 
  -4   2 -11 244.180 120.729   9 
  -4   2 -11 153.156 72.9018   6 
  -4   2 -12 868.073 155.814   9 
  -4   1  12 100.449 67.7207   4 
  -4   1  11 4482.37 303.382  13 
  -4   1  11 4968.17 351.207   4 
  -4   1  10 3993.50 310.804  13 
  -4   1  10 4266.35 346.630   4 
  -4   1   9 13344.6 584.513  13 
  -4   1   9 12746.6 597.780   4 
  -4   1   8 12307.7 562.032  13 
  -4   1   8 13545.9 605.172   4 
  -4   1   8 12498.1 543.959  16 
  -4   1   7 3291.13 274.585  16 
   4  -1  -7 3960.76 911.553   1 
  -4   1   7 3379.88 289.605  13 
  -4   1   7 3623.61 298.717   4 
  -4   1   6 5010.58 329.860   7 
  -4   1   6 5668.70 352.919  13 
   4  -1  -6 4558.13 903.781   1 
  -4   1   6 5124.83 330.558   4 
  -4   1   6 5585.95 322.885  16 
   4  -1  -5 82808.5 3559.09   1 
  -4   1   5 85102.9 1185.63   7 
  -4   1   5 82425.8 1225.45  13 
  -4   1   5 85682.8 1223.03   4 
  -4   1   5 81009.2 1118.42  16 
   4  -1  -4 21933.3 1699.38   1 
  -4   1   4 22358.4 558.503   7 
  -4   1   4 23308.2 597.306  13 
  -4   1   4 23049.5 576.902   4 
   4  -1  -3 4290.45 691.814   1 
   4  -1  -2 5486.48 726.237   1 
   4  -1  -1 18542.0 1244.42   1 
   4  -1   0 5130.29 602.168   1 
  -4   1   0 4360.88 483.620   2 
   4  -1   1 24015.8 1120.57   1 
  -4   1  -1 21094.8 1215.53   2 
  -4   1  -2 2032.69 424.961   2 
  -4   1  -3 524.191 222.609   2 
  -4   1  -4 1972.92 478.277   2 
  -4   1  -5 24041.9 691.566  11 
  -4   1  -5 25785.4 653.163  14 
  -4   1  -5 25998.9 671.868  12 
  -4   1  -6 5373.29 326.254  14 
  -4   1  -6 5831.38 914.768   2 
  -4   1  -6 5495.55 341.964  12 
  -4   1  -6 4702.86 339.633  11 
  -4   1  -7 3856.37 795.889   2 
  -4   1  -7 3484.70 280.906   6 
  -4   1  -7 3453.20 285.068  12 
  -4   1  -8 95.0754 88.1901   6 
  -4   1  -8-2.62679 68.5417  12 
  -4   1  -9 73.4810 69.6124   8 
  -4   1  -9-24.3017 75.3793  12 
  -4   1  -9 61.5996 98.2437   6 
  -4   1 -10 920.212 166.763   8 
  -4   1 -10 1118.00 194.689   6 
  -4   1 -11 711.934 160.111   9 
  -4   1 -11 558.478 146.796   6 
  -4   1 -12 1064.28 173.557   9 
  -4   0  12 766.934 130.362   4 
  -4   0  11 11.7605 59.2025  13 
  -4   0  11 43.4854 51.5686   4 
  -4   0  10 10354.8 501.182  13 
  -4   0  10 11710.5 567.065   4 
  -4   0   9 1859.27 228.375  16 
  -4   0   9 1717.15 215.826  13 
  -4   0   8 87.3332 81.0530  13 
  -4   0   8 347.935 130.918  16 
  -4   0   7 9601.23 471.604  13 
  -4   0   7 9056.22 441.087  16 
  -4   0   7 9165.30 456.594   7 
   4   0  -7 8749.37 1314.34   1 
   4   0  -6 693.909 374.911   1 
  -4   0   6 701.509 136.453   7 
  -4   0   6 884.682 148.952  13 
  -4   0   6 783.396 132.225  16 
   4   0  -5 7386.90 1056.11   1 
  -4   0   5 7809.44 343.366  16 
  -4   0   5 7530.38 350.924   7 
  -4   0   5 7660.29 371.456  13 
   4   0  -4 2268.21 529.470   1 
  -4   0   4 2055.78 516.942   3 
  -4   0   3 4097.31 654.935   3 
  -4   0   2 40464.7 1898.69   3 
  -4   0   1 4670.38 610.019   3 
  -4   0   0 33929.7 1348.69   2 
  -4   0   0 30094.3 1441.14   3 
  -4   0  -1 276.043 172.410   2 
  -4   0  -1 190.735 77.4007   3 
  -4   0  -2 1215.99 319.743   2 
  -4   0  -2 1100.01 226.323   3 
  -4   0  -3 19258.6 1360.83   2 
  -4   0  -4 12636.5 1190.49   2 
  -4   0  -5 1554.59 447.571   2 
  -4   0  -6 18876.1 586.487   6 
  -4   0  -6 20800.8 1717.24   2 
  -4   0  -6 19290.6 578.021  12 
  -4   0  -6 18772.5 627.020  11 
  -4   0  -7 895.113 384.428   2 
  -4   0  -7 1230.96 181.478   6 
  -4   0  -7 1321.79 167.112  12 
  -4   0  -8 12783.9 570.966   8 
  -4   0  -8 13442.9 599.032   6 
  -4   0  -8 12354.2 503.135  12 
  -4   0  -9 1705.81 243.513   9 
  -4   0  -9 1633.54 220.408   8 
  -4   0  -9 1796.14 238.229   6 
  -4   0 -10 648.930 169.788   9 
  -4   0 -10 634.632 135.998   8 
  -4   0 -10 787.141 172.694   6 
  -4   0 -11 113.849 94.3237   9 
  -4   0 -11-173.938 93.6309   5 
  -4   0 -12 55.4160 71.5217   9 
  -4  -1  12 1017.32 140.684   4 
  -4  -1  11 450.948 106.184  13 
  -4  -1  11 479.599 118.639   4 
  -4  -1  10 334.715 103.169  13 
  -4  -1   9 544.137 149.264  16 
  -4  -1   9 521.465 131.838  13 
  -4  -1   8 17724.7 640.156  16 
  -4  -1   8 17829.2 667.234  13 
  -4  -1   7 819.154 138.386  16 
  -4  -1   7 878.425 157.968   7 
  -4  -1   7 842.715 162.222  13 
   4   1  -7 652.785 369.041   1 
  -4  -1   6 1380.08 175.814   7 
  -4  -1   6 1374.61 163.365  16 
   4   1  -6 1204.49 494.897   1 
  -4  -1   6 1396.78 174.319  13 
  -4  -1   5 7520.97 345.828   7 
  -4  -1   5 7024.92 336.654  16 
   4   1  -5 6743.90 1012.67   1 
  -4  -1   5 7550.76 371.950  13 
  -4  -1   5 6573.45 933.675   3 
  -4  -1   4 93.0908 137.883   3 
  -4  -1   3 15440.1 1274.57   3 
  -4  -1   2 20638.9 1373.20   3 
  -4  -1   1 5501.62 683.817   3 
  -4  -1   0 5032.53 619.562   3 
  -4  -1  -1 7426.59 705.882   3 
  -4  -1  -1 7012.80 700.138   2 
  -4  -1  -2 26111.3 1227.23   3 
  -4  -1  -2 24274.2 1407.11   2 
  -4  -1  -3 2061.55 434.586   2 
  -4  -1  -4 5202.68 758.156   2 
  -4  -1  -5 14550.8 1360.46   2 
  -4  -1  -6 1235.37 422.984   2 
  -4  -1  -6 1506.20 193.983   9 
  -4  -1  -6 1550.51 182.357   8 
  -4  -1  -6 1602.82 176.561  15 
  -4  -1  -6 1751.59 186.683   6 
  -4  -1  -6 1386.06 147.682  12 
  -4  -1  -7 1033.88 412.069   2 
  -4  -1  -7 1406.88 195.828   9 
  -4  -1  -7 1536.07 189.721   8 
  -4  -1  -7 1286.71 167.180  15 
  -4  -1  -7 1203.73 187.218   6 
  -4  -1  -8 1673.47 232.515   9 
  -4  -1  -8 1646.14 210.762   8 
  -4  -1  -8 1731.62 236.939   6 
  -4  -1  -9 1068.52 200.069   9 
  -4  -1  -9 1245.60 193.682   8 
  -4  -1 -10 18.7321 75.5603   9 
  -4  -1 -10-30.9507 65.0059   8 
  -4  -1 -10 97.8315 81.1537   5 
  -4  -1 -11 1167.85 203.696   9 
  -4  -1 -11 79.5930 88.8923   5 
  -4  -1 -12 34.7852 61.9130   9 
  -4  -1 -12 13.5056 55.1615   5 
  -4  -2  11 89.1354 53.8934  13 
  -4  -2  11 177.072 78.5918   4 
  -4  -2  10 8264.49 448.748  13 
  -4  -2  10 8513.49 439.613  16 
  -4  -2   9 8420.69 444.762  16 
  -4  -2   9 8052.21 459.368  13 
  -4  -2   8 531.237 131.517  13 
  -4  -2   8 358.846 107.171  16 
   4   2  -7-81.6384 160.227   1 
  -4  -2   7-19.6332 85.2603   7 
  -4  -2   7 28.6856 77.6009  13 
  -4  -2   7-30.0081 80.2786  16 
  -4  -2   6 6339.46 344.809  16 
  -4  -2   6 6695.33 378.515  13 
   4   2  -6 5504.97 965.252   1 
  -4  -2   6 5857.76 335.333   7 
  -4  -2   6 5941.79 926.597   3 
  -4  -2   5 62.4425 65.7398   7 
  -4  -2   5 23.6327 62.0155  16 
  -4  -2   4 3978.96 230.707   7 
  -4  -2   4 3579.04 225.602  16 
  -4  -2   4 3720.51 670.545   3 
  -4  -2   3 262.392 187.644   3 
  -4  -2   2 7591.21 875.476   3 
  -4  -2   1 27275.8 1596.49   3 
  -4  -2   0 14575.2 1123.00   3 
  -4  -2  -1 34982.1 1676.35   3 
  -4  -2  -2 1574.20 348.296   3 
  -4  -2  -3 19398.8 1188.78   3 
  -4  -2  -3 18034.1 1346.36   2 
  -4  -2  -4 117029. 3657.13   2 
  -4  -2  -5 16607.3 561.098   9 
  -4  -2  -5 16277.7 533.833   8 
  -4  -2  -5 15667.0 528.093  15 
  -4  -2  -5 16076.4 1444.24   2 
  -4  -2  -6-59.4135 133.910   2 
  -4  -2  -6 70.5349 62.3140   9 
  -4  -2  -6 31.3073 49.5476   8 
  -4  -2  -6 74.6641 53.5352  15 
  -4  -2  -7 11721.0 560.101   9 
  -4  -2  -7 12136.0 501.687  15 
  -4  -2  -7 11812.3 524.868   8 
  -4  -2  -7 12985.9 1437.56   2 
  -4  -2  -8 1862.88 246.079   9 
  -4  -2  -8 1973.21 229.084   8 
  -4  -2  -9 4625.68 388.661   9 
  -4  -2  -9 4362.91 345.888   8 
  -4  -2 -10 363.955 123.073   9 
  -4  -2 -10 98.2912 86.8257   5 
  -4  -2 -11 4282.95 365.554   9 
  -4  -2 -11 2064.53 246.228   5 
  -4  -2 -12 715.673 150.872   9 
  -4  -2 -12 111.328 84.6455   5 
  -4  -3  11 1103.55 150.934  13 
  -4  -3  11 1188.19 157.071   4 
  -4  -3  10 119.443 72.7998  16 
  -4  -3  10 285.850 104.025  13 
  -4  -3   9 3679.63 297.346  16 
  -4  -3   9 3101.64 287.872  13 
  -4  -3   8 97.0351 82.0715  13 
   4   3  -8 121.570 76.4965   6 
  -4  -3   8 139.328 78.6543  16 
  -4  -3   7 20913.2 676.601  16 
  -4  -3   7 21995.9 646.352   7 
  -4  -3   7 22253.7 743.506  13 
   4   3  -7 21428.4 753.330   6 
  -4  -3   6 6503.18 339.016   7 
  -4  -3   6 6525.29 361.036  16 
   4   3  -6 6115.62 390.334   6 
  -4  -3   5 302.922 82.0332   7 
   4   3  -5 148.366 67.8610   6 
  -4  -3   5 254.569 86.3089  16 
  -4  -3   4 1503.43 156.055  16 
  -4  -3   4 1511.45 449.304   3 
  -4  -3   4 1471.24 142.196   7 
   4   3  -4 1343.62 166.111   6 
  -4  -3   3 28400.8 1837.05   3 
  -4  -3   3 28118.8 617.219  16 
  -4  -3   2 2721.69 555.931   3 
  -4  -3   1 40146.5 2040.40   3 
  -4  -3   0 12129.0 1092.43   3 
  -4  -3  -1 102741. 3149.79   3 
  -4  -3  -2 172586. 4054.60   3 
  -4  -3  -3 10857.3 1024.90   3 
  -4  -3  -4 27014.8 658.046   8 
  -4  -3  -4 27243.6 687.544  15 
  -4  -3  -5 2485.28 226.187   9 
  -4  -3  -5 2409.01 217.888   8 
  -4  -3  -5 2409.55 219.847  15 
  -4  -3  -6 16402.6 627.649   9 
  -4  -3  -6 16390.8 592.509   8 
  -4  -3  -6 18111.9 604.044  15 
  -4  -3  -7 120.573 88.0858   9 
  -4  -3  -7 177.792 83.9994   8 
  -4  -3  -7 79.8425 75.8284  15 
  -4  -3  -7-54.9424 80.8168   5 
  -4  -3  -8 279.576 126.547   9 
  -4  -3  -8 360.731 113.955   8 
  -4  -3  -8 185.103 80.6091  15 
  -4  -3  -8 91.6739 76.0819   5 
  -4  -3  -9 14702.2 697.387   9 
  -4  -3  -9 8678.11 564.175   5 
  -4  -3 -10 3141.01 329.571   9 
  -4  -3 -10 1275.22 257.821   5 
  -4  -3 -11 338.134 129.879   9 
  -4  -3 -11 86.7982 87.6167   5 
  -4  -3 -12 360.053 108.712   9 
  -4  -3 -12 213.432 106.498   5 
  -4  -4  11 511.314 106.845  13 
  -4  -4  10 101.615 70.8733  16 
  -4  -4  10-107.735 73.7973  13 
   4   4 -10 134.759 86.6447   6 
  -4  -4   9 3224.61 288.313  13 
   4   4  -9 2830.06 286.807   6 
  -4  -4   9 3105.08 272.639  16 
  -4  -4   8-1.78502 68.7604  16 
   4   4  -8-63.4752 96.9773   6 
  -4  -4   8 59.9703 93.1385  13 
  -4  -4   7 7529.55 409.681  16 
   4   4  -7 6717.25 457.953   6 
  -4  -4   6 2234.07 221.796  16 
   4   4  -6 2515.80 272.252   6 
  -4  -4   5 12452.4 483.471  16 
   4   4  -5 13056.2 573.278   6 
  -4  -4   5 12526.5 1339.07   3 
  -4  -4   4 26977.2 674.516  16 
  -4  -4   4 26957.8 600.773   7 
  -4  -4   4 27555.0 1940.97   3 
  -4  -4   3 681.598 108.930  16 
  -4  -4   3 545.825 274.896   3 
  -4  -4   3 778.783 105.832   7 
  -4  -4   2 53566.9 2606.56   3 
  -4  -4   2 51768.8 876.499  16 
  -4  -4   1 60426.2 2687.23   3 
  -4  -4   1 57599.5 917.147  16 
  -4  -4   0 4654.27 747.472   3 
  -4  -4  -1 5054.57 769.017   3 
  -4  -4  -2 2052.11 506.429   3 
  -4  -4  -3 1702.98 171.747   9 
  -4  -4  -3 1821.15 184.545  15 
  -4  -4  -3 1750.36 490.556   3 
  -4  -4  -4 2415.53 219.078   9 
  -4  -4  -4 3192.10 627.970   3 
  -4  -4  -4 2613.14 226.898  15 
  -4  -4  -5 15105.4 581.893   9 
  -4  -4  -5 16110.5 574.100  15 
  -4  -4  -6 12679.8 571.790   9 
  -4  -4  -6 13916.7 564.262   5 
  -4  -4  -6 13563.9 547.765  15 
  -4  -4  -7 59344.4 1312.35   9 
  -4  -4  -7 59113.6 1288.62   5 
  -4  -4  -7 60046.8 1186.80  15 
  -4  -4  -8 55184.3 1318.43   9 
  -4  -4  -8 49233.0 1235.41   5 
  -4  -4  -9 6080.01 449.212   9 
  -4  -4  -9 4781.62 400.358   5 
  -4  -4 -10 2289.72 275.651   9 
  -4  -4 -10 1828.16 244.596   5 
  -4  -4 -11 22.4749 68.1739   9 
  -4  -4 -11 45.8873 68.0724   5 
  -4  -4 -12 3006.95 265.845   9 
  -4  -4 -12 970.540 147.576   5 
  -4  -5  10 5404.61 332.705  13 
   4   5 -10 4756.73 357.187   6 
  -4  -5   9 400.361 104.259  16 
  -4  -5   9 471.765 121.746  13 
   4   5  -9 198.367 112.650   6 
  -4  -5   8 169.560 88.8644  16 
  -4  -5   8 280.289 110.634  13 
   4   5  -8 103.456 91.3233   6 
   4   5  -7 1002.44 203.586   6 
  -4  -5   7 1070.88 163.742  16 
  -4  -5   6 8694.52 433.002  16 
   4   5  -6 8618.66 528.338   6 
  -4  -5   5 3600.72 736.745   3 
   4   5  -5 3954.91 338.803   6 
  -4  -5   5 4158.83 292.768  16 
  -4  -5   4 29142.0 2075.69   3 
  -4  -5   4 27332.5 718.201  16 
  -4  -5   3 6938.47 1034.78   3 
  -4  -5   3 6920.50 356.806  16 
  -4  -5   2 7884.04 377.948  16 
  -4  -5   2 7221.16 311.753   7 
  -4  -5   1 38.8311 116.255   3 
  -4  -5   1 36.3765 56.6428  16 
  -4  -5   1 89.2244 58.8932   7 
  -4  -5   0 2279.19 571.236   3 
  -4  -5   0 2410.85 196.173   7 
  -4  -5  -1 27195.7 1974.72   3 
  -4  -5  -1 25815.3 665.187  15 
  -4  -5  -1 25349.3 664.640   7 
  -4  -5  -2 6796.72 1004.13   3 
  -4  -5  -2 6522.70 354.218  15 
  -4  -5  -2 6517.15 349.713   7 
  -4  -5  -3 16874.8 1592.60   3 
  -4  -5  -3 17717.3 599.521  15 
  -4  -5  -4 9976.18 467.764   9 
  -4  -5  -4 10451.2 1274.03   3 
  -4  -5  -4 10154.9 475.517  15 
  -4  -5  -5 12870.0 567.465   9 
  -4  -5  -5 13730.8 547.555   5 
  -4  -5  -5 13768.4 563.118  15 
  -4  -5  -6 9098.13 501.657   9 
  -4  -5  -6 8936.56 469.942   5 
  -4  -5  -6 9760.46 483.733  15 
  -4  -5  -7 1729.80 233.262   9 
  -4  -5  -7 1784.23 229.251   5 
  -4  -5  -8 5862.09 438.085   9 
  -4  -5  -8 5840.90 425.640   5 
  -4  -5  -9 208.103 108.246   9 
  -4  -5  -9 260.384 108.265   5 
  -4  -5 -10 506.710 147.658   9 
  -4  -5 -10 375.586 133.234   5 
  -4  -5 -11 447.730 120.094   9 
  -4  -5 -11 229.413 102.926   5 
  -4  -6  10 203.061 75.1575  13 
   4   6 -10 197.698 73.5096   6 
  -4  -6   9 18.7172 66.3183  13 
   4   6  -9 83.3245 86.7796   6 
   4   6  -8 992.385 194.650   6 
   4   6  -7 888.952 203.930   6 
  -4  -6   7 915.267 150.082  16 
  -4  -6   6 1356.15 180.397  16 
   4   6  -6 1257.12 231.670   6 
  -4  -6   5 41911.3 947.229  16 
   4   6  -5 41125.9 1159.52   6 
  -4  -6   4 20265.9 652.115  16 
  -4  -6   3 4196.05 297.160  16 
  -4  -6   3 4558.78 883.494   3 
  -4  -6   2 24076.4 2017.59   3 
  -4  -6   2 21870.3 677.214  16 
  -4  -6   1 7519.15 1133.32   3 
  -4  -6   1 6910.23 391.595  16 
  -4  -6   0 14140.3 1542.87   3 
  -4  -6   0 14115.8 497.412   7 
  -4  -6  -1 16522.3 1673.77   3 
  -4  -6  -1 15807.4 553.648   7 
  -4  -6  -2 82.6873 145.567   3 
  -4  -6  -2 200.069 76.7511   7 
  -4  -6  -3 23193.2 700.786   5 
  -4  -6  -3 23914.9 2061.31   3 
  -4  -6  -3 22097.6 708.301   7 
  -4  -6  -4 51941.9 1077.02   5 
  -4  -6  -4 50031.8 3008.88   3 
  -4  -6  -5 17185.1 650.535   5 
  -4  -6  -5 12670.6 1498.88   3 
  -4  -6  -6 29.3784 57.3711   5 
  -4  -6  -7 421.788 125.029   9 
  -4  -6  -7 398.198 124.149   5 
  -4  -6  -8 219.639 103.472   9 
  -4  -6  -8 265.686 97.8218   5 
  -4  -6  -9 6116.66 438.986   9 
  -4  -6  -9 5144.53 393.057   5 
  -4  -6 -10 2360.60 261.414   5 
  -4  -6 -11 170.292 74.9608   5 
  -4  -7   9 344.834 97.4441  13 
   4   7  -9 20.0419 68.6535   6 
   4   7  -8 2205.56 267.009   6 
   4   7  -7 10540.8 596.122   6 
  -4  -7   6 1606.74 192.168  16 
   4   7  -6 1212.48 227.470   6 
  -4  -7   5 152.784 81.7121  16 
  -4  -7   5 82.4568 97.9671   5 
   4   7  -5 175.429 119.443   6 
  -4  -7   4 108.551 64.9924  16 
  -4  -7   4 197.362 107.191   5 
  -4  -7   3 375.576 90.2575   5 
  -4  -7   3 585.833 118.889  16 
  -4  -7   2 27354.7 808.299  16 
  -4  -7   2 27462.9 818.298   5 
  -4  -7   1 45585.1 1055.89   5 
  -4  -7   1 45986.8 1072.90  16 
  -4  -7   0 9742.83 488.964   5 
  -4  -7  -1 34371.3 918.724   5 
  -4  -7  -2 1050.09 168.335   5 
  -4  -7  -2 1086.59 158.069   7 
  -4  -7  -3 1512.91 198.530   5 
  -4  -7  -3 1738.30 200.838   7 
  -4  -7  -4 20318.7 720.575   5 
  -4  -7  -4 18028.3 673.000   7 
  -4  -7  -5 3792.52 320.825   5 
  -4  -7  -6 11712.0 572.631   5 
  -4  -7  -7 10894.6 560.289   5 
  -4  -7  -8-18.0120 62.8638   5 
  -4  -7  -9 185.711 80.1325   5 
  -4  -7 -10 50.6686 60.5200   5 
  -4  -8   8 1763.48 197.012  13 
   4   8  -8 1553.44 207.690   6 
   4   8  -7 386.621 119.111   6 
   4   8  -6 2174.65 283.518   6 
   4   8  -5 6237.99 483.725   6 
  -4  -8   5 4718.88 372.272   5 
  -4  -8   4 281.689 110.875  16 
  -4  -8   4 314.063 116.147   5 
   4   8  -4 512.842 159.345   6 
  -4  -8   3 3283.64 281.291  16 
  -4  -8   3 3147.59 313.012   5 
  -4  -8   2 6097.41 392.577  16 
  -4  -8   2 5531.86 403.144   5 
  -4  -8   1 206.736 103.994   5 
  -4  -8   1 266.470 104.207  16 
  -4  -8   0 23054.3 798.061   5 
  -4  -8   0 22096.1 781.720  16 
  -4  -8  -1 29137.9 891.432   5 
  -4  -8  -2 855.607 156.062   5 
  -4  -8  -3 8291.09 477.928   5 
  -4  -8  -3 7703.32 418.494   7 
  -4  -8  -4 2175.11 247.798   5 
  -4  -8  -4 2034.25 229.279   7 
  -4  -8  -5 1741.97 227.847   5 
  -4  -8  -5 1983.42 232.961   7 
  -4  -8  -6 4820.49 371.520   5 
  -4  -8  -6 4368.75 343.243   7 
  -4  -8  -7 487.680 127.549   7 
  -4  -8  -7 638.274 136.147   5 
  -4  -8  -8 1878.35 229.010   5 
  -4  -8  -8 2188.20 236.835   7 
  -4  -8  -9 475.823 117.034   5 
  -4  -8  -9 769.652 139.623   7 
   4   9  -6 816.465 164.762   6 
   4   9  -5 5638.14 430.072   6 
  -4  -9   4 58.6624 62.2848   5 
   4   9  -4 134.591 109.050   6 
  -4  -9   3 4576.11 305.768  16 
  -4  -9   3 4377.57 355.574   5 
  -4  -9   2 1010.38 183.659   5 
  -4  -9   2 1010.46 159.657  16 
  -4  -9   1 1245.38 196.996   5 
  -4  -9   1 1489.31 193.353  16 
  -4  -9   0 38.7562 77.8183   5 
  -4  -9   0 46.4211 68.0150  16 
  -4  -9  -1 246.713 104.106  16 
  -4  -9  -1 161.115 84.4560   5 
  -4  -9  -2 372.642 113.375   5 
  -4  -9  -3 474.153 124.450   5 
  -4  -9  -4 2889.95 278.315   5 
  -4  -9  -5 244.791 90.4513   5 
  -4  -9  -5 239.648 89.7621   7 
  -4  -9  -6 403.114 109.969   5 
  -4  -9  -6 182.650 83.4483   7 
  -4  -9  -7 500.895 115.332   5 
  -4  -9  -7 547.580 115.754   7 
  -4  -9  -8 149.474 61.3484   5 
  -4  -9  -8 139.687 69.5091   7 
   4  10  -5 1290.14 182.987   6 
   4  10  -4 2425.58 260.214   6 
   4  10  -3 3615.21 325.824   6 
  -4 -10   3 2180.17 230.987   5 
  -4 -10   2 107.233 83.9143   5 
  -4 -10   1 133.306 78.9134   5 
  -4 -10   1 187.760 82.0317  16 
  -4 -10   0 306.062 88.9432  16 
  -4 -10   0 409.766 115.597   5 
  -4 -10  -1 76.7142 65.5105  16 
  -4 -10  -1 10.9271 83.2121   5 
  -4 -10  -2 1588.39 200.410   5 
  -4 -10  -2 1576.05 194.989  16 
  -4 -10  -3 8907.50 456.387   5 
  -4 -10  -4 122.566 66.7054   5 
  -4 -10  -5 4651.09 317.976   5 
  -4 -10  -6 852.208 135.982   5 
  -4 -11  -1 412.739 83.9002  16 
  -4 -11  -2 207.157 61.4807  16 
  -4 -11  -3 1211.10 143.197  16 
  -5   9   4 205.247 92.3154  10 
  -5   9   3 1522.58 188.295  17 
  -5   9   3 1616.17 204.315  10 
  -5   9   2 1338.76 190.002  17 
  -5   9   2 1459.69 199.657  10 
  -5   9   1 336.908 111.061  17 
  -5   9   0 169.214 101.660  17 
  -5   9  -1 1372.83 196.862  17 
  -5   9  -1 1240.05 180.323  14 
  -5   9  -2 415.895 119.959  14 
  -5   9  -2 139.314 76.6792  17 
  -5   9  -3 683.145 130.376  14 
  -5   9  -3 504.372 113.866  17 
  -5   9  -4 3187.14 256.066  14 
  -5   8   6 1.20197 56.3624  10 
  -5   8   5 2155.53 249.196  10 
  -5   8   4 1617.69 225.273  10 
  -5   8   3 581.131 143.323  10 
  -5   8   3 615.015 143.653  17 
  -5   8   2 1553.22 230.199  17 
  -5   8   2 1695.79 235.505  10 
  -5   8   1 1290.28 203.620  10 
  -5   8   1 1032.88 192.025  17 
  -5   8   0 3151.92 316.496  17 
  -5   8   0 3007.95 313.160  10 
  -5   8  -1 109.938 83.1042  17 
  -5   8  -2 446.342 130.568  17 
  -5   8  -2 327.851 113.236  14 
  -5   8  -3 186.570 101.954  17 
  -5   8  -3 93.2642 75.2248  14 
  -5   8  -4 846.532 160.326  14 
  -5   8  -4 920.903 154.518  17 
  -5   8  -5 2943.14 246.995  17 
  -5   8  -5 3226.82 281.797  14 
  -5   8  -6 2159.74 214.567  14 
  -5   7   8-31.5044 46.9941  10 
  -5   7   8-110.454 75.3681  13 
  -5   7   7 476.093 121.290  10 
  -5   7   7 240.302 98.5344  13 
  -5   7   6 6159.00 402.349  13 
  -5   7   6 6019.60 426.411  10 
  -5   7   5 6567.74 427.693  13 
  -5   7   5 6356.86 453.860  10 
  -5   7   4 396.026 139.260  10 
  -5   7   4 297.538 108.050  13 
  -5   7   3 72.0091 74.2228  10 
  -5   7   3 142.478 89.2400  17 
  -5   7   3-115.930 95.9737  13 
  -5   7   2 371.108 129.229  10 
  -5   7   2 265.575 117.068  17 
  -5   7   1 153.651 86.9765  10 
  -5   7   1 173.641 112.922  17 
  -5   7   0 2266.40 275.040  17 
  -5   7   0 2483.72 282.820  10 
  -5   7  -1 2624.38 295.331  17 
  -5   7  -1 3171.53 280.787  11 
  -5   7  -1 2647.38 297.079  10 
  -5   7  -2 488.017 141.263  17 
  -5   7  -2 485.359 118.332  11 
  -5   7  -3 607.423 151.503  14 
  -5   7  -3 397.375 114.196  11 
  -5   7  -3 395.481 136.640  17 
  -5   7  -4 272.685 109.350  17 
  -5   7  -4 156.398 100.484  14 
  -5   7  -4 143.962 78.3817  11 
  -5   7  -5 421.281 112.096  17 
  -5   7  -5 297.562 122.601  14 
  -5   7  -5 386.167 120.307  12 
  -5   7  -5 382.068 111.887  11 
  -5   7  -6 55.3281 68.2365  14 
  -5   7  -6 127.098 108.200  12 
  -5   7  -7 10.8596 64.2850  14 
  -5   7  -7 30.4960 63.1107  12 
  -5   7  -8 246.107 87.8407  12 
  -5   6   9 723.257 138.525  10 
  -5   6   9 840.280 130.152  13 
  -5   6   8 1104.73 177.153  10 
  -5   6   8 1134.06 173.142  13 
  -5   6   7-9.02714 60.6184  10 
  -5   6   7-8.60382 74.9271  13 
  -5   6   6 29.1706 64.1587  10 
  -5   6   6-94.6675 91.0557  13 
  -5   6   5-7.97794 70.1069  10 
  -5   6   5 74.6490 98.1898  13 
  -5   6   4 9305.68 519.840  13 
  -5   6   4 9589.89 483.817  11 
  -5   6   4 9427.07 554.658  10 
  -5   6   3 130.054 95.6261  10 
  -5   6   3 119.291 93.4272  17 
  -5   6   3 167.364 122.321  13 
  -5   6   3 21.8449 69.4163  11 
  -5   6   2 30.5409 74.8829  10 
  -5   6   2-112.077 113.388  17 
  -5   6   2 33.6847 74.3097  13 
  -5   6   2 168.860 94.5647  11 
  -5   6   1 9784.66 548.867  17 
  -5   6   1 10099.9 499.684  13 
  -5   6   1 10370.7 496.193  11 
  -5   6   1 10214.7 542.875  10 
  -5   6   0 770.200 155.568  10 
  -5   6   0 950.826 184.002  17 
  -5   6   0 877.859 156.991  11 
  -5   6  -1 10101.6 556.535  17 
  -5   6  -1 10621.2 521.054  11 
  -5   6  -1 9984.96 550.014  10 
  -5   6  -2 9942.25 548.919  17 
  -5   6  -2 10407.6 536.310  11 
  -5   6  -3 1594.19 208.013  12 
  -5   6  -3 1623.31 229.895  17 
  -5   6  -3 1588.80 224.965  14 
  -5   6  -3 1528.06 222.693  11 
  -5   6  -4 76.2579 78.1948  17 
  -5   6  -4 110.623 108.148  14 
  -5   6  -4 162.020 84.4410  12 
  -5   6  -4 21.3260 97.1652  11 
  -5   6  -5 548.969 130.804  17 
  -5   6  -5 818.968 168.155  14 
  -5   6  -5 610.224 149.595  12 
  -5   6  -5 665.616 160.937  11 
  -5   6  -6 571.427 148.945  14 
  -5   6  -6 298.183 114.890  12 
  -5   6  -7 662.558 142.495  14 
  -5   6  -7 889.871 174.768  12 
  -5   6  -8 889.822 154.955  14 
  -5   6  -8 947.027 168.503  12 
  -5   6  -9 67.1614 79.2434  12 
  -5   5   9 10144.4 475.625  13 
  -5   5   9 10118.3 520.322  10 
  -5   5   8 5369.00 383.397  13 
  -5   5   8 5125.50 401.704  10 
  -5   5   7 1387.35 220.343  10 
  -5   5   7 1407.90 220.335  13 
  -5   5   6 1257.63 213.781  10 
  -5   5   6 1354.03 223.617  13 
  -5   5   5 760.434 165.722  10 
  -5   5   5 786.638 177.859  13 
  -5   5   4 1105.41 187.508  10 
  -5   5   4 1556.60 217.906  13 
  -5   5   3 2778.62 264.715  17 
  -5   5   3 3259.41 296.618  13 
  -5   5   3 2811.16 275.882  10 
  -5   5   2 3523.09 310.339  17 
  -5   5   2 3902.46 319.808  13 
  -5   5   2 3963.18 307.882  11 
  -5   5   2 3861.42 318.564  10 
  -5   5   1 14984.6 629.618  17 
  -5   5   1 15949.2 589.802  13 
  -5   5   1 15843.8 605.900  11 
  -5   5   1 14966.6 619.255  10 
  -5   5   0 13854.5 612.553  17 
  -5   5   0 12803.2 513.898  13 
  -5   5   0 13561.7 569.672  11 
  -5   5   0 12839.6 571.213  10 
  -5   5  -1 585.953 124.146  10 
  -5   5  -1 503.543 127.143  17 
  -5   5  -1 576.908 129.745  11 
  -5   5  -2 3098.18 296.401  17 
  -5   5  -2 2882.44 253.363  12 
  -5   5  -2 3113.60 289.707  11 
  -5   5  -2 2798.31 280.713  10 
  -5   5  -3 4735.74 366.027  17 
  -5   5  -3 4862.96 369.771  14 
  -5   5  -3 4444.94 340.934  12 
  -5   5  -3 4718.03 369.681  11 
  -5   5  -4 299.334 119.524  17 
  -5   5  -4 216.251 108.810  14 
  -5   5  -4 311.089 122.330  12 
  -5   5  -4 328.075 123.005  11 
  -5   5  -5 9268.44 491.977  17 
  -5   5  -5 9242.72 521.485  14 
  -5   5  -5 8676.36 545.800  12 
  -5   5  -5 9253.94 558.371  11 
  -5   5  -6 2002.35 270.908  12 
  -5   5  -6 1827.63 260.294  11 
  -5   5  -6 2117.64 267.869  14 
  -5   5  -7 313.575 122.333  12 
  -5   5  -7 281.440 111.295  14 
  -5   5  -8 308.525 101.302  14 
  -5   5  -8 481.979 129.329  12 
  -5   5  -9 34.6487 71.9402  12 
  -5   5 -10 145.281 80.1040  12 
  -5   4  10 91.5975 58.1953  10 
  -5   4  10 103.389 81.7142  13 
  -5   4   9-1.42596 60.8891  10 
  -5   4   9 123.427 74.8783  13 
  -5   4   8 554.816 148.516  10 
  -5   4   8 652.215 146.550  13 
  -5   4   7 3656.37 333.796  13 
  -5   4   7 3410.23 348.561  10 
  -5   4   6 375.537 124.640  10 
  -5   4   6 455.289 142.660  13 
  -5   4   5 1764.32 226.875  13 
  -5   4   5 1599.53 226.243  10 
  -5   4   4 2289.55 251.278  13 
  -5   4   4 2403.94 257.929  10 
  -5   4   3 2308.13 240.838  13 
   5  -4  -3 2470.22 988.705   1 
  -5   4   3 2130.07 230.508  10 
  -5   4   2 436.714 111.114  10 
  -5   4   2 593.173 129.738  17 
  -5   4   2 553.586 123.152  13 
  -5   4   1 330.760 96.6180  10 
  -5   4   1 417.099 98.9211  17 
  -5   4   1 395.695 111.705  13 
  -5   4   1 343.895 92.0137  11 
  -5   4   0 2393.39 248.319  17 
  -5   4   0 2344.78 209.368  13 
  -5   4   0 2412.78 236.559  11 
  -5   4   0 2362.24 228.664  10 
  -5   4  -1 2445.51 250.504  17 
  -5   4  -1 2138.44 204.305  12 
  -5   4  -1 2512.63 249.428  11 
  -5   4  -1 2182.65 223.371  10 
  -5   4  -2 7808.51 439.487  17 
  -5   4  -2 8176.19 414.591  12 
  -5   4  -2 8649.28 452.149  11 
  -5   4  -2 8134.04 425.935  10 
  -5   4  -3 2828.82 686.887   2 
  -5   4  -3 2761.88 266.016  17 
  -5   4  -3 2641.35 261.938  14 
  -5   4  -3 2443.85 250.315  12 
  -5   4  -3 2572.56 272.604  11 
  -5   4  -4 8577.12 1264.68   2 
  -5   4  -4 8358.33 452.455  17 
  -5   4  -4 8303.89 459.802  14 
  -5   4  -4 8442.69 481.767  12 
  -5   4  -4 8161.98 477.776  11 
  -5   4  -5 5692.55 378.925  17 
  -5   4  -5 6278.37 414.909  14 
  -5   4  -5 5467.32 422.056  12 
  -5   4  -5 5974.69 438.176  11 
  -5   4  -6 541.625 144.626  14 
  -5   4  -6 511.324 153.358  12 
  -5   4  -6 554.679 154.178  11 
  -5   4  -7 118.107 85.4879  14 
  -5   4  -7 210.107 108.563  12 
  -5   4  -7-7.82152 76.4365  11 
  -5   4  -8 656.863 157.576  12 
  -5   4  -9 677.707 156.581  12 
  -5   4 -10 4354.03 314.381   8 
  -5   4 -10 5325.47 354.287  12 
  -5   3  10 1098.02 174.107  10 
  -5   3  10 993.798 155.983  13 
  -5   3  10 1220.63 178.491   4 
  -5   3   9 154.830 92.8573  10 
  -5   3   9 305.976 107.010  13 
  -5   3   9 94.8666 73.9629   4 
  -5   3   8 1344.37 214.785  13 
  -5   3   8 1293.28 203.792   4 
  -5   3   7 10945.0 560.042  13 
  -5   3   7 10750.1 556.660   4 
  -5   3   6 3846.18 341.142  13 
  -5   3   6 4293.24 342.530   4 
  -5   3   6 3836.44 343.256  10 
  -5   3   5 2082.97 250.536  13 
  -5   3   5 1827.14 224.781   4 
  -5   3   5 1951.32 237.332  10 
  -5   3   4 14774.8 533.115   7 
  -5   3   4 16803.0 607.910  13 
  -5   3   4 15510.8 598.373  10 
   5  -3  -3 6491.37 1164.33   1 
  -5   3   3 6088.28 321.842   7 
  -5   3   3 6741.94 367.658  13 
  -5   3   3 6432.69 362.582  10 
   5  -3  -2 2667.43 698.200   1 
  -5   3   2 2559.94 215.528  17 
  -5   3   2 2888.66 229.101  13 
  -5   3   2 2583.28 221.241  10 
  -5   3   1 265.095 80.7773  10 
  -5   3   1 264.460 87.3775  17 
  -5   3   1 182.879 73.4940  13 
  -5   3   0 2081.29 210.132  17 
  -5   3   0 2193.80 181.917  12 
  -5   3   0 2246.25 213.507  11 
  -5   3   0 2007.46 182.729  10 
  -5   3  -1 8182.45 409.241  17 
  -5   3  -1 8499.40 385.956  14 
  -5   3  -1 8161.99 372.483  12 
  -5   3  -1 7837.65 395.297  11 
  -5   3  -1 7524.46 356.390  10 
  -5   3  -2 10552.4 471.042  17 
  -5   3  -2 10593.2 451.904  14 
  -5   3  -2 10004.8 444.993  12 
  -5   3  -2 10552.7 1154.06   2 
  -5   3  -2 10408.3 469.240  11 
  -5   3  -2 10049.6 423.924  10 
  -5   3  -3 37.2939 117.925   2 
  -5   3  -3 245.094 94.2940  17 
  -5   3  -3 320.828 100.015  14 
  -5   3  -3 223.372 97.4449  12 
  -5   3  -3 301.996 105.925  11 
  -5   3  -4 1055.31 417.329   2 
  -5   3  -4 934.743 147.636  17 
  -5   3  -4 900.711 152.863  14 
  -5   3  -4 839.215 163.328  12 
  -5   3  -4 1046.02 177.555  11 
  -5   3  -5 967.708 422.602   2 
  -5   3  -5 892.507 151.203  17 
  -5   3  -5 862.199 152.471  14 
  -5   3  -5 912.886 169.009  12 
  -5   3  -5 813.386 159.914  11 
  -5   3  -6 5173.04 368.565  14 
  -5   3  -6 4238.95 371.908  12 
  -5   3  -6 4679.18 386.401  11 
  -5   3  -7 31.3686 81.6083  14 
  -5   3  -7 11.4712 96.1133  12 
  -5   3  -7 15.9840 87.7085  11 
  -5   3  -8 425.649 137.367  12 
  -5   3  -9 2402.83 270.907  12 
  -5   3 -10 923.876 156.097   8 
  -5   3 -10 1037.67 172.749  12 
  -5   3 -11 2.82278 61.3841   9 
  -5   3 -11 34.3072 60.2449  12 
  -5   2  11 161.393 66.1282  10 
  -5   2  11 73.8984 64.0621  13 
  -5   2  11 165.921 71.7205   4 
  -5   2  10 142.516 83.3752  13 
  -5   2  10 140.556 82.9527   4 
  -5   2   9 879.567 170.342  13 
  -5   2   9 683.297 150.714   4 
  -5   2   8 926.813 188.878  13 
  -5   2   8 930.845 177.686   4 
  -5   2   7 2237.75 263.868  13 
  -5   2   7 2066.36 250.370   4 
  -5   2   6 363.037 133.038   7 
  -5   2   6 190.599 100.935  16 
  -5   2   6 322.651 120.374  13 
  -5   2   6 204.227 83.8247   4 
  -5   2   5 926.254 164.451   7 
  -5   2   5 1020.16 177.827  13 
  -5   2   5 1025.36 162.753   4 
  -5   2   5 787.025 139.902  16 
   5  -2  -4 8707.26 1246.11   1 
  -5   2   4 8889.26 406.649   7 
  -5   2   4 8996.31 366.532  16 
  -5   2   4 9675.45 445.868   4 
  -5   2   4 10026.3 450.619  13 
  -5   2   4 9629.84 436.521  10 
  -5   2   3 170.103 66.7596  10 
  -5   2   3 155.246 57.8964   7 
  -5   2   3 176.830 87.5011  13 
  -5   2   2 204.734 69.0693   7 
  -5   2   2 128.786 68.4420  13 
   5  -2  -2 153.844 177.858   1 
   5  -2  -1 18439.8 1454.10   1 
  -5   2   0 2698.14 212.528  17 
  -5   2  -1 50752.8 930.453  17 
  -5   2  -1 48652.0 2091.32   2 
  -5   2  -1 48902.8 871.997  12 
  -5   2  -1 48530.9 910.018  11 
  -5   2  -2 3090.81 578.091   2 
  -5   2  -2 3137.55 243.975  17 
  -5   2  -2 3111.51 223.588  14 
  -5   2  -2 3207.77 235.360  12 
  -5   2  -2 2714.31 226.923  11 
  -5   2  -3 233.279 192.884   2 
  -5   2  -3 95.3198 60.0247  17 
  -5   2  -3 67.5586 56.2970  12 
  -5   2  -3 201.353 76.3618  11 
  -5   2  -3 24.7513 63.0722  14 
  -5   2  -4 2506.64 608.964   2 
  -5   2  -4 2072.84 205.650  17 
  -5   2  -4 2195.22 214.440  14 
  -5   2  -4 2131.82 222.818  12 
  -5   2  -4 2304.98 231.534  11 
  -5   2  -5 11542.0 503.767  14 
  -5   2  -5 12114.8 543.755  12 
  -5   2  -5 11263.0 536.942  11 
  -5   2  -6 8533.34 459.032  14 
  -5   2  -6 9071.85 1260.71   2 
  -5   2  -6 8148.28 477.737  12 
  -5   2  -6 8827.01 496.628  11 
  -5   2  -7 21211.9 783.731  12 
  -5   2  -7 20886.1 803.188  11 
  -5   2  -8 1994.17 254.011  12 
  -5   2  -9 7027.99 445.852  12 
  -5   2 -10 283.714 122.071   9 
  -5   2 -10 131.381 62.0912   8 
  -5   2 -10 310.050 113.609  12 
  -5   2 -11 304.738 105.560   9 
  -5   2 -11 68.1718 45.1921   8 
  -5   1  11 864.055 134.480  13 
  -5   1  11 855.913 144.477   4 
  -5   1  10 748.125 145.811  13 
  -5   1  10 616.734 138.908   4 
  -5   1   9 105.874 97.7132  13 
  -5   1   9-62.6259 75.6142   4 
  -5   1   8 1554.98 213.892  16 
  -5   1   8 1673.34 221.921  13 
  -5   1   8 1263.45 205.149   4 
  -5   1   7 13461.1 565.360  16 
  -5   1   7 14806.5 627.608  13 
  -5   1   7 12996.3 596.111   4 
  -5   1   6 799.695 171.907   7 
  -5   1   6 1058.75 174.823  13 
  -5   1   6 1069.64 172.590  16 
  -5   1   6 1015.05 171.728   4 
   5  -1  -5 2891.65 752.244   1 
  -5   1   5 2606.13 239.385   7 
  -5   1   5 2740.68 232.467  16 
  -5   1   5 3074.44 265.376  13 
  -5   1   5 2577.02 241.277   4 
   5  -1  -4 43732.1 2673.55   1 
  -5   1   4 43663.3 867.161   7 
  -5   1   4 43568.4 903.608  13 
  -5   1   4 43472.6 895.069   4 
  -5   1   4 44297.6 818.469  16 
   5  -1  -3 6308.86 948.106   1 
  -5   1   3 5949.97 300.084   7 
  -5   1   3 5378.20 263.469  16 
  -5   1   3 6136.29 315.615  13 
  -5   1   3 6135.10 318.512   4 
   5  -1  -2 9068.71 1059.65   1 
   5  -1  -1 14859.5 1261.59   1 
   5  -1   0 15114.4 1173.59   1 
  -5   1  -1 1768.91 380.180   2 
  -5   1  -2 2172.57 476.216   2 
  -5   1  -2 1625.14 163.342  17 
  -5   1  -2 1622.12 163.320  12 
  -5   1  -3 132.366 160.861   2 
  -5   1  -3 252.685 75.0417  14 
  -5   1  -3 212.441 71.4143  12 
  -5   1  -3 158.376 71.5075  11 
  -5   1  -4 11213.2 450.475  14 
  -5   1  -4 12420.2 1310.88   2 
  -5   1  -4 11576.8 468.766  12 
  -5   1  -4 11375.4 465.897  11 
  -5   1  -5 13862.1 534.068  14 
  -5   1  -5 13437.9 533.976  12 
  -5   1  -5 13043.7 538.589  11 
  -5   1  -6 3411.96 778.847   2 
  -5   1  -6 2518.68 249.232  12 
  -5   1  -6 2577.54 268.282  11 
  -5   1  -7 65.1706 78.5567  12 
  -5   1  -7 129.055 74.4407  11 
  -5   1  -8 108.084 75.4652  12 
  -5   1  -9 1143.68 202.617   9 
  -5   1  -9 1007.63 175.409   8 
  -5   1  -9 1339.41 189.978  12 
  -5   1 -10 974.145 186.450   9 
  -5   1 -10 942.049 165.878   8 
  -5   1 -10 879.149 144.861  12 
  -5   1 -11 869.993 167.737   9 
  -5   1 -11 349.103 94.7338   8 
  -5   1 -12-20.9001 63.1227   9 
  -5   0  11 78.2010 64.2261  13 
  -5   0  11 82.0620 60.3845   4 
  -5   0  10 1212.66 175.786  13 
  -5   0  10 1215.43 188.669   4 
  -5   0   9 497.713 140.475  16 
  -5   0   9 584.768 142.211  13 
  -5   0   9 539.262 133.964   4 
  -5   0   8 353.454 129.471  16 
  -5   0   8 231.546 101.194  13 
  -5   0   8 401.511 124.593   4 
  -5   0   7 479.909 135.539  16 
  -5   0   7 381.362 135.467   7 
  -5   0   7 298.822 117.475  13 
  -5   0   7 357.550 108.404   4 
   5   0  -6 383.241 277.376   1 
  -5   0   6 109.491 84.1961   7 
  -5   0   6 187.308 90.2723  13 
  -5   0   6 227.309 88.6918  16 
  -5   0   6 163.780 80.4720   4 
  -5   0   5 2208.53 218.170   7 
  -5   0   5 2365.25 216.987  16 
  -5   0   5 2387.15 237.537  13 
  -5   0   5 2311.57 223.292   4 
   5   0  -5 2697.25 711.352   1 
  -5   0   4 5691.68 298.165  16 
  -5   0   4 5961.93 317.713   7 
  -5   0   4 5220.31 323.939  13 
  -5   0   4 5493.42 312.914   4 
   5   0  -4 5134.51 914.747   1 
  -5   0   3 26458.8 614.703   7 
   5   0  -3 25763.8 1906.35   1 
  -5   0   3 26005.4 581.801  16 
  -5   0   3 25074.7 641.304  13 
  -5   0   3 26050.3 618.316   4 
  -5   0   2 69615.8 2823.16   3 
  -5   0   1 308.210 143.261   3 
  -5   0   0 8572.18 861.905   3 
  -5   0  -1 2773.28 486.856   2 
  -5   0  -1 3061.73 478.280   3 
  -5   0  -2 17921.3 1318.79   2 
  -5   0  -3 10011.2 1074.68   2 
  -5   0  -3 10204.1 390.258  12 
  -5   0  -4 8738.51 1076.82   2 
  -5   0  -4 7428.61 355.411  12 
  -5   0  -4 7617.42 356.601  11 
  -5   0  -5 1849.79 531.348   2 
  -5   0  -5 1552.35 183.411   9 
  -5   0  -5 1302.71 161.413  12 
  -5   0  -5 1290.07 166.850  11 
  -5   0  -6 1006.42 417.009   2 
  -5   0  -6 1722.75 206.939   9 
  -5   0  -6 1738.49 202.117  12 
  -5   0  -6 1577.93 198.006  11 
  -5   0  -7 261.961 103.707   9 
  -5   0  -7 247.440 87.9245  15 
  -5   0  -7 400.404 109.974  12 
  -5   0  -8 10970.9 581.410   9 
  -5   0  -8 10513.5 535.293   8 
  -5   0  -8 10182.1 480.934  12 
  -5   0  -9 2934.21 311.875   9 
  -5   0  -9 2560.11 279.668   8 
  -5   0 -10-14.9988 84.8957   9 
  -5   0 -10 82.1560 74.7260   8 
  -5   0 -11 301.227 113.081   9 
  -5   0 -11 422.768 100.698   8 
  -5   0 -12 1314.65 176.794   9 
  -5  -1  11 1824.61 188.933  13 
  -5  -1  11 1682.78 193.447   4 
  -5  -1  10 581.780 130.540  13 
  -5  -1  10 946.202 164.908   4 
  -5  -1   9 827.356 165.567  16 
  -5  -1   9 780.696 164.105  13 
  -5  -1   9 631.631 145.007   4 
  -5  -1   8 2186.89 248.919  16 
  -5  -1   8 2463.16 267.878  13 
  -5  -1   8 2215.65 255.180   4 
  -5  -1   7 4420.01 334.259   7 
  -5  -1   7 4786.71 358.242  13 
  -5  -1   7 3894.91 322.335   4 
  -5  -1   7 4684.07 339.858  16 
  -5  -1   6 22872.9 690.281  16 
  -5  -1   6 22275.2 695.185   7 
  -5  -1   6 23124.2 739.627  13 
  -5  -1   6 21543.0 703.269   4 
  -5  -1   5 11051.3 465.362   7 
   5   1  -5 8710.94 1267.64   1 
  -5  -1   5 10483.8 446.139  16 
  -5  -1   5 10475.4 478.825  13 
  -5  -1   5 10024.2 445.135   4 
  -5  -1   5 10668.5 1296.97   3 
  -5  -1   4 11139.6 424.570  16 
  -5  -1   4 10621.7 448.782  13 
  -5  -1   4 10124.3 410.951   4 
  -5  -1   4 10109.2 1200.33   3 
  -5  -1   4 10718.5 423.589   7 
  -5  -1   3 22733.4 559.945  16 
  -5  -1   3 23007.5 572.977   7 
  -5  -1   3 22532.0 598.398  13 
  -5  -1   3 22258.7 551.119   4 
  -5  -1   3 21010.0 1648.65   3 
  -5  -1   2 342.391 241.381   3 
  -5  -1   2 318.622 73.3892   7 
  -5  -1   1-0.69344 88.8771   3 
  -5  -1   0 1274.35 353.031   3 
  -5  -1  -1 81193.1 2634.09   2 
  -5  -1  -1 82329.8 2598.68   3 
  -5  -1  -2 8552.60 936.464   2 
  -5  -1  -2 8395.30 771.701   3 
  -5  -1  -3 2882.99 586.676   2 
  -5  -1  -3 2759.25 197.329  12 
  -5  -1  -4 187.467 185.480   2 
  -5  -1  -4 228.261 73.4347  12 
  -5  -1  -5 64.0122 51.4639   9 
  -5  -1  -5 27.4374 50.9916  15 
  -5  -1  -5 69.4057 50.2067   7 
  -5  -1  -5 78.1167 60.0642  12 
  -5  -1  -5 30.8017 46.1850  11 
  -5  -1  -6 613.985 317.236   2 
  -5  -1  -6 731.711 147.321   9 
  -5  -1  -6 718.062 137.567   8 
  -5  -1  -6 623.900 129.628  15 
  -5  -1  -6 632.011 119.491  12 
  -5  -1  -6 650.122 120.856  11 
  -5  -1  -7 3952.38 817.063   2 
  -5  -1  -7 4742.60 372.304   9 
  -5  -1  -7 4193.98 327.752   8 
  -5  -1  -7 4189.91 320.185  15 
  -5  -1  -7 4235.98 285.717  12 
  -5  -1  -8 6038.35 432.203   9 
  -5  -1  -8 6129.49 414.393   8 
  -5  -1  -8 6232.10 390.231  15 
  -5  -1  -9 3731.06 356.076   9 
  -5  -1  -9 3769.20 334.633   8 
  -5  -1 -10 746.575 166.721   9 
  -5  -1 -10 793.013 157.914   8 
  -5  -1 -11 90.5466 77.8296   9 
  -5  -1 -12 770.031 143.812   9 
  -5  -2  11 543.898 106.452  13 
  -5  -2  11 514.536 115.353   4 
  -5  -2  10 1784.54 207.953  16 
  -5  -2  10 1844.55 215.006  13 
  -5  -2  10 1719.80 203.149   4 
  -5  -2   9 1358.26 194.544  16 
  -5  -2   9 1437.34 207.388  13 
  -5  -2   9 1320.36 191.505   4 
  -5  -2   8 2111.12 241.385   7 
  -5  -2   8 2382.87 251.448  16 
  -5  -2   8 1930.21 248.037  13 
  -5  -2   8 1941.77 230.107   4 
  -5  -2   7 4950.12 345.016   7 
  -5  -2   7 4680.52 348.202  16 
  -5  -2   7 4656.30 351.008  13 
  -5  -2   7 4132.39 325.638   4 
  -5  -2   6 1539.66 191.322   7 
  -5  -2   6 1670.05 203.527  16 
  -5  -2   6 1586.04 206.934  13 
  -5  -2   6 1343.63 177.661   4 
  -5  -2   5 2587.83 631.924   3 
  -5  -2   5 3188.18 257.990   7 
  -5  -2   5 3248.69 257.845  16 
  -5  -2   5 2823.65 258.382  13 
  -5  -2   5 2871.35 233.253   4 
  -5  -2   4 11534.3 436.111   7 
  -5  -2   4 11285.0 439.001  16 
  -5  -2   4 11943.5 483.468  13 
  -5  -2   4 11318.1 415.735   4 
  -5  -2   4 10521.7 1253.04   3 
  -5  -2   3 609.083 298.651   3 
  -5  -2   3 577.631 99.6845  16 
  -5  -2   3 537.901 93.2206   7 
  -5  -2   3 491.429 97.6947  13 
  -5  -2   2 428.327 80.2431  16 
  -5  -2   2 646.126 275.949   3 
  -5  -2   2 486.018 89.9415   7 
  -5  -2   1 51287.2 2407.64   3 
  -5  -2   0 52826.5 2358.74   3 
  -5  -2  -1 5933.02 776.019   3 
  -5  -2  -2 19995.8 1340.36   3 
  -5  -2  -3 28943.2 711.243  15 
  -5  -2  -3 28732.9 694.935   7 
  -5  -2  -4 1409.12 441.873   2 
  -5  -2  -4 1019.99 144.371   9 
  -5  -2  -4 1219.56 154.276   8 
  -5  -2  -4 799.245 141.234  15 
  -5  -2  -4 1140.55 153.394   7 
  -5  -2  -5 15438.9 562.962   9 
  -5  -2  -5 15901.5 572.560   8 
  -5  -2  -5 16236.8 599.991   7 
  -5  -2  -5 16497.0 586.998  15 
  -5  -2  -5 17285.1 1631.53   2 
  -5  -2  -5 15617.0 480.271  12 
  -5  -2  -6 7056.26 422.374   9 
  -5  -2  -6 6972.33 398.420   8 
  -5  -2  -6 7254.59 412.738  15 
  -5  -2  -6 8472.69 1214.10   2 
  -5  -2  -7 3036.66 297.392   9 
  -5  -2  -7 3139.69 284.310   8 
  -5  -2  -7 2934.14 273.532  15 
  -5  -2  -8 3961.92 348.692   9 
  -5  -2  -8 3753.24 310.672  15 
  -5  -2  -8 4209.71 341.101   8 
  -5  -2  -9 5273.39 418.793   9 
  -5  -2  -9 5488.03 394.402   8 
  -5  -2 -10 59.8721 74.3825   9 
  -5  -2 -10 107.616 81.7131   8 
  -5  -2 -11 273.237 107.264   9 
  -5  -2 -12 221.018 85.5370   9 
  -5  -3  11 3766.32 251.454  13 
  -5  -3  10 54.4206 65.7855  13 
  -5  -3  10 185.397 84.0935  16 
  -5  -3  10 92.1186 48.4528   4 
  -5  -3   9 4069.93 312.276  16 
  -5  -3   9 4259.34 332.059  13 
  -5  -3   9 4017.06 303.315   4 
  -5  -3   8 10118.6 474.281   7 
  -5  -3   8 10276.0 530.776  13 
  -5  -3   8 10891.5 512.712  16 
  -5  -3   8 10172.3 484.965   4 
  -5  -3   7 2828.72 269.858  16 
  -5  -3   7 2763.62 261.973   7 
  -5  -3   7 2982.78 285.569  13 
  -5  -3   7 2693.60 251.199   4 
  -5  -3   6 121.236 73.7874   7 
  -5  -3   6 248.874 109.558  13 
  -5  -3   6 221.423 100.724  16 
  -5  -3   5 364.223 241.223   3 
  -5  -3   5 292.070 92.0370  16 
  -5  -3   5 466.966 114.491   7 
  -5  -3   5 271.148 104.506  13 
  -5  -3   4 44.4950 61.7347  16 
  -5  -3   4 40.3351 52.0100   7 
  -5  -3   4 165.645 180.075   3 
  -5  -3   3 18054.9 545.146  16 
  -5  -3   3 17936.7 526.513   7 
  -5  -3   3 18388.4 1619.76   3 
  -5  -3   2 60008.4 2821.19   3 
  -5  -3   2 57187.7 906.117   7 
  -5  -3   2 57025.2 917.624  16 
  -5  -3   1 2492.75 191.344   7 
  -5  -3   1 2637.84 578.088   3 
  -5  -3   1 2469.34 186.286  16 
  -5  -3   0 14020.3 1310.66   3 
  -5  -3   0 13139.4 441.165   7 
  -5  -3  -1 293.375 79.3314   7 
  -5  -3  -1 107.168 142.033   3 
  -5  -3  -2 48570.2 2322.70   3 
  -5  -3  -2 46794.2 886.058   7 
  -5  -3  -2 47449.6 900.069  15 
  -5  -3  -3 151.931 64.6174   8 
  -5  -3  -3 234.532 85.2505  15 
  -5  -3  -3 186.359 69.1480   7 
  -5  -3  -4 4369.01 288.177   9 
  -5  -3  -4 4463.40 289.857   8 
  -5  -3  -4 4823.24 318.061   7 
  -5  -3  -4 4701.44 314.831  15 
  -5  -3  -5 913.024 150.949   9 
  -5  -3  -5 969.494 150.906   8 
  -5  -3  -5 929.719 154.013  15 
  -5  -3  -6 16289.5 648.929   9 
  -5  -3  -6 16721.8 633.532   8 
  -5  -3  -6 16699.5 646.175  15 
  -5  -3  -7 244.805 107.489   9 
  -5  -3  -7 355.990 108.692   8 
  -5  -3  -7 196.305 111.951  15 
  -5  -3  -8 1433.13 222.266   9 
  -5  -3  -8 1083.22 197.770   8 
  -5  -3  -8 1229.88 185.566  15 
  -5  -3  -9 12304.4 636.961   9 
  -5  -3 -10 78.2781 84.2781   9 
  -5  -3 -11 544.961 134.532   9 
  -5  -3 -12 231.314 93.0457   9 
  -5  -4  10 1585.11 172.943  16 
  -5  -4  10 1622.44 188.602  13 
  -5  -4   9 337.072 131.202  16 
  -5  -4   9 469.787 125.966  13 
  -5  -4   8 658.856 136.852  16 
  -5  -4   8 568.904 137.381  13 
  -5  -4   7 2253.14 243.718  16 
  -5  -4   7 2208.03 256.387  13 
  -5  -4   6 231.331 81.4976   7 
  -5  -4   6 502.158 123.067  16 
  -5  -4   5 601.785 115.984   7 
  -5  -4   5 604.749 126.513  16 
  -5  -4   4 45801.1 949.887  16 
  -5  -4   4 44674.2 881.128   7 
  -5  -4   4 44157.9 2647.37   3 
  -5  -4   3 4614.43 274.849   7 
  -5  -4   3 4776.11 296.960  16 
  -5  -4   3 4980.68 870.152   3 
  -5  -4   2 6494.59 976.010   3 
  -5  -4   2 6431.02 320.388   7 
  -5  -4   2 6495.18 338.502  16 
  -5  -4   1 2071.04 189.222  16 
  -5  -4   1 2075.23 188.690   7 
  -5  -4   1 1972.77 550.262   3 
  -5  -4   0 803.322 343.246   3 
  -5  -4   0 688.744 110.178  16 
  -5  -4   0 572.409 96.5474  15 
  -5  -4   0 615.684 101.908   7 
  -5  -4  -1 5886.75 900.977   3 
  -5  -4  -1 5926.95 330.257   7 
  -5  -4  -1 5830.99 315.789  15 
  -5  -4  -2 17326.5 1523.50   3 
  -5  -4  -2 16883.5 569.025  15 
  -5  -4  -2 17656.4 584.432   7 
  -5  -4  -3 16216.3 554.754   9 
  -5  -4  -3 17535.3 1523.88   3 
  -5  -4  -3 16073.2 582.320   7 
  -5  -4  -3 15684.1 572.094  15 
  -5  -4  -4 20899.0 665.764   9 
  -5  -4  -4 20862.3 701.750   7 
  -5  -4  -4 21111.1 686.459  15 
  -5  -4  -5 31270.7 869.200   9 
  -5  -4  -5 33995.4 902.095  15 
  -5  -4  -6 912.891 175.560   9 
  -5  -4  -6 1213.99 186.071  15 
  -5  -4  -7 593.769 145.996   9 
  -5  -4  -7 668.314 147.747  15 
  -5  -4  -8 1168.46 205.600   9 
  -5  -4  -8 1280.47 186.748  15 
  -5  -4  -9 94.1846 76.5782   9 
  -5  -4 -10 1651.61 235.528   9 
  -5  -4 -11 3053.12 287.863   9 
  -5  -4 -11 2855.54 246.185   7 
  -5  -4 -12 94.6154 52.0517   9 
  -5  -5  10 121.125 71.2383  13 
  -5  -5   9 937.154 146.747  16 
  -5  -5   9 1001.97 169.150  13 
  -5  -5   8 109.362 71.8970  16 
  -5  -5   8 217.260 93.4866  13 
  -5  -5   7 7527.11 424.653  16 
  -5  -5   7 7604.87 466.153  13 
   5   5  -7 6674.85 464.971   6 
  -5  -5   6 48266.1 1065.02  16 
   5   5  -6 46532.7 1223.52   6 
  -5  -5   5 17112.6 632.875  16 
   5   5  -5 17856.8 744.943   6 
  -5  -5   4 4514.55 280.831   7 
  -5  -5   4 4351.67 311.875  16 
   5   5  -4 4522.86 370.381   6 
  -5  -5   3 189.394 185.987   3 
  -5  -5   3 320.058 104.696  16 
  -5  -5   3 209.647 60.2830   7 
  -5  -5   2 58.4875 64.0212  16 
  -5  -5   2 80.2854 56.9702   7 
  -5  -5   1 20958.2 1853.28   3 
  -5  -5   1 19127.9 625.875  16 
  -5  -5   1 19346.8 590.454   7 
  -5  -5   0 17630.0 1687.26   3 
  -5  -5   0 16582.5 586.058  16 
  -5  -5   0 16143.6 553.612   7 
  -5  -5   0 16734.2 526.226  15 
  -5  -5  -1 3686.33 276.381   7 
  -5  -5  -1 4077.51 821.347   3 
  -5  -5  -1 3405.29 253.458  15 
  -5  -5  -2 14039.0 1511.61   3 
  -5  -5  -2 12585.4 520.877   7 
  -5  -5  -2 12586.7 513.729  15 
  -5  -5  -3 1559.40 192.120   7 
  -5  -5  -3 1422.53 489.639   3 
  -5  -5  -3 1604.92 194.536  15 
  -5  -5  -4 5806.65 383.376   7 
  -5  -5  -4 5007.44 357.922  15 
  -5  -5  -5 4432.88 346.849   9 
  -5  -5  -5 4170.17 349.740   7 
  -5  -5  -5 4608.84 347.042  15 
  -5  -5  -6 2214.29 260.145   9 
  -5  -5  -6 2507.87 264.078  15 
  -5  -5  -7 10023.0 563.401   9 
  -5  -5  -8 1801.56 248.942   9 
  -5  -5  -9 496.082 135.550   9 
  -5  -5 -10 118.222 88.7188   9 
  -5  -5 -10 125.471 87.4729   7 
  -5  -5 -11-35.7026 65.6018   9 
  -5  -5 -11 148.158 76.0193   7 
  -5  -6   9 401.399 114.548  13 
  -5  -6   8 474.378 106.933  16 
  -5  -6   8 487.446 129.901  13 
   5   6  -8 364.037 136.968   6 
  -5  -6   7 4736.10 329.084  16 
  -5  -6   7 4815.49 368.121  13 
   5   6  -7 4086.98 379.489   6 
   5   6  -6 204.802 112.490   6 
  -5  -6   6 146.846 81.6717  16 
  -5  -6   5 623.202 121.247  16 
   5   6  -5 800.655 183.912   6 
  -5  -6   4 697.088 140.593  16 
   5   6  -4 512.410 147.069   6 
  -5  -6   3 5511.61 364.148  16 
  -5  -6   2 3377.39 285.852  16 
  -5  -6   2 3203.38 241.709   7 
  -5  -6   1 5609.64 327.864   7 
  -5  -6   1 5819.79 377.899  16 
  -5  -6   1 5922.53 1052.00   3 
  -5  -6   0-98.3194 161.513   3 
  -5  -6   0 73.0472 98.4479  16 
  -5  -6   0 50.4840 58.1430   7 
  -5  -6  -1 33821.0 2499.79   3 
  -5  -6  -1 33975.1 863.087   7 
  -5  -6  -2 15430.2 1693.48   3 
  -5  -6  -2 15413.7 597.248   7 
  -5  -6  -3 1008.48 165.986   7 
  -5  -6  -3 327.720 256.296   3 
  -5  -6  -4 6572.57 418.453   7 
  -5  -6  -5 25809.3 865.974   7 
  -5  -6  -6 5530.94 422.091   7 
  -5  -6  -9-78.9287 94.6911   7 
  -5  -6 -10 548.736 129.259   7 
  -5  -7   8 388.415 112.507  13 
   5   7  -8 437.096 123.264   6 
   5   7  -7-67.0404 105.846   6 
  -5  -7   7 59.6943 64.1836  16 
  -5  -7   6 967.655 156.776  16 
   5   7  -6 753.199 190.900   6 
   5   7  -5 55.6912 95.0653   6 
  -5  -7   5 231.901 96.7701  16 
  -5  -7   4 3067.36 282.263  16 
   5   7  -4 3014.03 348.667   6 
  -5  -7   3 2404.99 249.162  16 
  -5  -7   2 16423.9 652.000  16 
  -5  -7   1 24085.6 796.430  16 
  -5  -7   0 23243.4 789.215  16 
  -5  -7   0 23175.6 689.174   7 
  -5  -7  -1 6501.50 379.316   7 
  -5  -7  -2 2816.89 256.543   7 
  -5  -7  -3 5127.16 356.207   7 
  -5  -7  -4 2438.15 254.210   7 
  -5  -7  -5 923.137 168.520   7 
  -5  -7  -6 167.554 94.0379   7 
  -5  -7  -7 47.5436 91.2452   7 
  -5  -7  -8 233.698 114.930   7 
  -5  -7  -9 1822.93 222.101   7 
  -5  -7 -10 89.7849 82.3718   7 
  -5  -8   7 16.7044 62.2969  13 
   5   8  -7 209.285 117.369   6 
  -5  -8   6 699.497 117.790  16 
   5   8  -6 664.841 180.892   6 
  -5  -8   5 4099.69 295.196  16 
   5   8  -5 4172.53 391.662   6 
  -5  -8   4 12089.4 529.065  16 
   5   8  -4 12228.2 683.726   6 
  -5  -8   3 5674.30 374.459  16 
  -5  -8   2 2767.71 273.926  16 
  -5  -8   1 2258.97 256.048  16 
  -5  -8   0 3279.73 301.269  16 
  -5  -8  -1 9541.44 517.182  16 
  -5  -8  -2 84.2137 67.3413   7 
  -5  -8  -3 1707.07 200.514   7 
  -5  -8  -4 22714.7 741.414   7 
  -5  -8  -5 2880.54 273.791   7 
  -5  -8  -6-139.135 96.0882   7 
  -5  -8  -7 108.455 84.1297   7 
  -5  -8  -8 1275.74 177.741   7 
  -5  -8  -9 5888.81 337.501   7 
   5   9  -5 1993.13 261.768   6 
  -5  -9   4 4.69622 60.8377  16 
   5   9  -4 41.2366 97.6626   6 
  -5  -9   3 774.524 128.022  16 
   5   9  -3 830.976 183.194   6 
  -5  -9   2 1392.84 188.617  16 
  -5  -9   1 14744.2 601.876  16 
  -5  -9   0 4905.68 352.962  16 
  -5  -9  -1 6489.27 406.024  16 
  -5  -9  -2 1619.53 213.709  16 
  -5  -9  -4 272.352 87.4159   7 
  -5  -9  -5 110.845 64.9063   7 
  -5  -9  -6 234.996 69.5144   7 
  -5  -9  -7 2124.23 204.375   7 
   5  10  -3 763.629 149.741   6 
  -5 -10   2 2174.89 192.998  16 
   5  10  -2 2310.78 259.447   6 
  -5 -10   1 964.171 140.733  16 
  -5 -10   0 4527.20 302.369  16 
  -5 -10  -1 6037.78 355.935  16 
  -5 -10  -2 75.2761 67.5813  16 
  -5 -10  -3 15.1735 64.4099  16 
  -5 -10  -4 26.4356 55.6195  16 
  -6   9   0-16.5897 58.6694  17 
  -6   9  -1 23.7603 57.2762  17 
  -6   8   4 576.776 126.718  10 
  -6   8   3 1011.90 166.282  10 
  -6   8   3 1155.11 166.403  17 
  -6   8   2 19.1976 54.8789  10 
  -6   8   2-9.02753 67.8422  17 
  -6   8   1 142.701 82.4716  17 
  -6   8   0 1461.20 213.742  17 
  -6   8   0 1474.53 195.913  14 
  -6   8  -1 12.4575 81.2310  17 
  -6   8  -1-40.9963 67.1247  14 
  -6   8  -2 97.5618 68.8627  17 
  -6   8  -2 140.829 72.4398  14 
  -6   8  -3 69.8671 69.3687  17 
  -6   8  -3 186.241 81.1821  14 
  -6   8  -4 825.783 140.405  17 
  -6   8  -4 592.522 128.699  14 
  -6   8  -5 783.451 129.508  14 
  -6   7   6 166.332 74.6369  10 
  -6   7   6 142.383 71.2890  13 
  -6   7   5 10.8723 59.6291  10 
  -6   7   5 102.280 66.3020  13 
  -6   7   4 194.322 94.2754  10 
  -6   7   3 1178.96 192.426  10 
  -6   7   3 1284.38 194.063  17 
  -6   7   2 1549.29 224.935  17 
  -6   7   2 1755.97 199.955  11 
  -6   7   2 1573.09 225.810  10 
  -6   7   1 45.9419 60.1086  10 
  -6   7   1 83.1156 106.022  17 
  -6   7   1 85.0031 67.6224  11 
  -6   7   0 1220.25 212.514  17 
  -6   7   0 857.090 162.840  14 
  -6   7   0 1131.91 172.496  11 
  -6   7   0 1098.91 189.506  10 
  -6   7  -1 1096.32 196.334  17 
  -6   7  -1 1289.31 198.226  14 
  -6   7  -1 1220.82 176.941  11 
  -6   7  -2 903.362 177.846  17 
  -6   7  -2 986.343 178.731  14 
  -6   7  -2 954.602 157.957  11 
  -6   7  -3 75.9986 90.4610  17 
  -6   7  -3 90.8093 89.4035  14 
  -6   7  -3 63.4385 65.7090  11 
  -6   7  -4 3393.57 299.576  17 
  -6   7  -4 3409.80 318.035  14 
  -6   7  -4 3324.90 290.592  11 
  -6   7  -5 195.110 92.3238  14 
  -6   7  -5 193.650 62.9792  12 
  -6   7  -5 231.502 98.7577  11 
  -6   7  -6 997.361 160.145  14 
  -6   7  -6 952.594 142.410  12 
  -6   7  -7 357.187 90.6288  14 
  -6   6   8 1237.03 162.338  13 
  -6   6   7 500.925 117.984  10 
  -6   6   7 554.240 127.210  13 
  -6   6   7 386.196 94.1151  11 
  -6   6   6 54.3668 71.0740  10 
  -6   6   6 33.4203 74.3552  13 
  -6   6   6 105.833 58.9119  11 
  -6   6   5 94.9222 67.8879  10 
  -6   6   5 121.419 104.485  13 
  -6   6   5 58.8940 62.8337  11 
  -6   6   4 55.8643 56.9167  10 
  -6   6   4 58.5530 74.4451  13 
  -6   6   4 55.9123 66.6635  11 
  -6   6   3 1262.24 199.551  10 
  -6   6   3 1161.26 192.898  17 
  -6   6   3 1282.46 195.201  13 
  -6   6   3 1271.56 187.877  11 
  -6   6   2 39.7129 74.4379  10 
  -6   6   2-5.12790 75.4292  13 
  -6   6   2-54.3002 72.1515  11 
  -6   6   1 317.618 113.180  10 
  -6   6   1 346.773 125.601  17 
  -6   6   1 364.021 97.4373  11 
  -6   6   0 15885.7 723.861  17 
  -6   6   0 14461.2 643.990  14 
  -6   6   0 15911.7 642.910  11 
  -6   6   0 15252.4 666.729  10 
  -6   6  -1 24320.2 890.697  17 
  -6   6  -1 22105.9 812.501  14 
  -6   6  -1 23703.4 792.260  11 
  -6   6  -2 3475.18 343.844  17 
  -6   6  -2 3565.63 329.827  14 
  -6   6  -2 3514.07 317.321  11 
  -6   6  -3 791.355 168.323  14 
  -6   6  -3 652.618 157.742  17 
  -6   6  -3 613.144 143.861  11 
  -6   6  -4 1954.88 248.455  17 
  -6   6  -4 1681.35 235.942  14 
  -6   6  -4 1603.64 218.038  12 
  -6   6  -4 1549.67 222.849  11 
  -6   6  -5 2524.42 263.078  17 
  -6   6  -5 2719.58 287.773  14 
  -6   6  -5 2824.11 281.133  12 
  -6   6  -5 2499.28 283.942  11 
  -6   6  -6 898.655 169.959  14 
  -6   6  -6 921.751 164.015  12 
  -6   6  -7-53.7424 81.0827  14 
  -6   6  -7 62.3802 97.9491  12 
  -6   6  -8 31.9830 56.8388  12 
  -6   5   8 2364.01 244.070  13 
  -6   5   8 2060.17 226.433  10 
  -6   5   7 77.3751 78.9828  10 
  -6   5   7 251.716 111.648  13 
  -6   5   6 3835.33 337.022  13 
  -6   5   6 3239.89 315.413  10 
  -6   5   5 340.732 104.960  10 
  -6   5   5 220.671 113.907  13 
  -6   5   4 159.068 88.8238  10 
  -6   5   4-14.9071 79.5749  13 
  -6   5   3 318.149 106.840  10 
  -6   5   3 455.816 131.730  13 
  -6   5   3 417.853 110.827  11 
  -6   5   2 7367.30 452.923  17 
  -6   5   2 7491.18 438.584  13 
  -6   5   2 8139.87 467.414  11 
  -6   5   2 7988.44 466.125  10 
  -6   5   1 18131.0 739.332  17 
  -6   5   1 19567.5 655.356  13 
  -6   5   1 20456.1 728.560  11 
  -6   5   1 19308.6 713.011  10 
  -6   5   0 55031.8 1321.02  17 
  -6   5   0 55989.9 1190.77  14 
  -6   5   0 58170.1 1240.33  11 
  -6   5   0 59066.5 1234.36  10 
  -6   5  -1 21266.5 813.568  17 
  -6   5  -1 20333.5 748.160  14 
  -6   5  -1 19678.2 723.903  11 
  -6   5  -1 20524.6 735.876  10 
  -6   5  -2 350.882 125.509  17 
  -6   5  -2 108.854 98.2590  14 
  -6   5  -2 274.854 97.6205  12 
  -6   5  -2 414.885 132.287  11 
  -6   5  -3 1696.68 240.655  17 
  -6   5  -3 1826.05 240.777  14 
  -6   5  -3 1542.92 207.068  12 
  -6   5  -3 1521.01 228.180  11 
  -6   5  -4 98.6526 103.778  17 
  -6   5  -4-24.4663 85.7354  14 
  -6   5  -4 63.1846 84.5064  12 
  -6   5  -4 68.7308 73.6783  11 
  -6   5  -5 131.190 76.1258  17 
  -6   5  -5 101.829 79.6392  14 
  -6   5  -5 182.331 114.177  12 
  -6   5  -5 78.6412 80.2695  11 
  -6   5  -6 137.111 99.5173  14 
  -6   5  -6 172.149 101.709  12 
  -6   5  -6 47.0956 90.9224  11 
  -6   5  -7 67.3571 76.0111  14 
  -6   5  -7-3.75010 81.8968  12 
  -6   5  -8 717.196 154.131  12 
  -6   5  -9 3003.85 254.074  12 
  -6   4   9 596.215 116.258  10 
  -6   4   9 615.181 132.075  13 
  -6   4   8-73.9565 66.5710  10 
  -6   4   8-28.8835 73.7014  13 
  -6   4   7 89.0034 64.8900  10 
  -6   4   7 144.916 110.050  13 
  -6   4   6 3216.92 323.883  13 
  -6   4   6 2674.46 290.208  10 
  -6   4   5 125.495 82.5161  10 
  -6   4   5 132.499 97.2765  13 
  -6   4   4 3904.83 334.715  13 
  -6   4   4 3503.02 313.750  10 
  -6   4   3 1085.67 174.403  10 
  -6   4   3 1039.53 176.533  13 
  -6   4   2 390.663 105.440  10 
  -6   4   2 441.799 123.847  17 
  -6   4   2 433.594 124.426  13 
  -6   4   2 374.969 112.136  11 
  -6   4   1 863.239 144.722  10 
  -6   4   1 1138.94 180.384  17 
  -6   4   1 894.980 146.117  13 
  -6   4   1 809.595 152.861  11 
  -6   4   0 1982.98 244.293  17 
  -6   4   0 1703.44 211.729  11 
  -6   4   0 1990.79 215.358  10 
  -6   4  -1 206.393 80.8252  10 
  -6   4  -1 64.0737 82.7430  17 
  -6   4  -1 303.153 103.454  14 
  -6   4  -1 227.262 91.0146  12 
  -6   4  -1 220.146 90.8868  11 
  -6   4  -2 10527.9 551.291  17 
  -6   4  -2 9997.60 509.382  14 
  -6   4  -2 9658.83 471.548  12 
  -6   4  -2 10265.4 520.174  11 
  -6   4  -3 408.792 122.867  14 
  -6   4  -3 226.886 113.824  17 
  -6   4  -3 312.182 122.444  12 
  -6   4  -3 288.567 117.319  11 
  -6   4  -4 970.433 173.501  17 
  -6   4  -4 1053.06 189.354  14 
  -6   4  -4 831.396 170.581  12 
  -6   4  -4 1127.38 199.699  11 
  -6   4  -5 96.7533 98.4736  14 
  -6   4  -5 60.1563 89.9120  12 
  -6   4  -5 52.7914 75.0070  11 
  -6   4  -6-35.1567 73.1195  14 
  -6   4  -6 121.395 127.681  12 
  -6   4  -6 57.7753 80.2243  11 
  -6   4  -7 121.885 110.014  14 
  -6   4  -7 96.5953 102.139  12 
  -6   4  -7-43.0946 98.9352  11 
  -6   4  -8 2770.20 296.155  12 
  -6   4  -9 501.293 137.026  12 
  -6   4 -10 114.697 53.2820   8 
  -6   4 -10 293.152 90.5021  12 
  -6   3  10 2419.33 214.935  13 
  -6   3   9 7997.72 434.355  13 
  -6   3   9 6713.44 396.573  10 
  -6   3   8 4909.05 367.897  13 
  -6   3   8 3787.06 326.689  10 
  -6   3   7 466.396 141.217  10 
  -6   3   7 547.831 146.631  13 
  -6   3   6 2913.13 301.670  13 
  -6   3   6 2977.19 297.117  10 
  -6   3   5 7874.89 472.153  13 
  -6   3   5 7299.41 443.061  10 
  -6   3   4 2673.11 240.915   7 
  -6   3   4 2750.36 275.659  13 
  -6   3   4 2351.66 241.939  10 
  -6   3   3 17898.2 575.814   7 
  -6   3   3 18472.8 623.006  10 
  -6   3   2 2234.32 218.219  17 
  -6   3   2 2191.49 223.952  13 
  -6   3   1 1086.64 161.810  17 
  -6   3   1 878.627 141.193  13 
  -6   3   1 1012.32 164.227  11 
  -6   3   0 859.133 160.701  17 
  -6   3   0 665.540 139.230  11 
  -6   3  -1 417.271 121.762  17 
  -6   3  -1 383.854 98.0501  14 
  -6   3  -1 346.106 105.879  12 
  -6   3  -1 299.120 113.167  11 
  -6   3  -2 931.438 167.167  17 
  -6   3  -2 785.779 144.421  14 
  -6   3  -2 899.719 151.737  12 
  -6   3  -2 937.992 160.500  11 
  -6   3  -3 2821.71 274.329  17 
  -6   3  -3 2703.34 261.467  14 
  -6   3  -3 2659.68 260.756  12 
  -6   3  -3 2685.98 271.408  11 
  -6   3  -4 497.574 127.861  17 
  -6   3  -4 429.717 125.997  14 
  -6   3  -4 495.576 128.956  12 
  -6   3  -4 662.219 161.171  11 
  -6   3  -5 10588.4 541.532  14 
  -6   3  -5 9855.65 557.836  12 
  -6   3  -5 10595.6 565.193  11 
  -6   3  -6 11224.5 571.390  14 
  -6   3  -6 10366.6 585.353  12 
  -6   3  -6 10577.5 588.443  11 
  -6   3  -7 268.103 127.757  12 
  -6   3  -7 172.336 90.8419  11 
  -6   3  -8 151.625 81.1554  12 
  -6   3  -9 350.263 113.684   9 
  -6   3  -9 171.876 97.9743  12 
  -6   3 -10 1364.89 181.100   9 
  -6   3 -10 1360.01 174.805   8 
  -6   3 -10 1332.56 171.087  12 
  -6   2  10 1539.31 183.802  13 
  -6   2   9 370.465 115.347  13 
  -6   2   8 3443.40 324.588  13 
  -6   2   8 2877.17 294.545   4 
  -6   2   7 1100.13 187.720  13 
  -6   2   7 1160.00 199.540   4 
  -6   2   6 300.845 127.090  13 
  -6   2   6 164.345 97.4447   4 
  -6   2   5 849.764 152.600  16 
  -6   2   5 986.624 175.737   7 
  -6   2   5 1145.56 189.818  13 
  -6   2   4 964.705 167.875   7 
  -6   2   4 1019.90 175.515  13 
  -6   2   3 841.309 133.940   7 
   6  -2  -3 771.400 398.656   1 
  -6   2   3 1002.20 162.178  13 
  -6   2   2 160.109 54.2588   7 
   6  -2  -2 247.817 206.884   1 
  -6   2   2 214.911 92.9854  13 
  -6   2   1 6268.67 344.074  17 
  -6   2   0 115.571 74.0949  17 
  -6   2   0 17.1145 52.6679  11 
  -6   2  -1 290.748 100.028  17 
  -6   2  -1 405.024 98.4538  12 
  -6   2  -1 535.219 125.989  11 
  -6   2  -2 72.1581 66.1204  17 
  -6   2  -2 126.443 63.9351  14 
  -6   2  -2 136.162 74.1980  12 
  -6   2  -2 86.9917 79.6889  11 
  -6   2  -3 1939.60 533.991   2 
  -6   2  -3 1702.15 214.221  17 
  -6   2  -3 1711.96 203.109  14 
  -6   2  -3 1588.90 198.126  12 
  -6   2  -3 1556.32 200.459  11 
  -6   2  -4 585.440 133.484  14 
  -6   2  -4 559.332 136.799  12 
  -6   2  -4 628.410 139.861  11 
  -6   2  -5 2728.15 270.340  14 
  -6   2  -5 2730.15 280.757  12 
  -6   2  -5 2561.75 266.913  11 
  -6   2  -6 1036.38 182.715  12 
  -6   2  -6 1147.83 191.429  11 
  -6   2  -7 69.2293 94.6041  12 
  -6   2  -7-6.59790 72.1706  11 
  -6   2  -8 308.348 109.745   9 
  -6   2  -8 366.827 116.741  12 
  -6   2  -9 47.9785 71.8169   9 
  -6   2  -9 142.911 91.5049   8 
  -6   2  -9 127.159 86.9776  12 
  -6   2 -10 393.677 109.960   9 
  -6   2 -10 233.961 89.2939   8 
  -6   2 -10 521.627 117.141  12 
  -6   2 -11 94.7993 58.9658   9 
  -6   2 -11 33.8788 45.6677   8 
  -6   1  10 284.793 94.9287  13 
  -6   1  10 239.376 88.4291   4 
  -6   1   9 593.285 140.859  13 
  -6   1   9 601.618 150.613   4 
  -6   1   8 1387.21 214.740  13 
  -6   1   8 1298.02 205.666   4 
  -6   1   7 4012.19 318.472  16 
  -6   1   7 4507.77 364.556  13 
  -6   1   7 3975.68 349.839   4 
  -6   1   6 7924.34 459.234   7 
  -6   1   6 8628.03 443.961  16 
  -6   1   6 8848.12 496.385  13 
  -6   1   6 8306.97 488.048   4 
  -6   1   5 3398.44 300.388   7 
  -6   1   5 3829.93 281.871  16 
  -6   1   5 3524.97 309.177  13 
  -6   1   5 3681.74 315.798   4 
   6  -1  -4-76.7003 177.100   1 
  -6   1   4 104.061 67.5183  16 
  -6   1   4-0.69435 82.5307   7 
  -6   1   4 59.2066 78.6874  13 
   6  -1  -3 766.477 372.072   1 
  -6   1   3 516.944 119.627   7 
  -6   1   3 441.184 120.090  13 
  -6   1   2 3643.41 256.014   7 
  -6   1   2 3582.78 252.032  13 
   6  -1  -2 3163.12 685.260   1 
  -6   1   1-0.20440 50.5735   7 
   6  -1  -1 213.988 172.749   1 
  -6   1   0 1201.32 132.803   7 
  -6   1   0 1166.60 156.802  11 
  -6   1  -1 146.366 73.2016  11 
  -6   1  -2 19868.9 590.645  14 
  -6   1  -2 20368.8 1543.42   2 
  -6   1  -2 20909.6 627.529  12 
  -6   1  -2 19384.6 614.759  11 
  -6   1  -3 135.992 76.8503  14 
  -6   1  -3 61.4358 63.6282  12 
  -6   1  -3 139.160 84.3381  11 
  -6   1  -4-46.8322 87.9589   2 
  -6   1  -4 112.387 66.5519  14 
  -6   1  -4 96.0763 69.1819  12 
  -6   1  -4 211.903 92.4483  11 
  -6   1  -5 10725.5 1395.50   2 
  -6   1  -5 10419.1 503.420  12 
  -6   1  -5 10584.1 515.158  11 
  -6   1  -6 1628.20 216.279  12 
  -6   1  -6 1738.57 222.860  11 
  -6   1  -7 1527.36 216.574   9 
  -6   1  -7 1639.57 213.457  15 
  -6   1  -7 1733.73 236.996  12 
  -6   1  -7 1489.99 216.137  11 
  -6   1  -8 600.912 145.101   9 
  -6   1  -8 681.131 140.525  15 
  -6   1  -8 615.256 135.917  12 
  -6   1  -9 45.6219 67.6657   9 
  -6   1  -9 74.8496 81.7394   8 
  -6   1  -9 63.6495 67.1155  12 
  -6   1 -10 761.193 159.645   9 
  -6   1 -10 543.084 124.402   8 
  -6   1 -10 623.411 112.514  12 
  -6   1 -11 109.602 71.0658   9 
  -6   1 -11 137.457 77.0473   8 
  -6   0  10 1181.57 166.928  13 
  -6   0  10 1096.03 170.037   4 
  -6   0   9 77.3631 72.3201  13 
  -6   0   9 41.0087 70.9378   4 
  -6   0   8 4597.78 345.176  16 
  -6   0   8 4378.57 356.845  13 
  -6   0   8 4541.82 374.008   4 
  -6   0   7 671.183 156.775   7 
  -6   0   7 516.933 145.548  16 
  -6   0   7 374.969 134.363  13 
  -6   0   7 464.681 144.302   4 
  -6   0   6 2578.79 272.927   7 
  -6   0   6 2675.95 261.639  16 
  -6   0   6 2851.92 286.468  13 
  -6   0   6 2656.26 274.507   4 
  -6   0   5 1395.42 198.671   7 
  -6   0   5 1564.55 193.626  16 
  -6   0   5 1739.06 225.029  13 
  -6   0   5 1385.90 198.779   4 
  -6   0   4 763.414 133.952  16 
  -6   0   4 755.869 155.313   7 
  -6   0   4 928.970 151.625  13 
  -6   0   4 708.907 132.167   4 
   6   0  -4 422.105 281.552   1 
  -6   0   3 8979.31 406.666   7 
   6   0  -3 8832.36 1206.66   1 
  -6   0   3 8594.26 370.615  16 
  -6   0   3 8867.47 417.179  13 
   6   0  -2-72.5311 134.079   1 
  -6   0   2 120.506 65.2798   7 
  -6   0   2 112.526 61.1387  13 
   6   0  -1 2674.53 583.430   1 
  -6   0   1 2865.53 210.767   7 
  -6   0   1 2988.98 640.304   3 
  -6   0   0 14882.0 454.486   7 
  -6   0   0 13637.3 1218.91   3 
  -6   0  -1 17039.5 482.692   7 
  -6   0  -1 18652.5 553.025  11 
  -6   0  -2 2356.16 514.231   2 
  -6   0  -2 1996.50 168.372   7 
  -6   0  -2 1991.11 198.453  12 
  -6   0  -2 1873.56 179.302  11 
  -6   0  -3 65.0536 56.2662  12 
  -6   0  -3 39.9170 64.3627  11 
  -6   0  -4 6270.87 990.422   2 
  -6   0  -4 6068.23 354.974  12 
  -6   0  -4 6301.35 355.667  11 
  -6   0  -5 3118.04 725.870   2 
  -6   0  -5 3256.98 273.452  12 
  -6   0  -5 3613.95 284.626  11 
  -6   0  -6 1570.06 206.908  15 
  -6   0  -6 1548.96 198.618  12 
  -6   0  -6 1693.28 209.583  11 
  -6   0  -7 7294.36 456.207   9 
  -6   0  -7 6443.11 422.152   8 
  -6   0  -7 6429.69 412.098  15 
  -6   0  -7 7100.69 417.867  12 
  -6   0  -8 184.994 90.4251   9 
  -6   0  -8 179.819 90.7109   8 
  -6   0  -8 368.630 112.199  15 
  -6   0  -8 319.132 106.621  12 
  -6   0  -9 2008.53 249.472   9 
  -6   0  -9 1812.50 229.924   8 
  -6   0  -9 1664.51 195.345  12 
  -6   0 -10 397.355 121.618   9 
  -6   0 -10 409.692 118.346   8 
  -6   0 -11 71.1795 68.2605   9 
  -6   0 -11-34.1475 57.2578   8 
  -6  -1  10 4144.23 297.889  13 
  -6  -1  10 3589.40 284.225   4 
  -6  -1   9 4064.13 314.895  16 
  -6  -1   9 3634.35 311.845  13 
  -6  -1   9 3640.40 315.917   4 
  -6  -1   8 3517.30 312.300  16 
  -6  -1   8 3141.63 306.119  13 
  -6  -1   8 2963.21 293.858   4 
  -6  -1   7 6704.51 413.203  16 
  -6  -1   7 6311.01 410.702   7 
  -6  -1   7 6823.26 434.712  13 
  -6  -1   7 6071.16 412.199   4 
  -6  -1   6 744.622 151.863  16 
  -6  -1   6 650.288 149.833   7 
  -6  -1   6 676.108 154.881  13 
  -6  -1   6 552.800 135.425   4 
  -6  -1   5 2928.78 272.881   7 
  -6  -1   5 2806.81 256.071  16 
  -6  -1   5 3203.47 298.475  13 
  -6  -1   5 3175.56 276.398   4 
  -6  -1   4 2136.82 222.419   7 
  -6  -1   4 2089.10 208.409  16 
   6   1  -4 1398.21 525.403   1 
  -6  -1   4 2172.68 224.494  13 
  -6  -1   4 2100.19 212.245   4 
  -6  -1   4 1375.87 530.226   3 
  -6  -1   3 307.615 231.348   3 
  -6  -1   3 215.208 76.7356  16 
  -6  -1   3 157.333 75.0463   7 
  -6  -1   3 285.566 86.1498  13 
  -6  -1   2 41934.0 825.243   7 
  -6  -1   2 41419.0 781.584  16 
  -6  -1   2 39233.7 795.093  13 
  -6  -1   2 39269.8 2345.98   3 
  -6  -1   1 31628.8 704.479   7 
  -6  -1   1 33532.5 2069.13   3 
  -6  -1   0 3866.24 662.176   3 
  -6  -1   0 4304.42 254.810   7 
  -6  -1   0 3737.55 235.509  11 
  -6  -1  -1 4222.29 663.432   3 
  -6  -1  -1 4635.97 266.726   7 
  -6  -1  -1 4331.22 250.859  11 
  -6  -1  -2 2850.78 213.584   8 
  -6  -1  -2 2888.08 211.173   7 
  -6  -1  -3 24450.3 622.698   7 
  -6  -1  -3 25933.0 1880.48   2 
  -6  -1  -4 6307.13 363.959   8 
  -6  -1  -4 6355.71 328.785   7 
  -6  -1  -4 5788.86 367.384  15 
  -6  -1  -4 6015.49 338.973  12 
  -6  -1  -5 1334.22 473.665   2 
  -6  -1  -5 1375.29 185.031   8 
  -6  -1  -5 1432.00 190.005  15 
  -6  -1  -5 1194.71 164.978  12 
  -6  -1  -6 1500.69 198.281   9 
  -6  -1  -6 1436.89 198.625   8 
  -6  -1  -6 1274.90 192.295  15 
  -6  -1  -6 1438.32 183.575  12 
  -6  -1  -7 737.385 154.665   9 
  -6  -1  -7 649.796 136.539   8 
  -6  -1  -7 717.608 149.151  15 
  -6  -1  -7 677.822 127.341  12 
  -6  -1  -8 1864.68 245.284   9 
  -6  -1  -8 1936.24 237.764   8 
  -6  -1  -8 1908.04 230.392  15 
  -6  -1  -9 1064.91 188.076   9 
  -6  -1  -9 1286.08 193.915   8 
  -6  -1 -10 212.873 102.817   9 
  -6  -1 -10 241.777 99.9919   8 
  -6  -1 -11-6.62116 68.2256   9 
  -6  -2  10-88.9063 76.0595  13 
  -6  -2  10 19.6853 47.4229   4 
  -6  -2   9 207.739 96.4756  16 
  -6  -2   9 101.220 75.2158  13 
  -6  -2   9 81.8338 63.3190   4 
  -6  -2   8 2071.63 255.920   7 
  -6  -2   8 2271.54 249.824  16 
  -6  -2   8 2117.82 250.669  13 
  -6  -2   8 1801.70 220.379   4 
  -6  -2   7 794.130 169.062  16 
  -6  -2   7 933.012 162.582   7 
  -6  -2   7 741.492 170.359  13 
  -6  -2   7 666.650 139.674   4 
  -6  -2   6 90.2341 74.6195   7 
  -6  -2   6 180.359 96.1623  13 
  -6  -2   6 159.224 87.6825   4 
  -6  -2   6 272.279 106.546  16 
  -6  -2   5-18.5779 69.8604  16 
  -6  -2   5 227.718 98.1064   7 
  -6  -2   5 118.387 96.3434  13 
  -6  -2   5 125.324 81.0218   4 
  -6  -2   4 191.025 87.6287  16 
  -6  -2   4 413.461 106.810   7 
  -6  -2   4 289.252 103.112  13 
  -6  -2   4 343.530 98.6642   4 
  -6  -2   3 25716.9 688.582   7 
  -6  -2   3 26021.4 684.814  16 
  -6  -2   3 26196.2 712.513  13 
  -6  -2   2 10756.3 414.895  16 
  -6  -2   2 10511.7 424.520   7 
  -6  -2   2 9490.98 409.084  13 
  -6  -2   2 9170.48 1165.76   3 
  -6  -2   1 231.518 206.310   3 
  -6  -2   1 41.1650 58.5091  16 
  -6  -2   1 131.838 69.1162   7 
  -6  -2   0 11052.8 421.996   7 
  -6  -2   0 10729.5 380.208  16 
  -6  -2   0 10722.6 417.073  15 
  -6  -2   0 10177.2 1133.54   3 
  -6  -2  -1 17850.0 539.606   7 
  -6  -2  -1 18107.1 574.135  15 
  -6  -2  -1 18069.5 1450.96   3 
  -6  -2  -2 1966.20 192.777   7 
  -6  -2  -2 1944.19 204.998  15 
  -6  -2  -3 13549.7 489.506   8 
  -6  -2  -3 14125.7 521.006   7 
  -6  -2  -3 13450.8 540.167  15 
  -6  -2  -4 9304.73 433.969   8 
  -6  -2  -4 9225.60 445.504   7 
  -6  -2  -4 8562.00 451.957  15 
  -6  -2  -5 1141.89 172.149   8 
  -6  -2  -5 1173.36 178.177  15 
  -6  -2  -5 1343.03 179.689   7 
  -6  -2  -6 3886.78 310.499   9 
  -6  -2  -6 3636.53 309.207   8 
  -6  -2  -6 3698.04 310.171   7 
  -6  -2  -6 4205.53 335.459  15 
  -6  -2  -7 12154.4 588.851   9 
  -6  -2  -7 12408.4 574.481   8 
  -6  -2  -7 12204.4 554.249   7 
  -6  -2  -7 12236.1 574.892  15 
  -6  -2  -8 24076.5 855.250   9 
  -6  -2  -8 23260.1 804.500   8 
  -6  -2  -8 24720.8 800.091  15 
  -6  -2  -9 14426.9 664.746   9 
  -6  -2  -9 12240.3 581.464   8 
  -6  -2 -10 5356.00 395.640   9 
  -6  -2 -11 875.681 157.372   9 
  -6  -3  10 325.093 92.6031  16 
  -6  -3  10 249.044 83.6141  13 
  -6  -3   9 73.7220 75.7828  16 
  -6  -3   9 0.46906 61.2168  13 
  -6  -3   8 2699.47 257.667   7 
  -6  -3   8 3068.28 288.725  13 
  -6  -3   8 2837.26 269.887  16 
  -6  -3   7 4145.05 323.695   7 
  -6  -3   7 4695.32 352.622  16 
  -6  -3   7 4911.31 369.294  13 
  -6  -3   6 13884.2 566.358   7 
  -6  -3   6 14374.6 597.430  16 
  -6  -3   6 14141.5 619.199  13 
  -6  -3   5 35382.7 878.721   7 
  -6  -3   5 35803.3 900.705  16 
  -6  -3   5 34335.0 933.140  13 
  -6  -3   4 9287.31 437.145   7 
  -6  -3   4 9599.74 450.561  16 
  -6  -3   4 9656.97 474.224  13 
  -6  -3   3 113.709 182.077   3 
  -6  -3   3 263.963 88.0670  16 
  -6  -3   3 186.296 71.9530   7 
  -6  -3   3 196.451 76.8733  13 
  -6  -3   2 9927.27 419.951  16 
  -6  -3   2 10341.0 434.812   7 
  -6  -3   2 9872.19 422.592  13 
  -6  -3   2 10116.7 1263.09   3 
  -6  -3   1 11227.4 434.221  16 
  -6  -3   1 10302.9 428.622   7 
  -6  -3   1 10154.4 1213.78   3 
  -6  -3   0 20196.1 1678.27   3 
  -6  -3   0 19840.4 557.840  16 
  -6  -3   0 19073.1 590.495   7 
  -6  -3   0 19607.6 559.372  15 
  -6  -3  -1 23428.0 1758.03   3 
  -6  -3  -1 23476.2 604.258  16 
  -6  -3  -1 23421.5 659.744   7 
  -6  -3  -1 24275.5 666.667  15 
  -6  -3  -2 847.773 336.288   3 
  -6  -3  -2 647.488 107.867  16 
  -6  -3  -2 739.956 135.257  15 
  -6  -3  -2 733.738 130.063   7 
  -6  -3  -3 1206.48 153.281   8 
  -6  -3  -3 1497.59 188.479   7 
  -6  -3  -3 1503.81 188.080  15 
  -6  -3  -4 5496.20 342.479   8 
  -6  -3  -4 6000.07 372.343   7 
  -6  -3  -4 5713.42 373.734  15 
  -6  -3  -5 4946.06 338.717   9 
  -6  -3  -5 5120.47 349.268   8 
  -6  -3  -5 5503.76 375.397   7 
  -6  -3  -5 5081.60 365.502  15 
  -6  -3  -6 10685.2 533.246   9 
  -6  -3  -6 10888.5 529.222   8 
  -6  -3  -6 11536.0 568.564   7 
  -6  -3  -6 11559.7 554.019  15 
  -6  -3  -7 14557.9 654.214   9 
  -6  -3  -7 15896.4 665.760   8 
  -6  -3  -7 15429.2 679.572   7 
  -6  -3  -7 16482.1 665.158  15 
  -6  -3  -8 102.519 77.1906   9 
  -6  -3  -8-18.3336 74.0912   8 
  -6  -3  -8 23.1579 62.8080  15 
  -6  -3  -8 203.862 109.290   7 
  -6  -3  -9 1122.06 200.085   9 
  -6  -3  -9 611.815 131.123  15 
  -6  -3  -9 807.647 155.630   7 
  -6  -3 -10-36.0694 83.9533   9 
  -6  -3 -11 413.722 112.143   9 
  -6  -4   9 103.944 75.6628  16 
  -6  -4   9-13.2693 56.5738  13 
  -6  -4   8 3504.01 291.713  16 
  -6  -4   8 3909.70 313.488  13 
  -6  -4   7 677.228 134.091   7 
  -6  -4   7 768.630 165.714  13 
  -6  -4   7 584.777 130.949  16 
  -6  -4   6 2360.92 239.430   7 
  -6  -4   6 2744.94 266.391  16 
  -6  -4   6 2386.65 264.733  13 
  -6  -4   5 4353.95 315.079   7 
  -6  -4   5 4482.83 330.480  16 
  -6  -4   5 4034.61 329.239  13 
  -6  -4   4 195.413 91.5066  16 
  -6  -4   4 262.504 90.0349   7 
  -6  -4   4 302.829 100.318  13 
  -6  -4   3 3043.38 250.989   7 
  -6  -4   3 3002.89 252.186  16 
  -6  -4   2 218.827 86.5319  16 
  -6  -4   2 387.958 101.534   7 
  -6  -4   1 324.069 236.762   3 
  -6  -4   1 423.212 106.899  16 
  -6  -4   1 341.173 93.7769   7 
  -6  -4   0 43718.4 2644.51   3 
  -6  -4   0 42160.2 889.414  16 
  -6  -4   0 42390.3 910.356   7 
  -6  -4   0 39647.7 820.387  15 
  -6  -4  -1 14048.3 1493.05   3 
  -6  -4  -1 13916.1 514.630  16 
  -6  -4  -1 14350.9 545.277   7 
  -6  -4  -1 13757.5 518.005  15 
  -6  -4  -2 37615.5 2395.05   3 
  -6  -4  -2 37130.7 848.675  16 
  -6  -4  -2 36282.3 911.865   7 
  -6  -4  -2 37124.0 887.521  15 
  -6  -4  -3 5118.75 347.920  15 
  -6  -4  -3 5373.89 361.675   7 
  -6  -4  -4 1982.48 211.612   9 
  -6  -4  -4 2242.63 241.483   7 
  -6  -4  -4 2060.56 240.083  15 
  -6  -4  -5 40359.6 1002.15   9 
  -6  -4  -5 42584.6 1111.15   7 
  -6  -4  -5 42377.4 1053.41  15 
  -6  -4  -6 9364.54 507.334   9 
  -6  -4  -6 8643.31 532.119   7 
  -6  -4  -6 9339.04 508.744  15 
  -6  -4  -7 2495.39 278.079   9 
  -6  -4  -7 2271.71 288.648   7 
  -6  -4  -7 2431.08 270.727  15 
  -6  -4  -8 2846.84 303.937   9 
  -6  -4  -8 2811.77 297.619   7 
  -6  -4  -8 3117.09 297.833  15 
  -6  -4  -9 926.841 181.920   9 
  -6  -4  -9 617.392 144.548   7 
  -6  -4 -10 334.552 106.991   9 
  -6  -4 -10 117.492 62.7017   7 
  -6  -4 -11 647.487 124.639   9 
  -6  -5   9 4544.88 279.507  16 
  -6  -5   9 4578.84 306.843  13 
  -6  -5   8 3338.62 269.891  16 
  -6  -5   8 3132.49 275.700  13 
  -6  -5   7 185.025 86.9105  16 
  -6  -5   7 410.909 113.829  13 
  -6  -5   6 2512.63 260.241  16 
  -6  -5   6 2164.19 245.606  13 
  -6  -5   5 11010.4 480.505   7 
  -6  -5   5 10765.2 527.394  16 
  -6  -5   5 11032.4 550.242  13 
  -6  -5   4 4461.84 311.228   7 
  -6  -5   4 4524.27 339.682  16 
  -6  -5   3 18549.8 616.015   7 
  -6  -5   3 17854.5 646.546  16 
  -6  -5   2 46959.4 985.888   7 
  -6  -5   2 46488.2 1011.14  16 
  -6  -5   1 4991.87 325.546   7 
  -6  -5   1 5184.42 339.639  16 
  -6  -5   0 5488.93 350.987   7 
  -6  -5   0 5351.13 351.796  16 
  -6  -5  -1 317.849 264.992   3 
  -6  -5  -1 418.872 103.247  16 
  -6  -5  -1 679.618 127.138  15 
  -6  -5  -1 577.072 123.570   7 
  -6  -5  -2-56.4387 127.455   3 
  -6  -5  -2 140.499 75.1202  15 
  -6  -5  -2 170.891 83.7798   7 
  -6  -5  -3 17163.3 674.136   7 
  -6  -5  -3 16419.8 634.236  15 
  -6  -5  -4 29867.5 918.978   7 
  -6  -5  -4 30861.6 905.871  15 
  -6  -5  -5 125.987 85.8209  15 
  -6  -5  -5 93.7333 89.0682   7 
  -6  -5  -6 11242.5 572.228   9 
  -6  -5  -6 11833.0 607.443   7 
  -6  -5  -6 12639.1 594.658  15 
  -6  -5  -7 93.0179 72.7371   9 
  -6  -5  -7 190.149 95.8667  15 
  -6  -5  -7 167.415 97.4618   7 
  -6  -5  -8 551.773 129.918   9 
  -6  -5  -8 749.505 162.352   7 
  -6  -5  -9 2242.10 256.331   9 
  -6  -5  -9 2374.03 266.100   7 
  -6  -5 -10 848.708 152.447   9 
  -6  -5 -10 1004.57 153.584   7 
  -6  -6   8 377.123 99.9798  16 
  -6  -6   8 488.825 123.535  13 
  -6  -6   7 1897.11 204.923  16 
  -6  -6   7 1951.47 225.406  13 
  -6  -6   6-4.58045 67.4640  16 
  -6  -6   6-90.1243 93.4416  13 
  -6  -6   5 290.094 113.576  16 
  -6  -6   4 1977.53 234.414  16 
   6   6  -4 1673.11 267.339   6 
  -6  -6   3 3956.70 286.481   7 
  -6  -6   3 4392.49 334.697  16 
  -6  -6   2 5153.52 333.171   7 
  -6  -6   2 5107.01 358.639  16 
  -6  -6   1 7792.91 412.900   7 
  -6  -6   1 8319.04 455.167  16 
  -6  -6   0 55.4406 80.7455  16 
  -6  -6   0 171.022 85.7799   7 
  -6  -6  -1 6089.72 397.997  16 
  -6  -6  -1 6093.09 382.992   7 
  -6  -6  -2 11437.0 541.780  16 
  -6  -6  -2 10989.4 528.042   7 
  -6  -6  -3 516.094 120.899   7 
  -6  -6  -4 545.010 134.450   7 
  -6  -6  -5 2663.92 279.451   7 
  -6  -6  -6 1206.77 193.028   7 
  -6  -6  -7 1083.55 192.484   7 
  -6  -6  -8 411.428 132.761   7 
  -6  -6  -9 16.4363 66.7650   7 
  -6  -6 -10 2219.86 211.111   7 
  -6  -7   7 335.206 97.4577  16 
  -6  -7   7 313.006 92.1231  13 
  -6  -7   6 18697.6 631.926  16 
  -6  -7   6 17525.6 653.206  13 
  -6  -7   5 5166.21 354.616  16 
   6   7  -5 4497.32 434.962   6 
  -6  -7   4 6682.91 411.339  16 
   6   7  -4 6955.37 543.328   6 
  -6  -7   3 191.287 71.7421  16 
  -6  -7   2 587.996 139.329  16 
  -6  -7   1 1797.46 197.816   7 
  -6  -7   1 2105.34 249.173  16 
  -6  -7   0 18746.1 646.658   7 
  -6  -7   0 20090.6 740.809  16 
  -6  -7  -1 2314.99 233.456   7 
  -6  -7  -1 2345.87 249.620  16 
  -6  -7  -2 5113.58 378.589  16 
  -6  -7  -2 5189.27 367.412   7 
  -6  -7  -3 1381.49 190.219   7 
  -6  -7  -4 718.206 147.283   7 
  -6  -7  -5 1389.46 197.761   7 
  -6  -7  -6 4109.57 337.363   7 
  -6  -7  -7 263.131 95.2954   7 
  -6  -7  -8 883.073 148.574   7 
  -6  -7  -9 1804.16 196.389   7 
  -6  -8   6 306.391 77.4308  16 
  -6  -8   6 344.917 86.5879  13 
   6   8  -6 291.378 117.703   6 
  -6  -8   5 1588.19 185.823  16 
   6   8  -5 1482.89 243.468   6 
  -6  -8   4 222.882 77.4441  16 
   6   8  -4 107.065 111.910   6 
  -6  -8   3-12.3545 83.0342  16 
   6   8  -3 49.5546 99.1295   6 
  -6  -8   2 987.587 159.790  16 
  -6  -8   1 1369.77 195.679  16 
  -6  -8   0 3385.87 300.250  16 
  -6  -8  -1 216.567 93.6454  16 
  -6  -8  -1 187.568 72.4802   7 
  -6  -8  -2 12524.3 520.417   7 
  -6  -8  -2 12030.3 563.119  16 
  -6  -8  -3 109.773 86.1039  16 
  -6  -8  -3 141.118 79.3042   7 
  -6  -8  -4-10.0308 68.3530   7 
  -6  -8  -5 606.706 129.762   7 
  -6  -8  -6 2098.32 222.587   7 
  -6  -8  -7 7883.72 413.789   7 
  -6  -8  -8 668.807 118.056   7 
  -6  -9   4 2135.00 196.278  16 
   6   9  -4 2067.79 253.778   6 
  -6  -9   3 3085.76 249.713  16 
   6   9  -3 3566.38 351.368   6 
  -6  -9   2 75.2278 59.6811  16 
  -6  -9   1 6985.25 397.172  16 
  -6  -9   0 815.955 148.155  16 
  -6  -9  -1 166.390 83.7374  16 
  -6  -9  -2 3011.15 260.662  16 
  -6  -9  -3-26.4788 63.1427  16 
  -6  -9  -4 1995.17 190.093   7 
  -6  -9  -4 1830.10 207.947  16 
  -6  -9  -5 1589.42 194.491  16 
  -6  -9  -5 1444.15 161.354   7 
  -6  -9  -6 980.930 142.385  16 
  -6  -9  -6 1061.91 135.274   7 
  -6 -10   1-4.54208 57.9070  16 
  -6 -10   0 1236.20 151.586  16 
  -6 -10  -1 398.362 90.8284  16 
  -6 -10  -2 2307.52 205.968  16 
  -6 -10  -3 592.936 109.399  16 
  -6 -10  -4 9741.82 403.293  16 
  -7   8   0-18.4646 60.7733  17 
  -7   8  -1 770.943 143.559  17 
  -7   7   4 29.4352 50.4246  10 
  -7   7   3 373.613 100.394  10 
  -7   7   3 569.377 106.067  11 
  -7   7   2 396.430 110.403  17 
  -7   7   2 473.279 105.510  11 
  -7   7   2 390.743 109.148  10 
  -7   7   1 605.437 139.898  17 
  -7   7   1 650.563 126.445  11 
  -7   7   0 651.986 156.070  17 
  -7   7   0 489.684 113.872  11 
  -7   7  -1 1369.14 211.238  17 
  -7   7  -1 1301.58 176.207  11 
  -7   7  -2 774.177 158.319  17 
  -7   7  -2 659.866 141.189  14 
  -7   7  -2 710.881 126.563  11 
  -7   7  -3 383.153 112.907  17 
  -7   7  -3 245.749 102.990  14 
  -7   7  -3 229.794 77.8615  11 
  -7   7  -4-21.5778 58.0934  14 
  -7   7  -4 21.6615 44.6209  11 
  -7   7  -5 35.0201 55.8324  14 
  -7   6   6-77.3073 75.7308  13 
  -7   6   6 91.3634 64.6608  11 
  -7   6   5 1301.16 178.602  10 
  -7   6   5 1175.68 177.587  13 
  -7   6   5 1591.81 191.860  11 
  -7   6   4-14.2052 61.9545  13 
  -7   6   4 121.143 79.2393  11 
  -7   6   3 1284.47 181.600  10 
  -7   6   3 1213.50 175.758  13 
  -7   6   3 1360.77 188.746  11 
  -7   6   2 44.5495 57.8734  10 
  -7   6   2 5.09526 72.1079  17 
  -7   6   2 156.533 82.0030  11 
  -7   6   1 2119.45 261.955  17 
  -7   6   1 2423.45 257.159  11 
  -7   6   1 2525.85 259.555  10 
  -7   6   0 104.240 104.043  17 
  -7   6   0 50.9825 82.7040  11 
  -7   6  -1 2402.49 286.288  17 
  -7   6  -1 2070.06 240.330  14 
  -7   6  -1 2348.02 256.829  11 
  -7   6  -2 246.837 109.883  17 
  -7   6  -2 167.343 92.2966  14 
  -7   6  -2 127.559 73.4389  11 
  -7   6  -3 82.3072 85.1468  17 
  -7   6  -3 103.344 87.1300  14 
  -7   6  -3 54.9760 74.8767  11 
  -7   6  -4-36.9202 60.0047  12 
  -7   6  -4-123.150 95.1490  11 
  -7   6  -5 31.8424 66.1700  14 
  -7   6  -5 93.5659 67.6423  12 
  -7   6  -5 51.8429 62.7780  11 
  -7   6  -6 496.801 117.191  14 
  -7   6  -6 464.821 108.183  12 
  -7   5   7 1504.98 190.505  13 
  -7   5   7 1513.22 185.782  11 
  -7   5   6 1264.99 188.688  13 
  -7   5   6 1126.87 176.208  11 
  -7   5   5 321.247 95.9440  10 
  -7   5   5 424.464 122.555  13 
  -7   5   5 401.338 113.240  11 
  -7   5   4 923.152 159.947  10 
  -7   5   4 1291.05 197.049  13 
  -7   5   4 1039.97 183.766  11 
  -7   5   3 64.8418 56.8364  10 
  -7   5   3 48.7557 67.4367  13 
  -7   5   3 130.394 95.6275  11 
  -7   5   2 2389.42 268.416  17 
  -7   5   2 2469.53 242.879  13 
  -7   5   2 2667.97 281.649  11 
  -7   5   2 2509.95 254.917  10 
  -7   5   1 64.8231 64.4751  10 
  -7   5   1 223.581 116.535  17 
  -7   5   1 173.691 96.0136  11 
  -7   5   0 1756.24 246.625  17 
  -7   5   0 1922.27 239.897  11 
  -7   5   0 1846.26 220.450  10 
  -7   5  -1 69.6203 92.2332  17 
  -7   5  -1 306.380 123.591  11 
  -7   5  -2 39.4030 92.6367  17 
  -7   5  -2 109.084 75.2634  14 
  -7   5  -2 65.4883 82.2310  11 
  -7   5  -3 758.365 181.699  17 
  -7   5  -3 998.498 183.201  14 
  -7   5  -3 596.870 125.490  12 
  -7   5  -3 780.053 165.120  11 
  -7   5  -4 910.629 175.695  14 
  -7   5  -4 765.355 154.491  12 
  -7   5  -4 677.890 144.838  11 
  -7   5  -5 628.395 152.135  14 
  -7   5  -5 580.286 139.820  12 
  -7   5  -5 950.187 176.326  11 
  -7   5  -6 131.865 93.5983  14 
  -7   5  -6-48.6586 75.3046  12 
  -7   5  -6-71.5008 85.8580  11 
  -7   5  -7 143.047 85.8060  12 
  -7   5  -8 41.3558 52.7841  12 
  -7   4   8 278.966 97.5270  13 
  -7   4   7-19.1881 72.6796  13 
  -7   4   6 357.145 122.713  13 
  -7   4   5 1122.28 191.120  13 
  -7   4   4 165.142 115.162  13 
  -7   4   3 1716.85 223.184  13 
  -7   4   3 1705.64 231.600  11 
  -7   4   2 913.546 152.092  13 
  -7   4   2 1093.93 190.410  11 
  -7   4   1 588.748 152.159  17 
  -7   4   1 572.550 151.304  11 
  -7   4   0 989.177 184.409  17 
  -7   4   0 1074.27 191.789  11 
  -7   4  -1 129.947 86.8422  17 
  -7   4  -1 310.357 122.383  11 
  -7   4  -2 518.690 151.319  17 
  -7   4  -2 585.649 151.060  14 
  -7   4  -2 572.131 128.317  12 
  -7   4  -2 704.584 159.110  11 
  -7   4  -3 875.257 189.981  17 
  -7   4  -3 1051.61 187.068  14 
  -7   4  -3 815.759 164.959  12 
  -7   4  -3 1069.57 190.550  11 
  -7   4  -4 153.277 70.1414  14 
  -7   4  -4 13.5786 76.8881  12 
  -7   4  -4 66.1088 74.2668  11 
  -7   4  -5 3436.39 325.427  14 
  -7   4  -5 3034.56 317.711  12 
  -7   4  -5 3501.92 325.890  11 
  -7   4  -6 4749.29 380.760  12 
  -7   4  -6 4666.84 376.275  11 
  -7   4  -7 2261.74 258.832  12 
  -7   4  -8 44.9240 70.9051  12 
  -7   4  -9 147.379 62.0962   8 
  -7   4  -9 211.647 77.3580  12 
  -7   3   9-97.7802 75.5545  13 
  -7   3   8 115.159 78.8180  13 
  -7   3   7 280.271 111.871  13 
  -7   3   6 1766.32 230.086  13 
  -7   3   5 5612.40 403.648  13 
  -7   3   4 3505.65 318.706  13 
  -7   3   3 339.314 107.492  13 
  -7   3   2 7.03341 67.5703  13 
  -7   3   2-89.6655 95.2223  11 
  -7   3   1 3376.08 292.634  17 
  -7   3   1 3298.36 305.388  11 
  -7   3   0 5232.94 382.647  17 
  -7   3   0 5452.60 383.682  11 
  -7   3  -1 1881.82 241.303  17 
  -7   3  -1 1925.13 234.929  11 
  -7   3  -2 74.1550 84.1982  17 
  -7   3  -2 86.2357 73.1139  14 
  -7   3  -2 101.733 80.3110  12 
  -7   3  -2 102.230 92.1361  11 
  -7   3  -3 6848.87 432.894  14 
  -7   3  -3 6683.45 426.379  12 
  -7   3  -3 6995.95 443.015  11 
  -7   3  -4 445.327 132.803  14 
  -7   3  -4 392.761 129.582  12 
  -7   3  -4 356.795 125.639  11 
  -7   3  -5 776.944 166.574  14 
  -7   3  -5 768.247 165.554  12 
  -7   3  -5 682.581 162.159  11 
  -7   3  -6 7210.77 477.852  12 
  -7   3  -6 7930.93 493.625  11 
  -7   3  -7 376.367 137.315  12 
  -7   3  -7 367.289 110.606  11 
  -7   3  -8 350.997 90.7573  15 
  -7   3  -8 374.337 103.041  12 
  -7   3  -9-5.41979 50.6840   8 
  -7   3  -9 217.161 80.0546  12 
  -7   2   9 129.784 69.4227  13 
  -7   2   8 3119.94 283.538  13 
  -7   2   7 165.224 94.1452  13 
  -7   2   6 167.104 99.7652  13 
  -7   2   5 1490.69 211.402   7 
  -7   2   5 2232.27 259.949  13 
  -7   2   4 2523.37 262.370   7 
  -7   2   4 3283.27 300.883  13 
  -7   2   3 4120.94 306.456   7 
  -7   2   3 4356.70 326.398  13 
  -7   2   2 3403.94 264.263   7 
  -7   2   1 38.7308 60.9488  11 
  -7   2   0 1896.71 224.233  11 
  -7   2  -1 1176.94 173.779  11 
  -7   2  -2 5947.86 362.500  14 
  -7   2  -2 6450.87 402.087  11 
  -7   2  -3 1040.96 166.442  14 
  -7   2  -3 909.130 165.722  12 
  -7   2  -3 993.879 163.420  11 
  -7   2  -4-59.9661 97.3462  12 
  -7   2  -4 83.6279 90.2435  11 
  -7   2  -5 253.150 106.106  12 
  -7   2  -5 386.208 123.050  11 
  -7   2  -6 1031.70 193.976  12 
  -7   2  -6 1103.00 189.993  11 
  -7   2  -7 384.130 113.574  15 
  -7   2  -7 352.746 122.246  12 
  -7   2  -7 250.565 96.1089  11 
  -7   2  -8 7133.11 438.775   8 
  -7   2  -8 6111.77 380.812  15 
  -7   2  -8 7096.96 445.806  12 
  -7   2  -9 276.268 93.1180   8 
  -7   2  -9 301.666 100.173  12 
  -7   2 -10-19.1715 50.7051   8 
  -7   2 -10 62.1891 50.5243  12 
  -7   1   9 1653.16 194.118  13 
  -7   1   8 1599.14 214.670  13 
  -7   1   7 257.791 115.820  13 
  -7   1   6 1937.92 241.161   7 
  -7   1   6 1627.83 200.333  16 
  -7   1   6 1812.33 244.069  13 
  -7   1   5 1359.47 174.379  16 
  -7   1   5 1403.69 203.928   7 
  -7   1   5 1687.89 230.854  13 
  -7   1   4 9235.86 488.257   7 
  -7   1   4 11021.1 516.023  13 
  -7   1   3 13809.7 564.344   7 
  -7   1   3 14053.4 557.968  13 
  -7   1   2 4674.65 312.761   7 
  -7   1   1 2846.55 231.496   7 
  -7   1   1 2665.07 254.070  11 
  -7   1   0 6505.20 387.637  11 
  -7   1  -1 791.322 145.227  11 
  -7   1  -2 6515.15 388.041  11 
  -7   1  -3 10681.7 502.711  12 
  -7   1  -3 10833.8 503.285  11 
  -7   1  -4 420.867 112.405  12 
  -7   1  -4 586.121 134.335  11 
  -7   1  -5 927.758 175.844  12 
  -7   1  -5 821.768 152.383  11 
  -7   1  -6 999.014 179.501  12 
  -7   1  -6 1178.51 189.469  11 
  -7   1  -7 270.803 94.5335  15 
  -7   1  -7 374.651 122.794  12 
  -7   1  -7 389.951 120.661  11 
  -7   1  -8 608.180 142.710   8 
  -7   1  -8 687.124 137.191  15 
  -7   1  -8 1023.37 171.633  12 
  -7   1  -9-135.134 85.3194   8 
  -7   1  -9 245.830 87.7767  12 
  -7   1 -10 106.596 80.2495   8 
  -7   0   9-5.78141 61.2112  13 
  -7   0   8-35.2953 68.1319  13 
  -7   0   7 136.011 88.7461  16 
  -7   0   7 237.751 120.324   7 
  -7   0   7 35.5557 86.7480  13 
  -7   0   6 555.472 127.354  16 
  -7   0   6 690.462 164.994   7 
  -7   0   6 547.328 144.548  13 
  -7   0   5 1073.96 167.742  16 
  -7   0   5 1071.26 180.719   7 
  -7   0   5 859.159 171.177  13 
  -7   0   4 54.6541 71.6183  16 
  -7   0   4-94.8070 87.4743   7 
  -7   0   4 17.5976 78.7396  13 
  -7   0   3 2808.39 264.212   7 
  -7   0   3 2649.20 245.212  13 
   7   0  -2 5917.33 966.045   1 
  -7   0   2 9216.52 434.316   7 
  -7   0   1 6738.52 355.714   7 
  -7   0   0 148.680 59.4694   7 
  -7   0   0 231.699 86.3437  11 
  -7   0  -1 3102.95 232.581   7 
  -7   0  -1 3271.29 257.622  11 
  -7   0  -2 136.123 78.9320  11 
  -7   0  -3 1253.40 167.803  11 
  -7   0  -4 6389.65 376.370  11 
  -7   0  -5 7967.94 475.778  15 
  -7   0  -5 8131.91 460.597  12 
  -7   0  -5 8505.87 448.663  11 
  -7   0  -6 180.487 90.0908   8 
  -7   0  -6 64.8196 81.5237  15 
  -7   0  -6 205.168 88.2944  12 
  -7   0  -6 165.968 69.4900  11 
  -7   0  -7 627.535 137.457   8 
  -7   0  -7 472.309 134.110  15 
  -7   0  -7 482.389 126.194  12 
  -7   0  -8 557.985 131.476   8 
  -7   0  -8 549.868 124.757  15 
  -7   0  -8 524.730 126.221  12 
  -7   0  -9 337.275 110.389   8 
  -7   0 -10 1613.53 195.373   9 
  -7   0 -10 1897.37 208.612   8 
  -7  -1   9 148.907 80.0815  13 
  -7  -1   8 705.421 144.623  16 
  -7  -1   8 376.106 118.406  13 
  -7  -1   7 10987.9 536.846   7 
  -7  -1   7 12045.9 525.585  16 
  -7  -1   7 11878.0 563.090  13 
  -7  -1   6 2641.08 272.875   7 
  -7  -1   6 2456.19 248.239  16 
  -7  -1   6 2474.03 275.683  13 
  -7  -1   5 4937.43 360.451   7 
  -7  -1   5 4872.18 342.822  16 
  -7  -1   5 5454.92 379.103  13 
  -7  -1   4 2042.76 229.893   7 
  -7  -1   4 1675.09 192.463  16 
  -7  -1   4 1730.23 213.253  13 
  -7  -1   3 767.213 137.064  16 
  -7  -1   3 869.801 159.409   7 
  -7  -1   3 894.550 143.829  13 
  -7  -1   2 3281.13 729.806   3 
  -7  -1   2 4001.04 294.544   7 
   7   1  -2 3016.24 681.551   1 
  -7  -1   1 21341.3 631.737   7 
  -7  -1   1 16002.9 1564.72   3 
  -7  -1   0 18001.8 578.283   7 
  -7  -1   0 18196.8 613.582  15 
  -7  -1   0 18330.6 571.611  11 
  -7  -1  -1 5505.83 314.207   7 
  -7  -1  -1 5518.49 357.898  15 
  -7  -1  -2 17652.8 563.862   7 
  -7  -1  -2 17264.2 649.379  15 
  -7  -1  -3 1311.08 169.734   8 
  -7  -1  -3 1577.28 178.992   7 
  -7  -1  -3 1388.11 197.222  15 
  -7  -1  -4 73.0969 52.6855   8 
  -7  -1  -4 200.201 85.7252  15 
  -7  -1  -4 9.57469 53.9902   7 
  -7  -1  -5 589.400 139.174   8 
  -7  -1  -5 514.081 134.704  15 
  -7  -1  -6 2154.66 248.896   8 
  -7  -1  -6 2074.06 253.280  15 
  -7  -1  -7 3838.10 333.368   8 
  -7  -1  -7 3707.91 320.481  15 
  -7  -1  -8 7383.76 449.602   8 
  -7  -1  -8 6961.66 423.463  15 
  -7  -1  -9 591.950 136.312   9 
  -7  -1  -9 424.050 120.854   8 
  -7  -1  -9 514.953 124.331  15 
  -7  -1 -10-126.211 83.7913   9 
  -7  -1 -10 104.771 68.6883   8 
  -7  -2   9 640.850 126.254  16 
  -7  -2   9 686.103 130.591  13 
  -7  -2   8 204.141 90.4732  16 
  -7  -2   8 100.239 68.3209  13 
  -7  -2   7 398.771 112.846  16 
  -7  -2   7 653.960 146.333   7 
  -7  -2   7 458.935 127.862  13 
  -7  -2   6 773.646 153.767   7 
  -7  -2   6 824.321 160.060  16 
  -7  -2   6 816.995 160.411  13 
  -7  -2   5 13212.3 584.115   7 
  -7  -2   5 13715.2 569.249  16 
  -7  -2   5 13996.0 600.993  13 
  -7  -2   4 1110.00 165.703  16 
  -7  -2   4 1046.86 173.942   7 
  -7  -2   4 946.156 161.846  13 
  -7  -2   3 930.418 153.554  16 
  -7  -2   3 815.396 153.401   7 
  -7  -2   3 908.757 150.025  13 
  -7  -2   2 1293.66 172.629   7 
  -7  -2   2 1345.92 168.415  16 
  -7  -2   1 1863.98 533.583   3 
  -7  -2   1 2436.90 233.482   7 
  -7  -2   1 2395.49 208.149  16 
  -7  -2   0 218.287 100.678  15 
  -7  -2   0 301.640 89.0827   7 
  -7  -2  -1 12613.5 498.979   7 
  -7  -2  -1 13455.4 545.867  15 
  -7  -2  -2 11272.0 472.048   7 
  -7  -2  -2 11108.3 517.380  15 
  -7  -2  -3 1767.20 190.836   8 
  -7  -2  -3 1751.13 195.485   7 
  -7  -2  -3 1879.44 231.530  15 
  -7  -2  -4 685.943 137.984   8 
  -7  -2  -4 553.272 128.171  15 
  -7  -2  -4 586.856 138.889   7 
  -7  -2  -5 56.5487 75.1814   8 
  -7  -2  -5 69.7483 81.1879  15 
  -7  -2  -5-3.86921 63.3231   7 
  -7  -2  -6 1550.52 215.488   8 
  -7  -2  -6 1910.85 238.515  15 
  -7  -2  -6 1535.32 204.818   7 
  -7  -2  -7 1004.03 174.330   8 
  -7  -2  -7 916.861 172.052  15 
  -7  -2  -8 1325.57 191.412   9 
  -7  -2  -8 1388.45 201.640   8 
  -7  -2  -8 1466.71 203.409  15 
  -7  -2  -9 2169.98 243.301   9 
  -7  -2  -9 2261.49 241.123   8 
  -7  -2  -9 2055.71 214.280  15 
  -7  -2 -10 98.6488 83.1444   9 
  -7  -3   9 971.854 143.778  16 
  -7  -3   9 822.638 134.322  13 
  -7  -3   8 3236.79 274.875  16 
  -7  -3   8 3193.28 277.229  13 
  -7  -3   7 2293.08 240.401   7 
  -7  -3   7 2566.51 253.223  16 
  -7  -3   7 2548.95 261.062  13 
  -7  -3   6 4761.88 351.001   7 
  -7  -3   6 4999.85 353.526  16 
  -7  -3   6 4598.16 366.168  13 
  -7  -3   5 22984.0 746.479   7 
  -7  -3   5 22422.1 728.308  16 
  -7  -3   5 22061.5 754.909  13 
  -7  -3   4 7530.27 426.123   7 
  -7  -3   4 8089.48 434.068  16 
  -7  -3   4 6651.94 413.144  13 
  -7  -3   3 1382.55 181.914  16 
  -7  -3   3 1102.06 172.455   7 
  -7  -3   3 1010.27 155.823  13 
  -7  -3   2 17029.2 615.371   7 
  -7  -3   2 18019.6 604.041  16 
  -7  -3   1 8911.48 439.064   7 
  -7  -3   1 8600.79 411.062  16 
  -7  -3   0 187.960 65.9435  16 
  -7  -3   0 177.019 88.7018   7 
  -7  -3  -1-26.3856 61.0775  15 
  -7  -3  -1 45.5834 62.2862   7 
  -7  -3  -2 88.0840 64.4699  15 
  -7  -3  -2 178.790 74.0207   7 
  -7  -3  -3 162.751 91.0115  15 
  -7  -3  -3 15.0306 62.0532   7 
  -7  -3  -4 21572.9 696.188   8 
  -7  -3  -4 20479.6 741.622   7 
  -7  -3  -4 21038.8 751.900  15 
  -7  -3  -5 27231.1 822.545   8 
  -7  -3  -5 27382.4 850.511   7 
  -7  -3  -5 24728.9 832.152  15 
  -7  -3  -6 3476.96 310.274   8 
  -7  -3  -6 3538.97 320.688   7 
  -7  -3  -6 3824.08 329.835  15 
  -7  -3  -7 6589.86 422.427   9 
  -7  -3  -7 6423.99 417.145   8 
  -7  -3  -7 6091.37 397.698   7 
  -7  -3  -7 6638.27 435.188  15 
  -7  -3  -8-8.50589 66.5614   9 
  -7  -3  -8 135.784 81.5416  15 
  -7  -3  -8-9.33712 81.8296   7 
  -7  -3  -9 578.378 136.311   9 
  -7  -3  -9 522.019 113.691  15 
  -7  -3 -10 547.271 119.807   9 
  -7  -4   8 802.970 137.977  16 
  -7  -4   8 819.906 146.858  13 
  -7  -4   7 1076.50 166.500  16 
  -7  -4   7 1084.17 166.040   7 
  -7  -4   7 1148.55 183.659  13 
  -7  -4   6 2892.50 267.483   7 
  -7  -4   6 3173.21 279.003  16 
  -7  -4   6 3598.42 306.779  13 
  -7  -4   5 1785.48 223.166   7 
  -7  -4   5 1755.09 220.073  16 
  -7  -4   5 1586.56 209.548  13 
  -7  -4   4 7629.96 425.920   7 
  -7  -4   4 7281.45 417.082  16 
  -7  -4   4 7127.64 420.831  13 
  -7  -4   3 10.8855 78.8989  16 
  -7  -4   3-16.4517 77.1449   7 
  -7  -4   3-39.4271 77.9375  13 
  -7  -4   2 317.634 100.669  16 
  -7  -4   2 287.602 82.7738   7 
  -7  -4   1 1629.81 199.977   7 
  -7  -4   1 1849.50 198.855  16 
  -7  -4   0 4993.02 345.909   7 
  -7  -4   0 5787.16 345.657  16 
  -7  -4  -1 722.339 130.043  16 
  -7  -4  -1 714.561 134.415  15 
  -7  -4  -1 700.446 135.994   7 
  -7  -4  -2 215.430 86.4746  16 
  -7  -4  -2 304.561 95.2167  15 
  -7  -4  -2 353.387 107.078   7 
  -7  -4  -3 3762.02 321.796   7 
  -7  -4  -3 3948.34 323.009  15 
  -7  -4  -4 1682.40 228.712  15 
  -7  -4  -4 1612.27 219.670   7 
  -7  -4  -5 8598.87 499.257   7 
  -7  -4  -5 8929.09 503.702  15 
  -7  -4  -6 2025.87 252.511   7 
  -7  -4  -6 1824.71 233.741  15 
  -7  -4  -7 3015.64 287.066   9 
  -7  -4  -7 2753.13 292.062   7 
  -7  -4  -7 3174.19 301.526  15 
  -7  -4  -8 69.7004 57.5771   9 
  -7  -4  -8 54.9851 62.1882  15 
  -7  -4  -8 137.011 79.6070   7 
  -7  -4  -9 2824.19 270.111   9 
  -7  -4  -9 2746.53 241.846   7 
  -7  -4 -10 1381.48 176.038   9 
  -7  -5   8 2459.19 219.288  16 
  -7  -5   8 2552.69 223.818  13 
  -7  -5   7 5938.52 359.135  16 
  -7  -5   7 5786.96 366.045  13 
  -7  -5   6 196.964 107.583  16 
  -7  -5   6 192.835 81.8858   7 
  -7  -5   6 186.184 97.9922  13 
  -7  -5   5 9439.51 468.979   7 
  -7  -5   5 10094.7 500.856  16 
  -7  -5   5 9123.05 489.739  13 
  -7  -5   4 514.337 128.662  16 
  -7  -5   4 423.194 122.088   7 
  -7  -5   4 265.802 99.4405  13 
  -7  -5   3 9697.50 478.736   7 
  -7  -5   3 9719.00 490.611  16 
  -7  -5   2-59.8306 81.5444  16 
  -7  -5   2-52.9513 101.517   7 
  -7  -5   1 1088.73 167.416  16 
  -7  -5   1 1029.83 162.463   7 
  -7  -5   0 38864.4 966.160   7 
  -7  -5   0 39267.5 950.440  16 
  -7  -5  -1 24071.1 742.034  16 
  -7  -5  -1 22813.7 755.542   7 
  -7  -5  -1 23686.6 717.422  15 
  -7  -5  -2 5210.88 348.099  16 
  -7  -5  -2 4573.92 348.687   7 
  -7  -5  -2 4836.71 348.150  15 
  -7  -5  -3-38.5418 77.2643  16 
  -7  -5  -3-24.9520 83.9949  15 
  -7  -5  -3 64.7743 80.4636   7 
  -7  -5  -4 730.054 142.897  16 
  -7  -5  -4 739.574 153.431  15 
  -7  -5  -4 773.851 153.891   7 
  -7  -5  -5 19918.3 762.767   7 
  -7  -5  -5 20132.0 748.013  15 
  -7  -5  -6 717.565 150.376  15 
  -7  -5  -6 755.176 162.334   7 
  -7  -5  -7 4284.92 360.137   7 
  -7  -5  -7 4920.45 359.111  15 
  -7  -5  -8 132.223 78.3276   7 
  -7  -5  -9 27.9216 79.1591   7 
  -7  -6   7 14.8435 65.0828  16 
  -7  -6   7 24.1906 61.2900  13 
  -7  -6   6 1891.95 209.725  16 
  -7  -6   6 1916.37 210.065  13 
  -7  -6   5 3437.33 289.900  16 
  -7  -6   5 2769.48 269.111  13 
  -7  -6   4 62.4228 79.7834  16 
  -7  -6   4-16.6067 69.0552   7 
  -7  -6   4 70.1038 84.3884  13 
  -7  -6   3 67.2909 75.3477  16 
  -7  -6   3 56.3315 62.6290   7 
  -7  -6   2 3154.80 276.799   7 
  -7  -6   2 3148.26 278.158  16 
  -7  -6   1 5217.65 351.925   7 
  -7  -6   1 5404.75 368.446  16 
  -7  -6   0 2418.82 247.645   7 
  -7  -6   0 2532.03 254.701  16 
  -7  -6  -1 9534.35 487.155   7 
  -7  -6  -1 10075.7 504.138  16 
  -7  -6  -2 293.702 105.691  16 
  -7  -6  -2 307.121 101.557   7 
  -7  -6  -3 4798.19 355.717  16 
  -7  -6  -3 5294.09 375.386   7 
  -7  -6  -4 3761.99 307.788  16 
  -7  -6  -4 3460.08 307.359   7 
  -7  -6  -5 2837.43 265.718  16 
  -7  -6  -5 2575.07 271.574   7 
  -7  -6  -6 4580.73 365.538   7 
  -7  -6  -7 520.939 129.453   7 
  -7  -6  -8 3361.14 286.819   7 
  -7  -6  -9 2386.44 213.327   7 
  -7  -7   6-175.190 84.1041  16 
  -7  -7   6 220.986 84.1645  13 
  -7  -7   5 1941.38 211.245  16 
  -7  -7   5 1727.79 195.608  13 
  -7  -7   4-2.64103 70.5759  16 
  -7  -7   4-103.633 61.6707  13 
  -7  -7   3 7810.38 438.374  16 
  -7  -7   2 5844.82 344.999   7 
  -7  -7   2 5954.39 389.152  16 
  -7  -7   1 7028.75 392.818   7 
  -7  -7   1 7239.17 432.264  16 
  -7  -7   0 1248.50 184.895  16 
  -7  -7   0 1071.86 162.551   7 
  -7  -7  -1 5.77532 75.9710  16 
  -7  -7  -1 62.0654 73.2710   7 
  -7  -7  -2 517.589 127.969  16 
  -7  -7  -2 538.214 127.695   7 
  -7  -7  -3 7333.18 432.735  16 
  -7  -7  -3 6827.04 412.300   7 
  -7  -7  -4 1926.35 219.876  16 
  -7  -7  -4 1742.64 213.266   7 
  -7  -7  -5 152.636 98.7317  16 
  -7  -7  -5 248.852 91.0181   7 
  -7  -7  -6 1368.32 179.596  16 
  -7  -7  -6 1460.09 195.495   7 
  -7  -7  -7 1210.39 166.799   7 
  -7  -7  -8 385.467 96.6971   7 
  -7  -8   5 114.897 61.9032  16 
  -7  -8   4 2653.03 234.872  16 
  -7  -8   3 3450.59 276.307  16 
  -7  -8   2 209.306 80.4720  16 
  -7  -8   1 2805.03 259.182  16 
  -7  -8   0 824.757 149.045  16 
  -7  -8   0 949.751 133.874   7 
  -7  -8  -1 811.637 148.930  16 
  -7  -8  -1 630.828 110.769   7 
  -7  -8  -2 856.473 151.919  16 
  -7  -8  -2 821.619 131.883   7 
  -7  -8  -3 3374.48 268.528   7 
  -7  -8  -3 3150.52 267.482  16 
  -7  -8  -4 813.296 140.049  16 
  -7  -8  -4 792.378 136.795   7 
  -7  -8  -5 951.997 145.239  16 
  -7  -8  -5 971.518 143.856   7 
  -7  -8  -6 127.470 64.7849  16 
  -7  -8  -6 102.785 50.3577   7 
  -7  -8  -7 1438.44 161.439   7 
  -7  -9   2 289.725 79.1975  16 
  -7  -9   1 5473.82 320.560  16 
  -7  -9   0 6390.23 349.067  16 
  -7  -9  -1 75.1808 69.5201  16 
  -7  -9  -2-58.3431 56.6168  16 
  -7  -9  -3 1709.80 160.700   7 
  -7  -9  -3 1806.61 186.017  16 
  -7  -9  -4 2655.54 197.537   7 
  -7  -9  -4 2821.11 222.797  16 
  -8   6   3-9.22755 53.6176  11 
  -8   6   2 169.628 77.8861  11 
  -8   6   1 780.957 139.843  11 
  -8   6   0 284.018 92.7057  11 
  -8   6  -1 246.917 93.1851  11 
  -8   6  -2 319.834 97.5922  11 
  -8   6  -3-11.2404 44.6215  14 
  -8   6  -3-50.0385 66.2557  11 
  -8   6  -4 356.005 91.9155  11 
  -8   5   5 1197.19 157.662  13 
  -8   5   5 1472.95 185.095  11 
  -8   5   4 2238.66 220.754  13 
  -8   5   4 3348.01 282.940  11 
  -8   5   3 1521.65 199.707  11 
  -8   5   2 160.697 85.1849  11 
  -8   5   1 595.966 140.018  11 
  -8   5   0 50.2280 65.6764  11 
  -8   5  -1 231.429 96.2113  11 
  -8   5  -2 1114.91 178.385  11 
  -8   5  -3 688.109 140.743  14 
  -8   5  -3 663.413 137.473  11 
  -8   5  -4 39.3396 63.8533  11 
  -8   5  -5 786.914 141.134  11 
  -8   4   6 47.2598 80.3079  13 
  -8   4   6 30.5275 62.7569  11 
  -8   4   5 68.8222 84.2618  13 
  -8   4   5 154.243 90.2219  11 
  -8   4   4 594.967 124.380  13 
  -8   4   4 653.413 143.911  11 
  -8   4   3 99.7136 91.2410  11 
  -8   4   2 210.728 99.9847  11 
  -8   4   1 246.210 96.7130  11 
  -8   4   0 80.5579 99.8170  11 
  -8   4  -1 1376.61 209.922  11 
  -8   4  -2 35.8433 60.3805  11 
  -8   4  -3 514.855 127.627  14 
  -8   4  -3 637.169 140.167  11 
  -8   4  -4-17.8685 72.8768  11 
  -8   4  -5 615.887 138.938  11 
  -8   4  -6 111.190 78.8542  12 
  -8   4  -6 55.2353 62.1731  11 
  -8   4  -7 353.241 108.655  15 
  -8   4  -7 497.036 114.787  12 
  -8   3   7 1181.80 163.425  13 
  -8   3   6 256.802 102.331  13 
  -8   3   5 205.898 112.732  13 
  -8   3   5 110.229 77.0862  11 
  -8   3   4 207.027 98.8544  13 
  -8   3   4 126.397 93.9026  11 
  -8   3   3 160.425 94.9858  11 
  -8   3   2 2866.82 294.804  11 
  -8   3   1 382.073 117.691  11 
  -8   3   0 97.5521 77.7425  11 
  -8   3  -1 369.588 127.623  11 
  -8   3  -2 469.100 127.338  11 
  -8   3  -3 391.152 113.091  11 
  -8   3  -4 1730.48 230.786  11 
  -8   3  -5 365.879 120.609  12 
  -8   3  -5 478.669 124.138  11 
  -8   3  -6 82.8678 74.1108  12 
  -8   3  -6 158.266 84.9647  11 
  -8   3  -7 426.483 102.186  15 
  -8   3  -7 342.105 103.750  12 
  -8   3  -8 23.9304 62.2445   8 
  -8   3  -8 164.193 54.2637  15 
  -8   2   7 97.1287 75.9364  13 
  -8   2   6 245.561 101.726  13 
  -8   2   5 173.620 101.742  13 
  -8   2   4 550.263 130.773   7 
  -8   2   4 419.071 116.625  13 
  -8   2   3 85.4810 69.0777   7 
  -8   2   3 104.828 83.8991  11 
  -8   2   2 1303.25 201.766  11 
  -8   2   1 971.164 177.126  11 
  -8   2   0 1339.60 198.529  11 
  -8   2  -1 78.2080 82.8868  11 
  -8   2  -2 2598.27 273.453  11 
  -8   2  -3 675.277 153.531  11 
  -8   2  -4 859.589 162.169  11 
  -8   2  -5 1773.05 225.300  11 
  -8   2  -6 1622.95 214.398  15 
  -8   2  -6 1572.31 214.205  12 
  -8   2  -6 1621.07 209.710  11 
  -8   2  -7 8.69887 66.1432   8 
  -8   2  -7 15.4717 74.4144  15 
  -8   2  -8-110.740 74.8399   8 
  -8   2  -8-8.39378 50.9611  15 
  -8   2  -9 115.268 63.6674   8 
  -8   1   8 69.6708 72.0795  13 
  -8   1   7 209.508 94.8358  13 
  -8   1   6 3490.90 303.121  13 
  -8   1   5 2343.60 258.699   7 
  -8   1   5 2282.68 248.498  13 
  -8   1   4 38.2963 67.0269   7 
  -8   1   4 52.9911 74.1123  13 
  -8   1   3 1143.00 182.955   7 
  -8   1   2 1630.57 203.043   7 
  -8   1   2 1409.22 199.105  11 
  -8   1   1 6015.62 358.937   7 
  -8   1   1 6372.04 408.418  11 
  -8   1   0 4749.85 346.940  11 
  -8   1  -1 357.696 110.146  11 
  -8   1  -2 5376.10 364.612  11 
  -8   1  -3 8415.14 458.883  11 
  -8   1  -4 405.206 114.449  11 
  -8   1  -5 468.641 143.478  15 
  -8   1  -5 557.746 128.661  11 
  -8   1  -6 1333.58 197.418   8 
  -8   1  -6 1328.30 199.154  15 
  -8   1  -6 1507.38 199.213  11 
  -8   1  -7 685.766 140.392   8 
  -8   1  -7 597.698 132.698  15 
  -8   1  -8-57.8958 74.6860   8 
  -8   1  -8 3.58509 48.6578  15 
  -8   1  -9 393.685 98.7568   8 
  -8   0   8 1783.39 199.269  13 
  -8   0   7-31.2192 66.9215  13 
  -8   0   6 932.769 145.255  16 
  -8   0   6 983.448 173.614   7 
  -8   0   6 1005.92 171.543  13 
  -8   0   5 176.897 111.323   7 
  -8   0   5 104.634 76.7474  13 
  -8   0   4 5491.96 379.561   7 
  -8   0   4 5742.00 363.631  13 
  -8   0   3 209.516 100.704   7 
  -8   0   2 485.743 134.597   7 
  -8   0   2 410.834 122.653  11 
  -8   0   1 3563.49 285.409   7 
  -8   0   1 3446.43 289.496  11 
  -8   0   0 8270.21 413.559   7 
  -8   0   0 8775.03 452.220  11 
  -8   0  -1 3742.61 269.117   7 
  -8   0  -1 3975.13 296.400  11 
  -8   0  -2 353.244 103.392  11 
  -8   0  -3 1014.07 189.809  15 
  -8   0  -3 1221.91 172.430  11 
  -8   0  -4 383.391 102.664   8 
  -8   0  -4 261.210 104.951  15 
  -8   0  -4 367.346 105.270  11 
  -8   0  -5 27.7749 64.2939   8 
  -8   0  -5 17.0078 73.4216  15 
  -8   0  -5-48.9433 74.2019  11 
  -8   0  -6 580.656 136.050   8 
  -8   0  -6 609.412 144.428  15 
  -8   0  -7 5332.05 376.967   8 
  -8   0  -7 5178.43 368.515  15 
  -8   0  -8 9540.44 484.876   8 
  -8   0  -8 8355.57 433.933  15 
  -8   0  -9 3969.46 292.658   8 
  -8   0  -9 3472.07 253.897  15 
  -8  -1   8 1141.07 158.494  13 
  -8  -1   7 395.260 122.086   7 
  -8  -1   7 236.905 89.3841  16 
  -8  -1   7 236.141 96.8080  13 
  -8  -1   6 586.157 129.950  16 
  -8  -1   6 492.101 128.781   7 
  -8  -1   6 363.026 105.731  13 
  -8  -1   5 3388.19 300.645   7 
  -8  -1   5 3937.86 291.297  16 
  -8  -1   5 3353.35 293.609  13 
  -8  -1   4 11032.3 536.563   7 
  -8  -1   4 10949.8 473.035  16 
  -8  -1   4 9806.79 485.225  13 
  -8  -1   3 5097.47 366.361   7 
  -8  -1   2 6096.88 381.309   7 
  -8  -1   2 5992.52 366.820  11 
  -8  -1   1 706.730 142.660   7 
  -8  -1   0 2232.24 227.781   7 
  -8  -1   0 2454.22 241.999  15 
  -8  -1  -1 149.694 73.1322   7 
  -8  -1  -1 150.889 76.3051  15 
  -8  -1  -2 3018.80 250.712   7 
  -8  -1  -2 2940.91 290.910  15 
  -8  -1  -3 7489.48 383.047   7 
  -8  -1  -3 7214.14 462.687  15 
  -8  -1  -4 40.5513 73.8035   8 
  -8  -1  -4 93.0903 79.7923  15 
  -8  -1  -5 3050.30 286.913   8 
  -8  -1  -5 2843.99 296.787  15 
  -8  -1  -6 7776.88 455.347   8 
  -8  -1  -6 7886.41 471.272  15 
  -8  -1  -7 1711.26 214.717   8 
  -8  -1  -7 1613.03 208.889  15 
  -8  -1  -8 1309.12 185.520   8 
  -8  -1  -8 1335.73 180.962  15 
  -8  -1  -9 2465.40 232.798   8 
  -8  -1  -9 1934.45 191.070  15 
  -8  -2   8-128.342 73.0812  16 
  -8  -2   8-25.8030 51.6732  13 
  -8  -2   7 123.736 83.3561  16 
  -8  -2   7 161.597 87.5856   7 
  -8  -2   7-6.34798 70.3395  13 
  -8  -2   6 3372.78 295.354   7 
  -8  -2   6 3028.13 260.298  16 
  -8  -2   6 3415.88 289.584  13 
  -8  -2   5 891.902 161.765  16 
  -8  -2   5 810.178 158.097   7 
  -8  -2   5 744.513 153.647  13 
  -8  -2   4 7510.29 438.945   7 
  -8  -2   4 7427.20 405.401  16 
  -8  -2   4 6688.05 394.032  13 
  -8  -2   3 3190.41 287.485   7 
  -8  -2   3 3076.45 258.850  16 
  -8  -2   2 2611.41 253.023   7 
  -8  -2   1 1929.36 217.786   7 
  -8  -2   0 79.4071 75.0556   7 
  -8  -2  -1 317.898 108.706  15 
  -8  -2  -1 255.586 99.8556   7 
  -8  -2  -2 211.746 91.8306  15 
  -8  -2  -2 256.952 91.1479   7 
  -8  -2  -3 324.127 124.873  15 
  -8  -2  -3 293.573 98.9393   7 
  -8  -2  -4 3513.66 285.124   8 
  -8  -2  -4 3740.64 294.501   7 
  -8  -2  -4 3647.64 333.299  15 
  -8  -2  -5 5813.36 383.021   8 
  -8  -2  -5 5945.22 370.400   7 
  -8  -2  -5 5932.92 419.926  15 
  -8  -2  -6 3354.69 302.142   8 
  -8  -2  -6 3535.31 320.611  15 
  -8  -2  -7 76.6236 63.3501   8 
  -8  -2  -7 134.235 76.4155  15 
  -8  -2  -8-73.1630 83.9391   8 
  -8  -2  -8 122.482 80.5581  15 
  -8  -2  -9 126.447 55.8911  15 
  -8  -3   8 49.6803 63.9674  16 
  -8  -3   7 2736.25 253.817   7 
  -8  -3   7 2902.33 246.440  16 
  -8  -3   7 2523.04 234.141  13 
  -8  -3   6 4247.98 318.035   7 
  -8  -3   6 4280.27 308.241  16 
  -8  -3   6 3668.88 295.820  13 
  -8  -3   5 5683.32 378.019   7 
  -8  -3   5 5801.47 360.869  16 
  -8  -3   5 5276.32 356.304  13 
  -8  -3   4 664.684 129.757  16 
  -8  -3   4 799.832 166.095   7 
  -8  -3   3 1488.53 200.090   7 
  -8  -3   3 1754.16 206.357  16 
  -8  -3   2 138.774 69.4599  16 
  -8  -3   2 67.4853 72.9715   7 
  -8  -3   1 29943.7 839.554   7 
  -8  -3   1 30044.2 767.113  16 
  -8  -3   0 18269.4 649.824   7 
  -8  -3  -1 4016.77 312.410   7 
  -8  -3  -1 3916.28 305.854  15 
  -8  -3  -2 7758.58 440.158   7 
  -8  -3  -2 8116.19 459.566  15 
  -8  -3  -3 4672.19 344.538   7 
  -8  -3  -3 4184.63 346.407  15 
  -8  -3  -4 2155.51 239.825   7 
  -8  -3  -4 1940.48 240.942  15 
  -8  -3  -5 5678.44 377.515   7 
  -8  -3  -5 6089.83 418.865  15 
  -8  -3  -6 845.087 163.962  15 
  -8  -3  -6 871.954 151.990   7 
  -8  -3  -7 2857.74 243.808   7 
  -8  -3  -7 2863.58 269.925  15 
  -8  -3  -8 989.559 157.111  15 
  -8  -3  -9 717.925 117.862  15 
  -8  -4   7 76.7382 72.4751  16 
  -8  -4   7 65.9870 59.6795   7 
  -8  -4   7 19.1960 54.4910  13 
  -8  -4   6 53.4186 71.1699  16 
  -8  -4   6 174.264 84.0201   7 
  -8  -4   6-26.8796 75.0426  13 
  -8  -4   5 6107.46 383.315   7 
  -8  -4   5 6120.05 371.600  16 
  -8  -4   5 5623.12 361.690  13 
  -8  -4   4 250.705 101.864  16 
  -8  -4   4 266.682 96.1928   7 
  -8  -4   3 3377.70 290.429   7 
  -8  -4   3 3146.02 273.293  16 
  -8  -4   2 4302.54 325.695   7 
  -8  -4   2 4064.67 310.433  16 
  -8  -4   1 820.187 144.712  16 
  -8  -4   1 747.668 142.459   7 
  -8  -4   0 14.9097 61.7591  16 
  -8  -4   0 209.653 105.529   7 
  -8  -4  -1 18362.4 671.228   7 
  -8  -4  -1 17634.4 623.438  15 
  -8  -4  -2 3883.35 318.936   7 
  -8  -4  -2 4104.01 325.278  15 
  -8  -4  -3 2239.21 249.945   7 
  -8  -4  -3 2362.11 259.096  15 
  -8  -4  -4 880.355 165.614  15 
  -8  -4  -4 800.517 161.806   7 
  -8  -4  -5 522.635 126.619  15 
  -8  -4  -5 389.780 127.116   7 
  -8  -4  -6 3017.15 279.839   7 
  -8  -4  -6 3113.10 293.194  15 
  -8  -4  -7 953.000 159.333  15 
  -8  -4  -7 927.309 153.212   7 
  -8  -4  -8-36.1899 54.8402  15 
  -8  -4  -8-150.610 70.8006   7 
  -8  -5   7 1895.20 188.857  16 
  -8  -5   6 1007.81 161.556  16 
  -8  -5   6 1093.53 158.780   7 
  -8  -5   6 624.347 118.997  13 
  -8  -5   5 1719.69 197.551   7 
  -8  -5   5 1377.91 178.986  16 
  -8  -5   5 1738.65 191.727  13 
  -8  -5   4 3010.96 270.716   7 
  -8  -5   4 2764.63 260.471  16 
  -8  -5   3 139.497 98.4632  16 
  -8  -5   3 30.6877 66.5799   7 
  -8  -5   2 2686.99 258.158   7 
  -8  -5   2 2871.16 267.275  16 
  -8  -5   1 1959.35 220.318   7 
  -8  -5   1 1941.32 214.881  16 
  -8  -5   0 9854.72 496.432   7 
  -8  -5   0 9649.77 470.444  16 
  -8  -5  -1 198.812 87.4618  16 
  -8  -5  -1 224.544 103.511   7 
  -8  -5  -2 37.6013 52.6450  16 
  -8  -5  -2 253.518 97.9478  15 
  -8  -5  -2 142.161 90.3295   7 
  -8  -5  -3 991.721 165.688  15 
  -8  -5  -3 783.337 154.374   7 
  -8  -5  -4 5769.33 392.092   7 
  -8  -5  -4 5248.09 372.907  15 
  -8  -5  -5 4086.84 331.651   7 
  -8  -5  -5 4466.16 344.016  15 
  -8  -5  -6 1107.43 175.216  15 
  -8  -5  -6 880.254 153.632   7 
  -8  -5  -7 163.256 72.2284   7 
  -8  -5  -8 490.789 108.799   7 
  -8  -6   6 640.211 118.436  16 
  -8  -6   5-43.2298 78.1737  16 
  -8  -6   4 1253.73 172.555  16 
  -8  -6   4 1181.33 161.009   7 
  -8  -6   3 358.648 109.894  16 
  -8  -6   3 421.856 113.715   7 
  -8  -6   2 4773.25 332.352   7 
  -8  -6   2 4369.35 320.230  16 
  -8  -6   1 105.369 75.1883  16 
  -8  -6   1 45.8393 60.2600   7 
  -8  -6   0 670.684 134.185  16 
  -8  -6   0 992.140 159.998   7 
  -8  -6  -1 1163.61 175.533  16 
  -8  -6  -1 1149.45 170.168   7 
  -8  -6  -2-29.9668 73.5967  16 
  -8  -6  -2 11.8722 63.9730   7 
  -8  -6  -3 2062.82 213.260  16 
  -8  -6  -3 2338.84 242.261   7 
  -8  -6  -4 1241.05 181.818   7 
  -8  -6  -5 479.219 122.867   7 
  -8  -6  -6 1491.30 191.370   7 
  -8  -6  -7 1411.65 183.933   7 
  -8  -7   4 2385.38 223.985  16 
  -8  -7   3 410.342 106.648  16 
  -8  -7   2 0.86822 58.2301  16 
  -8  -7   2-59.1959 68.5701   7 
  -8  -7   1-13.2840 68.1512  16 
  -8  -7   1-67.3255 74.6438   7 
  -8  -7   0 1740.79 188.688   7 
  -8  -7   0 2066.66 216.306  16 
  -8  -7  -1 5739.94 347.855   7 
  -8  -7  -1 5735.22 353.865  16 
  -8  -7  -2 2322.91 225.006   7 
  -8  -7  -2 2070.36 213.877  16 
  -8  -7  -3 717.008 123.681  16 
  -8  -7  -3 664.883 130.058   7 
  -8  -7  -4 406.852 97.1069  16 
  -8  -7  -4 478.343 112.622   7 
  -8  -7  -5 116.285 61.1137   7 
  -8  -7  -6 3263.94 251.672   7 
  -8  -8   3 98.9585 65.1062  16 
  -8  -8   2 1359.56 163.885  16 
  -8  -8   1 81.5297 75.0289  16 
  -8  -8   0 1649.05 165.721   7 
  -8  -8   0 1769.98 187.163  16 
  -8  -8  -1 1020.91 142.833  16 
  -8  -8  -1 1054.28 134.909   7 
  -8  -8  -2 130.208 56.9256  16 
  -8  -8  -2 65.3929 53.5393   7 
  -8  -8  -3-13.4498 47.9337  16 
  -8  -8  -3 34.6754 52.7904   7 
  -8  -8  -4 470.146 95.1991  16 
  -8  -8  -4 554.293 104.617   7 
  -9   5   2 142.011 67.3139  11 
  -9   5   1 1306.04 168.321  11 
  -9   5   0 1266.15 166.929  11 
  -9   5  -1 50.8970 51.9124  11 
  -9   5  -2-37.9582 67.0111  11 
  -9   5  -3 50.5013 50.8234  11 
  -9   4   4 307.872 90.0476  11 
  -9   4   3 244.879 92.4803  11 
  -9   4   2 294.432 99.4000  11 
  -9   4   1 754.121 145.580  11 
  -9   4   0 253.767 89.5551  11 
  -9   4  -1 300.230 106.847  11 
  -9   4  -2 114.355 76.9881  11 
  -9   4  -3 157.792 78.1031  11 
  -9   4  -4 3.64240 59.5856  11 
  -9   4  -5 177.272 75.1372  15 
  -9   4  -5 106.351 58.4619  11 
  -9   3   5 862.435 148.645  11 
  -9   3   4 4544.60 331.921  11 
  -9   3   3 1754.57 216.552  11 
  -9   3   2 425.382 124.781  11 
  -9   3   1 211.291 93.6297  11 
  -9   3   0 560.976 138.709  11 
  -9   3  -1 1296.22 191.941  11 
  -9   3  -2 3130.14 284.621  11 
  -9   3  -3 173.624 77.0030  11 
  -9   3  -4 54.8072 57.6115  11 
  -9   3  -5-16.7848 48.3257   8 
  -9   3  -5-58.9913 77.3932  15 
  -9   3  -5 59.2061 62.7205  11 
  -9   3  -6 85.5645 55.7791   8 
  -9   3  -6 5.16625 60.0579  11 
  -9   2   6 13.0995 63.0302  11 
  -9   2   5 105.893 69.8033  11 
  -9   2   4 275.839 102.768  11 
  -9   2   3 616.974 141.006  11 
  -9   2   2 120.440 72.6650  11 
  -9   2   1 82.3103 83.8826  11 
  -9   2   0 1002.43 171.949  11 
  -9   2  -1 833.149 151.234  11 
  -9   2  -2 169.968 88.0587  11 
  -9   2  -3 562.813 132.482  11 
  -9   2  -4 1141.83 189.183  15 
  -9   2  -4 1193.47 176.695  11 
  -9   2  -5-76.3940 70.5879   8 
  -9   2  -5 14.2320 61.0417  15 
  -9   2  -5-42.5599 51.5657  11 
  -9   2  -6 533.741 120.004   8 
  -9   2  -6 785.193 144.707  15 
  -9   2  -6 533.197 109.916  11 
  -9   2  -7 1740.02 190.993   8 
  -9   2  -7 2077.38 202.892  15 
  -9   1   6 2.79653 67.3573  11 
  -9   1   5 18.1364 63.8195  11 
  -9   1   4 28.3470 75.2204   7 
  -9   1   4 44.3799 55.6554  11 
  -9   1   3 531.214 128.592   7 
  -9   1   3 474.132 124.815  11 
  -9   1   2 3221.85 270.499   7 
  -9   1   2 3421.60 297.675  11 
  -9   1   1 6825.28 413.812  11 
  -9   1   0 1982.96 224.845  11 
  -9   1  -1 658.163 147.170  15 
  -9   1  -1 514.588 129.354  11 
  -9   1  -2 141.984 89.1307  15 
  -9   1  -2 272.407 97.0478  11 
  -9   1  -3 1986.26 253.402  15 
  -9   1  -3 2029.43 223.034  11 
  -9   1  -4 3272.24 315.013  15 
  -9   1  -4 3233.47 273.988  11 
  -9   1  -5 211.289 76.2673   8 
  -9   1  -5 175.259 75.3507  15 
  -9   1  -5 323.253 100.701  11 
  -9   1  -6 36.1874 62.2248   8 
  -9   1  -6 33.5685 69.8907  15 
  -9   1  -6 33.0592 61.8517  11 
  -9   1  -7 548.117 118.354   8 
  -9   1  -7 605.884 124.982  15 
  -9   0   6 31.6714 51.6651  13 
  -9   0   6-143.573 72.7353  11 
  -9   0   5 227.175 104.698   7 
  -9   0   5-14.0295 57.3965  11 
  -9   0   4 70.2075 66.7785   7 
  -9   0   4-123.331 70.8700  11 
  -9   0   3 1348.26 189.139   7 
  -9   0   3 1267.09 181.944  11 
  -9   0   2-66.1285 72.7587   7 
  -9   0   2 153.857 79.0264  11 
  -9   0   1 358.914 110.104   7 
  -9   0   1 352.949 105.027  11 
  -9   0   0 216.901 84.2601   7 
  -9   0   0 288.086 96.7829  11 
  -9   0  -1-6.48279 80.4055  15 
  -9   0  -1-34.0758 63.1211  11 
  -9   0  -2 80.3366 81.6752  15 
  -9   0  -3 1416.26 222.724  15 
  -9   0  -4 541.916 140.462  15 
  -9   0  -5 1681.40 198.774   8 
  -9   0  -5 1834.28 236.779  15 
  -9   0  -6 595.225 128.963   8 
  -9   0  -6 600.115 134.688  15 
  -9   0  -7 698.654 129.269   8 
  -9   0  -7 634.397 134.104  15 
  -9   0  -8 972.185 136.958   8 
  -9   0  -8 968.405 135.660  15 
  -9  -1   6 4542.56 309.416   7 
  -9  -1   6 3414.06 251.041  13 
  -9  -1   5 8762.27 441.785   7 
  -9  -1   4 4474.92 329.364   7 
  -9  -1   3 387.508 124.315   7 
  -9  -1   2 648.825 144.698   7 
  -9  -1   1 175.508 90.6523   7 
  -9  -1   0 7317.56 409.085   7 
  -9  -1  -1 4158.07 300.454   7 
  -9  -1  -1 3882.79 314.200  15 
  -9  -1  -2 481.206 107.709   7 
  -9  -1  -2 759.131 161.721  15 
  -9  -1  -3 1100.63 182.844  15 
  -9  -1  -4 2533.55 277.391  15 
  -9  -1  -5 2174.32 220.589   8 
  -9  -1  -5 3076.30 294.543  15 
  -9  -1  -6 87.5340 68.1721   8 
  -9  -1  -6 83.9690 70.6076  15 
  -9  -1  -7 26.8160 57.9124   8 
  -9  -1  -7 101.072 67.6215  15 
  -9  -1  -8 1557.35 175.308   8 
  -9  -1  -8 1587.84 172.433  15 
  -9  -2   6 74.5672 58.4314  16 
  -9  -2   6 5.84457 73.6742   7 
  -9  -2   5 102.705 75.4755  16 
  -9  -2   5 45.3265 61.8328   7 
  -9  -2   4 284.294 97.2533   7 
  -9  -2   3 1456.04 197.031   7 
  -9  -2   2 3717.92 299.506   7 
  -9  -2   1 759.427 148.915   7 
  -9  -2   0 1377.70 184.536   7 
  -9  -2  -1 402.810 112.931  15 
  -9  -2  -1 249.424 89.3640   7 
  -9  -2  -2 3495.49 286.943   7 
  -9  -2  -2 3907.62 322.335  15 
  -9  -2  -3 196.015 90.7538  15 
  -9  -2  -3 135.695 71.6308   7 
  -9  -2  -4 3177.81 258.418   7 
  -9  -2  -4 2993.07 294.511  15 
  -9  -2  -5 1007.72 172.546  15 
  -9  -2  -6 6186.25 394.170  15 
  -9  -2  -7 190.790 85.5284  15 
  -9  -2  -8 1012.54 137.685  15 
  -9  -3   6 86.1999 70.7766  16 
  -9  -3   6 26.0552 55.7465   7 
  -9  -3   5-73.5904 74.4321  16 
  -9  -3   5 106.072 76.7958   7 
  -9  -3   4 174.559 77.8277  16 
  -9  -3   4 90.1215 68.6149   7 
  -9  -3   3 515.832 104.900  16 
  -9  -3   3 944.598 160.659   7 
  -9  -3   2 43.2866 75.4744   7 
  -9  -3   1 5120.47 354.910   7 
  -9  -3   0 10628.1 498.579   7 
  -9  -3  -1 7794.75 433.850   7 
  -9  -3  -2 330.014 113.629  15 
  -9  -3  -2 298.781 98.5768   7 
  -9  -3  -3 1310.21 188.091  15 
  -9  -3  -3 1100.37 169.907   7 
  -9  -3  -4 7166.55 402.300   7 
  -9  -3  -4 7402.82 448.244  15 
  -9  -3  -5 676.919 147.280  15 
  -9  -3  -5 460.556 111.603   7 
  -9  -3  -6 738.954 140.101  15 
  -9  -3  -7-116.083 65.7835  15 
  -9  -3  -8 465.371 100.135  15 
  -9  -4   5 67.6621 64.8311  16 
  -9  -4   5-14.2025 64.4515   7 
  -9  -4   4 3115.20 266.859   7 
  -9  -4   4 2896.87 237.647  16 
  -9  -4   3 280.062 82.8903  16 
  -9  -4   3 553.652 123.101   7 
  -9  -4   2 847.614 136.154  16 
  -9  -4   2 822.964 144.507   7 
  -9  -4   1 636.287 131.953   7 
  -9  -4   0 1874.55 214.940   7 
  -9  -4  -1 0.78827 61.0133   7 
  -9  -4  -2 1234.18 168.486  15 
  -9  -4  -2 1337.11 185.678   7 
  -9  -4  -3-29.7364 62.3073  15 
  -9  -4  -3 176.737 76.5019   7 
  -9  -4  -4 3496.71 286.969   7 
  -9  -4  -4 3338.07 293.688  15 
  -9  -4  -5 5192.82 341.189   7 
  -9  -4  -5 5354.86 358.928  15 
  -9  -4  -6 1578.76 191.097  15 
  -9  -4  -6 1287.85 164.207   7 
  -9  -4  -7 593.040 112.434  15 
  -9  -5   4 1203.08 153.320  16 
  -9  -5   4 1206.40 164.654   7 
  -9  -5   3 1488.45 192.778   7 
  -9  -5   3 1184.83 161.648  16 
  -9  -5   2 347.451 99.5246  16 
  -9  -5   2 333.948 95.7121   7 
  -9  -5   1 4951.76 333.291   7 
  -9  -5   1 4578.34 303.153  16 
  -9  -5   0 5285.44 346.334   7 
  -9  -5  -1 739.373 143.626   7 
  -9  -5  -2 6404.04 384.425   7 
  -9  -5  -2 6021.05 348.212  15 
  -9  -5  -3 3855.66 303.182   7 
  -9  -5  -3 4054.32 302.818  15 
  -9  -5  -4-22.4430 70.6076  15 
  -9  -5  -4-1.07305 57.3184   7 
  -9  -5  -5 1262.44 173.372  15 
  -9  -5  -5 1128.90 160.930   7 
  -9  -5  -6-7.55031 46.7524   7 
  -9  -6   3 183.211 73.9896  16 
  -9  -6   3 206.806 90.3981   7 
  -9  -6   2 254.503 86.7951  16 
  -9  -6   2 197.702 77.0063   7 
  -9  -6   1 317.115 82.4500  16 
  -9  -6   1 355.771 90.2691   7 
  -9  -6   0 630.710 116.348  16 
  -9  -6   0 770.951 129.535   7 
  -9  -6  -1 1666.15 191.193   7 
  -9  -6  -1 1427.86 164.772  16 
  -9  -6  -2 80.5086 69.3949   7 
  -9  -6  -3 622.700 122.950   7 
  -9  -6  -4 43.0792 71.4056   7 
  -9  -6  -5 78.8589 55.9635   7 
  -9  -7   1 3344.71 228.937   7 
  -9  -7   1 3137.78 230.377  16 
  -9  -7   0 2104.12 192.169   7 
  -9  -7   0 2094.65 189.364  16 
  -9  -7  -1 295.815 70.5805  16 
  -9  -7  -1 335.795 90.4247   7 
  -9  -7  -2 794.448 119.420   7 
  -9  -7  -3 500.622 99.9052   7 
  -9  -7  -4 4297.79 264.864   7 
 -10   3   1 1390.29 165.581  11 
 -10   3   0 1175.82 153.684  11 
 -10   3  -1 83.3122 53.6148  11 
 -10   3  -2 609.860 108.744  11 
 -10   2   2 149.746 60.2621  11 
 -10   2   1 448.701 101.114  11 
 -10   2   0 187.226 75.7541  11 
 -10   2  -1 754.438 130.223  15 
 -10   2  -1 1053.63 152.543  11 
 -10   2  -2 906.315 149.225  15 
 -10   2  -2 1140.76 151.842  11 
 -10   2  -3 169.589 79.3746  15 
 -10   2  -3 103.156 50.7222  11 
 -10   2  -4 15.3441 62.5229  15 
 -10   1   3 884.196 134.832  11 
 -10   1   2 57.6551 58.9172  11 
 -10   1   1 338.601 89.7100  11 
 -10   1   0 546.512 115.651  11 
 -10   1  -1 545.441 110.370  11 
 -10   1  -2 1797.65 208.017  15 
 -10   1  -2 2222.92 206.601  11 
 -10   1  -3 21.8529 59.1323  15 
 -10   1  -4-79.3214 65.9375  15 
 -10   1  -5 255.899 83.3632  15 
 -10   0   3 107.722 74.5417   7 
 -10   0   2 3.78992 64.3212   7 
 -10   0  -2-70.4969 71.2914  15 
 -10   0  -3 722.436 143.512  15 
 -10   0  -4 23.3747 63.5751  15 
 -10   0  -5 177.407 73.0177  15 
 -10   0  -6 1289.78 162.306  15 
 -10  -1   4 890.449 136.464   7 
 -10  -1   3 241.794 84.7998   7 
 -10  -1   2 3874.33 281.402   7 
 -10  -1   1 6380.48 359.086   7 
 -10  -1   0 1041.79 157.172   7 
 -10  -1  -2 332.881 102.571  15 
 -10  -1  -3 369.575 89.7583  15 
 -10  -1  -4 2341.80 236.880  15 
 -10  -1  -5 6110.20 364.792  15 
 -10  -1  -6 122.653 67.8247  15 
 -10  -2   4 59.6290 58.8507   7 
 -10  -2   3-26.9589 63.4644   7 
 -10  -2   2 1384.00 173.553   7 
 -10  -2   1 293.442 93.4125   7 
 -10  -2   0 431.843 109.897   7 
 -10  -2  -1 105.039 59.7051   7 
 -10  -2  -2-35.3779 75.4526   7 
 -10  -2  -2 14.7700 48.9971  15 
 -10  -2  -3 125.230 69.4904  15 
 -10  -2  -4 197.268 86.5333  15 
 -10  -2  -5 105.852 60.8038  15 
 -10  -2  -6 83.9809 55.0683  15 
 -10  -3   4 707.205 126.623   7 
 -10  -3   3 832.880 136.010   7 
 -10  -3   2 85.4337 74.5328   7 
 -10  -3   1 117.196 72.5844   7 
 -10  -3   0 4707.56 311.451   7 
 -10  -3  -1 4839.29 316.822   7 
 -10  -3  -2 227.424 77.7705   7 
 -10  -3  -3 888.121 133.828  15 
 -10  -3  -3 943.795 137.742   7 
 -10  -3  -4 318.326 88.3237  15 
 -10  -3  -4 244.312 73.2554   7 
 -10  -3  -5 48.4653 51.8393  15 
 -10  -4   3 149.468 59.1612   7 
 -10  -4   2 107.187 68.2213   7 
 -10  -4   1 381.663 107.357   7 
 -10  -4   0 1173.16 162.485   7 
 -10  -4  -1 12.0770 53.7378   7 
 -10  -4  -2 325.118 92.0509   7 
 -10  -4  -3 44.7311 49.6224  15 
 -10  -4  -3-83.1199 67.8575   7 
 -10  -4  -4 164.506 69.6817  15 
 -10  -4  -4 58.2346 47.6795   7 
 -10  -4  -5 133.804 52.9260  15 
 -10  -5   1 308.642 90.2395   7 
 -10  -5   0 1333.37 163.949   7 
 -10  -5  -1 548.888 109.683   7 
 -10  -5  -2 383.389 98.0166   7 
 -10  -5  -3 1166.71 145.182   7 
   0   0   0    0.00    0.00   0 
TITL exp_20322 in P-1 
REM P-1 (#2 in standard setting) 
CELL 1.54184   9.594834  10.312840  12.018802  87.2853  86.0815  83.9660 
ZERR    5.00   0.000622   0.000660   0.000788   0.0053   0.0053   0.0053 
LATT  1 
SFAC C H N O 
UNIT 55.00 50.00 5.00 5.00 
TREF 
HKLF 4 
END 
;
_shelx_hkl_checksum              24517
loop_
_space_group_symop_operation_xyz
'x, y, z'
'-x, -y, -z'
loop_
_atom_site_label
_atom_site_type_symbol
_atom_site_fract_x
_atom_site_fract_y
_atom_site_fract_z
_atom_site_U_iso_or_equiv
_atom_site_adp_type
_atom_site_occupancy
_atom_site_site_symmetry_order
_atom_site_calc_flag
_atom_site_refinement_flags_posn
_atom_site_refinement_flags_adp
_atom_site_refinement_flags_occupancy
_atom_site_disorder_assembly
_atom_site_disorder_group
S1 S 0.62413(12) 0.91565(10) 0.10679(10) 0.0637(3) Uani 1 1 d . . . . .
S2 S 0.32555(11) 0.58225(10) -0.08658(9) 0.0595(3) Uani 1 1 d . . . . .
S3 S 0.12374(13) 0.18389(11) 0.24852(10) 0.0681(4) Uani 1 1 d . . . . .
N1 N 0.4746(4) 0.7526(3) 0.0072(3) 0.0567(8) Uani 1 1 d . . . . .
N2 N 0.0889(4) 0.3116(3) 0.1649(3) 0.0641(9) Uani 1 1 d . . . . .
H2D H 0.0057 0.3509 0.1910 0.077 Uiso 1 1 d R U . . .
O1 O 0.0237(4) 0.0944(4) 0.2408(4) 0.0953(12) Uani 1 1 d . . . . .
O2 O 0.1381(6) 0.2367(4) 0.3537(3) 0.1133(15) Uani 1 1 d . . . . .
C1 C 0.7322(9) 0.9409(7) 0.4253(6) 0.118(3) Uani 1 1 d . . . . .
H1A H 0.7674 0.8503 0.4251 0.177 Uiso 1 1 calc R U . . .
H1B H 0.8000 0.9899 0.4550 0.177 Uiso 1 1 calc R U . . .
H1C H 0.6459 0.9512 0.4708 0.177 Uiso 1 1 calc R U . . .
C2 C 0.6512(8) 1.1307(6) 0.3016(7) 0.115(2) Uani 1 1 d . . . . .
H2A H 0.6370 1.1557 0.2249 0.172 Uiso 1 1 calc R U . . .
H2B H 0.5636 1.1442 0.3451 0.172 Uiso 1 1 calc R U . . .
H2C H 0.7176 1.1828 0.3292 0.172 Uiso 1 1 calc R U . . .
C3 C 0.7068(5) 0.9890(5) 0.3104(5) 0.0749(13) Uani 1 1 d . . . . .
H3A H 0.7988 0.9820 0.2691 0.090 Uiso 1 1 calc R U . . .
C4 C 0.6170(4) 0.9054(4) 0.2515(4) 0.0612(11) Uani 1 1 d . . . . .
C5 C 0.5294(4) 0.8185(4) 0.2946(4) 0.0589(10) Uani 1 1 d . . . . .
H5A H 0.5126 0.8025 0.3709 0.071 Uiso 1 1 calc R U . . .
C6 C 0.4651(4) 0.7536(4) 0.2116(3) 0.0509(9) Uani 1 1 d . . . . .
C7 C 0.3708(4) 0.6584(4) 0.2237(3) 0.0518(9) Uani 1 1 d . . . . .
C8 C 0.3342(4) 0.6093(4) 0.1249(3) 0.0473(9) Uani 1 1 d . . . . .
N9 N 0.2461(3) 0.5126(3) 0.1166(3) 0.0514(8) Uani 1 1 d . . . . .
C10 C 0.2319(4) 0.4881(4) 0.0125(3) 0.0502(9) Uani 1 1 d . . . . .
C11 C 0.1475(4) 0.3907(4) -0.0254(3) 0.0530(10) Uani 1 1 d . . . . .
C12 C 0.0799(4) 0.3035(4) 0.0482(4) 0.0560(10) Uani 1 1 d . . . . .
C13 C 0.0010(5) 0.2131(4) 0.0054(5) 0.0679(12) Uani 1 1 d . . . . .
H13A H -0.0454 0.1562 0.0536 0.081 Uiso 1 1 calc R U . . .
C14 C -0.0081(5) 0.2080(5) -0.1081(5) 0.0750(14) Uani 1 1 d . . . . .
H14A H -0.0586 0.1458 -0.1358 0.090 Uiso 1 1 calc R U . . .
C15 C 0.0554(5) 0.2923(5) -0.1805(5) 0.0735(13) Uani 1 1 d . . . . .
H15A H 0.0473 0.2887 -0.2570 0.088 Uiso 1 1 calc R U . . .
C16 C 0.1323(5) 0.3835(5) -0.1392(4) 0.0665(11) Uani 1 1 d . . . . .
H16A H 0.1750 0.4415 -0.1888 0.080 Uiso 1 1 calc R U . . .
C17 C 0.3877(4) 0.6598(4) 0.0223(3) 0.0512(9) Uani 1 1 d . . . . .
C18 C 0.5107(4) 0.7959(4) 0.1031(4) 0.0538(10) Uani 1 1 d . . . . .
C19 C 0.2845(6) 0.1109(7) 0.1982(6) 0.111(2) Uani 1 1 d . . . . .
H19A H 0.3547 0.1700 0.2025 0.167 Uiso 1 1 calc R U . . .
H19B H 0.3092 0.0328 0.2422 0.167 Uiso 1 1 calc R U . . .
H19C H 0.2790 0.0894 0.1219 0.167 Uiso 1 1 calc R U . . .
Cl1 Cl 0.1669(3) 0.8163(2) 0.3762(2) 0.0850(6) Uani 0.549(2) 1 d D . P A 1
C20 C 0.3275(8) 0.5944(6) 0.3321(4) 0.0795(9) Uani 0.549(2) 1 d G . P A 1
C21 C 0.3843(7) 0.4679(6) 0.3581(4) 0.0795(9) Uani 0.549(2) 1 d G . P A 1
H21A H 0.4472 0.4235 0.3073 0.095 Uiso 0.549(2) 1 calc R U P A 1
C22 C 0.3471(7) 0.4077(5) 0.4602(5) 0.0795(9) Uani 0.549(2) 1 d G . P A 1
H22A H 0.3851 0.3231 0.4776 0.095 Uiso 0.549(2) 1 calc R U P A 1
C23 C 0.2531(7) 0.4740(5) 0.5362(4) 0.0795(9) Uani 0.549(2) 1 d G . P A 1
H23A H 0.2282 0.4337 0.6045 0.095 Uiso 0.549(2) 1 calc R U P A 1
C24 C 0.1962(6) 0.6005(5) 0.5101(4) 0.0795(9) Uani 0.549(2) 1 d G . P A 1
H24A H 0.1333 0.6448 0.5610 0.095 Uiso 0.549(2) 1 calc R U P A 1
C25 C 0.2334(7) 0.6607(5) 0.4080(5) 0.0795(9) Uani 0.549(2) 1 d DG . P A 1
Cl1' Cl 0.4451(3) 0.4011(3) 0.3462(3) 0.0850(6) Uani 0.451(2) 1 d D . P A 2
C20' C 0.2947(9) 0.6348(7) 0.3396(5) 0.0795(9) Uani 0.451(2) 1 d G . P A 2
C21' C 0.1966(9) 0.7307(6) 0.3839(6) 0.0795(9) Uani 0.451(2) 1 d G . P A 2
H21B H 0.1820 0.8116 0.3467 0.095 Uiso 0.451(2) 1 calc R U P A 2
C22' C 0.1204(8) 0.7056(6) 0.4837(6) 0.0795(9) Uani 0.451(2) 1 d G . P A 2
H22B H 0.0548 0.7697 0.5134 0.095 Uiso 0.451(2) 1 calc R U P A 2
C23' C 0.1422(8) 0.5846(7) 0.5393(5) 0.0795(9) Uani 0.451(2) 1 d G . P A 2
H23B H 0.0912 0.5678 0.6061 0.095 Uiso 0.451(2) 1 calc R U P A 2
C24' C 0.2403(8) 0.4887(6) 0.4950(5) 0.0795(9) Uani 0.451(2) 1 d G . P A 2
H24B H 0.2549 0.4077 0.5322 0.095 Uiso 0.451(2) 1 calc R U P A 2
C25' C 0.3165(8) 0.5138(7) 0.3952(6) 0.0795(9) Uani 0.451(2) 1 d DG . P A 2
loop_
_atom_site_aniso_label
_atom_site_aniso_U_11
_atom_site_aniso_U_22
_atom_site_aniso_U_33
_atom_site_aniso_U_23
_atom_site_aniso_U_13
_atom_site_aniso_U_12
S1 0.0663(7) 0.0530(6) 0.0750(7) -0.0037(5) 0.0020(5) -0.0246(5)
S2 0.0704(7) 0.0562(6) 0.0539(6) -0.0109(5) 0.0035(5) -0.0163(5)
S3 0.0759(7) 0.0606(7) 0.0708(7) 0.0009(5) 0.0044(5) -0.0292(5)
N1 0.063(2) 0.0485(19) 0.060(2) -0.0052(16) 0.0040(16) -0.0157(15)
N2 0.071(2) 0.051(2) 0.071(2) -0.0097(17) 0.0007(18) -0.0142(16)
O1 0.096(3) 0.073(2) 0.122(3) 0.007(2) 0.003(2) -0.0454(19)
O2 0.186(5) 0.093(3) 0.067(2) 0.004(2) -0.005(3) -0.049(3)
C1 0.162(6) 0.101(5) 0.109(5) 0.001(4) -0.058(5) -0.066(5)
C2 0.142(6) 0.056(3) 0.158(6) -0.018(4) -0.058(5) -0.031(3)
C3 0.076(3) 0.063(3) 0.092(4) -0.006(2) -0.014(3) -0.029(2)
C4 0.060(2) 0.046(2) 0.080(3) -0.007(2) -0.009(2) -0.0120(18)
C5 0.064(2) 0.051(2) 0.065(3) -0.0065(19) -0.0062(19) -0.0182(19)
C6 0.052(2) 0.040(2) 0.062(2) -0.0059(17) -0.0029(17) -0.0086(16)
C7 0.055(2) 0.045(2) 0.057(2) -0.0021(17) -0.0040(17) -0.0129(17)
C8 0.051(2) 0.0406(19) 0.052(2) -0.0073(16) -0.0007(16) -0.0085(15)
N9 0.0555(18) 0.0431(17) 0.058(2) -0.0071(14) -0.0031(14) -0.0127(14)
C10 0.055(2) 0.041(2) 0.056(2) -0.0089(17) -0.0024(17) -0.0051(16)
C11 0.054(2) 0.042(2) 0.064(3) -0.0145(18) -0.0061(18) -0.0025(17)
C12 0.053(2) 0.044(2) 0.072(3) -0.0134(19) -0.0052(19) -0.0053(17)
C13 0.065(3) 0.050(2) 0.092(4) -0.014(2) -0.012(2) -0.0126(19)
C14 0.068(3) 0.060(3) 0.102(4) -0.028(3) -0.023(3) -0.006(2)
C15 0.080(3) 0.065(3) 0.078(3) -0.022(2) -0.019(3) -0.004(2)
C16 0.073(3) 0.059(3) 0.071(3) -0.014(2) -0.013(2) -0.010(2)
C17 0.055(2) 0.045(2) 0.054(2) -0.0110(17) 0.0033(17) -0.0073(17)
C18 0.054(2) 0.041(2) 0.066(3) -0.0043(18) 0.0035(18) -0.0095(16)
C19 0.076(4) 0.116(5) 0.132(6) 0.042(4) 0.004(3) 0.008(3)
Cl1 0.0923(12) 0.0698(11) 0.0915(13) -0.0176(9) 0.0071(10) -0.0037(9)
C20 0.105(3) 0.086(2) 0.0535(16) -0.0037(14) 0.0026(14) -0.0458(18)
C21 0.105(3) 0.086(2) 0.0535(16) -0.0037(14) 0.0026(14) -0.0458(18)
C22 0.105(3) 0.086(2) 0.0535(16) -0.0037(14) 0.0026(14) -0.0458(18)
C23 0.105(3) 0.086(2) 0.0535(16) -0.0037(14) 0.0026(14) -0.0458(18)
C24 0.105(3) 0.086(2) 0.0535(16) -0.0037(14) 0.0026(14) -0.0458(18)
C25 0.105(3) 0.086(2) 0.0535(16) -0.0037(14) 0.0026(14) -0.0458(18)
Cl1' 0.0923(12) 0.0698(11) 0.0915(13) -0.0176(9) 0.0071(10) -0.0037(9)
C20' 0.105(3) 0.086(2) 0.0535(16) -0.0037(14) 0.0026(14) -0.0458(18)
C21' 0.105(3) 0.086(2) 0.0535(16) -0.0037(14) 0.0026(14) -0.0458(18)
C22' 0.105(3) 0.086(2) 0.0535(16) -0.0037(14) 0.0026(14) -0.0458(18)
C23' 0.105(3) 0.086(2) 0.0535(16) -0.0037(14) 0.0026(14) -0.0458(18)
C24' 0.105(3) 0.086(2) 0.0535(16) -0.0037(14) 0.0026(14) -0.0458(18)
C25' 0.105(3) 0.086(2) 0.0535(16) -0.0037(14) 0.0026(14) -0.0458(18)
loop_
_atom_type_symbol
_atom_type_description
_atom_type_scat_dispersion_real
_atom_type_scat_dispersion_imag
_atom_type_scat_source
C C 0.0181 0.0091 'International Tables Vol C Tables 4.2.6.8 and 6.1.1.4'
H H 0.0000 0.0000 'International Tables Vol C Tables 4.2.6.8 and 6.1.1.4'
N N 0.0311 0.0180 'International Tables Vol C Tables 4.2.6.8 and 6.1.1.4'
O O 0.0492 0.0322 'International Tables Vol C Tables 4.2.6.8 and 6.1.1.4'
S S 0.3331 0.5567 'International Tables Vol C Tables 4.2.6.8 and 6.1.1.4'
Cl Cl 0.3639 0.7018 'International Tables Vol C Tables 4.2.6.8 and 6.1.1.4'
loop_
_geom_angle_atom_site_label_1
_geom_angle_atom_site_label_2
_geom_angle_atom_site_label_3
_geom_angle
C18 S1 C4 91.6(2)
C17 S2 C10 88.81(18)
O1 S3 O2 118.7(3)
O1 S3 N2 110.1(2)
O2 S3 N2 104.5(2)
O1 S3 C19 107.8(3)
O2 S3 C19 109.5(4)
N2 S3 C19 105.4(3)
C17 N1 C18 112.8(3)
C12 N2 S3 123.3(3)
C1 C3 C2 113.7(6)
C1 C3 C4 113.0(4)
C2 C3 C4 111.2(4)
C5 C4 C3 129.6(5)
C5 C4 S1 112.3(3)
C3 C4 S1 118.0(3)
C4 C5 C6 113.7(4)
C7 C6 C18 118.8(4)
C7 C6 C5 130.2(4)
C18 C6 C5 111.0(4)
C8 C7 C6 115.8(4)
C8 C7 C20 119.2(4)
C6 C7 C20 124.2(4)
C8 C7 C20' 124.4(5)
C6 C7 C20' 118.7(5)
N9 C8 C7 125.9(3)
N9 C8 C17 114.6(3)
C7 C8 C17 119.5(3)
C10 N9 C8 111.5(3)
N9 C10 C11 125.5(4)
N9 C10 S2 115.1(3)
C11 C10 S2 119.4(3)
C16 C11 C12 118.1(4)
C16 C11 C10 119.0(4)
C12 C11 C10 122.9(4)
C13 C12 C11 119.5(4)
C13 C12 N2 120.9(4)
C11 C12 N2 119.5(4)
C14 C13 C12 120.0(5)
C15 C14 C13 121.3(4)
C14 C15 C16 119.2(5)
C15 C16 C11 121.8(5)
N1 C17 C8 126.5(4)
N1 C17 S2 123.4(3)
C8 C17 S2 110.0(3)
N1 C18 C6 126.5(4)
N1 C18 S1 122.1(3)
C6 C18 S1 111.4(3)
C21 C20 C25 120.0
C21 C20 C7 119.3(4)
C25 C20 C7 120.7(4)
C20 C21 C22 120.0
C23 C22 C21 120.0
C24 C23 C22 120.0
C23 C24 C25 120.0
C24 C25 C20 120.0
C24 C25 Cl1 120.4(3)
C20 C25 Cl1 119.6(3)
C21' C20' C25' 120.0
C21' C20' C7 120.1(5)
C25' C20' C7 119.7(5)
C20' C21' C22' 120.0
C23' C22' C21' 120.0
C22' C23' C24' 120.0
C25' C24' C23' 120.0
C24' C25' C20' 120.0
C24' C25' Cl1' 120.0(4)
C20' C25' Cl1' 119.8(4)
loop_
_geom_bond_atom_site_label_1
_geom_bond_atom_site_label_2
_geom_bond_distance
S1 C18 1.734(4)
S1 C4 1.734(5)
S2 C17 1.736(4)
S2 C10 1.760(4)
S3 O1 1.411(4)
S3 O2 1.421(4)
S3 N2 1.638(4)
S3 C19 1.727(6)
N1 C17 1.332(5)
N1 C18 1.336(6)
N2 C12 1.418(6)
C1 C3 1.473(8)
C2 C3 1.503(8)
C3 C4 1.512(6)
C4 C5 1.353(6)
C5 C6 1.435(6)
C6 C7 1.400(5)
C6 C18 1.411(6)
C7 C8 1.393(6)
C7 C20 1.486(5)
C7 C20' 1.549(6)
C8 N9 1.385(5)
C8 C17 1.401(6)
N9 C10 1.306(5)
C10 C11 1.462(6)
C11 C16 1.391(6)
C11 C12 1.407(6)
C12 C13 1.398(6)
C13 C14 1.376(7)
C14 C15 1.361(8)
C15 C16 1.384(7)
Cl1 C25 1.700(5)
C20 C21 1.3900
C20 C25 1.3900
C21 C22 1.3900
C22 C23 1.3900
C23 C24 1.3900
C24 C25 1.3900
Cl1' C25' 1.698(6)
C20' C21' 1.3900
C20' C25' 1.3900
C21' C22' 1.3900
C22' C23' 1.3900
C23' C24' 1.3900
C24' C25' 1.3900
