#------------------------------------------------------------------------------
#$Date: 2016-03-04 10:20:31 +0200 (Fri, 04 Mar 2016) $
#$Revision: 177310 $
#$URL: svn://www.crystallography.net/cod/cif/1/54/26/1542660.cif $
#------------------------------------------------------------------------------
#
# This file is available in the Crystallography Open Database (COD),
# http://www.crystallography.net/
#
# All data on this site have been placed in the public domain by the
# contributors.
#
data_1542660
loop_
_publ_author_name
'Yamamura, Masaki'
'Hasegawa, Toru'
'Nabeshima, Tatsuya'
_publ_section_title
;
 Synthesis of Phosphorus-Centered and Chalcogen-Bridged Concave Molecules:
 Modulation of Bowl Geometries and Packing Structures by Changing Bridging
 Atoms.
;
_journal_issue                   4
_journal_name_full               'Organic letters'
_journal_page_first              816
_journal_page_last               819
_journal_paper_doi               10.1021/acs.orglett.6b00105
_journal_volume                  18
_journal_year                    2016
_chemical_formula_sum            'C21 H16 F2 N O4 P S'
_chemical_formula_weight         447.38
_chemical_name_systematic
;
 ?
;
_space_group_crystal_system      monoclinic
_space_group_IT_number           14
_space_group_name_Hall           '-P 2ybc'
_space_group_name_H-M_alt        'P 1 21/c 1'
_symmetry_space_group_name_Hall  '-P 2ybc'
_symmetry_space_group_name_H-M   'P 1 21/c 1'
_atom_sites_solution_hydrogens   mixed
_audit_creation_method           SHELXL-2014
_cell_angle_alpha                90
_cell_angle_beta                 95.890(2)
_cell_angle_gamma                90
_cell_formula_units_Z            4
_cell_length_a                   11.099(3)
_cell_length_b                   11.479(3)
_cell_length_c                   14.854(3)
_cell_measurement_reflns_used    2165
_cell_measurement_temperature    120(2)
_cell_measurement_theta_max      27.61
_cell_measurement_theta_min      2.45
_cell_volume                     1882.5(8)
_computing_structure_refinement  'SHELXL-2014 (Sheldrick, 2014)'
_diffrn_ambient_temperature      120(2)
_diffrn_measured_fraction_theta_full 1.000
_diffrn_measured_fraction_theta_max 0.984
_diffrn_measurement_device_type  'Bruker APEX-II CCD'
_diffrn_measurement_method       '\f and \w scans'
_diffrn_radiation_monochromator  graphite
_diffrn_radiation_source         'fine-focus sealed tube'
_diffrn_radiation_type           MoK\a
_diffrn_radiation_wavelength     0.71073
_diffrn_reflns_av_R_equivalents  0.0411
_diffrn_reflns_av_unetI/netI     0.0387
_diffrn_reflns_laue_measured_fraction_full 1.000
_diffrn_reflns_laue_measured_fraction_max 0.984
_diffrn_reflns_limit_h_max       14
_diffrn_reflns_limit_h_min       -14
_diffrn_reflns_limit_k_max       15
_diffrn_reflns_limit_k_min       -15
_diffrn_reflns_limit_l_max       20
_diffrn_reflns_limit_l_min       -20
_diffrn_reflns_number            21445
_diffrn_reflns_point_group_measured_fraction_full 1.000
_diffrn_reflns_point_group_measured_fraction_max 0.984
_diffrn_reflns_theta_full        25.242
_diffrn_reflns_theta_max         28.979
_diffrn_reflns_theta_min         1.844
_exptl_absorpt_coefficient_mu    0.307
_exptl_absorpt_correction_T_max  0.961
_exptl_absorpt_correction_T_min  0.912
_exptl_absorpt_correction_type   empirical
_exptl_crystal_colour            colorless
_exptl_crystal_density_diffrn    1.578
_exptl_crystal_description       block
_exptl_crystal_F_000             920
_exptl_crystal_size_max          0.200
_exptl_crystal_size_mid          0.100
_exptl_crystal_size_min          0.050
_refine_diff_density_max         1.017
_refine_diff_density_min         -0.378
_refine_diff_density_rms         0.068
_refine_ls_extinction_method     none
_refine_ls_goodness_of_fit_ref   1.027
_refine_ls_hydrogen_treatment    mixed
_refine_ls_matrix_type           full
_refine_ls_number_parameters     277
_refine_ls_number_reflns         4917
_refine_ls_number_restraints     0
_refine_ls_restrained_S_all      1.027
_refine_ls_R_factor_all          0.0687
_refine_ls_R_factor_gt           0.0424
_refine_ls_shift/su_max          0.000
_refine_ls_shift/su_mean         0.000
_refine_ls_structure_factor_coef Fsqd
_refine_ls_weighting_details
'w=1/[\s^2^(Fo^2^)+(0.0435P)^2^+1.7875P] where P=(Fo^2^+2Fc^2^)/3'
_refine_ls_weighting_scheme      calc
_refine_ls_wR_factor_gt          0.0975
_refine_ls_wR_factor_ref         0.1101
_reflns_Friedel_coverage         0.000
_reflns_number_gt                3592
_reflns_number_total             4917
_reflns_threshold_expression     'I > 2\s(I)'
_cod_data_source_file            ol6b00105_si_002.cif
_cod_data_source_block           cyclemono_a
_cod_original_cell_volume        1882.6(7)
_cod_database_code               1542660
_shelx_space_group_comment
;
The symmetry employed for this shelxl refinement is uniquely defined
by the following loop, which should always be used as a source of
symmetry information in preference to the above space-group names.
They are only intended as comments.
;
_shelx_estimated_absorpt_t_min   0.941
_shelx_estimated_absorpt_t_max   0.985
_shelxl_version_number           2014-3
_shelx_res_file
;
TITL cyclemono_a.res
REM  Yadorkari-X generated
CELL 0.71073 11.0994 11.4788 14.8544 90.0000 95.8900 90.0000
ZERR 4.0 0.0025 0.0026 0.0033 0.0000 0.0020 0.0000
LATT 1
SYMM -X, 1/2+Y, 1/2-Z
REM  SPGR P21/c monoclinic
SFAC C H N O F P S
UNIT 84 64 4 16 8 4 4
SIZE 0.20 0.10 0.05
TEMP -153.0
L.S. 30
FMAP 2
PLAN -1
ACTA
CONF
BOND$H

WGHT    0.043500    1.787500
FVAR       0.31099
P1    6    0.318570    0.407743    0.685607    11.00000    0.01508    0.01652 =
         0.01554   -0.00161    0.00072    0.00114
S1    7    0.272418    0.088857    0.506393    11.00000    0.02793    0.02310 =
         0.01941   -0.00246    0.00127   -0.00329
F1    5    0.245055    0.415523    0.485868    11.00000    0.02191    0.03957 =
         0.01921    0.00394    0.00229   -0.00880
F2    5    0.172618    0.619225    0.702485    11.00000    0.02489    0.03072 =
         0.04616   -0.01032    0.00300    0.00911
O1    4    0.343704    0.150816    0.677269    11.00000    0.02061    0.01636 =
         0.01822    0.00027    0.00132   -0.00599
O2    4    0.554899    0.503279    0.608759    11.00000    0.01791    0.01318 =
         0.03250    0.00267    0.00387   -0.00307
O3    4    0.310075    0.392035    0.784820    11.00000    0.02044    0.02549 =
         0.01547   -0.00071    0.00230    0.00212
O4    4    0.088541    0.318609    0.763301    11.00000    0.02468    0.04623 =
         0.02161   -0.00144    0.00876   -0.00326
N1    3    0.177830    0.041913    0.661045    11.00000    0.01907    0.02044 =
         0.02182    0.00242   -0.00018   -0.00350
C1    1    0.541305    0.385103    0.615702    11.00000    0.01659    0.01361 =
         0.01756    0.00151   -0.00157   -0.00231
C2    1    0.468568    0.582545    0.627061    11.00000    0.02088    0.01565 =
         0.01898    0.00069   -0.00560    0.00042
C3    1    0.175932    0.368480    0.625440    11.00000    0.01280    0.01544 =
         0.02205   -0.00293    0.00185    0.00179
C4    1    0.641291    0.322745    0.592959    11.00000    0.01436    0.02419 =
         0.01832    0.00100    0.00121   -0.00196
AFIX  43
H1    2    0.709695    0.362539    0.574548    11.00000   -1.20000
AFIX   0
C5    1    0.439227    0.329144    0.642869    11.00000    0.01373    0.01491 =
         0.01651   -0.00004    0.00043    0.00120
C6    1    0.442343    0.206569    0.644580    11.00000    0.01776    0.01608 =
         0.01566    0.00056    0.00072   -0.00317
C7    1    0.080050    0.327668    0.671996    11.00000    0.01835    0.02102 =
         0.02366   -0.00271    0.00522    0.00326
C8    1    0.356850    0.552700    0.656321    11.00000    0.02068    0.01459 =
         0.01964   -0.00227   -0.00333    0.00107
C9    1    0.640403    0.202490    0.597339    11.00000    0.01569    0.02235 =
         0.02263   -0.00265    0.00087    0.00413
AFIX  43
H2    2    0.709139    0.159942    0.582635    11.00000   -1.20000
AFIX   0
C10   1    0.262348    0.092028    0.616978    11.00000    0.01821    0.01198 =
         0.02121    0.00136   -0.00144    0.00037
C11   1    0.540288    0.142863    0.622971    11.00000    0.02363    0.01308 =
         0.02211   -0.00119   -0.00068    0.00307
AFIX  43
H3    2    0.539594    0.060172    0.625488    11.00000   -1.20000
AFIX   0
C12   1    0.280596    0.645649    0.672314    11.00000    0.02429    0.02219 =
         0.02485   -0.00555   -0.00608    0.00522
C13   1    0.154107    0.375529    0.531377    11.00000    0.01914    0.02172 =
         0.02183    0.00113    0.00410   -0.00037
C14   1    0.502119    0.698237    0.615073    11.00000    0.03162    0.01784 =
         0.02318    0.00196   -0.00715   -0.00655
AFIX  43
H4    2    0.578969    0.716622    0.595955    11.00000   -1.20000
AFIX   0
C15   1   -0.044105    0.302629    0.530975    11.00000    0.01551    0.02950 =
         0.03150   -0.00623   -0.00315    0.00085
AFIX  43
H5    2   -0.118894    0.279547    0.499128    11.00000   -1.20000
AFIX   0
C16   1    0.047035    0.344004    0.482958    11.00000    0.02127    0.03059 =
         0.02274   -0.00182   -0.00366   -0.00018
AFIX  43
H6    2    0.036092    0.350417    0.418878    11.00000   -1.20000
AFIX   0
C17   1   -0.029192    0.293977    0.624218    11.00000    0.01524    0.02994 =
         0.03422   -0.00457    0.00837   -0.00077
AFIX  43
H7    2   -0.093218    0.265131    0.655759    11.00000   -1.20000
AFIX   0
C18   1    0.174008    0.048594    0.759189    11.00000    0.02787    0.03033 =
         0.02333    0.00433    0.00458   -0.00396
AFIX 137
H8    2    0.244051    0.092849    0.786300    11.00000   -1.50000
H9    2    0.176157   -0.030242    0.784626    11.00000   -1.50000
H10   2    0.099258    0.087643    0.772302    11.00000   -1.50000
AFIX   0
C19   1    0.421644    0.785432    0.631491    11.00000    0.04712    0.01426 =
         0.02897    0.00006   -0.01446   -0.00336
AFIX  43
H11   2    0.443629    0.864350    0.622974    11.00000   -1.20000
AFIX   0
C20   1    0.309647    0.760595    0.660077    11.00000    0.04029    0.01642 =
         0.03157   -0.00516   -0.01183    0.01047
AFIX  43
H12   2    0.254548    0.821102    0.670909    11.00000   -1.20000
AFIX   0
C21   1    0.074397   -0.015451    0.610712    11.00000    0.02259    0.03419 =
         0.03204    0.00267   -0.00375   -0.00955
AFIX 137
H13   2    0.010163    0.041817    0.595075    11.00000   -1.50000
H14   2    0.043968   -0.077009    0.648105    11.00000   -1.50000
H15   2    0.099678   -0.049639    0.555192    11.00000   -1.50000
AFIX   0
H16   2    0.170594    0.344155    0.786365    11.00000    0.05418

HKLF 4

REM  cyclemono_a.res
REM R1 =  0.0424 for    3592 Fo > 4sig(Fo)  and  0.0687 for all    4917 data
REM    277 parameters refined using      0 restraints

END

WGHT      0.0464      1.6953

REM Highest difference peak  1.017,  deepest hole -0.378,  1-sigma level  0.068
Q1    1   0.3008  0.4075  0.5833  11.00000  0.05    1.02
;
_shelx_res_checksum              47101
_shelx_hkl_file
;
   1   0   0  925.91   18.20
   2   0   0  288.97    6.40
  -2   0   0  289.97    6.40
   2   0   0  306.87    6.30
   3   0   0  135.49    3.60
  -3   0   0  134.09    3.80
   3   0   0  132.49    3.80
  -4   0   0  136.19    4.10
   4   0   0  134.59    4.10
   4   0   0  135.59    3.90
   5   0   0  614.74   13.60
   5   0   0  615.44   13.30
  -5   0   0  610.44   13.50
  -6   0   0   98.79    3.60
   6   0   0   87.69    3.90
   6   0   0   88.19    3.50
   7   0   0   58.19    3.50
   7   0   0   60.69    3.10
  -7   0   0   70.99    3.20
   8   0   0  562.74   13.30
   8   0   0  553.54   13.70
  -8   0   0  576.44   13.60
   9   0   0   14.00    2.30
   9   0   0   15.40    2.30
  -9   0   0   19.80    2.70
  10   0   0  227.98    7.30
 -10   0   0  234.28    7.80
  10   0   0  242.68    8.00
  11   0   0  156.18    6.40
  11   0   0  177.98    7.00
 -11   0   0  168.18    6.80
 -12   0   0   32.20    3.50
  12   0   0   37.20    3.90
  13   0   0    2.40    2.30
  14   0   0   32.80    4.20
   1  -1   0  597.34   11.80
  -1  -1   0  605.44   12.00
   1   1   0  587.04   11.80
  -1   1   0  588.44   11.80
   1   1   0  598.24   12.00
   1   1   0  590.84   11.90
   2  -1   0  262.77    5.60
  -2  -1   0  274.47    6.10
   2  -1   0  271.67    5.90
   2   1   0  275.77    5.90
   2   1   0  273.27    6.10
   2   1   0  266.57    6.00
  -2   1   0  277.57    6.00
   3  -1   0  125.19    3.60
   3  -1   0  130.39    3.20
  -3  -1   0  127.09    3.80
   3   1   0  131.29    3.70
  -3   1   0  128.89    3.60
   3   1   0  122.39    3.70
   3   1   0  126.19    3.40
  -4  -1   0  121.49    3.80
   4  -1   0  118.09    3.90
   4  -1   0  130.59    3.50
   4   1   0  127.49    3.80
  -4   1   0  128.39    3.70
   4   1   0  123.49    3.90
   5  -1   0   12.10    1.50
  -5  -1   0   12.80    1.90
   5  -1   0   15.50    1.40
  -5   1   0   11.70    1.60
   5   1   0   14.80    1.60
   5   1   0   12.60    1.60
   6  -1   0  104.79    3.60
   6  -1   0   99.99    4.10
  -6  -1   0  107.99    4.20
   6   1   0  105.19    3.80
  -6   1   0  108.89    4.00
   6   1   0  109.89    4.20
   7  -1   0   16.80    1.80
   7  -1   0   14.40    2.30
  -7  -1   0   18.00    2.30
   7   1   0   16.80    1.90
   7   1   0   15.20    2.00
  -7   1   0   14.30    1.80
   8  -1   0    3.90    1.50
   8  -1   0    5.00    1.60
  -8  -1   0    3.80    1.90
  -8   1   0    0.20    1.70
   8   1   0    1.30    1.30
   8   1   0    3.60    1.60
  -9  -1   0  100.49    4.90
   9  -1   0   94.79    4.20
   9  -1   0  106.99    4.80
   9   1   0  101.99    4.40
   9   1   0  102.89    5.10
  -9   1   0  103.99    4.70
 -10  -1   0    1.90    2.20
  10  -1   0    2.30    1.80
  10   1   0    5.40    2.50
 -10   1   0    3.10    1.70
  10   1   0    3.50    2.00
  11  -1   0   80.89    4.80
 -11  -1   0   87.09    5.10
 -11   1   0   81.19    4.40
  11   1   0   83.29    5.40
  11   1   0   74.19    4.70
 -12  -1   0    1.70    2.50
  12  -1   0    1.70    2.10
  12   1   0    2.40    2.30
 -12   1   0    1.50    2.30
  12   1   0    4.40    2.50
  13  -1   0   19.20    3.90
  13   1   0   27.20    3.80
  14  -1   0   -1.10    3.10
  14   1   0    7.00    2.90
   0   2   0    9.80    1.20
   0   2   0   12.10    1.00
   1  -2   0    0.50    0.60
   1   2   0    0.50    1.00
   1   2   0    0.50    0.80
   1   2   0    0.10    0.80
  -1   2   0    1.00    1.00
   2  -2   0 1100.19   21.90
  -2  -2   0 1108.59   22.20
   2   2   0 1110.99   22.00
   2   2   0 1090.89   22.10
   2   2   0 1102.49   21.90
  -2   2   0 1098.49   21.90
   3  -2   0  230.28    4.90
   3  -2   0  229.68    5.50
  -3  -2   0  221.18    5.70
   3   2   0  222.58    5.40
   3   2   0  225.38    5.50
  -3   2   0  221.78    5.50
   3   2   0  224.88    5.80
   4  -2   0   78.29    2.80
   4  -2   0   73.19    2.30
  -4  -2   0   79.69    3.00
   4   2   0   73.99    2.80
   4   2   0   72.49    2.70
   4   2   0   77.09    3.20
  -4   2   0   72.59    2.60
   5  -2   0   -0.60    0.90
  -5  -2   0   -2.00    1.50
   5  -2   0    0.10    0.70
   5   2   0   -0.20    1.30
  -5   2   0   -0.60    1.20
   5   2   0    0.30    1.00
  -6  -2   0    3.70    1.40
   6  -2   0    4.50    1.10
   6  -2   0    4.00    1.30
  -6   2   0    4.20    1.50
   6   2   0    4.50    1.70
   6   2   0    5.80    1.40
  -7  -2   0   33.30    3.00
   7  -2   0   32.60    2.80
   7  -2   0   36.00    2.30
   7   2   0   39.00    3.00
   7   2   0   34.10    2.60
  -7   2   0   34.50    2.70
   8  -2   0    8.10    2.20
   8  -2   0    6.20    1.50
  -8  -2   0    2.50    2.10
   8   2   0    5.20    2.00
   8   2   0    3.90    2.00
  -8   2   0    3.90    1.80
   9  -2   0    4.00    1.70
  -9  -2   0    6.80    2.50
  -9   2   0    3.10    1.90
   9   2   0    1.70    2.10
   9   2   0    1.70    1.70
  10  -2   0    1.10    1.70
 -10  -2   0   -0.20    2.20
  10   2   0    4.90    2.00
  10   2   0    3.60    2.20
 -10   2   0   -0.70    2.00
  11  -2   0   13.80    3.10
 -11  -2   0   16.10    2.60
  11   2   0   17.70    3.10
 -11   2   0   11.70    2.60
  11   2   0   16.40    3.40
  12  -2   0   15.00    3.50
 -12  -2   0   14.50    3.20
  12   2   0    8.20    2.80
  12   2   0    8.20    3.20
 -13  -2   0   16.70    3.50
  13  -2   0   16.30    3.80
  13   2   0   16.40    3.20
  13   2   0   13.10    2.80
  14  -2   0   22.70    4.20
  14   2   0   21.80    3.70
   0   3   0   -1.10    1.10
   0   3   0   -0.60    0.60
   0   3   0   -0.30    0.80
   1  -3   0 3862.71   75.19
   1   3   0 3795.02   74.79
  -1   3   0 3778.22   75.09
   1   3   0 3774.72   74.29
   1   3   0 3761.32   74.09
  -1   3   0 3717.73   74.39
  -1   3   0 3773.02   74.09
   2  -3   0  112.89    3.10
  -2  -3   0  122.09    3.60
   2   3   0  117.49    3.50
  -2   3   0  112.79    3.30
   2   3   0  112.59    3.20
   2   3   0  117.69    3.40
  -3  -3   0 1364.76   28.10
   3  -3   0 1391.46   27.60
   3   3   0 1354.46   27.60
   3   3   0 1391.46   28.00
  -3   3   0 1385.46   27.70
   3   3   0 1385.96   27.80
   4  -3   0 1005.90   19.70
  -4  -3   0 1003.30   21.10
   4  -3   0  993.80   20.60
   4   3   0 1009.00   20.70
  -4   3   0  986.60   20.60
   4   3   0  999.10   21.00
   4   3   0  991.90   20.70
   5  -3   0    5.30    1.50
  -5  -3   0    7.70    1.90
   5  -3   0    5.20    0.90
  -5   3   0    6.00    1.50
   5   3   0    6.30    1.40
   5   3   0    4.60    1.50
   5   3   0    5.70    1.60
   6  -3   0   11.10    1.90
   6  -3   0   11.40    1.20
  -6  -3   0   10.50    2.20
  -6   3   0   12.10    1.80
   6   3   0   13.10    1.90
   6   3   0   13.50    2.00
   6   3   0   10.50    1.80
   7  -3   0    4.00    1.30
   7  -3   0    4.50    1.40
  -7  -3   0    5.10    1.70
   7   3   0    3.70    1.40
  -7   3   0    3.10    1.60
   7   3   0    6.40    2.00
   8  -3   0  205.48    6.70
  -8  -3   0  200.78    6.90
  -8   3   0  192.08    6.20
   8   3   0  185.58    6.60
   8   3   0  182.18    6.40
  -9  -3   0   12.60    2.80
   9  -3   0   11.70    2.10
   9   3   0   12.00    2.20
   9   3   0    6.20    1.90
  -9   3   0   12.70    2.30
  10  -3   0   33.00    3.60
 -10  -3   0   31.60    3.70
 -10   3   0   32.10    3.20
  10   3   0   28.80    3.20
  10   3   0   26.50    3.50
 -11  -3   0    8.30    3.00
  11  -3   0   19.60    3.30
  11   3   0    9.50    2.40
  11   3   0   13.00    2.70
 -11   3   0   14.50    2.80
  12  -3   0   -3.20    2.40
 -12  -3   0    0.40    2.60
  12   3   0   -1.80    1.70
  12   3   0   -1.70    2.70
 -13  -3   0   44.80    4.30
  13  -3   0   46.50    4.50
  13   3   0   40.50    4.20
  13   3   0   39.70    4.80
  14  -3   0    3.50    3.20
  14   3   0    3.40    2.60
  14   3   0    2.90    3.00
   0  -4   0 2342.57   45.80
   0   4   0 2328.07   46.00
   0   4   0 2386.46   46.10
   0   4   0 2364.06   46.40
   1  -4   0   19.70    1.30
  -1   4   0   20.20    1.80
   1   4   0   21.90    1.90
   1   4   0   24.00    1.80
  -1   4   0   17.50    1.20
  -1   4   0   19.50    1.30
   1   4   0   18.90    1.20
  -2  -4   0 1187.68   24.50
   2  -4   0 1166.98   23.70
   2  -4   0 1170.48   23.20
   2   4   0 1194.08   24.20
  -2   4   0 1195.68   24.10
  -2   4   0 1193.38   23.10
   2   4   0 1189.78   24.30
   2   4   0 1195.18   23.70
   3  -4   0   17.10    1.50
  -3  -4   0   15.50    2.10
   3   4   0   17.30    1.70
   3   4   0   15.70    1.70
  -3   4   0   18.30    1.60
   3   4   0   15.70    1.50
  -4  -4   0   85.79    3.60
   4  -4   0   88.39    3.20
   4   4   0   81.89    3.70
   4   4   0   87.99    3.30
   4   4   0   86.49    3.30
  -4   4   0   93.99    3.40
   5  -4   0  212.38    6.10
  -5  -4   0  227.78    6.90
   5  -4   0  225.78    5.00
   5   4   0  229.38    6.30
   5   4   0  229.48    6.50
  -5   4   0  224.38    6.20
   5   4   0  235.98    6.80
  -6  -4   0  112.29    4.80
   6  -4   0  104.69    4.10
   6   4   0  105.09    4.00
   6   4   0  108.39    4.30
  -6   4   0  105.29    4.10
   6   4   0   99.79    4.30
   7  -4   0   45.30    3.10
  -7  -4   0   48.80    3.70
   7   4   0   40.90    3.20
   7   4   0   46.60    3.20
   7   4   0   45.00    3.10
  -7   4   0   45.90    3.00
  -8  -4   0    8.70    2.60
   8  -4   0    8.30    2.20
   8   4   0    6.10    2.20
   8   4   0    5.90    1.90
  -8   4   0    4.70    1.90
   9  -4   0   28.50    3.20
  -9  -4   0   26.90    3.10
  -9   4   0   30.80    3.00
   9   4   0   25.10    3.20
   9   4   0   24.30    3.30
  10  -4   0   11.70    2.80
 -10  -4   0   10.90    2.50
 -10   4   0   15.40    2.60
  10   4   0   12.00    3.10
  10   4   0   13.20    2.50
  11  -4   0    3.90    2.10
 -11  -4   0    8.10    3.00
  11   4   0    6.50    2.90
 -11   4   0   12.30    2.90
  11   4   0    4.70    2.80
  12  -4   0    2.70    2.70
 -12  -4   0    6.90    2.40
  12   4   0    4.80    2.90
  12   4   0    9.60    2.70
 -13  -4   0    0.50    2.30
  13  -4   0   10.90    3.40
  13   4   0    3.80    3.20
  13   4   0    1.30    3.00
  14  -4   0   35.00    4.70
  14   4   0   38.90    4.90
  14   4   0   40.30    5.10
   0  -5   0    0.40    0.80
   0   5   0   -1.40    0.80
   0   5   0   -0.90    0.70
   0   5   0   -0.20    1.30
   1  -5   0   16.50    1.30
   1   5   0   13.00    1.60
  -1   5   0   16.80    1.90
   1   5   0   15.10    1.60
  -1   5   0   16.60    1.20
   1   5   0   15.40    1.30
  -1   5   0   13.30    1.20
   2  -5   0    0.20    0.70
   2  -5   0   -0.30    0.80
  -2   5   0    0.30    0.60
   2   5   0    0.00    1.00
   2   5   0    0.00    1.00
   2   5   0   -0.40    1.30
  -2   5   0    0.40    1.00
  -3  -5   0  543.15   12.80
   3  -5   0  545.05   11.90
   3   5   0  557.54   12.80
   3   5   0  561.74   12.60
  -3   5   0  549.35   12.40
   3   5   0  560.74   12.00
   4  -5   0  222.28    5.90
  -4  -5   0  237.38    6.80
   4   5   0  226.58    6.60
  -4   5   0  226.98    6.30
   4   5   0  227.78    6.40
   4   5   0  235.48    6.10
  -5  -5   0   23.30    2.50
   5  -5   0   26.50    2.20
   5   5   0   30.60    2.30
   5   5   0   31.60    2.70
  -5   5   0   30.10    2.50
   5   5   0   27.90    2.30
   6  -5   0   38.30    2.80
  -6  -5   0   42.70    3.10
  -6   5   0   42.10    2.90
   6   5   0   40.20    2.90
   6   5   0   37.30    2.60
   6   5   0   40.70    2.90
   7  -5   0    3.30    1.70
  -7  -5   0    0.50    1.70
   7   5   0    2.40    1.60
   7   5   0    0.40    1.30
  -7   5   0    1.10    1.60
   7   5   0    1.80    1.30
  -8  -5   0   53.99    4.40
   8  -5   0   58.09    3.80
   8   5   0   44.90    3.70
   8   5   0   57.89    3.80
  -8   5   0   51.19    3.50
   8   5   0   50.79    3.70
  -9  -5   0    0.60    1.90
   9  -5   0    2.60    2.10
   9   5   0    2.50    2.50
   9   5   0   -1.30    2.10
  -9   5   0    0.30    1.80
 -10  -5   0   21.90    3.10
  10  -5   0   22.20    3.20
  10   5   0   20.50    2.90
  10   5   0   16.70    2.90
 -10   5   0   16.00    2.70
  11  -5   0    7.80    2.80
 -11  -5   0    4.40    3.00
  11   5   0    9.30    2.60
  11   5   0   12.30    2.70
 -12  -5   0    4.20    3.10
  12  -5   0    5.00    2.30
  12   5   0    5.90    3.00
  12   5   0    3.10    2.20
 -13  -5   0    2.00    3.00
  13  -5   0    0.60    2.80
  13   5   0    4.10    2.40
  13   5   0    1.10    2.30
  14  -5   0    1.40    3.00
  14   5   0    2.70    3.30
  14   5   0   -2.60    2.20
   0  -6   0   43.10    1.90
   0   6   0   42.50    2.80
   0   6   0   39.70    1.80
   0   6   0   43.70    2.20
   1  -6   0   61.59    2.30
  -1   6   0   66.39    2.30
  -1   6   0   63.19    3.20
   1   6   0   63.09    2.30
   1   6   0   60.59    2.80
  -1   6   0   66.19    2.40
   1   6   0   64.49    3.30
   2  -6   0 1379.46   27.70
  -2   6   0 1372.46   27.40
   2   6   0 1376.26   28.70
   2   6   0 1393.86   27.80
   2   6   0 1396.56   28.60
  -2   6   0 1392.06   28.60
   3  -6   0   93.39    3.10
  -3  -6   0   91.59    4.00
  -3   6   0   89.09    3.50
   3   6   0   93.29    3.20
   3   6   0   93.99    3.80
   3   6   0   87.49    3.70
   4  -6   0  248.38    6.50
  -4  -6   0  259.77    7.80
   4   6   0  264.37    7.50
   4   6   0  257.77    7.60
  -4   6   0  257.07    7.00
   4   6   0  256.57    6.70
  -5  -6   0  129.39    5.50
   5  -6   0  133.69    4.40
   5   6   0  126.09    5.00
  -5   6   0  142.09    4.90
   5   6   0  127.39    5.00
   5   6   0  134.79    4.60
  -6  -6   0   26.90    3.30
   6  -6   0   28.70    2.50
   6   6   0   26.50    2.70
   6   6   0   29.40    2.70
   6   6   0   25.20    2.80
  -6   6   0   24.30    2.60
  -7  -6   0  166.38    6.70
   7  -6   0  159.68    5.60
   7   6   0  161.68    6.50
   7   6   0  160.28    6.10
  -7   6   0  161.68    5.70
   7   6   0  155.78    5.80
   8  -6   0   14.70    2.50
  -8  -6   0   12.40    3.10
   8   6   0   13.80    2.30
  -8   6   0   16.30    2.50
   8   6   0   14.60    2.50
   8   6   0   14.70    2.20
   9  -6   0    7.10    2.30
  -9  -6   0   10.10    2.60
   9   6   0   11.90    2.70
  -9   6   0    9.00    2.30
   9   6   0    6.90    2.10
   9   6   0    5.20    2.20
  10  -6   0   16.10    2.60
 -10  -6   0   22.70    3.80
  10   6   0   17.90    3.10
  10   6   0   17.70    3.10
 -10   6   0   13.60    2.70
 -11  -6   0   30.90    4.30
  11  -6   0   23.20    3.50
  11   6   0   22.70    4.00
  11   6   0   29.10    3.50
  12  -6   0    5.70    2.90
 -12  -6   0    6.00    3.40
  12   6   0    6.50    3.30
  12   6   0   10.10    3.20
 -13  -6   0    5.60    3.50
  13  -6   0    2.40    2.80
  13   6   0    4.10    3.20
  13   6   0    6.70    3.60
   0  -7   0    1.60    1.00
   0   7   0    1.50    1.20
   0   7   0   -0.60    0.80
   0   7   0    0.10    1.20
   1  -7   0  180.78    4.60
   1   7   0  180.58    5.40
   1   7   0  175.58    4.60
   1   7   0  183.08    5.80
  -1   7   0  174.78    5.50
  -1   7   0  173.38    4.80
   2  -7   0  299.77    7.00
   2   7   0  293.47    7.90
   2   7   0  302.57    8.10
  -2   7   0  287.07    6.70
   2   7   0  296.87    7.10
  -2   7   0  298.97    8.10
  -3  -7   0  365.16    9.90
   3  -7   0  352.86    8.30
   3   7   0  362.96    8.50
   3   7   0  358.16    9.60
   3   7   0  355.66    9.50
  -3   7   0  357.46    9.30
   4  -7   0  472.55   10.70
  -4  -7   0  448.16   12.10
   4   7   0  469.65   11.80
  -4   7   0  466.65   11.40
   4   7   0  466.15   10.90
   4   7   0  468.95   11.80
  -5  -7   0    7.10    2.60
   5  -7   0    9.80    1.60
  -5   7   0   11.70    2.20
   5   7   0    8.70    2.30
   5   7   0    8.00    1.70
   5   7   0   10.80    2.40
  -6  -7   0   -0.70    2.30
   6  -7   0    3.00    1.50
   6   7   0   -2.20    1.90
  -6   7   0   -0.10    1.80
   6   7   0    1.00    2.20
   6   7   0    2.40    1.60
   7  -7   0   38.90    3.00
  -7  -7   0   27.20    3.20
   7   7   0   34.80    3.70
   7   7   0   32.50    3.10
   7   7   0   31.00    3.00
  -7   7   0   36.90    2.80
  -8  -7   0   33.20    4.00
   8  -7   0   28.50    3.00
   8   7   0   33.60    3.60
   8   7   0   31.80    3.30
  -8   7   0   32.50    3.20
   8   7   0   31.00    3.40
   9  -7   0   20.60    2.90
  -9  -7   0   26.20    4.00
  -9   7   0   19.10    2.60
   9   7   0   29.20    3.50
   9   7   0   16.80    3.10
   9   7   0   22.10    2.80
 -10  -7   0   16.10    3.20
  10  -7   0   17.40    2.90
  10   7   0   19.30    3.30
  10   7   0   19.90    3.20
  11  -7   0   -0.20    2.70
 -11  -7   0    1.90    2.40
  11   7   0    3.80    3.10
  11   7   0   -0.50    2.50
 -12  -7   0    7.10    3.50
  12   7   0    5.30    2.40
  12   7   0   -0.40    2.20
 -13  -7   0   -3.30    3.10
  13   7   0    2.70    2.60
  13   7   0   -0.40    2.90
   0   8   0   12.70    1.70
   0   8   0   11.00    1.90
  -1   8   0    3.10    1.40
  -1   8   0    5.40    1.30
   1   8   0    1.60    1.50
   1   8   0    1.30    1.40
   1   8   0    3.80    1.10
   2   8   0   23.00    1.90
  -2   8   0   26.90    2.80
   2   8   0   26.80    2.60
   2   8   0   31.50    2.70
  -3  -8   0   63.99    3.80
   3   8   0   54.29    3.20
   3   8   0   56.79    3.40
   3   8   0   56.59    2.80
  -3   8   0   54.09    3.60
  -4  -8   0   -0.70    1.50
  -4   8   0   -1.40    1.70
   4   8   0   -2.00    1.70
   4   8   0    1.00    1.40
   4   8   0    0.30    1.40
  -5  -8   0   -1.20    1.70
   5   8   0    1.00    1.50
   5   8   0    1.90    1.50
  -5   8   0    2.00    1.90
   5   8   0    0.00    1.50
  -6  -8   0   29.60    3.70
   6   8   0   26.10    3.40
   6   8   0   25.20    3.20
  -6   8   0   21.20    2.90
   6   8   0   28.80    2.80
  -7  -8   0   74.59    4.90
   7   8   0   71.99    4.10
   7   8   0   83.79    5.30
   7   8   0   76.49    4.40
  -7   8   0   78.19    4.10
  -8  -8   0   50.39    5.00
   8   8   0   51.69    4.50
  -8   8   0   52.99    4.10
   8   8   0   62.69    4.00
   8   8   0   56.89    4.30
  -9  -8   0   -0.10    3.00
   9   8   0   -0.30    2.10
   9   8   0   -2.00    2.40
  -9   8   0    1.50    2.20
   9   8   0   -0.80    1.90
 -10  -8   0   -1.30    2.20
  10   8   0    0.10    2.00
  10   8   0    1.20    2.90
  10   8   0    0.20    1.70
 -11  -8   0    4.10    2.70
  11   8   0   -0.70    2.20
  11   8   0    2.00    2.60
 -12  -8   0    2.90    2.80
  12   8   0    3.60    2.80
  12   8   0   -0.10    2.30
   0   9   0   -1.40    1.30
   0   9   0    1.30    1.50
   1   9   0  243.08    7.10
   1   9   0  248.88    7.60
  -1   9   0  247.78    7.80
   2   9   0   65.39    4.10
  -2   9   0   62.99    3.60
   2   9   0   59.69    3.30
  -3  -9   0  205.48    7.40
  -3   9   0  217.98    7.20
   3   9   0  199.28    6.90
   3   9   0  213.58    7.10
  -4  -9   0  147.29    6.20
  -4   9   0  139.59    5.80
   4   9   0  143.79    5.70
   4   9   0  144.29    5.90
  -5  -9   0  134.49    6.70
   5   9   0  140.39    5.80
  -5   9   0  141.79    5.80
   5   9   0  139.09    6.10
  -6  -9   0  321.97   10.30
   6   9   0  321.27    9.90
   6   9   0  309.67    9.60
  -6   9   0  311.37    9.20
  -7  -9   0   28.90    3.80
   7   9   0   26.90    3.20
   7   9   0   32.30    3.60
  -7   9   0   30.90    3.50
  -8  -9   0    1.30    3.30
   8   9   0   -4.40    2.50
  -8   9   0    1.50    2.20
   8   9   0   -1.50    1.90
  -9  -9   0   53.99    5.40
   9   9   0   42.50    4.40
   9   9   0   46.70    4.70
 -10  -9   0   -1.80    2.40
  10   9   0   -0.60    2.10
  10   9   0    1.00    3.20
 -11  -9   0   -0.10    2.50
  11   9   0   -0.50    2.20
 -12  -9   0   10.80    3.20
   0  10   0  293.47    8.90
  -1  10   0   48.20    4.00
   1  10   0   41.80    3.10
   1  10   0   50.09    4.00
   2  10   0    1.90    1.70
  -2  10   0    0.10    2.10
   2  10   0    5.40    2.00
  -3 -10   0   39.00    4.10
   3  10   0   32.60    3.30
  -3  10   0   35.50    3.60
   3  10   0   37.70    3.80
  -4 -10   0   75.89    4.80
   4  10   0   86.49    4.80
  -4  10   0   73.39    4.70
   4  10   0   83.29    4.60
  -5 -10   0   83.99    5.20
   5  10   0   80.59    5.10
  -5  10   0   79.49    4.80
   5  10   0   84.29    4.70
  -6 -10   0   24.40    4.10
  -6  10   0   27.80    3.40
   6  10   0   20.60    3.50
   6  10   0   19.50    3.30
  -7 -10   0   33.30    4.70
  -7  10   0   38.20    3.80
   7  10   0   37.50    4.20
   7  10   0   33.90    3.90
  -8 -10   0    2.20    2.70
  -8  10   0    1.50    2.30
   8  10   0    1.60    2.20
   8  10   0    2.10    2.10
  -9 -10   0    1.90    2.70
   9  10   0    1.40    2.30
   9  10   0    6.00    3.40
 -10 -10   0    4.60    3.60
  10  10   0   10.90    3.80
  10  10   0    1.80    3.00
 -11 -10   0   11.30    4.30
  11  10   0   12.40    3.40
   0  11   0    0.60    1.70
   1  11   0    4.00    2.00
  -1  11   0    3.90    1.90
   2  11   0   13.10    2.50
  -2  11   0   16.20    2.60
   2  11   0   12.50    3.00
  -3 -11   0   33.10    4.20
   3  11   0   26.40    3.60
   3  11   0   28.80    3.30
  -3  11   0   27.90    3.10
  -4 -11   0    4.70    2.50
  -4  11   0    1.60    2.40
   4  11   0    5.00    2.10
   4  11   0    3.00    2.40
  -5 -11   0   13.80    3.00
   5  11   0    8.80    2.40
   5  11   0   11.60    2.60
  -5  11   0    8.50    2.80
  -6 -11   0   48.70    5.50
  -6  11   0   45.10    4.30
   6  11   0   45.60    4.60
   6  11   0   44.80    4.60
  -7 -11   0   -2.20    3.40
  -7  11   0   -0.10    1.70
   7  11   0   -3.70    2.60
   7  11   0    1.20    2.80
  -8 -11   0    1.80    3.90
   8  11   0    0.30    2.80
   8  11   0   -1.60    2.90
  -9 -11   0    9.50    4.20
   9  11   0    1.30    3.30
   9  11   0   -0.10    3.20
 -10 -11   0    7.50    4.20
  10  11   0   -0.40    2.40
  10  11   0   -1.10    3.20
   0  12   0   43.10    4.00
   1  12   0   22.00    3.10
  -1  12   0   22.10    3.10
  -2 -12   0   54.29    4.90
   2  12   0   55.69    4.30
  -2  12   0   52.09    4.60
  -3 -12   0  135.69    6.80
   3  12   0  137.59    6.40
  -3  12   0  141.09    6.60
  -4 -12   0   46.90    4.70
  -4  12   0   45.40    4.00
   4  12   0   45.30    4.30
   4  12   0   45.20    4.30
  -5 -12   0  158.68    8.40
   5  12   0  175.48    7.80
  -5  12   0  168.08    7.30
  -6 -12   0   77.69    6.80
   6  12   0   65.19    5.70
   6  12   0   78.89    5.20
  -6  12   0   75.79    5.30
  -7 -12   0    1.20    3.70
   7  12   0    2.30    3.10
  -7  12   0    8.00    2.90
   7  12   0    5.40    3.20
  -8 -12   0    0.00    3.90
   8  12   0    4.00    3.20
   8  12   0    0.80    3.10
  -9 -12   0   14.30    4.70
   9  12   0   22.70    4.50
   9  12   0   16.60    4.10
   0  13   0    5.40    2.30
  -1  13   0  131.79    6.80
   1  13   0  129.69    6.30
  -2 -13   0   69.89    6.20
   2  13   0   77.59    5.70
  -2  13   0   75.99    5.50
  -3 -13   0    3.30    3.50
  -3  13   0    3.80    2.10
   3  13   0    2.50    3.00
  -4 -13   0   65.49    6.40
   4  13   0   81.59    6.00
  -4  13   0   86.49    5.70
  -5 -13   0   52.79    6.00
   5  13   0   44.30    4.30
  -5  13   0   52.29    4.80
   5  13   0   62.09    5.60
  -6 -13   0   28.00    5.10
  -6  13   0   24.90    3.50
   6  13   0   28.70    4.30
   6  13   0   34.50    4.70
  -7 -13   0    1.30    3.90
   7  13   0   -1.70    3.00
   7  13   0    1.10    2.30
   8  13   0   -0.10    2.30
   0  14   0    4.70    2.40
  -1  14   0   17.10    3.80
   1  14   0   23.80    4.10
  -2 -14   0   29.70    5.00
   2  14   0   23.40    4.10
  -2  14   0   26.00    3.50
  -3 -14   0    5.80    3.80
   3  14   0    1.50    2.30
  -3  14   0    1.50    3.00
  -4 -14   0    6.00    3.30
   4  14   0   11.80    3.00
  -4  14   0   10.70    2.80
  -5 -14   0    0.50    2.90
  -5  14   0    5.10    2.50
   5  14   0    6.10    2.70
  -6  14   0    6.50    3.10
   0  15   0    4.00    2.60
  -1 -15   0   40.00    5.50
   1  15   0   56.59    5.60
  -1  15   0   46.30    5.20
  -2 -15   0   44.70    5.70
  -2  15   0   35.90    4.30
   2  15   0   50.89    5.40
   3  15   0   27.40    4.90
  -3  15   0   26.30    4.20
  -4  15   0   35.40    4.80
  14   0  -1   -6.80    2.60
  13   0  -1   -1.30    2.80
  12   0  -1   -0.30    2.60
 -11   0   1    1.10    2.10
  11   0  -1   -0.40    1.90
  11   0  -1   -1.60    2.40
  10   0  -1   -3.00    1.60
 -10   0   1   -1.40    1.90
  10   0  -1   -2.40    1.50
  -9   0   1   -0.90    1.60
   9   0  -1    2.70    1.80
   9   0  -1    0.60    1.60
  -8   0   1    0.30    1.60
   8   0  -1    1.30    1.50
   8   0  -1    0.00    1.30
   7   0  -1   -0.20    1.70
   7   0  -1   -0.50    1.30
  -7   0   1    2.80    1.60
   6   0  -1    0.50    1.10
   6   0  -1   -1.30    1.20
  -6   0   1   -0.90    1.20
   5   0  -1   -1.10    1.10
   5   0  -1    0.60    1.40
  -5   0   1   -1.30    1.10
   4   0  -1    0.30    1.10
   4   0  -1   -1.60    1.20
  -4   0   1   -0.70    1.00
   3   0  -1   -0.90    1.00
  -3   0   1   -0.40    1.00
   3   0  -1   -2.60    0.80
  -2   0   1   -1.40    0.70
   2   0  -1   -1.90    0.80
   2   0  -1   -1.80    0.70
   1   0  -1   -0.10    0.40
   1   0  -1    0.60    0.50
  -1   0  -1   -0.70    0.50
   1   0   1    0.70    0.50
   1   0   1    0.50    0.50
  -2   0  -1   -1.80    0.80
   2   0   1   -1.30    0.80
   2   0   1   -1.70    0.70
   3   0   1    0.00    0.90
   3   0   1   -0.90    0.80
  -3   0  -1   -1.30    1.20
   4   0   1   -1.40    1.00
  -4   0  -1   -0.70    1.00
   4   0   1   -0.60    0.90
  -5   0  -1   -0.90    1.40
   5   0   1   -0.50    1.10
   5   0   1   -0.40    1.00
  -6   0  -1   -2.60    1.50
   6   0   1    0.80    1.20
   6   0   1   -0.30    1.50
  -7   0  -1   -2.00    1.60
   7   0   1    2.20    1.30
   7   0   1    0.20    1.30
   8   0   1   -1.20    1.30
  -8   0  -1    0.60    1.80
   8   0   1   -1.90    1.70
   9   0   1    0.80    1.20
  -9   0  -1   -1.20    2.00
   9   0   1    1.70    2.10
 -10   0  -1   -0.70    2.10
  10   0   1    1.40    1.40
  10   0   1   -1.60    1.50
 -11   0  -1    1.40    1.80
  11   0   1   -1.50    1.70
 -12   0  -1   -0.20    2.40
  12   0   1   -0.80    2.00
  13   0   1    1.50    3.00
 -13   0  -1   -2.70    2.50
  14   0   1    4.30    3.40
  14  -1  -1    2.50    2.50
  14   1  -1    4.80    3.40
  13  -1  -1   70.09    5.80
  13   1  -1   63.29    5.70
 -12  -1   1   51.99    4.60
  12  -1  -1   44.80    4.70
  12   1  -1   55.79    4.40
  12   1  -1   43.00    4.60
  11  -1  -1    9.60    3.00
 -11  -1   1   12.20    2.70
 -11   1   1    6.30    2.30
  11   1  -1    8.70    3.00
  11   1  -1   12.90    2.30
  10  -1  -1    1.50    1.70
 -10  -1   1    5.40    2.30
  10  -1  -1    3.10    1.80
  10   1  -1    4.30    2.50
 -10   1   1    2.20    1.90
  10   1  -1    4.50    2.10
   9  -1  -1    0.10    1.50
   9  -1  -1    2.90    2.10
  -9  -1   1    2.20    1.90
  -9   1   1    0.20    1.70
   9   1  -1    1.40    2.10
   9   1  -1   -2.20    1.60
  -8  -1   1   41.10    3.20
   8  -1  -1   50.69    3.00
   8  -1  -1   55.89    3.70
   8   1  -1   49.60    3.60
  -8   1   1   49.60    3.20
   8   1  -1   48.90    3.00
  -7  -1   1   20.10    2.30
   7  -1  -1   19.70    2.00
   7  -1  -1   16.80    2.10
   7   1  -1   20.50    2.30
  -7   1   1   22.70    2.20
   7   1  -1   22.90    2.50
   6  -1  -1   -0.60    1.10
   6  -1  -1    1.70    1.10
  -6  -1   1    1.80    1.50
   6   1  -1   -1.90    1.40
  -6   1   1    0.10    1.20
   6   1  -1   -0.60    1.00
   5  -1  -1   18.30    1.40
  -5  -1   1   21.10    2.00
   5  -1  -1   21.00    1.80
   5   1  -1   20.80    1.80
  -5   1   1   20.10    1.80
   5   1  -1   16.60    1.90
   4  -1  -1  212.28    5.40
  -4  -1   1  205.38    5.40
   4  -1  -1  206.38    5.10
  -4   1   1  208.88    5.10
   4   1  -1  205.18    5.40
   4   1  -1  208.58    5.50
  -3  -1   1  237.78    5.70
   3  -1  -1  243.08    5.50
   3  -1  -1  244.58    5.90
   3   1  -1  236.98    5.80
  -3   1   1  242.68    5.50
   3   1  -1  236.48    5.80
   3   1  -1  251.87    5.60
   2  -1  -1    4.20    0.80
   2  -1  -1    2.40    0.80
  -2  -1   1    3.70    1.00
   2   1  -1    4.40    0.70
   2   1  -1    4.50    1.00
   2   1  -1    4.10    0.90
  -2   1   1    4.80    0.90
   1  -1  -1   25.00    1.10
   1  -1  -1   24.30    1.10
  -1   1   1   25.50    1.10
   1   1  -1   25.60    1.00
   1   1  -1   25.50    1.40
   1   1  -1   24.20    1.10
   0   1  -1  368.46    7.30
   0   1   1  356.36    7.30
   0   1   1  354.76    7.30
   1  -1   1  384.26    7.90
  -1  -1  -1  386.36    8.20
   1   1   1  388.76    8.10
  -1   1  -1  397.96    8.10
   1   1   1  391.06    8.10
   1   1   1  393.36    8.10
   2  -1   1  769.02   15.40
   2  -1   1  755.82   15.10
  -2  -1  -1  773.42   15.70
  -2   1  -1  778.22   15.60
   2   1   1  755.72   15.50
   2   1   1  760.52   15.50
   2   1   1  766.62   15.50
   3  -1   1   40.10    2.10
  -3  -1  -1   37.40    2.00
   3  -1   1   37.20    1.60
   3   1   1   33.80    2.10
   3   1   1   35.80    2.10
  -3   1  -1   37.10    2.20
   4  -1   1  357.46    7.80
   4  -1   1  352.36    8.30
  -4  -1  -1  353.06    8.40
   4   1   1  359.56    8.30
   4   1   1  355.36    8.30
  -4   1  -1  353.26    8.30
  -5  -1  -1  355.36    8.80
   5  -1   1  357.26    8.20
   5  -1   1  360.76    8.70
  -5   1  -1  362.56    8.80
   5   1   1  373.66    8.80
   5   1   1  360.66    8.80
  -6  -1  -1  290.77    7.70
   6  -1   1  282.47    7.00
   6  -1   1  275.37    7.50
  -6   1  -1  284.57    7.60
   6   1   1  295.97    7.80
   6   1   1  279.67    7.40
  -7  -1  -1  132.09    5.10
   7  -1   1  133.19    4.40
   7  -1   1  139.29    5.10
  -7   1  -1  137.09    4.80
   7   1   1  134.29    4.90
   7   1   1  128.79    4.80
   8  -1   1    5.30    1.50
   8  -1   1    1.20    1.90
  -8  -1  -1    3.80    1.60
  -8   1  -1    2.70    1.90
   8   1   1    4.30    1.60
   8   1   1    3.90    1.40
   9  -1   1  215.08    6.50
  -9  -1  -1  191.68    7.10
   9  -1   1  209.48    7.00
   9   1   1  203.18    7.20
  -9   1  -1  206.18    7.00
   9   1   1  198.28    6.60
 -10  -1  -1   72.49    4.80
  10  -1   1   78.09    4.40
 -10   1  -1   68.29    4.10
  10   1   1   75.69    4.00
  10   1   1   77.19    4.90
 -11  -1  -1   69.39    4.50
  11  -1   1   82.59    4.80
  11   1   1   85.89    4.90
 -11   1  -1   79.89    4.50
  11   1   1   80.59    4.80
  12  -1   1   38.70    4.10
 -12  -1  -1   43.90    4.40
 -12   1  -1   32.30    3.50
  12   1   1   40.00    4.10
  13  -1   1    2.10    2.30
 -13  -1  -1    0.60    2.70
  13   1   1    3.30    3.00
  14  -1   1   34.30    4.30
  14   1   1   35.20    5.00
  14  -2  -1   72.29    6.20
  14   2  -1   69.49    6.20
  13  -2  -1   15.20    3.20
  13   2  -1   18.50    3.10
  13   2  -1   17.60    3.90
 -12  -2   1  114.29    6.00
  12  -2  -1  107.39    6.40
  12   2  -1  114.39    6.10
  12   2  -1  118.79    6.60
  11  -2  -1   31.70    3.90
 -11  -2   1   34.40    3.70
  11   2  -1   23.50    3.40
  11   2  -1   26.10    3.30
  10  -2  -1   -1.00    1.60
 -10  -2   1    4.20    2.30
 -10   2   1   -0.60    1.70
  10   2  -1    3.50    1.90
  10   2  -1   -0.40    1.50
  -9  -2   1  210.88    7.10
   9  -2  -1  209.88    7.30
   9   2  -1  208.68    7.00
  -9   2   1  206.98    6.60
   9   2  -1  211.58    7.00
   8  -2  -1   46.10    3.10
  -8  -2   1   51.39    3.50
   8  -2  -1   55.19    2.80
   8   2  -1   45.20    3.10
   8   2  -1   47.10    3.50
  -8   2   1   46.10    3.00
  -7  -2   1   -1.00    1.60
   7  -2  -1   -0.10    1.00
   7  -2  -1    0.30    1.70
   7   2  -1    0.30    1.70
  -7   2   1    0.90    1.40
   7   2  -1    1.10    1.70
   6  -2  -1  129.09    3.90
   6  -2  -1  124.09    4.60
  -6  -2   1  130.39    4.70
  -6   2   1  126.79    4.20
   6   2  -1  140.09    4.60
   6   2  -1  138.19    4.70
   5  -2  -1  139.59    3.90
  -5  -2   1  146.59    4.70
   5  -2  -1  141.39    4.50
   5   2  -1  154.18    4.50
   5   2  -1  144.79    4.30
  -5   2   1  145.09    4.20
   5   2  -1  145.49    4.60
   4  -2  -1    5.40    1.40
  -4  -2   1    6.00    1.50
   4  -2  -1    6.30    0.90
   4   2  -1    5.80    1.20
   4   2  -1    4.40    1.30
  -4   2   1    8.60    1.30
   4   2  -1    7.70    1.30
   3  -2  -1   69.79    2.70
  -3  -2   1   69.19    2.80
   3  -2  -1   68.39    2.10
   3   2  -1   64.69    2.50
   3   2  -1   64.99    2.80
   3   2  -1   65.49    2.50
  -3   2   1   69.79    2.30
  -2  -2   1   74.89    2.40
   2  -2  -1   70.69    2.10
   2  -2  -1   75.49    2.40
   2   2  -1   70.39    2.70
   2   2  -1   67.79    2.20
  -2   2   1   73.19    2.20
   2   2  -1   70.89    2.30
   1  -2  -1  293.07    6.30
   1  -2  -1  300.87    6.50
   1   2  -1  300.97    6.50
  -1   2   1  298.27    6.30
   1   2  -1  295.77    6.50
  -1   2   1  302.07    6.40
  -1   2   1  293.87    6.20
   1   2  -1  293.67    6.10
   0   2   1    8.80    0.90
   0   2   1    6.40    1.00
   0   2  -1    9.60    1.00
   0   2   1    9.60    1.00
   0   2  -1   11.10    0.90
  -1  -2  -1    6.30    1.30
   1  -2   1    3.80    0.70
  -1   2  -1    3.00    1.20
   1   2   1    3.70    1.00
   1   2   1    3.10    1.10
   1   2   1    4.50    0.90
  -2  -2  -1  444.96    9.80
   2  -2   1  449.76    9.30
   2   2   1  445.26    9.60
  -2   2  -1  453.85    9.60
   2   2   1  438.86    9.70
   2   2   1  448.76    9.60
   3  -2   1 1111.99   21.60
   3  -2   1 1093.49   22.20
  -3  -2  -1 1121.09   22.70
   3   2   1 1105.39   22.50
  -3   2  -1 1121.79   22.50
   3   2   1 1109.39   22.40
   3   2   1 1087.69   22.60
   4  -2   1  243.78    5.40
  -4  -2  -1  235.48    6.50
   4  -2   1  247.78    6.10
  -4   2  -1  244.48    6.10
   4   2   1  244.08    6.20
   4   2   1  239.38    6.40
   4   2   1  231.28    6.10
   5  -2   1  314.37    7.20
   5  -2   1  316.77    8.00
  -5  -2  -1  324.47    8.40
   5   2   1  343.37    8.10
   5   2   1  318.37    8.10
  -5   2  -1  316.87    8.00
   6  -2   1    0.20    0.80
   6  -2   1    2.60    1.50
  -6  -2  -1    1.20    1.80
  -6   2  -1    1.30    1.10
   6   2   1    1.80    1.60
   6   2   1    0.90    1.50
   7  -2   1   18.70    1.70
   7  -2   1   15.00    1.90
  -7  -2  -1   15.50    2.50
   7   2   1   16.80    2.40
  -7   2  -1   15.30    2.20
   7   2   1   20.00    2.20
  -8  -2  -1  269.47    8.40
   8  -2   1  276.57    7.30
   8  -2   1  272.57    8.00
   8   2   1  275.57    8.20
   8   2   1  287.17    8.20
  -8   2  -1  277.17    8.10
   9  -2   1   18.70    2.50
  -9  -2  -1   15.60    2.80
   9   2   1   18.90    2.60
   9   2   1   15.80    2.40
  -9   2  -1   25.00    2.70
 -10  -2  -1  277.87    8.80
  10  -2   1  262.97    8.60
  10   2   1  266.47    8.50
  10   2   1  275.27    9.10
 -10   2  -1  279.27    8.70
  11  -2   1  168.88    6.90
  11   2   1  182.68    6.90
  11   2   1  163.28    7.30
 -11   2  -1  175.58    6.70
 -12  -2  -1   60.89    4.50
  12  -2   1   52.69    4.90
 -12   2  -1   53.19    4.60
  12   2   1   54.79    4.80
  12   2   1   51.99    4.00
  13  -2   1  118.49    6.80
 -13  -2  -1   95.59    6.30
  13   2   1  114.49    7.00
  14  -2   1    8.20    3.50
  14   2   1    9.10    3.70
  14  -3  -1   10.60    3.70
  14   3  -1   16.50    3.40
  14   3  -1   15.50    3.70
  13  -3  -1    4.60    3.20
  13   3  -1    3.80    2.90
  13   3  -1    3.20    2.50
  12  -3  -1   -1.60    1.90
 -12  -3   1    2.40    2.60
  12   3  -1   -0.60    1.80
  12   3  -1    2.00    2.20
 -11  -3   1   22.50    3.40
  11  -3  -1   22.20    3.60
  11   3  -1   23.40    3.10
  11   3  -1   27.10    3.70
  10  -3  -1   71.99    4.80
 -10  -3   1   70.99    4.70
 -10   3   1   74.49    4.10
  10   3  -1   71.49    4.90
  10   3  -1   78.49    4.90
   9  -3  -1  500.35   13.20
  -9  -3   1  519.55   13.30
   9   3  -1  499.45   13.00
  -9   3   1  509.55   12.50
   9   3  -1  516.95   13.40
  -8  -3   1    4.50    2.10
   8  -3  -1    2.00    1.50
  -8   3   1    3.80    1.60
   8   3  -1    4.60    1.70
   8   3  -1    4.80    2.10
   7  -3  -1    1.10    1.10
   7  -3  -1    0.00    1.60
  -7  -3   1    5.80    2.10
   7   3  -1    2.00    1.80
   7   3  -1    2.10    1.70
  -7   3   1    2.40    1.40
   6  -3  -1   18.70    2.00
   6  -3  -1   20.90    1.60
  -6  -3   1   25.40    2.60
   6   3  -1   16.60    2.10
  -6   3   1   18.30    1.90
   6   3  -1   19.30    2.40
   6   3  -1   17.00    2.00
   5  -3  -1   20.50    1.40
  -5  -3   1   19.80    2.20
   5  -3  -1   19.50    2.00
   5   3  -1   22.60    2.40
   5   3  -1   23.60    2.10
   5   3  -1   19.00    1.90
  -5   3   1   19.80    1.80
   4  -3  -1   19.80    1.20
   4  -3  -1   19.00    1.90
  -4  -3   1   19.40    1.80
   4   3  -1   19.10    1.80
   4   3  -1   15.30    1.70
   4   3  -1   20.10    1.80
  -4   3   1   19.70    1.60
   3  -3  -1    7.00    0.90
  -3  -3   1    6.80    1.30
   3  -3  -1    5.30    1.00
   3   3  -1    7.40    1.20
   3   3  -1    4.70    1.20
   3   3  -1    7.30    1.40
  -3   3   1    5.60    1.20
   2  -3  -1 1226.78   24.00
   2  -3  -1 1208.88   24.40
   2   3  -1 1220.58   24.60
  -2   3   1 1226.38   24.30
   2   3  -1 1224.38   24.60
  -2   3   1 1232.48   23.90
   2   3  -1 1206.28   24.10
   1  -3  -1 3153.28   60.99
   1  -3  -1 2939.21   59.39
  -1   3   1 3079.19   59.19
   1   3  -1 2996.80   59.49
   1   3  -1 3019.00   58.89
  -1   3   1 2967.70   58.69
   1   3  -1 2997.50   59.79
  -1   3   1 3008.30   59.19
   0   3  -1  485.25   10.30
   0   3   1  479.45   10.00
   0   3   1  470.75   10.10
   0   3  -1  481.75    9.90
   0   3   1  481.85   10.20
   1  -3   1   69.69    1.90
  -1  -3  -1   72.69    2.90
   1   3   1   73.89    2.50
   1   3   1   70.19    2.50
  -1   3  -1   74.69    2.50
   1   3   1   74.19    2.40
   2  -3   1  327.17    7.00
  -2  -3  -1  326.47    7.70
   2   3   1  330.77    7.40
   2   3   1  325.47    7.60
   2   3   1  316.77    7.50
  -2   3  -1  322.27    7.50
  -3  -3  -1   63.89    3.10
   3  -3   1   60.39    2.30
  -3   3  -1   58.99    2.70
   3   3   1   59.29    2.60
   3   3   1   61.19    2.40
   3   3   1   61.09    2.70
   4  -3   1  103.89    2.50
  -4  -3  -1   96.29    4.00
   4  -3   1  106.89    3.40
   4   3   1   98.69    3.70
  -4   3  -1  101.09    3.70
   4   3   1   98.79    3.60
   4   3   1  101.09    3.60
   5  -3   1   13.40    1.00
   5  -3   1   16.20    1.80
  -5  -3  -1   12.90    2.20
  -5   3  -1   15.60    2.00
   5   3   1   15.50    1.90
   5   3   1   14.40    1.70
   5   3   1   15.90    2.00
  -6  -3  -1  177.68    5.80
   6  -3   1  164.78    5.20
   6  -3   1  172.98    4.50
  -6   3  -1  176.48    5.40
   6   3   1  177.18    5.70
   6   3   1  179.18    5.50
  -7  -3  -1   76.19    4.30
   7  -3   1   89.39    3.80
  -7   3  -1   79.49    3.60
   7   3   1   79.79    4.10
   7   3   1   88.99    4.30
  -8  -3  -1    9.70    2.60
   8  -3   1   17.00    2.50
   8   3   1   18.90    2.40
  -8   3  -1   18.50    2.50
   8   3   1   17.60    2.70
  -9  -3  -1    3.30    2.40
   9  -3   1   -0.20    2.00
   9   3   1    0.30    1.50
   9   3   1    2.50    2.20
  -9   3  -1    2.20    2.00
  10  -3   1   69.49    4.70
 -10  -3  -1   78.09    5.10
 -10   3  -1   71.69    4.50
  10   3   1   75.39    4.50
  10   3   1   60.09    4.50
  11  -3   1   -0.20    2.40
 -11  -3  -1    0.80    1.90
 -11   3  -1    0.00    2.20
  11   3   1    0.30    1.70
  11   3   1    2.60    2.70
  12  -3   1   -3.40    2.50
 -12  -3  -1    7.80    3.10
  12   3   1    1.00    2.20
 -12   3  -1   -2.50    2.30
  12   3   1    3.10    2.10
  13  -3   1   11.50    3.40
 -13  -3  -1    8.80    3.30
  13   3   1    5.60    2.70
  13   3   1   13.10    2.80
  14  -3   1   43.30    5.00
 -14  -3  -1   43.50    4.60
  14   3   1   43.90    5.30
  14  -4  -1   17.40    3.90
  14   4  -1   23.80    3.80
  14   4  -1   21.80    4.10
  13  -4  -1   -0.60    2.00
  13   4  -1   -1.00    2.90
  13   4  -1    1.80    3.00
  12  -4  -1    8.80    3.20
 -12  -4   1    6.40    3.10
  12   4  -1    8.80    3.30
  12   4  -1   11.40    3.40
  11  -4  -1   84.29    4.90
 -11  -4   1   84.09    5.50
  11   4  -1   87.09    5.00
  11   4  -1   88.49    5.70
 -10  -4   1   57.59    4.60
  10  -4  -1   53.39    4.40
  10   4  -1   57.29    4.50
 -10   4   1   51.19    3.60
  10   4  -1   52.89    4.60
   9  -4  -1   35.90    3.30
  -9  -4   1   35.60    3.40
  -9   4   1   38.70    3.20
   9   4  -1   36.80    3.60
   9   4  -1   41.50    3.90
  -8  -4   1    6.40    2.40
   8  -4  -1    6.10    2.10
  -8   4   1    6.40    1.80
   8   4  -1    6.10    2.30
   8   4  -1    5.50    2.10
  -7  -4   1    1.10    1.50
   7  -4  -1   -1.40    1.50
   7   4  -1   -1.00    1.20
  -7   4   1    0.30    1.40
   7   4  -1   -2.00    1.70
   7   4  -1   -0.70    1.10
   6  -4  -1    2.70    1.20
  -6  -4   1    3.70    2.00
   6   4  -1    2.40    1.20
   6   4  -1    2.30    1.40
   6   4  -1    5.00    1.60
  -6   4   1    1.40    1.30
   5  -4  -1   54.29    2.90
  -5  -4   1   50.59    3.30
   5  -4  -1   49.60    1.90
   5   4  -1   49.50    2.80
   5   4  -1   48.80    2.90
  -5   4   1   51.79    2.70
   5   4  -1   52.49    2.90
   4  -4  -1    2.10    0.60
  -4  -4   1    0.30    1.60
   4  -4  -1    1.00    0.90
   4   4  -1    2.20    1.20
   4   4  -1    2.30    1.20
   4   4  -1    2.30    1.40
  -4   4   1    1.40    1.20
   3  -4  -1  209.88    4.80
   3  -4  -1  212.68    5.50
  -3  -4   1  223.18    6.00
   3   4  -1  209.88    5.90
   3   4  -1  217.58    5.70
   3   4  -1  210.78    5.30
  -3   4   1  216.48    5.50
   2  -4  -1  166.48    4.10
   2  -4  -1  163.88    4.50
   2   4  -1  166.48    4.70
  -2   4   1  169.18    3.90
   2   4  -1  163.28    4.70
  -2   4   1  164.88    4.50
   2   4  -1  165.28    4.00
   1  -4  -1  131.99    3.70
   1   4  -1  134.59    3.90
  -1   4   1  133.59    3.90
  -1   4   1  130.59    3.60
   1   4  -1  135.99    3.80
  -1   4   1  130.49    3.50
   1   4  -1  134.69    3.20
   0  -4   1  265.37    6.20
   0   4   1  266.77    6.60
   0   4  -1  273.07    6.10
   0   4   1  275.17    6.20
   0   4  -1  277.87    6.70
   0   4   1  281.87    6.40
   1  -4   1  734.13   14.40
   1   4   1  705.53   15.20
  -1   4  -1  726.73   15.30
  -1   4  -1  729.53   14.50
   1   4   1  731.33   15.30
   1   4   1  724.03   14.90
   2  -4   1    1.60    0.70
  -2  -4  -1    0.70    1.10
   2   4   1   -0.40    0.90
   2   4   1    0.00    1.30
  -2   4  -1    0.30    0.90
   2   4   1    1.10    1.00
  -3  -4  -1  254.47    6.90
   3  -4   1  252.67    5.90
  -3   4  -1  247.58    6.50
   3   4   1  253.87    6.60
   3   4   1  259.17    6.70
   3   4   1  244.48    6.30
  -4  -4  -1  109.39    4.20
   4  -4   1  124.09    3.70
   4   4   1  117.89    4.20
   4   4   1  107.79    3.90
  -4   4  -1  109.69    4.00
   4   4   1  113.79    3.90
  -5  -4  -1  245.28    7.20
   5  -4   1  232.98    6.30
  -5   4  -1  227.68    6.40
   5   4   1  223.38    6.70
   5   4   1  235.78    6.70
   5   4   1  238.68    6.60
   6  -4   1  315.87    8.10
  -6  -4  -1  309.87    8.70
   6   4   1  299.77    8.50
   6   4   1  292.07    8.10
   6   4   1  307.07    8.30
  -6   4  -1  314.97    8.30
   7  -4   1   12.70    2.10
  -7  -4  -1   11.70    2.60
  -7   4  -1   11.90    2.10
   7   4   1   12.50    2.00
   7   4   1    7.10    1.80
  -8  -4  -1   49.90    3.60
   8  -4   1   63.29    3.80
  -8   4  -1   58.09    3.70
   8   4   1   57.09    4.10
   8   4   1   48.90    3.80
  -9  -4  -1   34.80    3.50
   9  -4   1   27.90    3.20
   9   4   1   31.10    3.20
  -9   4  -1   30.00    3.20
   9   4   1   29.00    3.40
 -10  -4  -1  175.08    7.00
  10  -4   1  176.18    6.60
 -10   4  -1  165.68    6.60
  10   4   1  171.78    7.20
  10   4   1  164.98    6.70
  11  -4   1   86.89    4.90
 -11  -4  -1   79.19    5.10
  11   4   1   87.69    5.70
 -11   4  -1   93.69    5.20
  11   4   1   94.69    5.30
 -12  -4  -1   34.40    4.40
  12  -4   1   41.00    4.00
  12   4   1   46.30    4.90
  12   4   1   44.40    4.70
  13  -4   1   12.30    3.40
 -13  -4  -1   15.10    3.80
  13   4   1   21.00    3.50
  13   4   1   15.70    3.60
 -14  -4  -1    4.40    3.30
  14  -4   1   -0.20    3.00
  14   4   1    8.80    3.40
  14   4   1    2.00    3.30
  14  -5  -1   -0.10    2.20
  14   5  -1    0.90    3.10
  14   5  -1    0.20    3.20
  13  -5  -1  160.78    7.80
 -13  -5   1  150.68    7.70
  13   5  -1  165.98    8.00
  13   5  -1  164.18    7.70
  12  -5  -1    0.90    2.60
 -12  -5   1    4.10    3.00
  12   5  -1   -2.70    1.80
  12   5  -1    0.30    2.10
 -11  -5   1    6.30    3.00
  11  -5  -1   11.70    3.10
  11   5  -1    8.30    3.10
  11   5  -1    8.20    2.50
 -10  -5   1   66.49    5.00
  10  -5  -1   61.79    4.50
  10   5  -1   62.39    4.10
  10   5  -1   65.69    4.40
   9  -5  -1    1.90    2.10
  -9  -5   1   -2.00    1.70
  -9   5   1    0.40    1.80
   9   5  -1    0.80    2.40
   9   5  -1   -0.70    1.50
  -8  -5   1    5.60    2.50
   8  -5  -1    2.10    2.00
  -8   5   1    4.00    1.80
   8   5  -1    1.50    2.20
   8   5  -1    5.20    2.20
   8   5  -1    3.90    2.10
  -7  -5   1  260.67    8.40
   7  -5  -1  275.87    7.90
   7   5  -1  272.87    7.90
  -7   5   1  262.87    7.40
   7   5  -1  267.47    8.20
   7   5  -1  269.87    7.80
   6  -5  -1    3.40    1.60
  -6  -5   1    0.70    2.00
   6   5  -1    1.70    1.40
   6   5  -1    0.10    1.60
  -6   5   1    0.80    1.40
   6   5  -1    2.70    1.50
   5  -5  -1    0.20    1.30
  -5  -5   1   -0.90    1.70
   5   5  -1    2.40    1.40
   5   5  -1    5.60    1.40
  -5   5   1    3.70    1.40
   5   5  -1    3.10    1.60
   4  -5  -1  152.18    3.70
   4  -5  -1  151.68    4.60
  -4  -5   1  159.28    5.50
   4   5  -1  158.88    5.10
   4   5  -1  154.78    4.50
   4   5  -1  152.68    5.30
  -4   5   1  154.78    4.70
   3  -5  -1   73.79    2.90
   3  -5  -1   74.09    2.30
  -3  -5   1   83.79    3.80
   3   5  -1   77.79    2.80
   3   5  -1   77.09    3.40
  -3   5   1   68.09    3.00
   3   5  -1   74.79    3.40
   2  -5  -1  332.27    7.40
   2  -5  -1  322.17    7.70
  -2   5   1  332.07    7.20
   2   5  -1  335.97    8.20
   2   5  -1  324.27    8.00
   2   5  -1  329.67    7.30
  -2   5   1  337.07    7.90
   1  -5  -1  394.06    8.80
   1   5  -1  396.36    9.00
   1   5  -1  378.06    9.30
  -1   5   1  388.76    8.60
   1   5  -1  398.56    8.20
  -1   5   1  380.96    9.10
  -1   5   1  405.36    8.70
   0  -5  -1    8.40    1.20
   0  -5   1    6.50    0.70
   0   5   1    6.50    1.50
   0   5  -1    5.60    1.60
   0   5   1    7.20    1.30
   0   5   1    4.10    1.00
   0   5  -1    6.90    1.20
   0   5  -1    6.30    0.70
   1  -5   1  518.15   10.70
  -1   5  -1  533.05   10.90
   1   5   1  532.85   11.40
   1   5   1  531.05   11.80
  -1   5  -1  533.95   11.90
   1   5   1  525.75   11.90
  -2  -5  -1   54.29    3.10
   2  -5   1   56.29    2.00
   2   5   1   52.39    2.40
  -2   5  -1   57.29    2.90
  -2   5  -1   54.99    1.60
   2   5   1   55.89    2.90
   2   5   1   51.99    2.90
   3  -5   1   73.89    2.50
  -3  -5  -1   65.39    3.60
   3   5   1   73.19    2.90
  -3   5  -1   65.59    3.20
   3   5   1   71.09    3.20
   3   5   1   72.89    3.40
  -4  -5  -1  163.98    5.40
   4  -5   1  151.98    4.40
  -4   5  -1  151.68    5.00
   4   5   1  152.28    4.90
   4   5   1  149.39    4.80
   4   5   1  149.88    5.10
   5  -5   1  133.69    4.30
  -5  -5  -1  128.49    5.00
   5   5   1  137.39    4.70
  -5   5  -1  131.79    4.80
   5   5   1  139.99    4.80
   5   5   1  133.39    5.00
  -6  -5  -1  167.28    6.10
   6  -5   1  174.88    5.40
   6   5   1  171.28    5.60
   6   5   1  182.08    5.80
   6   5   1  175.58    6.10
  -6   5  -1  174.28    5.80
   7  -5   1  680.03   15.30
  -7  -5  -1  638.54   16.10
   7   5   1  641.74   15.90
  -7   5  -1  683.23   15.50
   7   5   1  638.94   15.40
   7   5   1  656.53   15.60
  -8  -5  -1   59.29    4.10
   8  -5   1   64.79    3.50
  -8   5  -1   55.89    3.80
   8   5   1   63.09    4.10
   8   5   1   58.39    3.90
   9  -5   1  195.58    6.90
  -9  -5  -1  184.08    7.20
  -9   5  -1  191.68    6.80
   9   5   1  183.58    7.10
   9   5   1  190.08    7.50
 -10  -5  -1   35.20    3.80
  10  -5   1   43.40    4.00
  10   5   1   44.40    4.20
 -10   5  -1   38.40    3.70
  10   5   1   37.30    3.90
 -11  -5  -1   17.50    3.10
  11  -5   1   20.50    3.30
  11   5   1   14.70    3.00
 -11   5  -1   12.90    2.90
  11   5   1    9.30    3.10
 -12  -5  -1   74.49    5.30
  12  -5   1   82.19    5.60
  12   5   1   85.59    6.10
  12   5   1   73.99    5.10
 -13  -5  -1   28.40    4.50
  13  -5   1   25.80    3.60
  13   5   1   35.30    4.80
  13   5   1   31.10    4.40
  14  -5   1   24.90    4.20
 -14  -5  -1   26.50    4.60
  14   5   1   31.80    4.80
  14   5   1   20.70    4.20
 -13  -6   1    4.00    2.60
  13  -6  -1    2.20    3.00
  13   6  -1   -2.60    2.90
  13   6  -1    1.80    3.10
  12  -6  -1   -0.70    1.90
 -12  -6   1    0.40    2.10
  12   6  -1    1.60    2.30
  12   6  -1   -3.30    1.70
  11  -6  -1    2.70    2.60
 -11  -6   1    2.60    3.00
  11   6  -1    2.10    2.20
  11   6  -1    0.60    2.60
  10  -6  -1    1.70    2.30
 -10  -6   1   -1.10    2.70
  10   6  -1    3.90    2.20
  10   6  -1    2.10    2.30
   9  -6  -1   -1.00    1.90
  -9  -6   1    0.40    1.90
   9   6  -1    0.00    1.50
  -9   6   1   -0.20    1.70
   9   6  -1    2.30    1.90
   9   6  -1    4.50    1.80
  -8  -6   1   54.29    4.50
   8  -6  -1   51.89    3.80
   8   6  -1   56.19    4.00
   8   6  -1   50.69    3.70
  -8   6   1   54.29    3.50
   8   6  -1   55.49    4.40
  -7  -6   1   52.59    3.70
   7  -6  -1   47.40    3.40
  -7   6   1   55.89    3.40
   7   6  -1   50.39    3.60
   7   6  -1   49.40    3.20
   7   6  -1   62.09    3.60
  -6  -6   1   20.00    2.60
   6  -6  -1   24.80    2.40
   6   6  -1   23.60    3.00
   6   6  -1   18.90    2.30
  -6   6   1   23.00    2.30
   6   6  -1   26.00    2.40
   5  -6  -1    3.00    1.40
  -5  -6   1    2.60    1.60
   5   6  -1    2.60    1.40
   5   6  -1    1.50    1.30
   5   6  -1   -0.80    1.80
  -5   6   1    1.00    1.40
   4  -6  -1    2.50    1.20
  -4  -6   1    3.10    2.00
   4   6  -1    0.50    1.60
  -4   6   1    3.80    1.50
   4   6  -1    4.30    1.30
   4   6  -1    0.80    1.70
   3  -6  -1   57.39    2.70
  -3  -6   1   63.69    3.30
   3   6  -1   54.79    2.90
  -3   6   1   57.79    3.00
   3   6  -1   61.39    3.30
  -3   6   1   59.99    2.00
   3   6  -1   58.39    2.50
   2  -6  -1  206.28    5.50
   2  -6  -1  208.48    5.30
  -2   6   1  205.08    5.80
   2   6  -1  215.08    6.00
  -2   6   1  209.58    5.10
   2   6  -1  214.18    6.10
   2   6  -1  208.48    5.10
   1  -6  -1  121.49    3.70
  -1   6   1  118.89    3.50
   1   6  -1  122.19    4.20
  -1   6   1  117.79    3.60
   1   6  -1  127.09    4.00
   1   6  -1  121.59    3.20
  -1   6   1  122.59    4.10
   0  -6   1   18.50    1.20
   0  -6  -1   21.70    1.80
   0   6   1   20.80    1.90
   0   6   1   21.20    1.80
   0   6  -1   21.90    1.70
   0   6  -1   18.00    1.10
   0   6  -1   22.70    2.10
   0   6   1   18.80    1.50
   1   6   1  122.49    3.70
   1   6   1  124.79    4.20
   1   6   1  130.29    4.20
  -1   6  -1  116.99    4.20
  -1   6  -1  119.89    3.40
  -2  -6  -1   32.40    2.50
   2  -6   1   28.60    1.50
   2   6   1   32.50    2.20
  -2   6  -1   32.90    2.30
   2   6   1   32.20    2.30
  -2   6  -1   30.40    1.30
   2   6   1   32.70    2.20
   3  -6   1    0.60    0.90
  -3  -6  -1    0.40    1.30
   3   6   1    1.70    1.20
   3   6   1    3.20    1.70
   3   6   1    1.20    1.20
  -3   6  -1   -0.70    1.10
   4  -6   1    5.20    1.10
  -4  -6  -1    3.90    2.10
  -4   6  -1    5.40    1.40
   4   6   1    4.10    1.40
   4   6   1    5.10    1.90
   4   6   1    6.50    2.00
   5  -6   1    9.90    1.50
  -5  -6  -1   13.80    2.70
   5   6   1   10.90    1.90
  -5   6  -1    9.40    1.70
   5   6   1   11.70    2.30
   5   6   1    9.90    1.90
   6  -6   1  199.98    5.90
  -6  -6  -1  173.48    6.60
   6   6   1  180.48    6.70
  -6   6  -1  189.68    6.10
   6   6   1  197.58    6.20
   6   6   1  187.98    6.20
  -7  -6  -1   58.49    4.60
   7  -6   1   60.29    3.40
   7   6   1   57.99    4.00
   7   6   1   63.49    3.90
   7   6   1   59.99    3.80
  -7   6  -1   59.89    3.80
  -8  -6  -1    1.30    2.00
   8  -6   1   -2.20    1.60
   8   6   1    0.30    1.50
   8   6   1   -1.80    1.50
  -8   6  -1   -3.70    1.80
   8   6   1   -2.20    1.50
   9  -6   1   11.50    2.40
  -9  -6  -1    8.80    3.20
  -9   6  -1    7.60    2.10
   9   6   1   11.30    3.10
   9   6   1    5.50    2.60
 -10  -6  -1    9.50    3.40
  10  -6   1    4.80    2.30
 -10   6  -1    8.30    2.70
  10   6   1    8.30    2.50
  10   6   1    6.50    2.80
 -11  -6  -1   -1.20    2.90
  11  -6   1    1.20    2.40
 -11   6  -1    1.20    2.50
  11   6   1   -1.50    2.80
  11   6   1    0.10    2.60
  12  -6   1    1.90    2.70
 -12  -6  -1   -7.00    2.80
  12   6   1   -2.20    2.00
  12   6   1    0.40    2.80
 -13  -6  -1    4.80    3.50
  13  -6   1    4.10    2.90
  13   6   1   11.20    3.00
  13   6   1    7.20    2.80
 -13  -7   1    7.30    3.60
  13   7  -1   13.40    3.40
  13   7  -1    1.20    3.40
  12  -7  -1    3.30    2.20
 -12  -7   1    7.10    3.50
  12   7  -1    8.40    3.10
  12   7  -1    9.50    3.80
  11  -7  -1   75.59    5.30
 -11  -7   1   77.79    6.00
  11   7  -1   77.89    5.40
  11   7  -1   68.39    5.10
  10  -7  -1   41.90    4.00
 -10  -7   1   37.80    4.20
  10   7  -1   37.80    3.90
  10   7  -1   42.30    3.80
  10   7  -1   40.40    4.20
  -9  -7   1   49.20    4.80
   9  -7  -1   41.90    3.30
   9   7  -1   42.40    3.80
   9   7  -1   45.00    4.60
   9   7  -1   40.20    3.90
   8  -7  -1   63.79    4.00
  -8  -7   1   47.00    4.10
   8   7  -1   60.59    3.90
   8   7  -1   59.99    4.20
   8   7  -1   62.29    4.30
  -8   7   1   54.99    3.70
  -7  -7   1   98.19    5.60
   7  -7  -1  104.39    4.50
  -7   7   1   91.59    4.40
   7   7  -1   97.29    4.40
   7   7  -1   98.39    5.40
   7   7  -1   92.99    4.90
  -6  -7   1   30.10    3.20
   6  -7  -1   31.80    2.70
  -6   7   1   27.80    2.70
   6   7  -1   31.60    2.90
   6   7  -1   29.10    3.00
   6   7  -1   29.50    2.60
   5  -7  -1   79.59    3.50
  -5  -7   1   77.09    4.10
   5   7  -1   66.29    3.70
   5   7  -1   66.39    3.60
   5   7  -1   70.39    3.30
  -5   7   1   75.59    3.70
  -4  -7   1  145.69    5.60
   4  -7  -1  146.89    4.70
   4   7  -1  149.59    5.30
   4   7  -1  144.69    5.20
   4   7  -1  147.39    4.60
  -4   7   1  147.89    4.90
   3  -7  -1   41.40    2.50
   3   7  -1   44.70    2.20
   3   7  -1   46.30    3.20
  -3   7   1   47.60    3.00
   3   7  -1   39.80    3.20
   2  -7  -1   30.60    2.10
   2  -7  -1   29.60    1.90
   2   7  -1   32.30    1.80
  -2   7   1   31.00    1.80
   2   7  -1   36.10    2.60
  -2   7   1   33.30    2.30
   2   7  -1   31.80    2.60
   1  -7  -1    1.90    1.10
  -1   7   1   -0.20    0.90
   1   7  -1    2.70    1.30
   1   7  -1    1.30    0.80
  -1   7   1    0.30    1.10
  -1   7   1   -0.70    0.80
   1   7  -1    3.30    1.70
   0  -7  -1   64.49    2.80
   0   7   1   64.59    2.90
   0   7  -1   64.79    2.70
   0   7  -1   63.89    2.00
   0   7  -1   69.99    3.30
   0   7   1   63.99    3.40
   0   7   1   64.19    2.60
   1   7   1   18.80    2.10
   1   7   1   22.90    2.20
  -1   7  -1   17.80    2.30
   1   7   1   21.90    1.80
  -1   7  -1   20.10    1.60
  -2  -7  -1  320.97    9.10
  -2   7  -1  325.77    7.20
   2   7   1  333.07    8.00
  -2   7  -1  322.67    8.80
   2   7   1  348.87    9.00
   2   7   1  324.97    8.60
  -3  -7  -1    3.70    2.10
   3   7   1    1.90    1.40
  -3   7  -1   -0.80    1.60
   3   7   1   -1.20    1.60
   3   7   1    0.80    1.70
   4  -7   1   90.99    3.80
  -4  -7  -1   99.09    4.90
   4   7   1   95.59    4.50
  -4   7  -1   90.19    4.00
   4   7   1  100.19    3.90
   4   7   1  100.79    4.60
  -5  -7  -1   28.80    3.10
   5  -7   1   26.00    2.10
   5   7   1   29.70    2.60
  -5   7  -1   28.10    2.60
   5   7   1   25.70    2.60
   5   7   1   27.80    2.80
  -6  -7  -1   20.80    2.90
   6  -7   1   29.80    2.50
   6   7   1   28.30    2.80
  -6   7  -1   26.50    2.90
   6   7   1   25.80    3.30
   6   7   1   22.70    2.60
  -7  -7  -1  174.58    7.40
   7  -7   1  177.48    6.70
  -7   7  -1  180.38    6.40
   7   7   1  171.38    7.00
   7   7   1  171.48    6.00
   7   7   1  165.68    6.60
  -8  -7  -1  169.48    7.50
  -8   7  -1  165.88    6.50
   8   7   1  165.68    6.90
   8   7   1  178.78    6.60
   8   7   1  172.78    6.90
  -9  -7  -1   12.40    2.90
   9   7   1   18.60    3.10
   9   7   1   18.60    2.80
   9   7   1   16.10    2.90
  -9   7  -1   13.30    2.40
 -10  -7  -1    4.90    2.60
 -10   7  -1    7.60    2.60
  10   7   1    4.40    2.60
  10   7   1    9.40    3.30
 -11  -7  -1   50.19    4.90
  11   7   1   61.19    5.10
  11   7   1   49.40    4.80
 -12  -7  -1   25.20    3.90
  12   7   1   22.80    3.80
  12   7   1   22.20    3.90
 -13  -7  -1   16.90    3.60
  13   7   1   11.80    4.00
  13   7   1   19.10    4.00
 -12  -8   1    6.60    3.70
  12   8  -1    8.10    3.70
  12   8  -1   17.80    3.50
 -11  -8   1   25.70    3.90
  11   8  -1   19.50    4.10
  11   8  -1   18.60    3.50
 -10  -8   1   16.10    3.30
  10   8  -1   16.20    3.10
  10   8  -1   14.10    2.80
  10   8  -1   10.10    2.80
  -9  -8   1   65.69    5.60
   9   8  -1   65.39    4.30
   9   8  -1   64.09    4.90
   9   8  -1   56.29    5.20
  -8  -8   1    5.70    2.50
   8   8  -1    7.80    2.20
   8   8  -1    7.90    2.40
   8   8  -1    6.50    2.20
  -8   8   1    9.20    2.30
  -7  -8   1    9.90    3.20
   7   8  -1    8.50    2.80
   7   8  -1    5.80    2.50
  -7   8   1   10.50    2.40
   7   8  -1    8.20    2.00
  -6  -8   1   42.20    3.90
   6   8  -1   42.80    3.00
  -6   8   1   41.10    3.30
   6   8  -1   39.00    3.90
   6   8  -1   39.00    3.40
  -5  -8   1  167.88    6.40
   5   8  -1  152.68    6.10
   5   8  -1  146.69    5.10
   5   8  -1  152.78    6.20
  -5   8   1  150.68    5.40
  -4  -8   1    3.70    2.40
  -4   8   1    1.40    1.70
   4   8  -1    3.20    2.10
   4   8  -1    6.90    1.70
   3   8  -1  273.17    8.30
  -3   8   1  288.17    8.10
   3   8  -1  271.77    8.10
   2   8  -1   18.40    2.60
  -2   8   1   18.00    2.40
   2   8  -1   20.30    2.30
  -1   8   1   12.10    1.70
  -1   8   1   10.80    2.10
   1   8  -1    7.40    2.10
  -1   8   1   12.70    1.50
   1   8  -1   15.30    1.90
   0   8  -1  159.68    4.90
   0   8  -1  160.28    5.50
   0   8   1  154.58    5.00
   0   8   1  150.88    5.50
   0   8   1  161.88    4.60
   1   8   1   52.59    3.10
  -1   8  -1   49.99    3.50
   1   8   1   49.99    3.00
  -1   8  -1   46.90    2.30
   1   8   1   44.80    2.40
  -2  -8  -1  228.78    7.40
   2   8   1  220.98    7.00
   2   8   1  235.18    7.00
  -2   8  -1  234.88    7.30
   2   8   1  234.08    6.20
  -3  -8  -1  134.39    5.50
   3   8   1  143.59    4.70
  -3   8  -1  140.79    5.20
   3   8   1  145.59    5.50
   3   8   1  139.39    5.30
  -4  -8  -1    4.10    1.90
   4   8   1    2.20    1.60
   4   8   1    5.40    1.60
   4   8   1    5.10    1.70
  -4   8  -1    4.30    2.00
  -5  -8  -1  424.66   12.30
   5   8   1  445.16   11.90
   5   8   1  433.86   10.90
   5   8   1  438.56   11.80
  -5   8  -1  448.16   11.60
  -6  -8  -1  387.76   11.30
   6   8   1  374.46   10.00
   6   8   1  363.06   10.80
  -6   8  -1  371.96   10.30
   6   8   1  366.96   10.50
  -7  -8  -1    2.90    2.30
  -7   8  -1    2.20    2.20
   7   8   1    7.30    2.80
   7   8   1    4.90    2.10
   7   8   1    4.30    2.00
  -8  -8  -1  215.48    8.90
   8   8   1  221.48    8.20
   8   8   1  215.78    8.20
  -8   8  -1  209.88    7.60
  -9  -8  -1    1.30    3.10
   9   8   1    1.60    2.70
   9   8   1    1.10    2.10
  -9   8  -1    0.80    2.30
   9   8   1    1.20    2.20
 -10  -8  -1  102.79    6.90
  10   8   1  110.79    6.70
 -10   8  -1  100.29    5.60
  10   8   1   95.89    5.70
 -11  -8  -1   51.99    5.20
  11   8   1   57.99    5.30
  11   8   1   54.29    4.90
 -12  -8  -1   21.50    4.50
  12   8   1   21.50    3.80
  12   8   1   18.60    4.30
 -12  -9   1   19.70    4.60
 -11  -9   1   -1.70    3.30
  11   9  -1    1.20    3.30
 -10  -9   1    1.30    2.50
  10   9  -1    2.50    2.20
  10   9  -1    2.30    2.50
  -9  -9   1    2.80    3.30
   9   9  -1    0.80    2.60
   9   9  -1    0.70    2.90
  -8  -9   1    0.30    3.00
   8   9  -1    0.10    2.00
   8   9  -1    2.40    2.60
  -8   9   1   -0.10    2.10
  -7  -9   1   94.19    5.50
   7   9  -1   88.69    4.90
  -7   9   1   87.59    4.40
   7   9  -1   93.59    5.20
  -6  -9   1   99.69    6.10
   6   9  -1   91.99    5.30
   6   9  -1   95.89    5.00
  -6   9   1   90.19    4.70
  -5  -9   1  205.48    7.70
   5   9  -1  208.78    7.20
   5   9  -1  215.38    7.40
  -5   9   1  199.88    7.00
  -4  -9   1   11.00    2.90
  -4   9   1   10.90    2.40
   4   9  -1    9.00    2.40
   4   9  -1    8.80    2.50
  -3   9   1  358.46    9.90
   3   9  -1  354.66    9.90
   3   9  -1  363.76   10.30
   2   9  -1   19.50    2.50
   2   9  -1   17.00    2.40
  -2   9   1   17.20    2.30
   1   9  -1   36.60    3.10
   1   9  -1   34.40    2.70
  -1   9   1   33.60    3.20
   0   9  -1   -0.80    1.30
   0   9  -1    0.70    1.90
   0   9   1    1.50    1.40
   0   9   1    1.20    1.40
  -1   9  -1   31.30    2.90
   1   9   1   34.10    2.90
   1   9   1   32.80    3.20
  -2  -9  -1    4.00    2.40
  -2   9  -1   -1.10    1.90
   2   9   1    1.00    1.70
   2   9   1    1.90    1.60
  -3  -9  -1   12.70    2.40
   3   9   1   13.70    2.30
   3   9   1   10.10    2.00
  -3   9  -1   17.50    2.40
  -4  -9  -1   13.60    3.10
  -4   9  -1   10.10    2.10
   4   9   1   11.20    2.10
   4   9   1    2.90    2.30
  -5  -9  -1  267.87    9.00
   5   9   1  257.77    8.80
  -5   9  -1  264.47    8.20
   5   9   1  268.67    8.50
  -6  -9  -1   14.40    2.90
   6   9   1   16.20    2.60
   6   9   1   12.30    2.50
  -6   9  -1   12.70    2.80
  -7  -9  -1   15.00    3.80
  -7   9  -1   19.00    3.10
   7   9   1   18.30    3.30
   7   9   1   15.50    2.90
   7   9   1   14.10    3.00
  -8  -9  -1   25.80    4.30
   8   9   1   29.00    3.70
  -8   9  -1   27.70    3.60
   8   9   1   26.10    3.30
   8   9   1   27.90    3.90
  -9  -9  -1   11.10    3.20
   9   9   1   10.10    2.80
  -9   9  -1   15.50    3.10
   9   9   1   10.30    2.70
   9   9   1   15.20    4.70
 -10  -9  -1   -3.20    2.40
  10   9   1   -2.70    1.90
  10   9   1   -3.30    2.90
 -11  -9  -1    6.90    3.10
  11   9   1   12.00    3.80
 -12  -9  -1   14.30    3.60
 -11 -10   1   -3.70    3.60
  11  10  -1    1.80    3.20
  11  10  -1   11.20    3.90
 -10 -10   1   29.70    5.00
  10  10  -1   37.00    4.40
  10  10  -1   29.30    4.30
  -9 -10   1   18.70    3.60
   9  10  -1   10.70    2.80
   9  10  -1   14.80    3.20
  -8 -10   1    0.00    2.40
   8  10  -1    1.50    2.90
   8  10  -1   -0.50    1.90
  -7 -10   1   11.20    3.70
  -7  10   1    8.10    2.50
   7  10  -1    3.30    2.90
   7  10  -1   10.80    3.20
  -6 -10   1    4.20    2.50
  -6  10   1    5.60    2.40
   6  10  -1    4.90    2.70
   6  10  -1    7.20    2.80
  -5 -10   1    5.60    2.40
   5  10  -1    3.90    2.50
  -5  10   1    2.40    2.20
   5  10  -1    3.30    2.00
  -4 -10   1    4.20    2.80
  -4  10   1    5.20    1.80
   4  10  -1    4.90    2.60
   4  10  -1    6.00    1.90
  -3 -10   1    1.80    1.90
  -3  10   1    3.00    1.70
   3  10  -1   -0.50    1.30
   3  10  -1    3.40    1.90
   2  10  -1    6.70    2.00
   2  10  -1    4.80    2.40
  -2  10   1    7.60    2.30
   1  10  -1   41.10    3.00
   1  10  -1   39.60    3.50
  -1  10   1   46.80    3.80
   0  10   1   15.50    2.70
   0  10  -1   15.80    2.90
   1  10   1    2.10    1.80
  -1  10  -1    2.70    1.80
   1  10   1    2.40    1.70
  -2 -10  -1    1.60    2.50
  -2  10  -1    0.70    1.60
   2  10   1   -1.30    2.10
   2  10   1    2.30    1.50
  -3 -10  -1    0.30    1.80
   3  10   1   -0.90    1.60
  -3  10  -1   -1.00    1.60
   3  10   1   -4.10    1.80
  -4 -10  -1   24.50    3.30
   4  10   1   21.70    3.20
  -4  10  -1   22.20    2.80
   4  10   1   26.50    3.10
  -5 -10  -1    2.90    3.00
   5  10   1   -1.90    2.30
   5  10   1    2.10    2.50
  -5  10  -1    3.20    2.40
  -6 -10  -1    7.30    3.40
   6  10   1    6.40    2.90
  -6  10  -1    4.80    2.00
   6  10   1    7.20    2.30
  -7 -10  -1   -2.50    2.10
   7  10   1   -3.20    1.80
  -7  10  -1    0.80    2.40
   7  10   1    3.00    2.10
  -8 -10  -1   41.20    4.70
   8  10   1   31.90    3.90
  -8  10  -1   42.00    4.20
   8  10   1   39.30    4.10
  -9 -10  -1   -4.80    2.30
   9  10   1    2.00    2.30
  -9  10  -1   -7.40    2.10
   9  10   1   -3.40    1.90
 -10 -10  -1   26.00    4.30
  10  10   1   30.60    4.30
  10  10   1   31.90    4.00
 -11 -10  -1    2.20    2.80
  11  10   1    5.80    4.40
 -10 -11   1   14.40    3.60
  10  11  -1   17.00    3.30
  10  11  -1   13.50    4.10
  -9 -11   1    2.70    3.80
   9  11  -1    2.80    3.10
   9  11  -1    4.50    2.70
  -8 -11   1   70.69    6.40
   8  11  -1   66.59    5.10
   8  11  -1   74.29    5.80
  -7 -11   1   14.20    4.00
   7  11  -1    5.30    3.00
   7  11  -1    4.00    3.00
  -7  11   1   -0.50    2.30
  -6 -11   1    2.50    2.50
  -6  11   1   -0.40    2.20
   6  11  -1    1.80    2.10
   6  11  -1    1.30    2.00
  -5 -11   1   13.90    3.20
  -5  11   1   10.00    2.70
   5  11  -1   12.60    3.00
   5  11  -1   12.30    2.70
  -4 -11   1   12.70    3.50
   4  11  -1   11.90    2.80
  -4  11   1   13.20    2.70
   4  11  -1   13.00    3.10
  -3 -11   1    0.90    2.80
   3  11  -1   -1.60    1.90
  -3  11   1    0.90    2.20
   3  11  -1    2.80    2.60
  -2  11   1   39.70    3.90
   2  11  -1   40.00    3.70
  -1  11   1    2.20    2.40
   1  11  -1    0.10    1.70
   0  11  -1    4.50    2.60
   0  11   1    2.70    2.40
   1  11   1  140.69    6.30
  -1  11  -1  137.19    6.30
  -2 -11  -1  110.69    5.80
   2  11   1  119.19    5.60
   2  11   1  127.69    5.60
  -2  11  -1  135.19    6.10
  -3 -11  -1    8.70    2.60
   3  11   1    7.50    2.30
   3  11   1   10.10    2.50
  -3  11  -1   14.90    3.10
  -4 -11  -1   84.19    6.10
   4  11   1   89.49    5.30
  -4  11  -1   84.99    4.80
   4  11   1   94.39    5.60
  -5 -11  -1   27.00    4.30
   5  11   1   26.90    3.40
  -5  11  -1   24.30    3.60
   5  11   1   35.80    4.20
  -6 -11  -1   45.00    5.30
   6  11   1   37.30    4.50
   6  11   1   42.10    4.60
  -6  11  -1   37.30    3.80
  -7 -11  -1  104.39    7.30
  -7  11  -1   90.19    5.70
   7  11   1  101.19    5.90
   7  11   1  104.99    6.40
  -8 -11  -1    6.50    4.00
  -8  11  -1    9.10    3.00
   8  11   1    8.40    2.80
   8  11   1    7.50    3.40
  -9 -11  -1  284.57   11.60
   9  11   1  271.57   10.50
   9  11   1  268.47   10.50
 -10 -11  -1   25.80    5.20
  10  11   1   31.60    4.40
  10  11   1   36.80    4.90
  -9 -12   1   28.70    5.40
   9  12  -1   31.80    4.80
   9  12  -1   27.50    4.60
  -8 -12   1   -4.80    3.50
   8  12  -1    2.00    2.40
   8  12  -1    1.80    3.30
  -7 -12   1   -4.00    3.50
   7  12  -1    4.30    2.40
   7  12  -1   -4.00    2.70
  -6 -12   1    1.00    2.70
  -6  12   1    1.90    2.60
   6  12  -1    2.10    2.80
   6  12  -1    2.00    3.00
  -5 -12   1   -2.60    2.20
  -5  12   1    0.30    1.70
   5  12  -1    1.10    2.40
   5  12  -1    0.00    2.00
  -4 -12   1   20.10    3.50
   4  12  -1   13.40    3.00
  -4  12   1   18.20    3.20
   4  12  -1   15.70    3.00
  -3 -12   1   32.00    4.10
  -3  12   1   41.30    3.80
   3  12  -1   34.40    3.80
   2  12  -1    0.90    2.60
  -2  12   1   -2.00    2.30
   1  12  -1    0.70    2.50
  -1  12   1   -1.20    2.50
   0  12  -1   98.79    5.70
   0  12   1   84.29    5.40
   1  12   1   15.10    3.20
  -1  12  -1   14.20    3.30
  -2 -12  -1    9.30    3.50
   2  12   1    7.70    3.00
  -2  12  -1    8.70    2.30
  -3 -12  -1   67.79    5.80
  -3  12  -1   57.29    4.80
   3  12   1   62.19    4.60
   3  12   1   48.80    4.70
  -4 -12  -1   -2.30    3.10
   4  12   1    0.20    2.70
  -4  12  -1    3.90    2.70
   4  12   1    1.20    1.80
  -5 -12  -1  126.99    7.60
   5  12   1   99.29    6.10
  -5  12  -1  104.79    6.10
  -6 -12  -1    8.40    4.10
   6  12   1    8.80    3.50
  -6  12  -1   11.20    2.60
   6  12   1    6.10    3.10
  -7 -12  -1    9.60    4.10
   7  12   1    6.80    3.40
  -7  12  -1    5.80    2.40
   7  12   1    5.90    3.30
  -8 -12  -1   42.50    5.90
   8  12   1   43.90    5.00
   8  12   1   33.30    4.30
  -8  12  -1   42.40    4.20
  -9 -12  -1    1.80    4.70
   9  12   1    5.00    2.80
   8  13  -1    6.20    3.50
  -7 -13   1   -8.40    3.50
   7  13  -1   -5.00    3.00
   7  13  -1    5.20    3.30
  -6 -13   1    5.40    4.00
   6  13  -1    9.90    3.70
   6  13  -1   13.80    3.00
  -5 -13   1   35.80    5.20
   5  13  -1   27.50    4.00
  -5  13   1   38.40    4.20
   5  13  -1   35.00    4.70
  -4 -13   1   21.90    4.50
   4  13  -1   14.60    3.60
  -4  13   1   20.40    3.10
  -3 -13   1   -1.20    3.40
  -3  13   1    1.70    2.60
   3  13  -1    3.00    3.10
  -2  13   1    2.80    2.10
   2  13  -1    3.20    3.00
   1  13  -1    4.40    3.00
  -1  13   1    1.70    2.80
   0  13   1    2.00    2.70
   0  13  -1    7.70    3.10
  -1 -13  -1    5.70    2.60
  -1  13  -1    3.20    2.20
   1  13   1    5.80    2.40
  -2 -13  -1    1.80    2.40
   2  13   1    2.80    2.20
  -2  13  -1   -2.30    2.50
  -3 -13  -1   -1.30    2.50
  -3  13  -1    1.00    2.80
   3  13   1    1.70    2.20
  -4 -13  -1    1.80    3.40
  -4  13  -1   -0.50    2.70
   4  13   1    2.90    3.10
  -5 -13  -1    7.30    4.00
  -5  13  -1    3.20    2.20
   5  13   1    3.50    2.90
   5  13   1    3.10    3.10
  -6 -13  -1    1.30    3.80
   6  13   1    2.90    2.40
  -6  13  -1    0.40    2.00
   6  13   1   -0.60    3.20
  -7 -13  -1   16.70    4.90
  -7  13  -1    4.70    3.00
   7  13   1   13.20    3.80
   7  13   1    6.30    3.50
   8  13   1    5.60    3.40
  -5 -14   1    5.90    3.20
  -5  14   1    9.30    3.00
   5  14  -1    7.00    2.80
  -4 -14   1   24.40    4.20
  -4  14   1   23.80    3.90
   4  14  -1   12.90    3.10
  -3 -14   1    7.10    3.00
  -3  14   1    9.50    3.20
   3  14  -1    7.00    2.70
  -2 -14   1    7.90    3.90
   2  14  -1   11.20    3.60
  -2  14   1    1.50    2.10
   1  14  -1    1.40    3.10
  -1  14   1    2.70    3.00
   0  14   1   49.30    5.00
   0  14  -1   44.90    4.50
  -1 -14  -1   17.30    3.40
   1  14   1   19.10    3.40
  -1  14  -1   19.00    3.80
  -2 -14  -1   10.60    3.90
   2  14   1   -1.20    3.00
  -2  14  -1   11.90    3.50
  -3 -14  -1   77.59    6.70
   3  14   1   65.39    5.90
  -3  14  -1   80.29    6.00
  -4 -14  -1    7.10    3.30
  -4  14  -1    7.50    2.60
   4  14   1    6.90    2.70
  -5 -14  -1    3.90    3.10
   5  14   1    0.00    2.50
  -5  14  -1   -2.70    2.80
   6  14   1   55.79    5.60
  -6  14  -1   47.30    5.10
  -4  15   1   -2.70    2.80
  -3  15   1   24.30    3.60
  -2 -15   1   -1.70    2.60
   2  15  -1    1.40    2.60
  -2  15   1    2.70    2.90
   1  15  -1   10.70    3.60
  -1  15   1    3.50    3.30
   0 -15  -1    7.90    3.90
   0  15   1   13.30    3.70
   0  15  -1   12.40    3.10
  -1 -15  -1    4.60    2.90
   1  15   1    6.70    3.50
  -1  15  -1   -1.60    3.10
  -2 -15  -1   39.60    5.50
   2  15   1   26.60    4.50
  -2  15  -1   32.70    4.10
   3  15   1    1.10    3.00
  -3  15  -1    1.00    3.10
  -4  15  -1   32.90    4.60
  14   0  -2    8.70    3.70
  13   0  -2    0.30    2.20
  12   0  -2   78.59    5.10
  11   0  -2   54.29    4.00
  11   0  -2   46.30    4.50
 -10   0   2  271.07    8.10
  10   0  -2  273.07    8.40
  10   0  -2  265.67    8.90
   9   0  -2  654.73   16.20
  -9   0   2  685.43   15.60
   9   0  -2  668.83   15.80
   8   0  -2  631.54   15.20
   8   0  -2  629.64   14.70
  -8   0   2  643.24   14.50
   7   0  -2  178.38    5.70
  -7   0   2  175.88    5.30
   7   0  -2  170.88    5.40
  -6   0   2 1026.70   20.90
   6   0  -2 1002.70   21.50
   6   0  -2  984.80   21.20
   5   0  -2   29.90    2.10
   5   0  -2   26.00    1.80
  -5   0   2   30.00    1.90
   4   0  -2 1119.09   23.00
  -4   0   2 1129.79   22.50
   4   0  -2 1125.59   22.90
   3   0  -2   51.69    2.40
  -3   0   2   49.40    1.70
   3   0  -2   48.40    2.30
   2   0  -2  123.59    3.40
   2   0  -2  116.19    3.40
   1   0  -2 2797.42   55.99
   1   0  -2 2800.32   56.29
  -1   0   2 2863.91   56.29
   0   0  -2  183.08    4.00
   0   0  -2  185.68    4.30
   0   0   2  189.68    4.20
   0   0   2  185.08    4.20
   1   0   2 1835.42   36.00
  -1   0  -2 1873.21   36.20
  -1   0  -2 1823.02   36.10
   1   0   2 1836.52   36.00
   2   0   2   28.50    1.60
  -2   0  -2   30.10    1.70
   2   0   2   29.50    1.80
  -3   0  -2  111.39    3.40
   3   0   2  107.59    3.20
   3   0   2  106.69    3.40
   4   0   2  742.33   15.20
  -4   0  -2  726.93   15.60
   4   0   2  709.63   15.40
  -5   0  -2  375.56    9.30
   5   0   2  378.66    8.80
   5   0   2  367.56    9.00
  -6   0  -2  284.07    7.80
   6   0   2  281.57    7.30
   6   0   2  272.17    7.50
   7   0   2    5.90    1.60
  -7   0  -2    6.70    2.10
   7   0   2    6.60    1.60
  -8   0  -2  278.07    8.50
   8   0   2  296.87    8.10
   8   0   2  288.87    8.40
   9   0   2    9.50    2.50
  -9   0  -2   11.00    2.20
   9   0   2   15.90    2.30
 -10   0  -2   89.89    5.20
  10   0   2   84.19    4.70
  10   0   2   84.99    4.40
 -11   0  -2  104.49    5.80
  11   0   2  102.69    5.40
  12   0   2   34.80    4.40
 -12   0  -2   39.00    4.30
 -13   0  -2  176.28    8.00
  13   0   2  184.48    8.50
  14   0   2   21.80    3.70
 -14   0  -2   25.50    4.70
  14  -1  -2    3.10    3.40
  14   1  -2   -3.90    2.90
  13  -1  -2   -1.40    2.00
  13   1  -2    3.60    2.40
  12  -1  -2   11.90    2.80
  12   1  -2   11.30    2.70
  12   1  -2   13.50    2.90
 -11  -1   2   33.60    3.50
  11  -1  -2   33.70    4.10
  11   1  -2   43.60    3.90
  11   1  -2   47.60    4.20
  10  -1  -2   20.10    2.60
 -10  -1   2   23.60    2.90
  10  -1  -2   20.20    2.80
  10   1  -2   22.50    2.70
  10   1  -2   19.50    3.20
 -10   1   2   20.90    2.60
  -9  -1   2   -1.00    1.70
   9  -1  -2    2.20    2.20
   9  -1  -2    1.00    1.60
   9   1  -2    0.80    1.90
   9   1  -2   -0.20    2.10
  -9   1   2    0.90    1.60
  -8  -1   2  345.97    9.10
   8  -1  -2  346.97    9.50
   8  -1  -2  352.26    9.00
   8   1  -2  346.07    9.50
  -8   1   2  348.77    8.90
   8   1  -2  344.47    9.30
   7  -1  -2   21.50    2.30
  -7  -1   2   21.80    2.20
   7  -1  -2   19.70    2.10
   7   1  -2   20.50    2.20
  -7   1   2   21.10    2.10
   7   1  -2   18.40    2.40
   6  -1  -2   35.20    2.00
   6  -1  -2   28.70    2.30
  -6  -1   2   33.50    2.40
   6   1  -2   33.80    2.30
   6   1  -2   34.40    2.30
  -6   1   2   36.30    2.20
   5  -1  -2   12.50    1.80
  -5  -1   2    9.90    1.50
   5  -1  -2   14.40    1.50
   5   1  -2   11.00    1.50
   5   1  -2   11.40    1.80
  -5   1   2   11.20    1.30
   4  -1  -2   40.90    2.10
   4  -1  -2   45.50    2.50
  -4  -1   2   41.20    2.30
   4   1  -2   44.70    1.90
   4   1  -2   46.80    2.50
  -4   1   2   44.80    1.90
   4   1  -2   45.80    2.50
   3  -1  -2 1240.38   24.90
   3  -1  -2 1187.68   24.60
  -3  -1   2 1260.27   24.50
  -3   1   2 1232.58   24.20
   3   1  -2 1209.18   24.90
   3   1  -2 1265.87   24.40
   3   1  -2 1238.58   24.70
  -2  -1   2   -0.30    0.80
   2  -1  -2   -0.80    0.80
   2  -1  -2   -1.20    0.70
   2   1  -2    0.50    0.70
   2   1  -2   -1.70    1.10
   2   1  -2    0.30    0.70
   1  -1  -2    2.40    0.80
   1  -1  -2    3.40    0.90
  -1   1   2    3.00    0.80
   1   1  -2    3.20    0.70
   1   1  -2    1.80    0.70
  -1   1   2    2.10    0.80
   1   1  -2    3.60    1.10
   0  -1  -2  999.00   19.80
   0  -1  -2  976.60   19.40
   0   1   2  981.90   19.60
   0   1  -2 1001.90   19.50
   0   1  -2  988.40   19.50
   0   1   2  993.30   19.60
   0   1   2  984.50   19.30
  -1  -1  -2   -0.40    0.80
   1  -1   2    0.50    0.60
   1  -1   2   -0.80    0.60
  -1   1  -2   -0.30    0.70
   1   1   2    0.70    0.80
   1   1   2    0.70    0.80
  -1   1  -2    0.30    0.80
  -2  -1  -2  177.48    4.80
   2  -1   2  183.08    4.40
   2  -1   2  183.68    4.10
   2   1   2  179.08    4.60
   2   1   2  179.78    4.50
  -2   1  -2  175.98    4.50
   3  -1   2  162.28    3.90
  -3  -1  -2  154.98    4.70
   3  -1   2  158.68    4.30
  -3   1  -2  166.28    4.50
   3   1   2  162.78    4.50
   3   1   2  160.38    4.30
   4  -1   2  467.65   10.30
   4  -1   2  496.75   10.80
  -4  -1  -2  487.25   11.00
  -4   1  -2  473.15   11.00
   4   1   2  485.95   10.90
   4   1   2  479.45   10.80
  -5  -1  -2  198.88    6.00
   5  -1   2  194.78    5.50
   5  -1   2  194.28    5.10
  -5   1  -2  197.98    5.70
   5   1   2  206.68    5.70
   5   1   2  208.98    5.70
  -6  -1  -2    5.70    1.60
   6  -1   2    5.70    1.40
   6  -1   2    2.90    1.10
  -6   1  -2    3.10    1.40
   6   1   2    1.90    1.60
   6   1   2    4.40    1.20
   7  -1   2   76.59    3.90
  -7  -1  -2   79.59    4.20
   7  -1   2   74.89    3.20
  -7   1  -2   68.09    3.90
   7   1   2   74.29    3.40
   7   1   2   72.79    3.90
   8  -1   2   71.19    3.30
   8  -1   2   57.69    3.50
  -8  -1  -2   70.19    4.20
  -8   1  -2   75.79    3.80
   8   1   2   70.89    4.10
   8   1   2   66.19    3.70
   9  -1   2  214.88    7.40
   9  -1   2  221.18    6.60
  -9  -1  -2  208.08    7.20
  -9   1  -2  205.58    7.30
   9   1   2  213.58    6.80
   9   1   2  203.28    7.10
  10  -1   2  266.67    8.60
 -10  -1  -2  266.07    8.90
 -10   1  -2  264.97    8.70
  10   1   2  255.47    8.30
  10   1   2  251.67    8.80
  11  -1   2   33.30    3.60
 -11  -1  -2   31.30    3.90
  11   1   2   36.80    3.70
 -11   1  -2   32.10    3.40
  11   1   2   29.20    3.40
 -12  -1  -2   -2.70    1.80
  12  -1   2    2.30    2.80
  12   1   2    1.00    2.70
 -12   1  -2   -3.00    1.80
  13  -1   2    4.50    3.20
 -13  -1  -2   -4.10    2.50
  13   1   2   -1.70    2.80
 -13   1  -2    1.20    2.10
 -14  -1  -2   22.90    4.20
  14  -1   2   25.80    4.40
  14   1   2   28.40    4.10
  14  -2  -2   -1.00    2.20
  14   2  -2   -0.60    3.20
  13  -2  -2   15.10    3.60
  13   2  -2   17.30    3.10
  13   2  -2   18.00    3.90
  12  -2  -2   -0.60    2.00
  12   2  -2   -0.50    2.00
  12   2  -2   -2.90    2.20
  11  -2  -2   59.49    4.90
 -11  -2   2   62.69    4.30
  11   2  -2   60.89    4.30
  11   2  -2   65.09    4.20
  10  -2  -2   22.40    2.90
 -10  -2   2   17.70    2.70
  10   2  -2   17.90    2.90
  10   2  -2   15.50    2.60
   9  -2  -2   52.39    4.10
  -9  -2   2   57.79    3.40
   9  -2  -2   58.09    3.20
   9   2  -2   55.89    4.00
  -9   2   2   56.49    3.50
   9   2  -2   58.79    3.70
   8  -2  -2   24.70    2.80
   8  -2  -2   22.40    2.20
  -8  -2   2   21.40    2.50
   8   2  -2   23.00    2.50
   8   2  -2   22.60    2.50
  -8   2   2   21.40    2.30
   7  -2  -2   27.80    2.80
   7  -2  -2   20.10    2.00
  -7  -2   2   16.70    2.20
   7   2  -2   24.20    2.30
   7   2  -2   20.70    2.50
  -7   2   2   21.80    2.00
   6  -2  -2    1.80    1.60
   6  -2  -2    2.90    1.10
  -6  -2   2    0.30    1.10
   6   2  -2    1.00    1.20
   6   2  -2    2.20    1.60
  -6   2   2    0.10    1.20
   5  -2  -2  484.85   11.40
  -5  -2   2  496.35   11.20
   5  -2  -2  500.45   10.80
   5   2  -2  483.05   10.90
   5   2  -2  492.95   11.30
  -5   2   2  495.55   10.70
   5   2  -2  493.95   11.50
   4  -2  -2  830.22   17.50
   4  -2  -2  819.22   17.00
  -4  -2   2  833.12   17.30
   4   2  -2  831.02   17.70
  -4   2   2  833.72   16.80
   4   2  -2  829.72   17.10
   4   2  -2  818.02   17.30
   3  -2  -2    9.40    1.10
  -3  -2   2    9.40    1.40
   3  -2  -2    9.00    1.50
   3   2  -2    8.90    1.30
  -3   2   2    9.30    1.00
   3   2  -2    8.80    1.30
   3   2  -2    8.20    1.20
   2  -2  -2  103.89    3.30
   2  -2  -2  102.39    3.00
   2   2  -2  102.49    2.80
  -2   2   2  104.59    2.60
  -2   2   2  101.49    3.20
   2   2  -2  104.09    3.10
   2   2  -2  104.79    2.90
   1  -2  -2   20.50    1.30
   1  -2  -2   23.30    1.80
  -1   2   2   24.10    1.40
   1   2  -2   21.70    1.10
   1   2  -2   22.10    1.60
  -1   2   2   22.20    1.50
  -1   2   2   20.60    1.30
   1   2  -2   20.50    1.60
   0  -2  -2    6.30    1.10
   0  -2  -2    4.60    1.00
   0   2   2    5.60    0.90
   0   2   2    4.90    1.20
   0   2  -2    5.20    0.90
   0   2  -2    7.70    1.00
   0   2   2    5.70    1.00
  -1  -2  -2  117.69    3.60
   1  -2   2  122.19    2.80
   1   2   2  120.29    3.40
   1   2   2  126.19    3.40
   1   2   2  128.19    3.40
  -1   2  -2  128.09    2.90
  -1   2  -2  125.89    3.40
  -2  -2  -2  315.97    7.30
   2  -2   2  312.87    6.80
   2  -2   2  314.67    6.50
   2   2   2  317.27    7.40
   2   2   2  306.17    7.10
   2   2   2  307.47    7.10
  -2   2  -2  314.37    7.30
  -3  -2  -2    4.30    1.70
   3  -2   2    4.10    0.70
   3  -2   2    3.90    0.80
   3   2   2    6.10    1.20
  -3   2  -2    5.60    1.20
   3   2   2    3.20    1.00
   3   2   2    3.50    1.30
  -4  -2  -2  104.29    3.80
   4  -2   2  106.59    3.50
   4  -2   2  103.59    2.80
  -4   2  -2  101.49    3.50
   4   2   2  101.29    3.50
   4   2   2   98.59    3.50
   5  -2   2   15.00    1.80
  -5  -2  -2   13.00    1.80
   5  -2   2   13.90    1.30
   5   2   2   14.00    2.00
   5   2   2   14.60    1.90
  -5   2  -2   12.50    2.00
   6  -2   2 1051.59   21.50
   6  -2   2 1044.40   22.40
  -6  -2  -2 1060.19   22.80
   6   2   2 1024.20   22.50
  -6   2  -2 1074.19   22.60
   6   2   2 1059.19   22.60
  -7  -2  -2    3.70    1.70
   7  -2   2    4.60    1.20
   7  -2   2    4.80    1.80
   7   2   2    1.80    1.30
  -7   2  -2    4.70    1.90
   7   2   2    0.80    1.40
   8  -2   2   23.80    2.50
  -8  -2  -2   34.90    3.50
   8   2   2   29.90    2.80
   8   2   2   31.10    3.10
  -8   2  -2   26.90    3.00
   9  -2   2   22.50    3.00
  -9  -2  -2   27.10    3.00
   9   2   2   27.00    2.80
  -9   2  -2   26.40    2.80
   9   2   2   25.10    3.20
 -10  -2  -2   33.00    3.90
  10  -2   2   35.60    3.80
  10   2   2   41.30    4.00
 -10   2  -2   36.40    3.80
  10   2   2   34.50    3.70
  11  -2   2    5.70    2.20
 -11  -2  -2    4.50    2.30
  11   2   2    4.60    2.40
 -11   2  -2    8.80    2.30
  11   2   2    2.50    2.10
  12  -2   2    7.30    2.50
 -12  -2  -2    6.60    3.20
  12   2   2    0.90    1.90
 -12   2  -2    2.20    2.70
  12   2   2    6.00    3.10
  13  -2   2    5.20    2.50
 -13  -2  -2    1.90    2.30
 -13   2  -2    6.20    3.10
  13   2   2   10.00    3.40
 -14  -2  -2   29.20    4.50
  14  -2   2   33.00    4.30
  14   2   2   33.40    4.30
  14  -3  -2    0.80    3.20
  14   3  -2    2.60    3.10
  14   3  -2   -2.90    3.00
  13  -3  -2   32.70    4.00
  13   3  -2   35.20    4.40
  13   3  -2   39.50    4.80
  12  -3  -2   18.80    3.70
  12   3  -2   17.70    3.60
  12   3  -2   16.80    3.00
  11  -3  -2   -2.00    1.70
 -11  -3   2   -0.30    2.20
  11   3  -2    4.40    2.80
  11   3  -2   -0.30    2.40
 -10  -3   2  239.58    8.10
  10  -3  -2  237.08    8.40
  10   3  -2  244.58    8.40
  10   3  -2  246.88    8.50
   9  -3  -2  149.49    6.20
  -9  -3   2  144.29    5.90
   9   3  -2  153.18    5.80
  -9   3   2  155.98    5.30
   9   3  -2  159.38    6.10
   8  -3  -2  244.88    7.70
  -8  -3   2  244.28    7.60
   8   3  -2  230.48    7.30
  -8   3   2  245.38    6.90
   8   3  -2  245.78    7.60
   7  -3  -2  517.05   12.60
   7  -3  -2  511.15   11.60
  -7  -3   2  520.85   12.50
   7   3  -2  510.15   12.80
   7   3  -2  506.25   12.40
   7   3  -2  524.15   12.00
  -7   3   2  505.95   11.70
  -6  -3   2    9.50    1.60
   6  -3  -2   12.70    1.50
   6  -3  -2   10.60    1.60
   6   3  -2   10.40    1.90
  -6   3   2    9.70    1.40
   6   3  -2    8.80    2.10
   6   3  -2   11.80    1.70
   5  -3  -2  699.53   15.80
  -5  -3   2  714.43   15.90
   5  -3  -2  736.53   15.10
   5   3  -2  717.13   15.50
   5   3  -2  728.83   16.10
   5   3  -2  735.33   15.70
  -5   3   2  721.53   15.20
   4  -3  -2  108.09    3.20
  -4  -3   2  105.29    3.90
   4  -3  -2  111.09    3.90
   4   3  -2  108.99    3.50
  -4   3   2  111.99    3.30
   4   3  -2  107.39    3.60
   4   3  -2  103.89    3.80
   3  -3  -2   40.10    1.90
  -3  -3   2   35.00    2.00
   3  -3  -2   38.90    2.30
   3   3  -2   38.10    1.90
  -3   3   2   39.80    1.90
   3   3  -2   37.30    2.40
   3   3  -2   40.90    1.90
   2  -3  -2  771.42   15.90
   2  -3  -2  788.42   16.20
   2   3  -2  760.52   15.50
  -2   3   2  766.82   16.10
  -2   3   2  773.22   15.70
   2   3  -2  780.62   16.10
  -2   3   2  782.32   15.70
   2   3  -2  778.92   16.20
   1  -3  -2  600.34   12.40
   1  -3  -2  574.44   12.50
  -1   3   2  589.94   12.10
  -1   3   2  593.74   12.20
   1   3  -2  591.24   12.50
   1   3  -2  571.54   12.30
  -1   3   2  592.74   12.30
   0   3   2  120.49    3.30
   0   3   2  116.79    3.40
   0   3  -2  111.69    3.00
   0   3  -2  117.39    3.40
   0   3   2  118.89    3.20
  -1  -3  -2    4.20    1.10
   1   3   2    2.20    1.10
   1   3   2    2.90    1.00
  -1   3  -2    5.00    1.10
  -1   3  -2    4.10    0.60
   1   3   2    3.80    1.00
   2  -3   2    2.30    0.70
  -2  -3  -2    1.70    1.10
   2   3   2    1.90    1.00
   2   3   2    2.50    1.10
   2   3   2    1.90    1.20
  -2   3  -2    2.10    1.00
  -3  -3  -2  122.09    4.30
   3  -3   2  122.39    3.40
   3   3   2  119.59    4.00
  -3   3  -2  128.79    3.90
   3   3   2  130.09    4.00
   3   3   2  118.19    3.90
   4  -3   2    5.20    1.20
   4  -3   2    5.00    0.70
  -4  -3  -2    3.10    1.40
   4   3   2    3.10    1.60
  -4   3  -2    6.10    1.60
   4   3   2    4.60    1.50
   4   3   2    6.00    1.30
   5  -3   2  109.69    2.90
   5  -3   2  106.79    3.80
  -5  -3  -2  101.49    4.50
   5   3   2  108.39    4.30
  -5   3  -2  101.79    4.10
   5   3   2  105.09    3.90
   6  -3   2   39.70    2.80
  -6  -3  -2   48.10    3.60
   6  -3   2   45.00    1.90
  -6   3  -2   45.20    3.10
   6   3   2   46.20    3.20
   6   3   2   43.10    3.20
   7  -3   2   92.59    4.10
  -7  -3  -2   85.29    4.60
  -7   3  -2   89.19    4.30
   7   3   2   88.89    4.00
   7   3   2   92.29    4.40
  -8  -3  -2    9.00    2.70
   8  -3   2    8.20    1.80
   8   3   2    6.50    1.80
   8   3   2    5.50    2.20
  -8   3  -2    4.70    2.20
  -9  -3  -2  178.88    7.20
   9  -3   2  195.88    6.90
   9   3   2  189.38    6.80
  -9   3  -2  176.28    6.70
   9   3   2  181.98    6.70
  10  -3   2   37.50    3.80
 -10  -3  -2   41.80    3.90
 -10   3  -2   37.80    3.80
  10   3   2   38.70    3.60
  10   3   2   35.70    3.80
 -11  -3  -2   80.39    5.60
  11  -3   2   67.09    5.00
  11   3   2   67.29    5.00
  11   3   2   69.79    5.30
 -11   3  -2   69.89    4.40
  12  -3   2  152.98    7.40
 -12  -3  -2  165.48    7.80
 -12   3  -2  179.88    7.50
  12   3   2  157.48    7.20
  12   3   2  163.28    7.10
  13  -3   2   -0.20    2.80
 -13  -3  -2    3.20    2.40
  13   3   2    2.10    3.10
  13   3   2    1.90    2.00
  14  -3   2   63.29    5.80
 -14  -3  -2   69.99    6.20
  14   3   2   55.69    5.30
  14  -4  -2    2.00    3.20
  14   4  -2    5.50    2.50
  14   4  -2    2.50    2.50
  13  -4  -2   -2.20    2.80
  13   4  -2    0.70    2.20
  13   4  -2    1.70    2.30
 -12  -4   2    7.60    3.00
  12  -4  -2    3.60    2.30
  12   4  -2    1.50    2.10
  12   4  -2    2.00    2.90
  11  -4  -2   -2.10    2.30
 -11  -4   2   -1.40    2.30
  11   4  -2    1.60    2.60
  11   4  -2    4.30    2.70
 -10  -4   2   20.40    3.30
  10  -4  -2   21.70    3.30
  10   4  -2   27.10    3.60
  10   4  -2   20.30    3.20
   9  -4  -2   42.50    3.60
  -9  -4   2   41.30    3.50
   9   4  -2   40.20    3.40
  -9   4   2   39.40    3.40
   9   4  -2   44.00    3.50
   8  -4  -2  190.08    6.40
  -8  -4   2  204.88    6.90
   8   4  -2  176.58    6.50
   8   4  -2  184.98    6.40
  -8   4   2  188.48    5.80
   8   4  -2  180.38    6.10
  -7  -4   2   88.89    4.40
   7  -4  -2   86.19    4.20
   7   4  -2   85.29    4.10
  -7   4   2   84.29    3.60
   7   4  -2   84.39    3.90
   7   4  -2   90.89    4.10
  -6  -4   2  142.29    5.00
   6  -4  -2  138.99    4.00
   6  -4  -2  137.69    4.80
   6   4  -2  133.79    5.00
   6   4  -2  141.69    4.80
  -6   4   2  136.99    4.40
   6   4  -2  133.69    4.70
   5  -4  -2    5.70    1.30
  -5  -4   2    6.00    1.80
   5  -4  -2    7.60    1.10
   5   4  -2    7.60    1.60
   5   4  -2    8.90    1.70
  -5   4   2    6.90    1.30
   5   4  -2   10.10    1.60
   4  -4  -2   90.49    3.50
   4  -4  -2   89.49    2.80
  -4  -4   2   93.79    3.60
   4   4  -2   88.49    3.30
   4   4  -2  100.59    3.30
  -4   4   2   92.99    3.10
   4   4  -2   86.89    3.50
   3  -4  -2  128.19    3.60
   3  -4  -2  127.69    4.10
  -3   4   2  127.29    3.70
   3   4  -2  130.39    4.30
   3   4  -2  125.69    3.60
   3   4  -2  128.69    4.00
   2  -4  -2    1.40    0.90
   2  -4  -2    0.50    1.10
   2   4  -2    1.70    1.30
   2   4  -2    0.40    0.70
   2   4  -2    0.50    1.20
  -2   4   2    1.60    1.20
  -2   4   2    3.00    1.10
  -2   4   2    0.40    0.90
   1  -4  -2  387.46    8.80
   1  -4  -2  379.56    8.80
  -1   4   2  388.56    8.60
   1   4  -2  376.06    8.90
   1   4  -2  390.46    8.70
  -1   4   2  383.86    8.60
  -1   4   2  375.16    8.50
   1   4  -2  412.16    8.20
   0   4  -2   15.80    1.20
   0   4   2   14.70    1.60
   0   4   2   13.60    1.40
   0   4  -2   17.50    1.60
   0   4   2   14.90    1.30
  -1  -4  -2   77.89    3.20
   1   4   2   80.89    3.10
  -1   4  -2   76.69    3.10
   1   4   2   75.89    2.80
  -1   4  -2   73.89    2.10
   1   4   2   77.29    2.80
   2  -4   2    7.40    0.90
  -2  -4  -2    8.80    1.80
   2   4   2    6.30    1.30
  -2   4  -2   11.10    1.70
   2   4   2    7.80    1.40
   2   4   2    7.80    1.60
  -3  -4  -2    4.90    1.80
   3  -4   2    3.90    0.90
   3   4   2    1.70    1.40
   3   4   2    2.90    1.40
   3   4   2    3.30    1.20
  -3   4  -2    4.50    1.20
   4  -4   2  148.19    4.30
  -4  -4  -2  162.88    5.50
  -4   4  -2  149.59    4.80
   4   4   2  159.68    5.00
   4   4   2  149.79    5.00
   4   4   2  143.89    4.80
   5  -4   2  113.69    3.90
  -5  -4  -2  109.59    4.80
   5   4   2  112.49    4.30
   5   4   2  108.99    4.30
  -5   4  -2  107.59    4.10
   5   4   2  111.09    4.40
   6  -4   2  109.49    4.10
  -6  -4  -2  108.59    4.70
   6   4   2  107.49    4.20
   6   4   2  107.99    4.50
  -6   4  -2  108.09    4.50
   6   4   2  105.49    4.20
   7  -4   2   -0.20    1.50
  -7  -4  -2   -0.20    1.60
   7   4   2   -1.90    1.30
   7   4   2    2.50    1.40
  -7   4  -2    0.70    1.80
   8  -4   2   39.80    3.30
  -8  -4  -2   45.50    3.80
   8   4   2   44.70    3.30
  -8   4  -2   39.30    3.00
   8   4   2   35.60    3.40
   9  -4   2   56.09    4.00
  -9  -4  -2   63.69    4.20
   9   4   2   57.39    4.40
   9   4   2   53.69    4.30
  -9   4  -2   54.59    4.10
  10  -4   2   27.20    3.10
 -10  -4  -2   25.20    3.40
  10   4   2   35.20    3.90
 -10   4  -2   36.70    3.70
  10   4   2   26.60    3.30
  11  -4   2   46.40    4.00
 -11  -4  -2   36.70    4.50
  11   4   2   41.80    4.50
 -11   4  -2   45.10    3.90
  11   4   2   47.30    4.60
  12  -4   2   22.00    3.20
 -12  -4  -2   25.90    4.30
  12   4   2   19.00    3.30
  12   4   2   23.80    3.90
 -12   4  -2   26.60    3.80
 -13  -4  -2   39.70    4.40
  13  -4   2   36.60    4.10
  13   4   2   45.10    5.20
  13   4   2   44.20    4.60
 -14  -4  -2    7.60    3.60
  14  -4   2    5.00    2.60
  14   4   2    3.00    2.40
  14   4   2    7.80    3.20
  14  -5  -2    6.00    3.40
  14   5  -2    8.10    3.60
  14   5  -2    8.50    3.70
  13  -5  -2   -4.00    1.80
  13   5  -2   -1.20    3.00
  13   5  -2   -2.90    2.90
  12  -5  -2    3.00    2.80
 -12  -5   2    1.80    2.10
  12   5  -2    4.90    3.10
  12   5  -2    1.70    2.80
  11  -5  -2   14.70    2.70
 -11  -5   2   11.70    3.20
  11   5  -2   16.40    3.50
  11   5  -2   18.30    2.90
  10  -5  -2   23.10    3.30
 -10  -5   2   29.20    3.60
  10   5  -2   25.10    3.30
  10   5  -2   29.60    3.50
  -9  -5   2   56.39    3.90
   9  -5  -2   60.19    4.30
   9   5  -2   56.49    4.00
   9   5  -2   49.80    3.30
   9   5  -2   56.09    3.60
  -8  -5   2   60.89    4.30
   8  -5  -2   66.09    4.10
   8   5  -2   69.39    4.10
  -8   5   2   60.69    3.50
   8   5  -2   71.09    4.00
   8   5  -2   58.49    3.80
  -7  -5   2  194.48    6.90
   7  -5  -2  189.68    6.30
   7   5  -2  193.38    6.30
   7   5  -2  214.58    7.20
   7   5  -2  200.98    6.40
  -6  -5   2    5.10    1.70
   6  -5  -2    6.30    1.80
  -6   5   2    5.30    1.40
   6   5  -2    3.10    1.60
   6   5  -2    5.30    2.10
   6   5  -2    5.60    1.50
   5  -5  -2   10.60    1.80
  -5  -5   2   13.90    2.30
   5  -5  -2   12.40    1.20
   5   5  -2   15.20    1.80
   5   5  -2   10.70    1.90
  -5   5   2   10.70    1.60
   5   5  -2   13.50    2.00
  -4  -5   2    6.90    1.90
   4  -5  -2    8.10    1.60
   4  -5  -2    7.00    1.10
   4   5  -2    7.50    1.80
   4   5  -2    6.60    1.30
   4   5  -2    9.60    2.00
  -4   5   2    8.70    1.50
   3  -5  -2    5.90    1.30
   3  -5  -2    2.80    1.00
   3   5  -2    1.50    1.10
   3   5  -2    0.20    0.90
  -3   5   2    1.80    1.20
   3   5  -2    2.10    1.10
   2  -5  -2   17.40    1.70
   2  -5  -2   16.30    1.60
   2   5  -2   17.40    1.90
  -2   5   2   16.70    1.70
  -2   5   2   18.90    1.50
   2   5  -2   15.70    1.90
  -2   5   2   16.80    1.70
   2   5  -2   18.20    1.30
   1  -5  -2  155.58    4.50
   1  -5  -2  145.99    4.50
   1   5  -2  147.29    4.30
  -1   5   2  155.18    4.30
   1   5  -2  155.18    3.40
   1   5  -2  155.78    4.80
  -1   5   2  156.58    4.50
  -1   5   2  162.58    4.40
   0   5  -2  354.06    7.80
   0   5   2  340.87    8.20
   0   5   2  346.97    8.00
   0   5   2  352.46    8.20
   0   5  -2  347.07    8.50
  -1  -5  -2  404.36    9.70
   1   5   2  396.46    9.50
  -1   5  -2  404.46    9.60
  -1   5  -2  404.26    8.50
   1   5   2  400.76    9.10
   1   5   2  403.16    9.50
   2  -5   2  526.55   10.80
  -2  -5  -2  515.05   12.30
  -2   5  -2  525.65   12.10
   2   5   2  535.55   12.20
   2   5   2  526.35   12.00
   2   5   2  528.85   11.70
  -3  -5  -2   12.60    1.90
   3  -5   2   16.90    1.30
  -3   5  -2   17.10    1.90
   3   5   2   14.30    1.80
   3   5   2   14.30    1.70
   3   5   2   15.40    1.80
   4  -5   2  310.47    7.30
  -4  -5  -2  294.97    8.40
   4   5   2  296.67    8.40
  -4   5  -2  305.27    8.00
   4   5   2  314.47    8.10
   4   5   2  310.27    7.90
  -5  -5  -2   47.60    3.20
   5  -5   2   48.60    2.50
   5   5   2   47.00    2.70
  -5   5  -2   53.49    3.00
   5   5   2   45.90    2.80
   5   5   2   43.80    3.00
   6  -5   2   13.00    1.80
  -6  -5  -2   17.50    2.80
   6   5   2    9.10    2.20
   6   5   2    8.30    2.30
  -6   5  -2    6.30    2.00
   6   5   2    9.00    2.00
  -7  -5  -2   11.10    2.40
   7  -5   2   11.50    2.00
  -7   5  -2   14.80    2.40
   7   5   2    9.40    2.20
   7   5   2   13.70    2.10
   7   5   2   11.60    2.60
   8  -5   2   27.20    2.90
  -8  -5  -2   30.20    3.30
   8   5   2   31.80    3.70
   8   5   2   29.80    3.20
  -8   5  -2   33.60    3.30
  -9  -5  -2   16.70    2.90
   9  -5   2   18.60    2.70
  -9   5  -2   16.70    2.50
   9   5   2   19.40    3.10
   9   5   2   15.90    2.70
 -10  -5  -2   33.30    3.80
  10  -5   2   35.70    3.60
  10   5   2   42.30    4.00
 -10   5  -2   38.50    3.50
  10   5   2   51.39    3.90
 -11  -5  -2   21.60    3.40
  11  -5   2   20.30    3.40
  11   5   2   18.40    3.50
  11   5   2   17.80    3.10
 -11   5  -2   21.80    3.40
 -12  -5  -2    4.20    3.30
  12  -5   2    9.80    3.00
 -12   5  -2    4.40    2.60
  12   5   2    8.10    3.20
  12   5   2    9.60    3.30
 -13  -5  -2    8.20    3.70
  13  -5   2   11.70    3.40
  13   5   2   11.70    3.60
  13   5   2   15.10    3.10
 -14  -5  -2   -2.00    2.30
  14   5   2    1.30    2.40
  13  -6  -2   10.30    3.40
  13   6  -2    5.30    2.50
  13   6  -2    9.10    2.80
 -12  -6   2    0.00    2.90
  12  -6  -2   -1.50    2.50
  12   6  -2   -4.60    2.40
  12   6  -2    0.20    2.10
 -11  -6   2  171.38    7.40
  11  -6  -2  188.48    7.70
  11   6  -2  185.18    7.90
  11   6  -2  182.18    7.20
 -10  -6   2    2.30    2.80
  10  -6  -2   -1.30    1.60
  10   6  -2    1.20    2.00
  10   6  -2    0.00    2.30
  -9  -6   2    3.10    2.00
   9  -6  -2    1.90    1.60
   9   6  -2    1.00    2.50
   9   6  -2    2.00    2.20
   9   6  -2    3.70    2.20
   8  -6  -2  111.09    4.90
  -8  -6   2  117.19    5.80
   8   6  -2  117.09    5.10
   8   6  -2  117.79    5.80
   8   6  -2  114.09    5.20
  -8   6   2  119.59    4.70
   7  -6  -2   96.99    4.50
  -7  -6   2   96.99    5.20
  -7   6   2   90.19    3.90
   7   6  -2   91.89    4.20
   7   6  -2   99.19    4.60
   7   6  -2   96.59    4.70
  -6  -6   2  588.04   14.60
   6  -6  -2  581.54   13.80
   6   6  -2  601.24   14.20
   6   6  -2  577.94   14.50
   6   6  -2  587.64   13.60
  -6   6   2  595.14   13.50
   5  -6  -2    7.90    1.70
  -5  -6   2    8.50    1.90
   5   6  -2    9.90    1.70
   5   6  -2   10.00    2.20
   5   6  -2    7.70    1.60
  -5   6   2    6.20    1.60
   4  -6  -2  117.69    4.10
  -4  -6   2  115.99    4.90
  -4   6   2  112.89    4.00
   4   6  -2  112.79    3.70
   4   6  -2  105.69    4.50
   4   6  -2  114.49    4.50
   3  -6  -2   39.90    2.40
   3  -6  -2   38.20    2.00
   3   6  -2   37.40    2.50
   3   6  -2   37.20    1.90
  -3   6   2   36.20    1.90
   3   6  -2   44.90    2.90
  -3   6   2   36.70    2.50
   2  -6  -2  567.64   12.60
   2  -6  -2  562.64   12.40
   2   6  -2  558.04   12.80
   2   6  -2  568.14   11.60
  -2   6   2  555.74   12.60
  -2   6   2  579.24   12.20
   2   6  -2  553.94   13.00
  -2   6   2  551.34   12.40
   1  -6  -2  145.49    4.50
  -1   6   2  146.69    4.40
   1   6  -2  145.19    4.40
  -1   6   2  144.89    4.50
   1   6  -2  147.39    3.30
   1   6  -2  140.69    4.90
  -1   6   2  144.59    4.30
   0  -6  -2   32.10    2.20
   0   6  -2   39.50    2.80
   0   6   2   33.40    2.20
   0   6   2   30.00    2.00
   0   6  -2   37.20    2.10
   0   6   2   35.10    2.30
  -1  -6  -2   54.19    2.90
   1   6   2   54.09    2.50
  -1   6  -2   53.49    2.00
   1   6   2   48.90    2.70
  -1   6  -2   56.29    2.90
   1   6   2   51.19    2.60
  -2  -6  -2   11.50    2.10
   2  -6   2    7.50    0.80
  -2   6  -2    7.00    1.90
   2   6   2   11.10    1.90
  -2   6  -2    6.90    0.70
   2   6   2    6.90    1.80
   2   6   2    6.20    1.40
   3  -6   2   22.40    1.40
  -3  -6  -2   19.30    2.60
  -3   6  -2   14.70    2.00
   3   6   2   20.00    2.50
   3   6   2   15.40    2.20
   3   6   2   20.10    2.00
  -4  -6  -2   81.29    4.40
   4  -6   2   83.59    3.00
   4   6   2   84.79    3.90
   4   6   2   76.59    3.30
  -4   6  -2   81.59    3.90
   4   6   2   79.29    3.90
  -5  -6  -2    4.80    1.90
   5  -6   2    4.60    1.30
   5   6   2    6.80    1.70
   5   6   2    4.50    2.20
   5   6   2    5.80    1.80
  -5   6  -2    5.10    2.00
  -6  -6  -2  112.59    5.60
   6  -6   2  124.79    4.30
   6   6   2  110.19    5.00
   6   6   2  118.39    5.10
   6   6   2  114.29    4.80
  -6   6  -2  111.49    4.60
  -7  -6  -2   29.60    3.30
   7  -6   2   29.40    2.60
   7   6   2   25.60    3.00
  -7   6  -2   18.70    2.80
   7   6   2   23.30    2.80
   7   6   2   26.30    2.80
   8  -6   2  145.89    5.60
  -8  -6  -2  147.29    6.90
   8   6   2  144.19    6.20
   8   6   2  151.38    6.10
  -8   6  -2  145.49    6.00
   9  -6   2   67.49    4.20
  -9  -6  -2   63.59    5.40
   9   6   2   52.49    4.80
   9   6   2   63.29    4.10
  -9   6  -2   58.69    4.40
  10  -6   2   13.80    2.80
 -10  -6  -2   15.20    3.70
  10   6   2   11.90    2.60
  10   6   2   17.50    3.10
 -10   6  -2   12.90    2.90
  11  -6   2   63.99    4.80
 -11  -6  -2   58.69    5.60
  11   6   2   57.39    4.50
  11   6   2   69.39    5.60
 -11   6  -2   55.19    4.70
  12  -6   2   18.40    3.50
 -12  -6  -2   16.20    3.50
  12   6   2   18.50    3.40
  12   6   2   18.10    3.30
 -13  -6  -2   23.90    4.00
  13   6   2   33.60    4.70
  13   6   2   34.50    4.90
  13  -7  -2   -4.50    2.70
  13   7  -2   -0.50    2.30
  13   7  -2    0.80    2.80
 -12  -7   2   36.20    4.60
  12  -7  -2   33.80    4.20
  12   7  -2   31.30    4.20
  12   7  -2   36.20    4.40
 -11  -7   2    4.30    3.30
  11  -7  -2    3.90    2.70
  11   7  -2    4.60    2.20
  11   7  -2    2.30    2.20
  10  -7  -2  143.29    6.60
 -10  -7   2  144.99    7.30
  10   7  -2  168.28    6.80
  10   7  -2  155.98    7.10
  10   7  -2  158.78    6.80
  -9  -7   2   10.80    3.20
   9  -7  -2   12.90    2.70
   9   7  -2   11.60    3.20
   9   7  -2   12.40    2.80
   9   7  -2   14.50    2.70
  -8  -7   2    9.30    2.50
   8  -7  -2    9.00    2.30
   8   7  -2    9.60    2.20
   8   7  -2    9.40    2.40
   8   7  -2    7.60    2.10
  -7  -7   2   41.60    4.10
   7  -7  -2   43.40    3.40
   7   7  -2   40.10    3.60
  -7   7   2   45.40    3.20
   7   7  -2   39.70    3.60
   7   7  -2   44.00    3.20
   6  -7  -2    2.80    1.60
  -6  -7   2    1.70    2.40
   6   7  -2    3.10    1.50
   6   7  -2    2.20    1.70
   6   7  -2    0.30    1.90
  -6   7   2    1.70    1.60
  -5  -7   2  147.29    6.00
   5  -7  -2  142.49    5.00
   5   7  -2  143.09    5.50
  -5   7   2  142.79    5.00
   5   7  -2  141.49    4.70
   5   7  -2  146.99    5.80
   4  -7  -2  113.39    4.20
  -4  -7   2  110.79    4.70
   4   7  -2   95.69    4.20
   4   7  -2  104.09    3.60
   4   7  -2  111.59    4.70
  -4   7   2   93.59    4.00
   3  -7  -2   -1.40    1.10
   3   7  -2   -0.40    1.70
  -3   7   2    0.90    0.90
  -3   7   2    0.30    1.40
   3   7  -2    1.50    1.00
   3   7  -2    1.70    1.60
   2  -7  -2  226.58    6.20
   2  -7  -2  228.78    6.20
   2   7  -2  216.18    5.20
  -2   7   2  221.08    5.80
   2   7  -2  226.68    6.70
  -2   7   2  231.78    6.50
   2   7  -2  226.88    6.40
  -2   7   2  238.08    6.20
   1  -7  -2  223.88    6.10
  -1   7   2  218.78    6.40
  -1   7   2  216.68    5.90
   1   7  -2  216.68    6.70
   1   7  -2  217.98    6.00
  -1   7   2  213.08    5.90
   0  -7  -2   13.40    1.70
   0   7   2   11.10    1.70
   0   7  -2    9.70    1.70
   0   7  -2   12.80    1.50
   0   7   2    9.10    1.60
   0   7   2   10.00    1.50
   1   7   2  118.29    4.40
  -1   7  -2  127.69    3.60
  -1   7  -2  113.79    4.40
   1   7   2  122.59    4.00
   1   7   2  118.29    4.60
  -2  -7  -2  125.79    5.20
   2   7   2  137.39    4.80
   2   7   2  136.59    5.00
  -2   7  -2  130.19    4.80
   2   7   2  129.99    4.40
  -3  -7  -2    2.20    2.10
  -3   7  -2    0.60    1.30
   3   7   2   -1.50    1.30
   3   7   2    0.10    1.70
   3   7   2    1.30    1.70
  -4  -7  -2    4.90    2.30
   4   7   2    1.90    1.90
  -4   7  -2    0.80    1.90
   4   7   2    1.40    1.50
   4   7   2    1.00    1.50
  -5  -7  -2    2.30    1.80
   5   7   2    4.70    1.60
   5   7   2    5.20    1.70
   5   7   2    3.10    2.20
  -5   7  -2    2.10    2.00
  -6  -7  -2    0.30    2.50
   6   7   2    2.40    1.80
  -6   7  -2   -0.30    1.50
   6   7   2    0.10    1.60
   6   7   2    1.30    2.10
  -7  -7  -2   34.40    4.10
   7   7   2   33.10    3.40
   7   7   2   27.90    3.40
   7   7   2   39.10    3.50
  -7   7  -2   39.20    3.50
  -8  -7  -2   46.20    4.40
   8   7   2   58.29    4.20
   8   7   2   44.90    3.90
  -8   7  -2   41.50    3.90
   8   7   2   49.70    3.80
  -9  -7  -2   19.00    3.30
  -9   7  -2   15.50    2.90
   9   7   2   15.70    2.90
   9   7   2   16.90    2.70
 -10  -7  -2   72.59    5.30
 -10   7  -2   74.69    5.10
  10   7   2   76.69    5.80
  10   7   2   72.99    5.20
 -11  -7  -2   53.19    5.10
 -11   7  -2   55.39    4.80
  11   7   2   57.79    5.10
  11   7   2   65.39    5.10
 -12  -7  -2   59.49    6.00
  12   7   2   62.29    5.50
  12   7   2   69.09    6.20
 -13  -7  -2    9.00    3.90
  13   7   2    9.40    3.60
 -13  -8   2   21.70    6.40
 -12  -8   2    7.50    3.60
  12   8  -2    3.50    2.60
 -11  -8   2    6.70    3.40
  11   8  -2    3.50    2.50
 -10  -8   2    5.30    2.60
  10   8  -2    5.40    3.10
  10   8  -2    4.80    2.20
   9  -8  -2    5.40    2.30
  -9  -8   2    3.20    3.00
   9   8  -2    4.60    3.10
   9   8  -2    7.40    2.70
  -8  -8   2   16.00    3.00
   8  -8  -2   16.80    2.70
   8   8  -2   18.60    2.70
   8   8  -2   23.40    3.30
   7  -8  -2    3.40    1.90
  -7  -8   2    4.10    2.90
   7   8  -2    4.40    2.50
   7   8  -2    6.60    2.70
  -7   8   2    7.00    2.00
   6  -8  -2   66.59    3.70
  -6  -8   2   68.19    4.90
  -6   8   2   66.09    3.70
   6   8  -2   58.19    4.40
   6   8  -2   63.29    4.30
   5  -8  -2  114.69    4.50
  -5  -8   2  115.89    5.30
   5   8  -2  104.19    4.80
  -5   8   2  109.69    4.60
   5   8  -2  120.89    5.00
   4  -8  -2    3.80    1.50
  -4  -8   2    9.50    2.20
   4   8  -2    2.40    1.90
   4   8  -2    5.20    1.70
  -4   8   2    7.10    2.00
   3  -8  -2  171.38    5.50
  -3   8   2  178.68    5.70
   3   8  -2  179.18    6.00
   3   8  -2  169.98    5.90
   2  -8  -2  220.48    6.40
  -2   8   2  233.28    6.90
  -2   8   2  230.58    6.30
   2   8  -2  234.78    6.80
   2   8  -2  220.68    7.20
   1  -8  -2   29.70    2.30
  -1   8   2   30.10    2.80
   1   8  -2   29.60    3.00
  -1   8   2   33.30    2.30
  -1   8   2   29.50    2.30
   1   8  -2   30.70    2.40
   0  -8  -2   10.30    1.80
   0   8  -2    9.40    2.20
   0   8   2   11.20    2.10
   0   8   2    9.10    1.80
   0   8  -2   10.00    1.60
   0   8   2   11.40    1.70
  -1   8  -2   -0.80    1.80
   1   8   2   -2.40    1.60
   1   8   2   -2.20    1.40
   1   8   2   -0.10    1.30
  -2  -8  -2    1.70    1.60
   2   8   2    0.80    1.30
   2   8   2   -0.30    1.20
   2   8   2    1.20    1.40
  -2   8  -2   -0.20    1.30
  -3  -8  -2    1.30    1.70
   3   8   2   -0.30    1.30
   3   8   2   -1.50    1.30
   3   8   2   -1.60    1.80
  -3   8  -2    5.30    2.10
  -4  -8  -2  185.68    7.20
   4   8   2  196.18    6.60
   4   8   2  183.78    6.60
  -4   8  -2  189.48    6.70
   4   8   2  183.88    6.00
  -5  -8  -2  116.79    5.50
   5   8   2  112.89    5.60
   5   8   2  123.99    5.10
   5   8   2  115.99    4.80
  -5   8  -2  105.29    5.20
  -6  -8  -2  110.69    6.30
  -6   8  -2  128.19    5.30
   6   8   2  123.89    5.70
   6   8   2  120.79    5.10
   6   8   2  119.59    5.50
  -7  -8  -2    1.80    2.90
  -7   8  -2    2.40    2.30
   7   8   2    2.50    2.00
   7   8   2   -2.80    2.30
   7   8   2   -1.70    2.40
  -8  -8  -2   45.80    5.00
  -8   8  -2   40.00    3.90
   8   8   2   40.20    3.50
   8   8   2   49.99    4.50
   8   8   2   41.20    4.60
  -9  -8  -2    5.30    2.70
   9   8   2    4.80    2.50
  -9   8  -2    2.50    1.90
   9   8   2    5.30    2.40
   9   8   2    2.40    2.70
 -10  -8  -2    6.80    3.70
  10   8   2    7.50    2.70
  10   8   2    7.30    2.90
 -10   8  -2    5.60    2.70
 -11  -8  -2    1.70    3.50
  11   8   2    2.80    3.30
  11   8   2   -2.60    2.60
 -12  -8  -2   10.00    4.10
  12   8   2    8.00    3.00
  12   8   2   12.20    3.50
 -12  -9   2   26.20    4.70
 -11  -9   2    0.10    3.50
  11   9  -2    4.70    3.00
  11   9  -2   -1.60    2.20
 -10  -9   2   27.80    4.00
  10   9  -2   23.80    4.30
  10   9  -2   20.40    3.80
  -9  -9   2   10.50    3.60
   9   9  -2   10.20    2.50
   9   9  -2    5.10    2.50
  -8  -9   2   44.20    4.80
   8   9  -2   36.90    4.40
   8   9  -2   38.80    4.10
  -7  -9   2  149.29    6.70
  -7   9   2  136.99    5.60
   7   9  -2  136.59    6.00
   7   9  -2  148.79    6.50
  -6  -9   2    1.60    2.80
   6   9  -2   -0.20    2.30
  -6   9   2    2.30    1.90
   6   9  -2    1.50    1.80
  -5  -9   2  124.29    6.40
   5   9  -2  123.89    5.50
   5   9  -2  132.19    5.90
  -5   9   2  134.79    5.40
  -4  -9   2   16.50    2.70
  -4   9   2   16.90    2.60
   4   9  -2   17.40    2.50
   4   9  -2   15.30    2.60
   3   9  -2  672.53   15.90
  -3   9   2  666.73   15.70
   3   9  -2  651.13   16.00
   2   9  -2   30.10    2.80
  -2   9   2   28.50    2.60
   2   9  -2   28.60    3.20
  -1   9   2    0.30    1.20
   1   9  -2   -0.10    2.00
  -1   9   2   -0.90    1.80
   1   9  -2    0.40    1.40
   0   9   2   38.00    2.80
   0   9   2   36.90    2.90
   0   9  -2   36.60    3.20
  -1   9  -2   21.20    2.60
   1   9   2   20.00    2.80
   1   9   2   16.20    2.20
   1   9   2   23.30    2.60
  -2  -9  -2   71.49    4.10
  -2   9  -2   61.29    3.80
   2   9   2   64.69    3.70
   2   9   2   63.09    3.10
   2   9   2   69.39    3.70
  -3  -9  -2   24.80    3.50
   3   9   2   20.70    3.00
   3   9   2   27.40    2.60
   3   9   2   23.50    3.00
  -3   9  -2   29.60    3.30
  -4  -9  -2   23.10    3.10
   4   9   2   24.80    2.90
   4   9   2   21.40    3.10
  -4   9  -2   27.20    3.30
   4   9   2   25.40    2.60
  -5  -9  -2    6.30    2.90
   5   9   2    3.10    2.40
  -5   9  -2    3.00    1.80
   5   9   2    1.40    2.40
   5   9   2    3.90    1.90
  -6  -9  -2   21.90    3.80
  -6   9  -2   23.30    3.30
   6   9   2   20.80    2.70
   6   9   2   25.10    3.20
   6   9   2   23.00    3.40
  -7  -9  -2   46.00    4.90
  -7   9  -2   45.20    4.10
   7   9   2   40.20    3.70
   7   9   2   49.20    4.50
   7   9   2   52.89    4.90
  -8  -9  -2    4.70    2.50
   8   9   2    3.30    2.20
  -8   9  -2   -2.40    2.30
   8   9   2   -0.20    2.10
   8   9   2    1.40    2.90
  -9  -9  -2   41.10    4.60
   9   9   2   37.00    4.70
  -9   9  -2   37.10    4.10
   9   9   2   38.90    4.00
   9   9   2   39.00    4.10
 -10  -9  -2   38.30    4.70
 -10   9  -2   39.80    4.30
  10   9   2   44.30    4.50
  10   9   2   35.10    4.20
 -11  -9  -2    5.50    3.90
  11   9   2    3.00    3.40
  11   9   2    0.80    2.90
  12   9   2   15.20    3.80
 -11 -10   2   46.50    5.60
  11  10  -2   52.49    5.80
  11  10  -2   59.79    5.40
 -10 -10   2    6.60    4.00
  10  10  -2    1.00    3.20
  10  10  -2    6.90    3.20
  -9 -10   2   88.09    6.90
   9  10  -2   86.79    5.80
   9  10  -2  106.29    6.20
  -8 -10   2   36.40    4.30
   8  10  -2   43.80    4.40
   8  10  -2   49.30    4.40
  -7 -10   2    2.90    3.30
   7  10  -2   -3.30    2.60
   7  10  -2   -2.10    2.50
  -6 -10   2  103.69    5.80
  -6  10   2  107.59    5.20
   6  10  -2   95.39    5.20
   6  10  -2  104.59    5.90
  -5 -10   2   40.70    4.50
   5  10  -2   36.40    3.90
  -5  10   2   39.90    3.50
   5  10  -2   41.60    4.10
  -4 -10   2   27.40    3.40
   4  10  -2   25.80    3.10
   4  10  -2   22.80    2.80
  -4  10   2   25.80    2.80
  -3  10   2   14.20    2.30
   3  10  -2   21.00    3.20
   3  10  -2   15.30    2.60
   2  10  -2   13.30    2.30
   2  10  -2   14.50    2.50
  -2  10   2   12.00    2.10
   1  10  -2    8.10    2.60
  -1  10   2    9.60    2.50
   0  10  -2   36.20    3.40
   0  10   2   42.30    3.70
   0  10   2   32.00    2.80
  -1 -10  -2    7.60    2.20
   1  10   2    2.80    1.70
   1  10   2    6.20    2.00
  -1  10  -2    4.80    1.90
  -2 -10  -2   35.30    3.60
  -2  10  -2   30.20    3.60
   2  10   2   30.40    3.20
   2  10   2   37.90    3.40
  -3 -10  -2   -0.70    2.60
   3  10   2   -2.00    2.00
  -3  10  -2    1.90    2.40
   3  10   2    1.50    2.30
  -4 -10  -2   19.10    3.50
   4  10   2   15.70    3.10
  -4  10  -2   18.30    3.10
   4  10   2   17.10    3.10
  -5 -10  -2    3.50    2.40
   5  10   2    2.20    1.90
   5  10   2   -0.50    2.40
  -5  10  -2    2.80    1.90
  -6 -10  -2   -2.60    2.00
   6  10   2   -2.10    1.70
  -6  10  -2   -7.10    2.10
   6  10   2    0.30    1.90
  -7 -10  -2    4.00    2.70
   7  10   2    7.10    3.10
   7  10   2    5.30    2.30
  -7  10  -2    8.40    2.90
  -8 -10  -2   30.70    4.30
  -8  10  -2   30.00    3.90
   8  10   2   30.30    4.40
   8  10   2   28.10    3.70
  -9 -10  -2    5.10    3.10
   9  10   2    6.70    3.40
  -9  10  -2    0.80    2.60
   9  10   2    6.00    2.60
 -10 -10  -2   52.79    5.60
  10  10   2   57.09    5.50
 -10  10  -2   34.60    4.90
  10  10   2   42.70    4.60
 -11 -10  -2   58.59    6.10
 -10 -11   2    0.90    2.80
  10  11  -2    7.60    3.00
  10  11  -2   -1.20    2.10
  -9 -11   2    5.80    3.00
   9  11  -2   -0.10    2.20
   9  11  -2   -2.90    3.10
  -8 -11   2    2.60    3.60
   8  11  -2    3.50    3.00
   8  11  -2   -2.60    2.80
  -7 -11   2    4.50    3.60
   7  11  -2    9.00    3.20
   7  11  -2    7.80    2.60
  -6 -11   2   -3.30    2.00
   6  11  -2    1.30    2.00
  -6  11   2    1.90    2.20
   6  11  -2    0.80    2.00
  -5 -11   2   40.30    4.80
   5  11  -2   44.20    4.10
   5  11  -2   38.70    4.10
  -5  11   2   45.60    4.00
  -4 -11   2   53.69    5.10
   4  11  -2   62.59    4.00
  -4  11   2   57.89    4.30
   4  11  -2   69.69    5.00
   3  11  -2    2.50    2.00
   3  11  -2    0.80    1.80
  -3  11   2    2.50    2.20
   2  11  -2   15.30    2.70
  -2  11   2   14.80    2.70
  -1  11   2    5.90    2.50
   1  11  -2    6.40    2.70
   0  11   2   -1.60    2.10
   0  11  -2   -0.30    2.40
  -1 -11  -2    0.20    2.60
  -1  11  -2    1.60    1.90
   1  11   2   -0.70    2.30
  -2 -11  -2    7.40    3.10
   2  11   2    6.00    2.30
   2  11   2    6.80    2.70
  -2  11  -2    5.70    2.10
  -3 -11  -2   11.90    3.30
  -3  11  -2   11.20    3.00
   3  11   2   12.80    3.10
   3  11   2    7.30    2.60
  -4 -11  -2   16.80    3.70
   4  11   2   17.00    3.40
   4  11   2   19.30    3.30
  -4  11  -2   11.00    3.10
  -5 -11  -2   15.10    3.90
   5  11   2    9.70    3.10
  -5  11  -2   11.90    3.10
   5  11   2    7.10    3.00
  -6 -11  -2    3.40    2.70
  -6  11  -2    4.90    2.20
   6  11   2    3.20    2.90
   6  11   2    4.10    2.20
  -7 -11  -2    4.40    2.90
   7  11   2    4.00    3.00
  -7  11  -2    2.50    2.70
   7  11   2   -2.80    2.70
  -8 -11  -2    2.50    3.80
   8  11   2    3.70    3.30
   8  11   2    2.70    3.10
  -8  11  -2    0.10    1.90
  -9 -11  -2   -3.60    3.60
  -9  11  -2    2.40    2.80
   9  11   2    1.50    3.20
   9  11   2    1.90    3.30
 -10 -11  -2   14.90    5.60
  10  11   2   13.90    4.80
  -9 -12   2    9.90    4.50
   9  12  -2   20.90    3.70
   9  12  -2   10.70    3.70
  -8 -12   2    0.30    3.80
   8  12  -2   -1.10    3.00
   8  12  -2   -4.20    3.00
  -7 -12   2   35.10    5.20
   7  12  -2   27.50    4.20
   7  12  -2   30.10    4.40
  -6 -12   2   59.39    5.60
   6  12  -2   73.49    5.00
   6  12  -2   69.29    5.40
  -5 -12   2   46.00    4.90
   5  12  -2   38.40    4.10
   5  12  -2   32.10    4.00
  -5  12   2   38.50    4.00
  -4 -12   2  267.17   10.00
   4  12  -2  280.37    9.30
   4  12  -2  254.47    9.30
  -4  12   2  283.07    9.00
   3  12  -2   10.20    3.20
  -3  12   2   16.80    3.20
  -2  12   2   91.79    5.40
   2  12  -2   84.79    5.70
   1  12  -2    6.60    2.90
  -1  12   2    4.60    2.10
   0  12  -2   20.60    3.50
   0  12   2   17.20    2.80
  -1 -12  -2    3.60    2.30
   1  12   2    1.40    1.90
  -1  12  -2    0.10    2.60
  -2 -12  -2   -0.20    2.10
  -2  12  -2    4.10    2.80
   2  12   2   -1.70    1.80
  -3 -12  -2    2.30    2.30
   3  12   2   -0.50    1.50
  -3  12  -2    3.30    2.10
   3  12   2    0.40    2.00
  -4 -12  -2   24.40    3.80
   4  12   2   19.80    3.70
  -4  12  -2   18.70    3.60
   4  12   2   28.80    3.80
  -5 -12  -2   -2.30    3.20
   5  12   2   -2.40    2.70
   5  12   2   -4.90    1.60
  -5  12  -2    1.50    2.10
  -6 -12  -2   -2.10    3.50
   6  12   2    0.90    2.80
   6  12   2    1.70    3.10
  -6  12  -2   -0.90    2.00
  -7 -12  -2   -3.50    3.60
   7  12   2   -2.50    2.90
  -7  12  -2   -3.20    1.80
   7  12   2    4.00    2.50
  -8 -12  -2   41.80    5.90
   8  12   2   37.80    4.80
   8  12   2   42.60    5.30
  -8  12  -2   35.20    4.00
   9  12   2   36.70    5.40
   8  13  -2   10.40    3.60
  -7 -13   2   18.20    4.80
   7  13  -2   14.00    4.00
   7  13  -2   15.20    3.70
  -6 -13   2    1.00    3.80
   6  13  -2   -2.50    2.90
   6  13  -2    5.50    3.10
  -5 -13   2   56.99    6.10
  -5  13   2   61.79    6.70
  -4 -13   2    5.10    3.70
  -4  13   2    0.10    2.50
   4  13  -2   -0.10    2.90
  -3 -13   2   87.09    6.80
   3  13  -2   89.69    6.20
  -3  13   2   84.09    5.00
   2  13  -2   39.80    4.70
  -2  13   2   32.40    4.00
  -1  13   2   16.30    2.90
   1  13  -2   15.70    3.60
   0 -13  -2   10.70    2.90
   0  13   2   15.00    3.40
   0  13  -2    9.60    3.40
  -1 -13  -2   12.50    3.60
  -1  13  -2   12.00    2.80
   1  13   2   16.80    3.50
  -2 -13  -2   10.10    3.70
   2  13   2    7.20    3.20
  -2  13  -2   10.10    2.70
  -3 -13  -2   -1.70    2.30
  -3  13  -2    2.00    2.90
   3  13   2    1.60    2.10
  -4 -13  -2   11.70    3.30
  -4  13  -2    9.00    3.30
   4  13   2   14.30    3.00
   4  13   2   10.10    3.10
  -5 -13  -2    3.50    2.90
  -5  13  -2    2.20    2.30
   5  13   2    9.40    2.80
   5  13   2    7.50    3.00
  -6 -13  -2   -0.90    3.80
  -6  13  -2    0.90    2.80
   6  13   2   -1.00    2.80
   6  13   2   -0.60    3.10
  -7 -13  -2   16.90    4.90
  -7  13  -2   18.60    3.90
   7  13   2   16.50    4.10
   7  13   2   15.10    3.30
  -8  13  -2   19.80    3.50
   8  13   2   22.50    4.00
  -5 -14   2   10.40    3.50
   5  14  -2    4.40    2.70
  -4 -14   2    5.10    2.90
  -4  14   2   -0.70    2.70
   4  14  -2    3.10    2.50
  -3 -14   2    0.80    2.60
  -3  14   2   -2.10    2.40
   3  14  -2   -2.40    2.00
   2  14  -2    4.80    3.40
  -2  14   2   14.60    3.50
  -1  14   2    0.80    2.00
   1  14  -2    0.10    3.10
   0 -14  -2   13.00    3.80
   0  14  -2   20.80    3.50
   0  14   2   15.80    3.70
  -1 -14  -2    4.60    3.40
   1  14   2    0.30    2.80
  -1  14  -2   -1.00    2.20
  -2 -14  -2    1.40    2.50
   2  14   2    3.70    2.40
  -2  14  -2   -0.70    2.90
  -3 -14  -2   -0.80    3.40
   3  14   2   -0.20    3.00
  -3  14  -2    0.10    2.90
  -4 -14  -2    2.00    3.80
  -4  14  -2    1.20    2.10
   4  14   2    2.20    3.20
  -5 -14  -2    1.80    3.00
  -5  14  -2    0.20    2.90
   5  14   2    0.90    2.50
  -6  14  -2   -0.70    3.00
   6  14   2    1.20    3.00
  -3  15   2   79.59    5.90
  -2 -15   2   28.10    6.00
   2  15  -2   44.10    4.90
  -2  15   2   36.90    4.50
   1 -15  -2    8.60    3.10
   1  15  -2    8.00    3.70
  -1  15   2    8.00    2.70
   0 -15  -2    2.00    3.60
   0  15  -2    3.60    2.40
   0  15   2   -4.30    2.70
  -1 -15  -2    6.70    2.90
   1  15   2    3.20    2.40
  -1  15  -2    5.00    3.40
  -2 -15  -2   12.20    4.10
   2  15   2    9.60    3.70
  -2  15  -2   12.20    3.10
   3  15   2    4.60    3.20
  -3  15  -2   10.90    3.70
  14   0  -3    1.10    2.50
  13   0  -3    1.00    2.90
  12   0  -3    1.10    2.80
  12   0  -3   -3.70    2.00
  11   0  -3    0.70    1.90
  11   0  -3    1.30    1.60
  10   0  -3   -2.50    1.20
  10   0  -3    0.70    2.40
   9   0  -3    0.70    1.30
  -9   0   3   -1.20    1.70
   9   0  -3    1.80    1.60
   8   0  -3    0.80    1.20
   8   0  -3   -0.50    1.30
  -8   0   3   -0.20    1.30
   7   0  -3   -2.40    1.60
   7   0  -3    0.10    1.50
  -7   0   3    0.50    1.30
   6   0  -3   -1.10    1.00
  -6   0   3   -0.40    1.20
   6   0  -3    0.50    1.10
   5   0  -3    1.00    0.90
   5   0  -3    0.60    1.50
  -5   0   3    0.30    1.00
   4   0  -3   -0.50    0.90
   4   0  -3   -0.40    0.90
  -4   0   3   -0.70    0.80
   3   0  -3    1.10    1.30
  -3   0   3    0.30    0.70
   3   0  -3   -1.20    1.20
   2   0  -3    0.00    1.20
   2   0  -3    0.30    1.20
   1   0  -3   -2.70    0.90
  -1   0   3   -0.70    1.00
   1   0  -3   -2.60    0.80
   0   0  -3   -3.20    0.70
   0   0   3   -3.40    0.90
   0   0  -3   -3.40    1.20
   0   0   3   -1.60    1.10
  -1   0  -3    1.10    1.30
   1   0   3    0.20    0.80
  -1   0  -3    0.30    1.10
   1   0   3   -0.50    1.00
   2   0   3   -0.70    0.70
   2   0   3   -0.70    0.80
  -2   0  -3    0.10    1.00
  -3   0  -3    0.50    1.40
   3   0   3    0.20    1.20
   3   0   3    0.30    1.00
   4   0   3    2.00    1.10
  -4   0  -3    1.70    1.50
   4   0   3    2.60    1.00
   5   0   3    1.70    1.20
   5   0   3   -0.50    1.30
  -5   0  -3   -0.60    1.20
   6   0   3    0.90    1.20
  -6   0  -3    0.70    1.80
   6   0   3    0.60    1.30
   7   0   3    0.70    1.40
   7   0   3   -0.70    1.70
  -7   0  -3   -1.20    1.30
   8   0   3    0.30    1.90
  -8   0  -3    0.50    1.50
   8   0   3    2.00    1.60
   9   0   3    0.30    1.70
  -9   0  -3    0.40    2.20
   9   0   3   -1.40    1.40
  10   0   3    1.30    2.30
 -10   0  -3    0.20    2.50
  10   0   3   -1.30    1.70
  11   0   3    0.70    2.60
 -11   0  -3    1.70    2.60
 -12   0  -3    2.20    2.90
  12   0   3   -3.10    2.60
 -13   0  -3    3.50    3.10
  13   0   3    2.70    2.30
 -14   0  -3   -4.70    1.90
  14   0   3   -0.70    3.10
  14  -1  -3    3.00    2.60
  14   1  -3    1.80    2.40
  13  -1  -3   -1.80    2.00
  13   1  -3    4.10    3.20
  13   1  -3    0.90    2.60
  12  -1  -3    4.70    3.00
  12   1  -3    0.70    1.80
  12   1  -3   -5.30    2.60
  11  -1  -3    8.50    2.50
  11   1  -3    4.80    2.50
  11   1  -3    7.50    2.40
  10  -1  -3   41.10    3.40
  10  -1  -3   33.70    3.70
 -10  -1   3   34.20    3.10
  10   1  -3   36.10    3.60
  10   1  -3   38.50    3.60
  -9  -1   3   25.30    2.60
   9  -1  -3   24.70    3.20
   9  -1  -3   21.20    2.50
   9   1  -3   21.50    3.10
  -9   1   3   24.40    2.50
   9   1  -3   21.70    2.50
   8  -1  -3   45.80    3.00
  -8  -1   3   43.80    2.90
   8  -1  -3   41.00    3.50
   8   1  -3   41.80    2.90
   8   1  -3   40.80    3.00
  -8   1   3   42.50    2.80
  -7  -1   3  102.59    3.90
   7  -1  -3  104.99    4.00
   7  -1  -3  108.59    4.60
  -7   1   3   93.49    3.50
   7   1  -3  104.69    4.20
   7   1  -3  107.09    4.20
   6  -1  -3    0.20    1.20
   6  -1  -3    0.70    0.90
  -6  -1   3    0.40    1.30
   6   1  -3   -0.60    1.10
  -6   1   3    0.30    1.10
   6   1  -3    0.70    1.50
  -5  -1   3    6.60    1.30
   5  -1  -3    5.10    1.30
   5  -1  -3    6.00    1.40
  -5   1   3    5.30    1.00
   5   1  -3    5.40    1.70
   5   1  -3    8.00    1.40
  -4  -1   3  288.97    6.70
   4  -1  -3  285.77    7.30
   4  -1  -3  290.77    7.10
  -4   1   3  291.47    6.30
   4   1  -3  292.17    6.50
   4   1  -3  287.47    7.00
   4   1  -3  284.67    7.30
   3  -1  -3  113.69    3.80
  -3  -1   3  114.79    3.10
   3  -1  -3  112.29    3.40
   3   1  -3  121.29    3.60
   3   1  -3  115.19    3.00
   3   1  -3  111.29    3.60
   2  -1  -3  178.38    4.80
   2  -1  -3  171.28    4.70
   2   1  -3  181.48    4.40
  -2   1   3  176.68    4.70
   2   1  -3  175.08    4.00
   2   1  -3  177.28    4.60
   1  -1  -3    1.60    1.00
   1  -1  -3    2.50    1.00
  -1  -1   3    3.60    0.90
  -1   1   3    2.40    0.90
  -1   1   3   -0.10    0.90
   1   1  -3    1.70    0.70
   1   1  -3    2.00    1.00
   1   1  -3    1.10    0.90
   0  -1   3  300.17    6.40
   0  -1  -3  300.17    7.10
   0  -1  -3  296.77    6.40
   0   1   3  297.87    6.70
   0   1   3  298.97    6.80
   0   1  -3  309.97    6.80
   0   1  -3  301.77    6.50
   1  -1   3 1426.36   27.70
   1  -1   3 1431.76   27.70
  -1  -1  -3 1404.96   28.30
  -1  -1  -3 1389.16   27.90
  -1   1  -3 1396.86   27.90
   1   1   3 1388.16   28.10
  -1   1  -3 1437.26   28.00
   1   1   3 1406.66   28.00
  -2  -1  -3    1.00    1.30
   2  -1   3    0.30    0.90
   2  -1   3    0.50    0.80
  -2   1  -3   -0.80    0.90
  -2   1  -3    0.40    1.00
   2   1   3   -0.90    1.20
   2   1   3    1.40    1.20
  -3  -1  -3    0.60    1.10
   3  -1   3    0.30    1.10
   3  -1   3    0.90    0.80
  -3   1  -3    1.40    1.10
   3   1   3    1.50    1.30
   3   1   3    0.00    0.90
   4  -1   3  141.99    3.90
  -4  -1  -3  143.19    4.60
   4  -1   3  138.59    4.20
   4   1   3  145.29    4.30
   4   1   3  142.89    4.40
  -4   1  -3  141.49    4.50
  -5  -1  -3  595.54   13.70
   5  -1   3  595.94   13.30
   5  -1   3  597.44   12.90
   5   1   3  589.64   13.40
   5   1   3  592.24   13.50
  -5   1  -3  606.44   13.70
  -6  -1  -3  101.79    4.20
   6  -1   3   93.59    3.40
   6  -1   3   93.59    4.00
  -6   1  -3   93.99    4.30
   6   1   3  106.59    4.30
   6   1   3   94.89    3.70
   7  -1   3   43.70    3.20
  -7  -1  -3   46.70    3.60
   7  -1   3   43.90    2.60
  -7   1  -3   45.30    3.00
   7   1   3   43.50    3.10
   7   1   3   47.40    3.00
   8  -1   3   14.00    1.90
   8  -1   3   13.40    2.50
  -8  -1  -3   21.10    3.00
  -8   1  -3   21.70    2.90
   8   1   3   12.90    2.30
   8   1   3   11.40    2.10
   9  -1   3    6.60    1.90
  -9  -1  -3    5.40    2.50
   9   1   3    7.60    2.20
  -9   1  -3    7.80    2.00
   9   1   3    8.50    2.10
  10  -1   3   -0.10    2.30
 -10  -1  -3    5.30    2.20
 -10   1  -3   -1.00    2.40
  10   1   3   -0.50    2.30
  10   1   3    2.30    2.00
 -11  -1  -3   41.50    4.10
  11  -1   3   43.90    4.10
  11   1   3   55.29    4.10
 -11   1  -3   46.90    4.50
  11   1   3   41.10    4.40
 -12  -1  -3   -1.50    2.70
  12  -1   3    4.20    2.90
 -12   1  -3    3.00    2.80
  12   1   3    0.40    2.70
 -13  -1  -3    1.70    3.20
  13  -1   3    2.40    3.00
 -13   1  -3   -1.80    2.60
  13   1   3    0.40    2.30
 -14  -1  -3   -0.20    3.10
  14  -1   3    2.60    2.50
 -14   1  -3   -0.40    2.90
  14   1   3    0.20    3.20
  14  -2  -3    0.90    3.30
  14   2  -3   -2.60    2.10
  14   2  -3   -4.70    2.50
  13  -2  -3    3.30    2.40
  13   2  -3    2.30    2.10
  13   2  -3    3.20    2.40
  12  -2  -3    1.90    2.80
  12   2  -3   -4.60    2.60
  12   2  -3    2.40    2.70
  11  -2  -3   34.70    3.70
  11   2  -3   28.60    3.20
  11   2  -3   27.50    3.80
  10  -2  -3    1.80    2.40
 -10  -2   3    2.00    2.00
  10   2  -3    6.20    2.50
  10   2  -3    8.20    2.60
   9  -2  -3  217.88    6.70
   9  -2  -3  231.88    7.80
  -9  -2   3  226.88    7.10
   9   2  -3  218.88    7.30
   9   2  -3  217.78    7.30
   8  -2  -3    0.30    1.30
   8  -2  -3    1.90    2.00
  -8  -2   3   -0.80    1.50
  -8   2   3   -1.50    1.30
   8   2  -3   -0.10    1.30
   8   2  -3    1.10    1.40
   7  -2  -3    1.40    1.20
  -7  -2   3    0.20    1.40
   7  -2  -3    0.80    1.40
  -7   2   3    1.90    1.10
   7   2  -3    2.30    1.80
   7   2  -3    0.20    1.60
  -6  -2   3    4.20    1.50
   6  -2  -3    5.70    1.30
   6  -2  -3    5.00    1.80
   6   2  -3    5.70    1.30
  -6   2   3    5.60    1.20
   6   2  -3    2.50    1.30
   6   2  -3    4.60    1.80
   5  -2  -3  847.62   17.60
   5  -2  -3  846.12   18.20
  -5  -2   3  831.82   17.60
   5   2  -3  845.32   17.80
  -5   2   3  820.52   17.00
   5   2  -3  829.62   18.20
   5   2  -3  823.62   17.30
   4  -2  -3    6.00    1.20
  -4  -2   3    6.00    1.30
   4  -2  -3    4.50    1.50
   4   2  -3    5.10    1.10
  -4   2   3    4.80    0.80
   4   2  -3    4.30    1.60
   4   2  -3    6.10    1.10
   3  -2  -3  227.28    5.70
   3  -2  -3  223.38    6.00
  -3  -2   3  227.58    5.50
   3   2  -3  222.68    5.40
   3   2  -3  225.18    5.40
  -3   2   3  223.98    4.80
   3   2  -3  226.28    5.80
   2  -2  -3   59.39    2.70
   2  -2  -3   57.59    2.30
   2   2  -3   56.49    2.10
   2   2  -3   56.09    2.00
  -2   2   3   56.89    1.60
   2   2  -3   59.49    2.60
  -2   2   3   52.89    2.50
   1  -2  -3    3.30    1.40
   1  -2  -3    4.10    0.80
   1  -2  -3    3.70    1.10
   1   2  -3    3.40    1.00
  -1   2   3    3.70    1.30
  -1   2   3    4.10    1.20
  -1   2   3    4.70    0.70
   1   2  -3    4.20    1.00
   1   2  -3    3.30    0.80
   0  -2  -3   58.59    2.10
   0  -2   3   56.09    1.70
   0  -2  -3   56.29    2.50
   0   2   3   57.79    2.20
   0   2  -3   55.29    2.30
   0   2  -3   56.99    2.20
   0   2   3   56.19    2.20
   0   2   3   56.99    2.00
  -1  -2  -3  453.65   10.00
   1  -2   3  460.35    9.40
  -1   2  -3  460.25   10.10
   1   2   3  462.85   10.20
   1   2   3  473.05    9.90
   1   2   3  447.76   10.10
  -1   2  -3  479.15    9.70
   2  -2   3   75.39    2.20
   2  -2   3   75.59    2.40
  -2  -2  -3   79.59    3.20
   2   2   3   86.79    3.20
  -2   2  -3   72.29    3.00
   2   2   3   82.19    2.90
   2   2   3   77.79    2.80
  -2   2  -3   72.69    2.40
  -3  -2  -3  200.58    5.60
   3  -2   3  200.38    5.10
   3  -2   3  203.98    4.70
  -3   2  -3  208.58    5.70
   3   2   3  203.68    5.60
  -3   2  -3  209.58    4.90
   3   2   3  202.08    5.50
   4  -2   3  423.26    9.10
  -4  -2  -3  426.26   10.20
   4  -2   3  424.86    9.60
  -4   2  -3  426.16   10.10
   4   2   3  409.86   10.00
   4   2   3  423.56   10.00
  -5  -2  -3  125.89    4.60
   5  -2   3  125.59    3.60
   5  -2   3  122.79    4.20
   5   2   3  117.89    4.50
  -5   2  -3  125.89    4.60
   5   2   3  120.99    4.30
   6  -2   3  251.57    7.00
   6  -2   3  248.28    6.30
  -6  -2  -3  273.27    7.80
  -6   2  -3  254.77    7.30
   6   2   3  253.37    7.40
   6   2   3  260.57    7.40
   7  -2   3   20.30    1.80
   7  -2   3   23.30    2.50
  -7  -2  -3   21.50    2.60
   7   2   3   20.30    2.50
  -7   2  -3   16.80    2.50
   7   2   3   16.40    2.20
  -8  -2  -3   20.40    3.10
   8  -2   3   14.00    2.50
   8   2   3   13.90    2.60
   8   2   3   10.80    2.30
  -8   2  -3   12.90    2.20
   9  -2   3   46.00    3.30
  -9  -2  -3   39.90    3.70
   9   2   3   41.10    3.70
  -9   2  -3   35.60    3.30
   9   2   3   41.50    3.80
  10  -2   3   36.80    3.90
 -10  -2  -3   44.30    4.40
  10   2   3   42.20    4.20
 -10   2  -3   51.29    4.40
  10   2   3   39.10    3.50
  11  -2   3    2.30    2.00
 -11  -2  -3    6.90    3.00
  11   2   3    1.80    2.10
 -11   2  -3    0.40    1.90
  11   2   3    0.90    2.30
  12  -2   3    1.10    2.10
 -12  -2  -3    4.20    2.40
 -12   2  -3    0.00    2.60
  12   2   3   -1.10    2.30
  12   2   3    6.60    3.00
 -13  -2  -3   10.20    3.60
  13  -2   3    9.00    3.40
 -13   2  -3    7.50    3.30
  13   2   3    0.00    3.10
  14  -2   3   -0.60    3.10
 -14  -2  -3   -2.30    3.10
  14   2   3    3.90    3.40
 -14   2  -3    1.80    3.20
  14  -3  -3    1.80    2.50
  14   3  -3   -0.60    3.20
  14   3  -3    0.90    2.10
  13  -3  -3   19.30    4.00
  13   3  -3   17.20    3.70
  13   3  -3   18.80    3.30
  12  -3  -3   11.80    2.70
  12   3  -3   16.40    3.30
  12   3  -3   21.80    3.30
  11  -3  -3   46.80    4.10
  11   3  -3   50.19    4.30
  11   3  -3   55.19    4.10
  10  -3  -3   69.49    4.90
 -10  -3   3   52.79    4.00
  10   3  -3   50.49    4.40
  10   3  -3   64.49    4.10
   9  -3  -3   58.89    4.30
  -9  -3   3   64.69    3.60
   9   3  -3   61.49    3.90
   9   3  -3   57.59    3.70
   8  -3  -3   -0.30    1.90
   8  -3  -3    2.40    1.30
  -8  -3   3    2.80    1.90
   8   3  -3   -0.20    1.90
  -8   3   3    1.80    1.20
   8   3  -3    0.20    1.30
  -7  -3   3    3.20    1.40
   7  -3  -3    4.90    1.40
   7  -3  -3    3.00    1.50
  -7   3   3    4.80    1.30
   7   3  -3    2.70    1.70
   7   3  -3    5.50    1.50
   7   3  -3    2.70    1.50
   6  -3  -3   23.60    1.90
  -6  -3   3   25.70    2.40
   6  -3  -3   23.80    2.50
   6   3  -3   23.40    2.60
  -6   3   3   22.90    1.80
   6   3  -3   23.50    2.30
   6   3  -3   20.60    2.00
   5  -3  -3    1.50    1.00
  -5  -3   3    0.80    1.00
   5  -3  -3    1.70    1.20
   5   3  -3    1.90    1.30
   5   3  -3    1.00    1.20
   5   3  -3    2.50    1.20
  -5   3   3    0.70    0.90
   4  -3  -3  327.97    8.20
   4  -3  -3  335.47    7.80
  -4  -3   3  330.47    8.10
   4   3  -3  334.87    7.80
  -4   3   3  324.57    7.30
   4   3  -3  328.37    7.80
   4   3  -3  333.17    8.30
   3  -3  -3  194.88    5.50
   3  -3  -3  192.68    5.20
   3   3  -3  203.28    5.50
  -3   3   3  207.98    4.70
   3   3  -3  209.58    5.30
   3   3  -3  201.78    5.00
   2  -3  -3   -1.20    1.30
   2  -3  -3   -0.60    1.00
   2   3  -3    2.30    1.10
   2   3  -3    0.30    0.90
  -2   3   3    0.20    0.70
   2   3  -3    2.10    0.80
  -2   3   3   -0.30    1.30
  -2   3   3    0.90    1.00
   1  -3  -3  369.96    8.70
   1  -3  -3  373.36    8.70
  -1   3   3  373.86    8.40
   1   3  -3  375.26    8.40
   1   3  -3  376.06    8.40
   1   3  -3  363.66    7.60
  -1   3   3  371.16    8.50
  -1   3   3  384.26    8.00
   0  -3  -3    9.50    1.40
   0  -3  -3    8.90    1.20
   0   3   3   14.40    1.40
   0   3   3   12.60    1.30
   0   3  -3    9.40    1.20
   0   3   3   10.20    1.50
   0   3  -3   10.40    1.10
  -1  -3  -3    5.70    1.20
   1  -3   3    6.80    0.70
   1   3   3    5.30    1.30
  -1   3  -3    4.50    0.90
  -1   3  -3    5.10    1.10
   1   3   3    6.30    1.40
   1   3   3    4.40    1.50
   2  -3   3  204.08    4.70
  -2  -3  -3  198.28    5.70
  -2   3  -3  208.68    4.50
   2   3   3  200.48    5.40
  -2   3  -3  205.88    5.60
   2   3   3  205.98    5.70
   2   3   3  199.88    5.40
   3  -3   3  185.48    4.10
   3  -3   3  188.98    4.70
  -3  -3  -3  195.18    5.70
   3   3   3  191.88    5.40
   3   3   3  179.58    5.20
  -3   3  -3  180.58    5.20
   3   3   3  192.38    5.30
   4  -3   3   14.50    1.50
  -4  -3  -3   18.70    2.10
   4  -3   3   15.50    1.00
  -4   3  -3   16.70    1.80
   4   3   3   16.80    1.80
   4   3   3   14.00    1.90
   4   3   3   15.80    1.70
  -4   3  -3   15.20    1.20
  -5  -3  -3    1.10    1.40
   5  -3   3    0.90    0.70
   5  -3   3    1.90    1.20
   5   3   3    0.50    1.50
  -5   3  -3    2.10    1.30
   5   3   3    2.60    1.30
  -6  -3  -3   27.30    2.70
   6  -3   3   21.20    2.00
   6   3   3   25.60    2.70
  -6   3  -3   27.00    2.50
   6   3   3   24.80    2.70
   7  -3   3   -0.50    1.50
  -7  -3  -3    3.60    1.80
   7   3   3    4.80    2.00
   7   3   3    2.80    1.50
  -7   3  -3    3.00    2.00
  -8  -3  -3   15.70    3.00
   8  -3   3   17.60    2.50
   8   3   3   14.20    2.30
  -8   3  -3   14.60    2.70
   8   3   3   15.40    2.70
   9  -3   3   19.30    2.90
  -9  -3  -3   27.20    3.70
  -9   3  -3   25.00    3.20
   9   3   3   25.30    3.00
   9   3   3   31.90    3.50
 -10  -3  -3   46.10    4.10
  10  -3   3   49.70    3.70
  10   3   3   47.70    4.10
  10   3   3   50.39    3.80
 -10   3  -3   47.90    4.20
  11  -3   3    5.40    2.70
 -11  -3  -3    1.70    2.90
  11   3   3    7.50    2.40
 -11   3  -3   -0.50    1.90
  11   3   3    3.50    2.60
 -12  -3  -3   15.40    3.10
  12  -3   3   16.40    3.40
  12   3   3   12.10    2.70
  12   3   3   12.90    3.60
 -12   3  -3   11.90    3.30
  13  -3   3    1.30    2.90
 -13  -3  -3    4.50    3.40
  13   3   3    0.60    2.30
  13   3   3    2.00    2.20
 -13   3  -3    0.20    2.70
 -14  -3  -3   -2.10    2.20
  14  -3   3   -4.80    1.90
  14   3   3    2.20    5.10
  14  -4  -3   -6.50    2.90
  14   4  -3   -5.50    2.60
  14   4  -3   -4.50    3.10
  13  -4  -3    3.00    2.40
  13   4  -3    2.10    2.90
  13   4  -3   -0.50    3.00
  12  -4  -3   10.50    3.40
  12   4  -3   11.80    3.30
  12   4  -3    7.50    2.50
  11  -4  -3   55.29    4.90
 -11  -4   3   51.99    4.40
  11   4  -3   45.50    4.40
  11   4  -3   48.90    4.60
  10  -4  -3   48.00    3.80
 -10  -4   3   52.69    4.20
  10   4  -3   44.50    4.00
  10   4  -3   41.30    4.30
   9  -4  -3   33.50    3.20
  -9  -4   3   35.50    3.50
   9   4  -3   27.60    3.10
   9   4  -3   35.70    3.20
  -8  -4   3   26.60    3.00
   8  -4  -3   28.70    3.10
   8   4  -3   29.10    2.70
  -8   4   3   27.40    2.50
   8   4  -3   25.60    2.90
   8   4  -3   29.50    2.70
  -7  -4   3    1.40    1.40
   7  -4  -3    1.60    1.40
   7  -4  -3    2.80    1.90
  -7   4   3    0.50    1.20
   7   4  -3    5.40    1.60
   7   4  -3    2.40    1.70
   7   4  -3    2.80    2.10
   6  -4  -3   97.99    3.40
   6  -4  -3   89.99    4.20
  -6  -4   3   91.29    4.20
  -6   4   3  101.89    3.40
   6   4  -3  103.89    4.30
   6   4  -3  106.79    4.00
   6   4  -3  102.69    3.90
  -5  -4   3   32.90    2.60
   5  -4  -3   29.80    2.30
   5  -4  -3   34.30    2.00
   5   4  -3   31.40    2.40
   5   4  -3   33.20    2.30
  -5   4   3   32.10    2.00
   5   4  -3   39.40    2.60
   4  -4  -3  168.68    4.60
  -4  -4   3  164.48    5.20
   4  -4  -3  165.28    5.10
   4   4  -3  166.18    4.60
   4   4  -3  168.68    5.00
   4   4  -3  168.08    5.20
  -4   4   3  173.58    4.50
   3  -4  -3  583.54   12.90
   3  -4  -3  568.84   12.50
  -3   4   3  568.04   12.70
   3   4  -3  562.64   12.00
   3   4  -3  596.34   12.80
  -3   4   3  571.64   12.10
   3   4  -3  577.14   13.00
   2  -4  -3   -0.10    0.90
   2  -4  -3   -1.40    1.00
   2   4  -3    1.60    1.00
  -2   4   3   -0.20    1.00
  -2   4   3    1.40    1.00
  -2   4   3    0.20    1.20
   2   4  -3   -0.50    0.70
   2   4  -3   -0.90    0.90
   1  -4  -3   79.89    3.20
   1  -4  -3   71.89    3.10
  -1   4   3   82.39    3.00
  -1   4   3   79.49    2.70
   1   4  -3   82.79    2.90
   1   4  -3   82.69    3.00
  -1   4   3   80.99    3.00
   0  -4  -3   11.50    1.50
   0   4   3   10.50    1.40
   0   4   3   13.50    1.60
   0   4  -3   12.80    1.20
   0   4   3   11.10    1.50
   0   4  -3    9.80    1.40
  -1  -4  -3   43.50    2.30
  -1   4  -3   44.60    1.70
   1   4   3   49.60    2.20
   1   4   3   43.50    2.60
  -1   4  -3   47.20    2.30
   1   4   3   46.30    2.50
   2  -4   3  237.58    5.20
  -2  -4  -3  242.28    6.40
  -2   4  -3  232.78    6.30
   2   4   3  239.88    6.40
  -2   4  -3  234.38    5.00
   2   4   3  234.78    6.10
   2   4   3  233.78    6.20
   3  -4   3   31.70    1.70
  -3  -4  -3   31.80    2.40
   3   4   3   36.60    2.50
   3   4   3   33.50    2.10
  -3   4  -3   32.60    2.20
   3   4   3   33.90    2.30
  -4  -4  -3  664.93   15.20
   4  -4   3  668.33   14.10
   4   4   3  662.83   14.70
   4   4   3  651.43   14.70
  -4   4  -3  648.34   14.80
   4   4   3  658.23   15.00
  -5  -4  -3    1.30    1.50
   5  -4   3    0.30    1.10
   5   4   3    0.70    1.30
  -5   4  -3    4.40    1.80
   5   4   3    2.00    1.30
   5   4   3    1.90    1.20
  -6  -4  -3   27.20    3.20
   6  -4   3   30.90    2.50
  -6   4  -3   26.40    2.50
   6   4   3   38.80    3.10
   6   4   3   31.60    2.80
  -7  -4  -3   64.69    4.50
   7  -4   3   67.09    3.60
   7   4   3   68.79    4.00
   7   4   3   69.19    4.20
  -7   4  -3   73.49    4.10
  -8  -4  -3   24.10    3.40
   8  -4   3   21.40    2.40
  -8   4  -3   22.80    2.70
   8   4   3   18.60    2.90
   8   4   3   16.70    2.90
  -9  -4  -3    5.00    2.20
   9  -4   3   -0.70    1.90
  -9   4  -3   -0.40    2.20
   9   4   3   -0.60    2.30
   9   4   3    3.40    2.40
  10  -4   3    0.90    2.20
 -10  -4  -3   -0.90    2.00
  10   4   3   -0.30    1.70
 -10   4  -3    1.70    2.40
  10   4   3    4.10    2.60
 -11  -4  -3   -3.50    2.80
  11  -4   3    0.70    1.80
  11   4   3   -0.70    2.50
 -11   4  -3    1.40    2.50
  11   4   3    3.70    2.90
  12  -4   3    0.10    1.90
 -12  -4  -3    3.40    2.60
  12   4   3    2.90    2.20
  12   4   3    0.00    2.80
 -12   4  -3    1.50    2.60
  13  -4   3    0.10    2.90
 -13  -4  -3    4.60    3.50
 -13   4  -3    5.40    3.00
  13   4   3    3.90    2.50
  13   4   3    2.80    2.40
 -14  -4  -3   23.90    4.50
  14  -4   3   12.30    3.70
  14   4   3   16.10    4.00
  14  -5  -3   26.20    3.90
  14   5  -3   25.30    3.90
  14   5  -3   24.60    3.90
  13  -5  -3   -0.30    2.90
  13   5  -3    2.20    3.00
  13   5  -3   -0.80    2.20
  12  -5  -3   11.90    2.80
  12   5  -3    3.80    2.90
  12   5  -3    6.80    3.20
  11  -5  -3    1.80    2.10
 -11  -5   3   -0.10    2.40
  11   5  -3    3.50    2.70
  11   5  -3    1.60    2.80
 -10  -5   3   10.00    2.90
  10  -5  -3    6.30    2.70
  10   5  -3    4.60    2.40
  10   5  -3    3.20    2.70
   9  -5  -3   11.60    2.70
  -9  -5   3   16.70    2.60
   9   5  -3   13.90    2.60
   9   5  -3   13.70    2.10
   9   5  -3   14.20    2.50
   8  -5  -3   66.09    3.80
  -8  -5   3   59.49    3.80
   8   5  -3   76.49    4.00
   8   5  -3   63.39    3.90
   8   5  -3   62.69    4.00
  -7  -5   3   25.30    2.70
   7  -5  -3   27.40    3.00
   7   5  -3   29.20    3.00
   7   5  -3   29.40    2.50
   7   5  -3   31.70    2.80
  -7   5   3   24.50    2.20
   6  -5  -3    6.40    1.90
  -6  -5   3   11.20    2.30
   6   5  -3    6.70    1.80
   6   5  -3    8.30    1.70
   6   5  -3    2.40    1.50
  -6   5   3    3.70    1.30
   5  -5  -3  268.87    6.60
  -5  -5   3  265.67    7.70
   5  -5  -3  271.17    7.50
   5   5  -3  259.17    7.60
   5   5  -3  265.47    7.30
   5   5  -3  260.57    6.90
  -5   5   3  260.87    6.60
   4  -5  -3   18.10    2.10
  -4  -5   3   22.60    2.50
   4  -5  -3   17.80    1.60
   4   5  -3   17.00    2.10
  -4   5   3   20.10    1.70
   4   5  -3   17.90    1.60
   4   5  -3   18.80    2.10
   3  -5  -3  225.68    6.30
   3  -5  -3  225.08    5.90
  -3   5   3  220.38    6.20
   3   5  -3  226.58    6.40
   3   5  -3  220.68    6.20
  -3   5   3  225.88    5.80
  -3   5   3  219.58    5.60
   3   5  -3  235.68    5.40
   2  -5  -3  335.07    8.40
   2  -5  -3  339.67    8.20
  -2   5   3  344.47    8.30
  -2   5   3  337.47    7.90
  -2   5   3  349.57    8.00
   2   5  -3  333.87    7.20
   2   5  -3  345.87    8.30
   2   5  -3  330.57    8.30
   1  -5  -3    5.30    1.40
   1  -5  -3    7.80    1.50
   1   5  -3    8.30    1.70
  -1   5   3    7.10    1.40
  -1   5   3    6.60    1.40
  -1   5   3    9.10    1.40
   1   5  -3    5.50    1.30
   0  -5  -3  444.86   10.30
   0   5   3  439.66   10.20
   0   5   3  438.46   10.00
   0   5  -3  445.36   10.50
   0   5  -3  446.36    9.70
   0   5   3  446.86   10.10
  -1  -5  -3  114.79    4.00
   1   5   3  113.49    3.90
   1   5   3  116.89    4.00
  -1   5  -3  112.29    4.20
  -1   5  -3  117.79    3.10
   1   5   3  114.29    3.80
  -2  -5  -3    2.00    1.70
   2  -5   3    1.20    0.60
   2   5   3    1.10    1.10
   2   5   3    1.70    1.00
  -2   5  -3   -1.40    1.40
   2   5   3    0.80    1.50
  -2   5  -3    1.70    0.50
  -3  -5  -3  825.92   18.60
   3  -5   3  829.42   17.00
   3   5   3  847.52   18.20
  -3   5  -3  812.02   18.30
   3   5   3  851.81   18.10
   3   5   3  850.21   18.50
   4  -5   3   46.50    2.10
  -4  -5  -3   46.70    3.60
   4   5   3   45.30    3.00
   4   5   3   44.90    3.30
   4   5   3   46.40    3.10
  -4   5  -3   45.80    2.80
   5  -5   3    3.60    1.20
  -5  -5  -3    3.10    1.70
  -5   5  -3    5.70    1.60
   5   5   3    5.70    1.50
   5   5   3    0.10    1.80
   5   5   3    4.90    1.50
  -6  -5  -3   65.69    4.00
   6  -5   3   68.49    3.20
   6   5   3   68.39    3.60
  -6   5  -3   68.49    3.60
   6   5   3   72.59    3.90
   6   5   3   66.59    3.90
   7  -5   3   39.60    2.90
  -7  -5  -3   41.00    4.10
  -7   5  -3   38.30    3.40
   7   5   3   41.10    3.40
   7   5   3   36.30    3.30
   8  -5   3  133.29    5.30
  -8  -5  -3  128.89    6.40
  -8   5  -3  130.89    5.40
   8   5   3  127.09    5.60
   8   5   3  128.59    5.80
  -9  -5  -3    0.90    2.00
   9  -5   3    6.90    2.20
   9   5   3    4.90    2.00
   9   5   3    3.10    2.00
  -9   5  -3    8.60    2.60
 -10  -5  -3   -0.70    2.10
  10  -5   3    0.40    1.60
  10   5   3   -2.40    2.40
  10   5   3   -2.50    1.70
 -10   5  -3    0.80    2.40
  11  -5   3    1.90    2.40
 -11  -5  -3   -0.80    3.20
 -11   5  -3    2.90    2.70
  11   5   3    0.20    2.00
  11   5   3    0.70    2.00
  12  -5   3   -1.70    2.50
 -12  -5  -3   -5.30    3.00
 -12   5  -3    3.40    2.70
  12   5   3   -2.10    1.90
  12   5   3   -0.40    2.80
 -13  -5  -3   12.40    3.20
  13  -5   3    7.90    3.20
  13   5   3    8.60    3.50
  13   5   3    7.90    2.90
  13  -6  -3    0.00    2.90
  13   6  -3    1.50    3.30
  13   6  -3    0.90    2.90
  12  -6  -3   18.10    3.70
  12   6  -3   15.40    3.90
  12   6  -3   16.30    3.50
 -11  -6   3   52.79    4.80
  11  -6  -3   32.40    3.70
  11   6  -3   38.20    4.70
  11   6  -3   39.00    4.20
  10  -6  -3   -0.90    1.70
 -10  -6   3   -3.10    2.50
  10   6  -3   -0.70    1.60
  10   6  -3    0.00    2.10
  10   6  -3   -1.40    2.50
   9  -6  -3   -0.70    1.60
  -9  -6   3   -3.70    2.10
   9   6  -3    4.30    2.70
   9   6  -3   -1.20    2.00
   9   6  -3    0.40    2.00
   8  -6  -3   -2.70    1.90
  -8  -6   3   -4.20    2.10
   8   6  -3    0.50    1.90
   8   6  -3   -4.30    2.10
   8   6  -3   -2.40    1.60
  -7  -6   3    4.60    2.40
   7  -6  -3    3.30    1.90
   7   6  -3    4.70    2.40
  -7   6   3    1.80    1.40
   7   6  -3    0.50    1.60
   7   6  -3    8.20    2.20
  -6  -6   3   15.90    2.30
   6  -6  -3   19.90    2.50
   6   6  -3   17.20    2.10
   6   6  -3   14.30    1.90
   6   6  -3   16.30    2.40
  -6   6   3   16.70    2.00
  -5  -6   3    4.20    2.10
   5  -6  -3    3.20    1.30
   5   6  -3    4.20    1.30
   5   6  -3    3.50    1.80
   5   6  -3    4.70    1.60
  -5   6   3    4.80    1.40
   4  -6  -3   55.89    3.10
   4  -6  -3   50.89    2.50
   4   6  -3   52.89    2.40
   4   6  -3   48.30    3.30
  -4   6   3   55.59    2.90
   4   6  -3   43.70    2.70
   3  -6  -3  208.98    5.70
   3  -6  -3  215.48    6.20
   3   6  -3  209.38    5.10
  -3   6   3  211.08    6.00
   3   6  -3  195.18    6.10
  -3   6   3  216.18    5.60
   3   6  -3  220.98    6.20
  -3   6   3  199.18    5.70
   2  -6  -3   -1.00    1.20
   2  -6  -3    1.10    1.30
   2   6  -3    0.70    0.60
  -2   6   3   -0.60    1.00
   2   6  -3   -0.30    1.10
   2   6  -3    0.10    0.90
  -2   6   3   -0.40    1.20
  -2   6   3   -1.80    1.20
   1  -6  -3   56.19    3.00
   1  -6  -3   60.59    3.10
   1   6  -3   58.49    3.30
  -1   6   3   59.99    2.90
  -1   6   3   60.39    2.60
  -1   6   3   62.69    2.90
   1   6  -3   59.89    2.70
   0  -6  -3   10.50    1.70
   0   6   3   12.80    1.80
   0   6   3   11.10    1.70
   0   6  -3   12.40    1.40
   0   6  -3    8.60    1.90
   0   6   3   11.00    1.60
  -1  -6  -3    2.70    1.60
   1   6   3    1.20    1.50
  -1   6  -3    2.10    1.20
   1   6   3    0.50    1.30
   1   6   3    0.60    1.10
  -1   6  -3    0.90    0.80
  -2  -6  -3    5.90    1.60
   2   6   3    7.70    1.90
   2   6   3    6.50    1.50
   2   6   3    5.10    1.50
  -2   6  -3    5.70    0.70
  -2   6  -3    7.50    1.60
   3  -6   3   84.69    2.90
  -3  -6  -3   94.29    4.10
   3   6   3   82.69    4.10
   3   6   3   90.69    3.70
   3   6   3   82.39    3.60
  -3   6  -3   73.79    3.50
   4  -6   3    0.70    0.90
  -4  -6  -3    1.20    2.10
  -4   6  -3    0.90    1.80
   4   6   3    0.90    1.50
   4   6   3   -0.80    1.70
   4   6   3    0.90    1.40
  -5  -6  -3    3.10    1.80
   5  -6   3    2.40    1.30
  -5   6  -3    2.60    1.90
   5   6   3    5.80    1.60
   5   6   3    4.30    1.80
   5   6   3    1.50    1.50
  -6  -6  -3   10.50    2.80
   6  -6   3    9.80    1.60
  -6   6  -3    6.60    1.80
   6   6   3   10.70    2.60
   6   6   3    8.20    2.40
   6   6   3   10.80    2.30
  -7  -6  -3   12.10    3.10
   7  -6   3    6.80    1.80
   7   6   3   10.30    2.60
  -7   6  -3   11.30    2.20
   7   6   3    8.90    2.40
   7   6   3    7.60    2.60
   8  -6   3   34.80    3.00
  -8  -6  -3   32.80    4.20
   8   6   3   38.70    4.10
   8   6   3   35.80    3.60
  -8   6  -3   34.60    3.60
  -9  -6  -3    1.30    2.90
   9  -6   3    4.20    2.00
  -9   6  -3    1.40    2.30
   9   6   3    2.80    2.70
   9   6   3    0.80    2.40
 -10  -6  -3   -1.70    2.90
  10  -6   3    2.50    2.20
  10   6   3   -0.10    2.00
  10   6   3    2.90    2.70
 -10   6  -3    1.10    2.50
 -11  -6  -3    8.80    2.90
  11   6   3    9.30    3.20
 -11   6  -3   11.50    3.20
  11   6   3    4.40    2.40
 -12  -6  -3    1.90    2.80
  12   6   3   -1.50    2.90
  12   6   3   -3.50    3.00
 -12   6  -3    4.00    2.80
 -13  -6  -3    4.10    3.90
  13   6   3   -0.30    3.20
  13   6   3    1.50    3.30
  13  -7  -3    2.10    3.00
  13   7  -3    6.50    3.20
  13   7  -3    7.80    3.80
  12  -7  -3    1.20    2.80
  12   7  -3   -1.00    2.50
  12   7  -3    2.00    3.20
 -11  -7   3    5.90    3.10
  11  -7  -3    7.90    3.00
  11   7  -3    4.50    3.20
  11   7  -3    6.90    2.70
 -10  -7   3    6.60    3.20
  10  -7  -3    8.80    2.80
  10   7  -3   12.90    3.50
  10   7  -3   15.30    2.90
  10   7  -3   12.30    2.90
   9  -7  -3    0.60    2.20
  -9  -7   3    1.80    2.70
   9   7  -3    0.70    2.00
   9   7  -3   -0.20    1.90
   9   7  -3   -1.30    2.20
  -8  -7   3   32.70    3.50
   8  -7  -3   32.50    3.40
   8   7  -3   34.30    3.20
   8   7  -3   25.40    3.30
   8   7  -3   33.70    3.10
   7  -7  -3    7.60    2.10
  -7  -7   3   10.00    2.30
   7   7  -3   12.10    2.10
   7   7  -3    8.90    2.00
   7   7  -3   11.80    2.30
   6  -7  -3   73.99    4.00
  -6  -7   3   67.89    4.10
   6   7  -3   72.29    3.80
   6   7  -3   71.19    3.30
   6   7  -3   69.49    4.50
  -6   7   3   68.39    3.40
  -5  -7   3  100.19    4.70
   5  -7  -3   99.59    4.10
   5   7  -3  106.79    3.80
   5   7  -3   95.69    4.40
  -5   7   3  100.19    4.00
   5   7  -3  104.19    4.40
   4  -7  -3    8.80    1.80
   4   7  -3    6.20    1.20
  -4   7   3    8.10    1.60
   4   7  -3    7.20    2.10
   4   7  -3    6.80    2.00
   3  -7  -3   81.19    3.60
   3  -7  -3   82.39    3.40
  -3   7   3   81.19    3.50
   3   7  -3   80.39    3.70
   3   7  -3   80.49    3.90
  -3   7   3   81.99    3.10
  -3   7   3   77.79    3.50
   2  -7  -3   -0.30    1.30
   2  -7  -3    2.10    1.50
  -2   7   3    1.30    1.10
  -2   7   3    0.20    1.30
   2   7  -3    1.30    1.40
  -2   7   3    0.40    1.40
   2   7  -3    1.30    1.70
   1  -7  -3    2.50    1.40
   1  -7  -3   -2.10    1.10
  -1   7   3    1.10    1.20
   1   7  -3    0.10    1.20
   1   7  -3    2.00    1.30
  -1   7   3    1.50    1.50
  -1   7   3    2.00    1.20
   0  -7  -3   25.10    2.30
   0   7   3   28.70    2.20
   0   7   3   23.30    2.20
   0   7   3   22.90    2.10
   0   7  -3   23.70    2.60
   0   7  -3   22.40    1.80
  -1  -7  -3   16.30    2.10
  -1   7  -3   20.50    1.60
   1   7   3   18.50    2.30
   1   7   3   22.10    2.10
   1   7   3   21.20    2.10
  -1   7  -3   16.00    2.00
  -2  -7  -3    2.60    1.50
  -2   7  -3    5.10    1.90
   2   7   3    2.80    1.50
   2   7   3    1.40    1.30
   2   7   3    1.80    1.30
  -3  -7  -3  265.47    8.40
   3   7   3  279.47    8.00
  -3   7  -3  268.67    8.10
   3   7   3  274.47    8.00
   3   7   3  287.37    7.70
  -4  -7  -3    7.90    2.10
   4   7   3    7.90    1.80
   4   7   3    6.10    1.80
   4   7   3    5.00    1.70
  -4   7  -3    7.30    2.20
  -5  -7  -3  147.99    6.30
  -5   7  -3  137.29    5.60
   5   7   3  131.59    5.60
   5   7   3  143.89    5.70
   5   7   3  143.59    5.40
  -6  -7  -3   87.69    4.90
   6   7   3  101.59    4.70
   6   7   3  100.99    4.70
   6   7   3   92.39    4.80
  -6   7  -3  101.79    4.70
  -7  -7  -3   11.90    2.80
   7   7   3   10.60    2.20
   7   7   3    8.00    2.40
  -7   7  -3   11.20    2.20
   7   7   3   10.20    2.40
  -8  -7  -3    4.30    2.40
   8   7   3    4.90    2.20
   8   7   3    4.10    2.10
   8   7   3    0.50    2.30
  -8   7  -3    3.90    1.90
  -9  -7  -3    0.90    2.40
  -9   7  -3   -1.70    2.30
   9   7   3    3.20    2.10
   9   7   3   -0.30    2.40
 -10  -7  -3   13.20    3.10
 -10   7  -3   13.10    2.70
  10   7   3   10.20    3.00
  10   7   3   20.70    3.40
 -11  -7  -3    6.80    3.80
 -11   7  -3    6.80    2.40
  11   7   3   10.10    3.60
  11   7   3    8.20    2.60
 -12  -7  -3    6.20    3.80
 -12   7  -3   -1.40    2.60
  12   7   3   -2.20    2.00
  12   7   3    1.30    2.40
  13   7   3    7.00    2.90
 -12  -8   3    5.20    2.80
  12   8  -3    7.70    3.80
 -11  -8   3    2.80    3.20
  11  -8  -3    3.20    2.80
  11   8  -3   -0.50    3.00
  11   8  -3    0.50    2.70
 -10  -8   3   -1.20    2.90
  10  -8  -3   -1.10    2.30
  10   8  -3    0.10    2.40
  10   8  -3    2.60    2.30
   9  -8  -3   13.90    2.90
  -9  -8   3   16.60    3.60
   9   8  -3   21.70    3.30
   9   8  -3   22.10    3.40
  -8  -8   3   24.20    3.40
   8  -8  -3   27.80    3.30
   8   8  -3   26.30    3.00
   8   8  -3   27.20    3.80
   7  -8  -3   35.00    3.20
  -7  -8   3   34.40    4.10
   7   8  -3   34.60    3.60
   7   8  -3   33.70    3.50
  -6  -8   3   10.20    3.00
   6  -8  -3   12.50    2.30
   6   8  -3   11.90    2.80
   6   8  -3    9.20    2.60
  -6   8   3   11.80    2.10
   5  -8  -3   16.30    2.30
  -5  -8   3   18.90    3.20
   5   8  -3   12.40    2.20
   5   8  -3   19.70    2.80
  -5   8   3   17.80    2.20
   4  -8  -3  280.47    7.90
   4   8  -3  282.47    8.20
   4   8  -3  280.17    8.50
  -4   8   3  276.17    7.80
   3  -8  -3  169.28    5.70
  -3   8   3  179.48    5.80
   3   8  -3  174.48    6.30
   3   8  -3  184.98    5.90
   2  -8  -3    1.20    1.40
   2  -8  -3    0.30    1.30
  -2   8   3   -0.90    1.30
   2   8  -3   -0.20    1.50
   2   8  -3    3.30    1.50
  -2   8   3    1.50    1.20
  -2   8   3    2.30    1.60
   1  -8  -3  440.26   10.80
   1  -8  -3  447.66   11.10
  -1   8   3  450.75   10.60
  -1   8   3  426.46   10.80
  -1   8   3  449.16   10.70
   1   8  -3  444.26   10.60
   1   8  -3  435.06   11.30
   0  -8  -3   81.19    3.80
   0   8   3   70.39    3.40
   0   8   3   79.49    3.70
   0   8  -3   77.29    3.20
   0   8   3   74.79    3.50
   0   8  -3   86.69    4.00
  -1  -8  -3   81.09    4.40
   1   8   3   80.19    3.50
   1   8   3   74.99    4.00
   1   8   3   82.29    3.70
  -1   8  -3   84.99    4.00
  -2  -8  -3  338.27   10.00
   2   8   3  365.16    9.70
   2   8   3  353.46    9.70
  -2   8  -3  346.97    9.80
   2   8   3  356.96    9.10
  -3  -8  -3   20.70    2.70
   3   8   3   17.00    2.30
   3   8   3   19.30    2.40
   3   8   3   19.00    2.20
  -3   8  -3   24.70    2.60
  -4  -8  -3  289.37    9.30
   4   8   3  289.97    8.50
   4   8   3  280.77    8.10
  -4   8  -3  289.27    8.60
   4   8   3  281.97    8.90
  -5  -8  -3  196.48    7.80
  -5   8  -3  197.18    7.20
   5   8   3  198.68    6.70
   5   8   3  206.68    7.30
   5   8   3  211.18    7.60
  -6  -8  -3   -0.60    2.00
   6   8   3   -1.70    1.70
   6   8   3    4.70    1.90
   6   8   3    2.70    1.90
  -6   8  -3    5.30    2.00
  -7  -8  -3   10.20    2.80
   7   8   3    4.10    2.30
   7   8   3    4.20    2.20
   7   8   3   10.50    2.40
  -7   8  -3   15.00    2.90
  -8  -8  -3   29.70    3.90
  -8   8  -3   27.50    3.30
   8   8   3   34.20    4.30
   8   8   3   24.90    3.40
   8   8   3   33.50    3.60
  -9  -8  -3   11.60    3.10
   9   8   3   13.80    3.60
   9   8   3   15.20    3.20
  -9   8  -3   16.80    3.20
 -10  -8  -3    5.10    2.90
  10   8   3    4.60    2.60
 -10   8  -3    7.80    2.90
  10   8   3    2.70    2.20
 -11  -8  -3   10.10    4.10
 -11   8  -3   -1.50    2.70
  11   8   3    5.20    3.10
  11   8   3    2.30    2.50
 -12  -8  -3   25.00    5.00
  12   8   3    8.60    3.50
  12   8   3   10.40    4.00
 -12  -9   3    2.10    2.60
 -11  -9   3    7.50    3.80
  11   9  -3    0.60    2.80
  11   9  -3    6.40    3.60
 -10  -9   3    2.80    3.30
  10   9  -3    4.10    2.90
  10   9  -3    7.80    2.80
  -9  -9   3   11.10    2.90
   9   9  -3    9.00    3.40
   9   9  -3    7.00    2.30
  -8  -9   3    2.10    3.10
   8   9  -3    4.00    2.60
   8   9  -3   -0.60    2.00
  -7  -9   3   47.00    4.70
   7   9  -3   44.90    3.90
   7   9  -3   54.79    4.80
  -6  -9   3    4.20    2.30
   6   9  -3    1.60    1.80
  -6   9   3    2.50    1.90
   6   9  -3    3.50    1.80
  -5  -9   3   30.60    4.00
   5   9  -3   32.80    3.30
   5   9  -3   39.10    3.80
  -5   9   3   36.10    3.10
   4   9  -3   -0.80    1.40
  -4   9   3    2.20    1.70
   4   9  -3    1.10    2.20
   3   9  -3    7.20    1.90
   3   9  -3    7.40    2.00
  -3   9   3    2.10    1.80
   2   9  -3   74.69    4.10
  -2   9   3   76.69    3.50
   2   9  -3   78.59    3.60
  -2   9   3   71.89    4.00
   1  -9  -3   92.49    4.40
  -1   9   3   86.99    4.40
  -1   9   3   96.19    4.00
  -1   9   3   88.39    3.90
   1   9  -3   96.19    3.90
   1   9  -3   88.59    4.40
   0   9  -3   10.00    2.40
   0   9   3   12.20    2.00
   0   9   3   10.40    2.00
   0   9   3   10.10    1.90
  -1  -9  -3   25.90    3.20
   1   9   3   23.40    2.70
   1   9   3   28.20    3.00
   1   9   3   28.50    2.60
  -1   9  -3   23.00    2.70
  -2  -9  -3    6.40    2.10
   2   9   3    6.40    1.80
   2   9   3    4.30    1.70
   2   9   3    3.60    2.00
  -2   9  -3    4.10    2.30
  -3  -9  -3   10.40    2.90
  -3   9  -3   15.50    2.80
   3   9   3   12.10    2.10
   3   9   3   12.50    2.60
   3   9   3   14.90    2.80
  -4  -9  -3   71.19    5.10
   4   9   3   68.19    4.50
  -4   9  -3   73.99    4.70
   4   9   3   73.09    3.90
   4   9   3   60.99    4.50
  -5  -9  -3   31.40    3.70
   5   9   3   30.60    3.20
   5   9   3   27.80    3.70
   5   9   3   34.00    3.20
  -5   9  -3   29.90    3.20
  -6  -9  -3  143.49    6.80
   6   9   3  139.19    6.40
   6   9   3  152.28    6.20
   6   9   3  147.09    6.00
  -6   9  -3  150.08    6.60
  -7  -9  -3   37.90    4.30
  -7   9  -3   44.80    4.40
   7   9   3   50.89    4.00
   7   9   3   47.60    4.70
   7   9   3   50.99    4.30
  -8  -9  -3    4.10    2.70
  -8   9  -3    5.60    2.80
   8   9   3    8.60    2.50
   8   9   3    6.30    3.30
   8   9   3    3.70    2.50
  -9  -9  -3    1.80    2.60
   9   9   3   -0.70    2.40
  -9   9  -3   -0.30    2.60
   9   9   3   -1.10    2.10
   9   9   3    3.00    3.10
 -10  -9  -3    6.10    3.10
  10   9   3    3.20    2.10
  10   9   3    1.70    3.20
 -10   9  -3    1.20    2.70
 -11  -9  -3   -4.40    3.60
  11   9   3   -1.20    2.30
 -11   9  -3   -3.30    2.60
  11   9   3   -0.70    2.80
 -11 -10   3   10.00    3.20
  11  10  -3    5.30    2.40
  11  10  -3    5.30    2.90
 -10 -10   3    5.90    3.60
  10  10  -3    3.90    3.00
  10  10  -3    1.90    3.20
  -9 -10   3   -0.10    3.30
   9  10  -3    1.50    3.00
   9  10  -3   -0.90    2.60
  -8 -10   3   42.20    4.60
   8  10  -3   30.50    3.60
   8  10  -3   39.00    4.60
  -7 -10   3    6.00    3.30
   7  10  -3   11.90    3.10
   7  10  -3    7.50    2.50
  -6 -10   3   19.40    3.20
   6  10  -3   15.00    2.70
   6  10  -3   13.30    3.10
  -5 -10   3    4.60    3.00
   5  10  -3    1.00    2.50
   5  10  -3    1.10    2.30
  -5  10   3    3.10    1.90
  -4 -10   3    1.70    2.00
   4  10  -3    1.70    1.80
   4  10  -3    2.50    1.80
  -4  10   3    3.50    1.60
   3  10  -3    3.50    2.10
  -3  10   3    7.00    1.80
   3  10  -3    5.80    2.50
  -2  10   3    0.30    1.40
   2  10  -3    0.90    1.70
   2  10  -3   -1.10    2.10
  -1  10   3    9.60    2.40
   1  10  -3   14.20    2.40
   0  10   3   62.29    3.70
   0  10  -3   63.29    4.00
   0  10   3   75.19    4.40
  -1 -10  -3  102.69    5.10
  -1  10  -3  105.49    5.50
   1  10   3  110.09    5.30
  -2 -10  -3   -2.60    1.60
   2  10   3   -0.10    1.90
   2  10   3   -0.20    1.50
  -2  10  -3    0.80    2.20
  -3 -10  -3   40.10    4.00
   3  10   3   36.10    3.40
  -3  10  -3   36.70    3.90
   3  10   3   34.90    3.70
  -4 -10  -3   11.60    3.30
  -4  10  -3   12.40    3.10
   4  10   3   14.90    3.10
   4  10   3   13.40    2.90
  -5 -10  -3    0.40    2.90
  -5  10  -3    7.40    2.20
   5  10   3    2.20    2.60
   5  10   3    7.30    2.90
  -6 -10  -3   30.30    4.50
   6  10   3   30.70    3.90
  -6  10  -3   31.40    3.90
   6  10   3   27.20    3.50
  -7 -10  -3   10.20    3.70
   7  10   3   12.50    3.50
  -7  10  -3   19.00    3.40
   7  10   3   18.30    3.80
  -8 -10  -3    8.40    3.90
   8  10   3    5.50    2.50
   8  10   3    3.60    3.10
  -8  10  -3    0.60    2.70
  -9 -10  -3   26.10    5.00
   9  10   3   28.10    4.40
   9  10   3   29.50    4.10
  -9  10  -3   25.70    3.60
 -10 -10  -3    0.90    2.90
  10  10   3   -2.80    3.10
 -10  10  -3   -5.50    2.70
 -10 -11   3    9.60    4.00
  10  11  -3    4.60    3.20
  10  11  -3    8.50    3.70
  -9 -11   3   12.80    3.50
   9  11  -3    6.90    2.60
   9  11  -3   10.60    3.10
  -8 -11   3   68.49    6.30
   8  11  -3   67.19    5.80
   8  11  -3   66.69    5.50
  -7 -11   3   65.79    6.00
   7  11  -3   65.59    5.40
   7  11  -3   59.49    5.30
  -6 -11   3   -2.90    2.00
   6  11  -3   -2.30    1.80
   6  11  -3    0.40    2.70
  -5 -11   3   69.29    5.70
   5  11  -3   67.09    5.10
  -5  11   3   67.29    4.40
   5  11  -3   79.09    5.10
  -4 -11   3   10.40    3.50
  -4  11   3   16.40    2.80
   4  11  -3   12.20    2.40
   4  11  -3   12.80    3.10
  -3  11   3   19.10    2.90
   3  11  -3   18.50    2.90
   3  11  -3   21.70    3.00
  -2  11   3    5.60    1.90
   2  11  -3   10.10    2.90
   1  11  -3   -4.40    2.10
  -1  11   3    0.90    1.60
   0 -11  -3  188.28    7.40
   0  11  -3  207.38    7.50
   0  11   3  191.08    7.00
  -1 -11  -3  257.17    8.90
   1  11   3  255.67    8.40
  -1  11  -3  262.27    8.70
  -2 -11  -3    4.10    2.30
   2  11   3    2.90    1.80
   2  11   3    2.70    2.10
  -2  11  -3    2.60    2.00
  -3 -11  -3   13.30    3.00
   3  11   3   20.80    3.00
   3  11   3   17.70    3.10
  -3  11  -3   20.20    3.40
  -4 -11  -3   -1.10    2.00
   4  11   3   -0.40    1.90
  -4  11  -3    0.20    2.60
   4  11   3    6.10    2.80
  -5 -11  -3   46.60    4.70
   5  11   3   52.09    4.40
   5  11   3   49.80    4.70
  -5  11  -3   50.99    4.70
  -6 -11  -3   22.40    3.80
   6  11   3   17.30    3.10
  -6  11  -3   21.80    3.30
   6  11   3   21.30    3.40
  -7 -11  -3    8.70    3.20
   7  11   3    2.40    3.10
  -7  11  -3    8.10    2.50
   7  11   3    5.80    2.60
  -8 -11  -3   34.70    4.70
   8  11   3   33.60    4.30
   8  11   3   25.90    3.80
  -8  11  -3   33.20    3.90
  -9 -11  -3    1.90    4.00
   9  11   3    5.70    2.80
   9  11   3   11.20    3.70
  -9  11  -3    1.40    2.90
 -10  11  -3    9.80    3.40
  -9 -12   3   -1.60    2.60
   9  12  -3   -1.20    2.00
   9  12  -3    0.50    3.30
  -8 -12   3   -3.30    3.40
   8  12  -3   -0.20    3.00
   8  12  -3   -1.10    2.90
  -7 -12   3   -0.60    3.60
   7  12  -3    0.10    2.90
   7  12  -3    2.10    2.20
  -6 -12   3    4.00    3.60
   6  12  -3   -1.80    2.50
   6  12  -3    5.50    3.10
  -5 -12   3    4.00    2.70
   5  12  -3    6.60    2.50
   5  12  -3   -0.90    2.50
  -4 -12   3   62.69    5.40
   4  12  -3   61.99    4.60
  -4  12   3   59.79    4.50
  -3  12   3    9.20    2.70
   3  12  -3   13.70    3.40
  -2  12   3    2.10    1.80
   2  12  -3   -2.30    2.50
  -1  12   3   52.49    4.50
   1  12  -3   44.60    4.50
   0 -12  -3    7.90    3.20
   0  12   3   10.10    2.90
   0  12  -3    5.00    2.90
  -1 -12  -3   19.30    3.70
   1  12   3   20.40    3.50
  -1  12  -3   18.80    3.60
  -2 -12  -3   65.19    5.60
   2  12   3   51.79    4.70
  -2  12  -3   51.39    4.80
  -3 -12  -3    1.40    3.00
   3  12   3    0.60    2.40
   3  12   3   -1.40    2.50
  -3  12  -3   -0.80    1.90
  -4 -12  -3   73.39    5.40
   4  12   3   58.09    5.10
  -4  12  -3   62.79    5.40
   4  12   3   57.79    4.50
  -5 -12  -3    6.00    3.00
   5  12   3   12.00    3.40
   5  12   3   10.50    2.80
  -5  12  -3    5.10    2.40
  -6 -12  -3    6.40    3.20
  -6  12  -3    8.40    2.70
   6  12   3    4.90    2.40
   6  12   3    4.30    2.60
  -7 -12  -3   -1.70    3.60
  -7  12  -3    0.60    2.10
   7  12   3    1.40    3.10
   7  12   3    3.00    3.20
  -8 -12  -3   -1.60    3.80
  -8  12  -3    0.00    2.80
   8  12   3    7.00    3.60
   8  12   3    2.50    2.60
  -9  12  -3   -1.30    2.90
  -8 -13   3   -1.90    4.70
   8  13  -3   -1.80    2.20
  -7 -13   3    5.50    4.20
   7  13  -3   16.70    4.00
   7  13  -3    4.90    3.20
  -6 -13   3   -4.70    3.50
   6  13  -3    0.70    2.00
   6  13  -3   -1.10    2.90
  -5 -13   3   14.50    4.30
   5  13  -3   15.40    3.80
  -4 -13   3    5.30    3.80
   4  13  -3    4.70    3.30
  -4  13   3    2.50    1.90
  -3  13   3    1.20    2.50
   3  13  -3    4.50    3.10
   2  13  -3    7.80    3.40
  -2  13   3    5.70    2.20
  -1  13   3   -0.10    2.60
   1  13  -3   -0.90    2.80
   0 -13  -3    7.50    3.30
   0  13  -3    1.70    3.00
   0  13   3    2.30    2.60
  -1 -13  -3    4.20    2.60
   1  13   3    5.10    2.20
  -1  13  -3    0.80    2.10
  -2 -13  -3    6.50    2.80
  -2  13  -3    6.50    2.50
   2  13   3    6.70    3.00
  -3 -13  -3    3.90    3.60
  -3  13  -3    0.80    3.00
   3  13   3    9.40    3.30
  -4 -13  -3    1.00    3.60
   4  13   3    1.50    3.00
  -4  13  -3    3.60    3.00
   4  13   3    8.30    3.00
  -5 -13  -3    1.30    2.80
   5  13   3    2.40    2.50
  -5  13  -3    1.20    2.20
   5  13   3    1.40    2.80
  -6 -13  -3   14.70    3.70
   6  13   3   10.90    3.00
   6  13   3    9.20    2.80
  -6  13  -3    6.70    2.60
  -7 -13  -3   60.99    6.90
   7  13   3   51.59    5.70
   7  13   3   54.79    5.70
  -7  13  -3   45.40    4.60
  -5 -14   3    1.40    2.90
   5  14  -3    5.10    2.70
  -4 -14   3    0.70    2.80
   4  14  -3    4.80    2.70
  -3 -14   3   -0.80    2.60
  -3  14   3   -4.20    2.40
   3  14  -3    1.20    2.30
   2  14  -3   -0.20    3.00
  -2  14   3   -0.30    1.90
   1 -14  -3   46.90    5.20
  -1  14   3   47.90    4.90
   1  14  -3   63.39    5.80
   0 -14  -3   14.60    3.20
   0  14   3   17.60    3.10
   0  14  -3   15.50    3.20
  -1 -14  -3   82.39    6.80
  -1  14  -3  105.69    6.10
   1  14   3  110.79    6.50
  -2 -14  -3   56.09    5.90
   2  14   3   55.09    5.30
  -2  14  -3   51.39    5.30
  -3 -14  -3    5.10    3.00
  -3  14  -3    7.30    3.40
   3  14   3    6.60    2.60
  -4 -14  -3   21.40    4.90
  -4  14  -3   31.50    4.00
   4  14   3   35.30    4.80
  -5 -14  -3    6.80    4.10
   5  14   3    3.50    3.30
  -5  14  -3    0.80    3.20
   6  14   3   18.50    4.10
  -6  14  -3   13.80    3.80
   2 -15  -3   -3.20    2.90
  -2  15   3    0.00    2.10
   1 -15  -3    0.00    3.40
  -1  15   3    3.40    3.10
   1  15  -3   -0.40    3.30
   0 -15  -3   13.10    3.50
   0  15   3    5.10    3.10
   0  15  -3    9.10    3.00
  -1 -15  -3   21.50    4.70
   1  15   3   30.10    4.50
  -1  15  -3   36.10    4.90
  -2 -15  -3    2.10    2.70
  -2  15  -3    2.30    2.50
   2  15   3    6.70    2.80
  14   0  -4    2.40    3.40
  13   0  -4    4.90    3.20
  12   0  -4    0.20    2.30
  12   0  -4    5.10    2.30
  11   0  -4    1.50    2.60
  11   0  -4    1.70    2.20
  10   0  -4   10.10    2.40
  10   0  -4    7.00    2.70
   9   0  -4  143.49    5.80
   9   0  -4  157.88    5.90
   8   0  -4  236.88    7.30
   8   0  -4  243.18    7.40
  -8   0   4  231.78    6.40
   7   0  -4  275.37    7.70
   7   0  -4  266.67    7.60
  -7   0   4  263.37    6.70
   6   0  -4  206.68    6.10
   6   0  -4  217.98    6.50
  -6   0   4  205.98    5.30
   5   0  -4    1.40    1.60
  -5   0   4    1.80    0.90
   5   0  -4    2.10    1.50
   4   0  -4   10.60    1.70
  -4   0   4   11.60    1.00
   4   0  -4   11.70    1.80
   3   0  -4    4.40    1.30
   3   0  -4    6.10    1.50
  -2   0   4  485.45   10.80
   2   0  -4  510.25   10.90
   2   0  -4  502.35   11.10
   1   0  -4  162.38    4.50
   1   0  -4  164.38    3.70
  -1   0   4  155.68    4.30
   1   0  -4  165.88    4.50
   0   0  -4 1378.86   27.60
   0   0   4 1372.76   27.20
   0   0  -4 1366.36   26.90
   0   0   4 1349.77   27.30
  -1   0  -4 9999.00  193.78
  -1   0  -4 9757.92  194.58
   1   0   4 9673.73  193.78
   1   0   4 9779.12  193.78
  -2   0  -4 5554.74  108.09
   2   0   4 5505.55  106.99
  -2   0  -4 5304.67  105.59
   2   0   4 5427.06  106.29
  -3   0  -4  290.97    7.40
   3   0   4  305.27    7.30
   3   0   4  308.87    7.30
   4   0   4  137.39    4.30
  -4   0  -4  143.49    4.80
   4   0   4  134.29    4.30
   5   0   4  198.58    5.60
  -5   0  -4  193.58    6.00
   5   0   4  202.58    5.80
   6   0   4   36.00    2.50
  -6   0  -4   39.30    2.80
   6   0   4   29.40    2.40
   7   0   4  469.65   11.40
  -7   0  -4  464.75   12.00
   7   0   4  471.65   11.90
  -8   0  -4    9.60    2.70
   8   0   4    7.70    1.80
   8   0   4   10.70    2.10
   9   0   4  183.28    6.40
   9   0   4  178.08    6.60
  -9   0  -4  196.38    7.40
  10   0   4   64.69    4.80
 -10   0  -4   68.19    4.50
  11   0   4  161.68    7.30
 -11   0  -4  147.99    6.70
 -12   0  -4   20.90    3.40
  12   0   4   23.30    3.50
  13   0   4    5.90    3.20
 -13   0  -4    3.80    2.50
  14   0   4   -5.60    2.80
 -14   0  -4   -3.60    2.90
  14  -1  -4    2.50    2.50
  14   1  -4    5.40    3.50
  13  -1  -4    4.20    3.30
  13   1  -4   -1.50    2.90
  13   1  -4    3.20    2.00
  12  -1  -4   19.40    3.20
  12   1  -4   29.20    3.40
  12   1  -4   26.00    3.50
  11  -1  -4    1.30    2.60
  11  -1  -4    6.00    2.20
  11   1  -4    0.00    2.30
  11   1  -4   -0.10    2.60
  10  -1  -4    8.10    1.90
  10  -1  -4   10.50    2.80
  10   1  -4    6.80    2.40
  10   1  -4   10.30    2.40
   9  -1  -4  224.48    7.80
  -9  -1   4  230.88    6.90
   9  -1  -4  239.58    7.40
   9   1  -4  226.58    7.80
   9   1  -4  234.08    7.70
   8  -1  -4   22.30    2.90
  -8  -1   4   24.30    2.30
   8  -1  -4   21.50    2.20
   8   1  -4   25.70    2.90
  -8   1   4   20.50    2.00
   8   1  -4   18.40    2.60
   7  -1  -4   54.59    3.50
   7  -1  -4   52.29    2.80
  -7  -1   4   51.59    2.80
  -7   1   4   49.60    2.40
   7   1  -4   50.89    3.00
   7   1  -4   46.00    3.30
   6  -1  -4   49.60    3.20
  -6  -1   4   45.00    2.40
   6  -1  -4   43.80    2.80
  -6   1   4   43.30    2.10
   6   1  -4   43.10    3.00
   6   1  -4   48.60    2.80
   5  -1  -4   38.30    2.80
  -5  -1   4   34.40    2.00
   5  -1  -4   40.30    2.30
   5   1  -4   37.80    2.30
   5   1  -4   37.40    2.40
  -5   1   4   34.80    1.60
   5   1  -4   37.40    1.70
   4  -1  -4  274.57    7.20
   4  -1  -4  275.67    7.00
  -4  -1   4  276.57    6.20
   4   1  -4  277.97    7.00
   4   1  -4  262.27    7.00
   4   1  -4  273.47    6.10
  -4   1   4  271.57    5.70
   3  -1  -4   11.30    1.50
   3  -1  -4   12.50    1.50
   3   1  -4   12.20    1.50
   3   1  -4   12.80    1.00
   3   1  -4   10.80    1.30
   2  -1  -4    6.40    1.50
   2  -1  -4    5.30    1.60
  -2   1   4    4.30    1.40
   2   1  -4    7.40    0.80
   2   1  -4    4.90    1.30
   2   1  -4    3.90    1.50
   1  -1  -4  487.15   10.90
  -1  -1   4  493.55   10.40
   1  -1  -4  495.95    9.90
   1  -1  -4  484.95   10.90
   1   1  -4  495.35   10.80
  -1   1   4  487.85   10.70
  -1   1   4  498.05   10.70
   1   1  -4  507.55   10.20
   1   1  -4  497.95   10.50
   0  -1  -4  130.09    3.40
   0  -1  -4  129.79    4.00
   0  -1   4  129.69    3.40
   0   1   4  127.29    3.60
   0   1   4  130.29    3.70
   0   1  -4  130.79    3.90
   0   1  -4  127.49    3.40
  -1  -1  -4  897.41   18.40
   1  -1   4  884.41   18.30
   1  -1   4  911.71   18.30
  -1  -1  -4  904.51   19.00
  -1   1  -4  886.91   18.50
   1   1   4  929.71   18.70
  -1   1  -4  910.31   18.50
   1   1   4  909.81   18.60
  -2  -1  -4  496.95   11.10
   2  -1   4  499.55   10.70
   2  -1   4  500.45   10.60
   2   1   4  505.85   11.00
  -2   1  -4  493.85   10.90
  -2   1  -4  487.75   11.00
   2   1   4  489.25   10.90
  -3  -1  -4    6.30    1.40
   3  -1   4    4.80    1.00
   3  -1   4    4.60    1.10
   3   1   4    5.50    1.20
  -3   1  -4    5.20    1.30
  -3   1  -4    4.90    1.20
   3   1   4    4.80    1.50
  -4  -1  -4  208.18    6.20
   4  -1   4  218.68    5.50
   4  -1   4  216.68    5.80
   4   1   4  209.48    5.90
   4   1   4  204.88    5.90
  -4   1  -4  198.88    5.90
   5  -1   4  112.69    4.10
  -5  -1  -4  105.19    4.50
   5  -1   4  109.49    3.70
  -5   1  -4  108.99    4.20
   5   1   4  111.29    4.30
   5   1   4  106.19    4.10
   6  -1   4    3.60    1.60
   6  -1   4    5.30    1.30
  -6  -1  -4    9.30    2.20
  -6   1  -4    5.40    1.60
   6   1   4    4.30    1.90
   6   1   4    6.50    1.70
  -7  -1  -4    7.60    2.40
   7  -1   4    4.60    1.50
   7  -1   4    6.20    1.60
   7   1   4    6.30    2.10
  -7   1  -4    7.30    2.30
   7   1   4    7.00    1.50
  -8  -1  -4    3.70    2.40
   8  -1   4   11.30    1.80
   8  -1   4    7.80    1.90
   8   1   4    8.00    2.10
   8   1   4    9.90    2.40
  -8   1  -4    7.80    2.50
   9  -1   4   10.20    2.20
  -9  -1  -4    9.90    2.90
  -9   1  -4    9.30    2.70
   9   1   4    7.00    2.10
   9   1   4    7.00    2.20
  10  -1   4   13.20    3.00
 -10  -1  -4   13.40    3.30
  10   1   4   18.80    2.60
 -10   1  -4   15.10    2.70
  10   1   4   18.90    3.20
 -11  -1  -4   52.69    5.00
  11  -1   4   63.69    4.40
  11   1   4   59.49    5.10
 -11   1  -4   62.09    5.20
  12  -1   4   16.20    3.50
 -12  -1  -4   15.00    3.70
  12   1   4   18.00    3.10
 -12   1  -4    6.60    3.20
  13  -1   4   -3.20    1.90
 -13  -1  -4    2.80    2.40
 -13   1  -4    1.80    3.10
  13   1   4    3.60    3.20
 -14  -1  -4    7.00    3.50
  14  -1   4   -1.80    3.10
 -14   1  -4    1.30    3.20
  14   1   4   -0.30    2.40
  14  -2  -4    2.70    2.60
  14   2  -4   -1.60    1.90
  14   2  -4    0.30    3.10
  13  -2  -4   58.49    5.60
  13   2  -4   57.99    5.40
  13   2  -4   50.99    5.00
  12  -2  -4    6.70    2.60
  12   2  -4    7.80    2.90
  12   2  -4    8.20    3.30
  11  -2  -4    2.10    2.70
  11   2  -4   -2.10    1.70
  11   2  -4   -2.00    1.60
  10  -2  -4    3.40    2.50
  10  -2  -4    2.20    2.20
  10   2  -4    4.80    2.50
  10   2  -4    8.50    2.60
  -9  -2   4   -1.50    1.80
   9  -2  -4    1.10    2.20
   9  -2  -4    0.90    1.60
   9   2  -4   -0.10    1.50
   9   2  -4    3.10    2.20
   8  -2  -4   40.00    2.90
  -8  -2   4   38.20    2.90
   8  -2  -4   36.40    3.40
   8   2  -4   32.50    3.20
   8   2  -4   35.60    2.90
  -7  -2   4   18.40    2.10
   7  -2  -4   18.40    2.30
   7  -2  -4   19.20    2.10
  -7   2   4   19.80    1.60
   7   2  -4   20.70    2.20
   7   2  -4   18.40    2.20
   6  -2  -4   23.70    2.20
  -6  -2   4   20.60    1.90
   6  -2  -4   20.50    2.20
   6   2  -4   20.60    1.80
   6   2  -4   25.00    2.40
  -6   2   4   21.30    1.60
   6   2  -4   24.70    2.20
   5  -2  -4   56.19    2.80
   5  -2  -4   59.49    3.00
  -5  -2   4   60.79    2.60
   5   2  -4   58.29    2.40
  -5   2   4   59.39    2.00
   5   2  -4   57.09    3.30
   5   2  -4   59.49    3.00
  -4  -2   4  256.57    6.20
   4  -2  -4  256.17    6.90
   4  -2  -4  243.08    6.50
   4   2  -4  264.07    6.80
   4   2  -4  254.87    6.40
   4   2  -4  257.37    6.00
  -4   2   4  253.27    5.40
   3  -2  -4   99.89    3.40
   3  -2  -4   95.29    3.80
   3   2  -4   97.59    3.50
   3   2  -4  103.89    3.00
  -3   2   4   95.19    3.60
   3   2  -4   92.89    3.00
   2  -2  -4  322.47    7.80
   2  -2  -4  310.47    6.60
   2  -2  -4  319.97    7.70
   2   2  -4  325.97    7.20
   2   2  -4  327.07    7.80
  -2   2   4  314.67    6.50
  -2   2   4  318.97    7.60
   2   2  -4  320.57    7.10
  -1  -2   4  106.99    2.80
   1  -2  -4  108.39    2.80
   1  -2  -4  109.19    3.60
   1  -2  -4  104.29    3.80
   1   2  -4  107.09    3.30
   1   2  -4  110.49    3.20
  -1   2   4  108.29    2.70
   1   2  -4  102.29    3.00
  -1   2   4  102.99    3.50
  -1   2   4  104.79    3.50
   0  -2   4  246.68    5.40
   0  -2  -4  242.88    6.40
   0  -2  -4  243.88    5.70
   0   2  -4  247.88    5.80
   0   2  -4  251.67    6.00
   0   2   4  241.28    6.10
   0   2   4  243.58    6.10
   0   2   4  243.58    5.50
  -1  -2  -4  443.66    9.80
   1  -2   4  435.86    9.30
  -1  -2  -4  426.96   10.30
  -1   2  -4  441.16    9.80
   1   2   4  442.66   10.00
  -1   2  -4  457.55    9.70
   1   2   4  446.76    9.90
  -2  -2  -4   74.19    2.90
   2  -2   4   72.49    2.50
   2  -2   4   76.69    2.40
   2   2   4   78.69    3.00
  -2   2  -4   76.39    2.70
   2   2   4   72.89    2.90
  -2   2  -4   78.69    2.90
   3  -2   4    0.10    1.00
   3  -2   4    0.10    0.80
  -3  -2  -4   -0.10    1.50
   3   2   4    0.10    1.40
  -3   2  -4    2.00    1.50
  -3   2  -4    0.20    0.90
   3   2   4    1.80    1.40
  -4  -2  -4    5.50    1.50
   4  -2   4    3.80    1.00
   4  -2   4    5.00    1.30
  -4   2  -4    5.00    1.30
   4   2   4    5.10    1.70
   4   2   4    2.40    1.60
  -4   2  -4    4.40    1.40
  -5  -2  -4    7.20    2.10
   5  -2   4    8.40    1.30
   5  -2   4    6.40    1.50
   5   2   4    6.30    1.50
  -5   2  -4    8.90    1.70
   5   2   4    7.40    1.80
  -6  -2  -4   -1.40    1.30
   6  -2   4    2.40    1.60
   6  -2   4    1.00    1.00
  -6   2  -4   -1.30    1.20
   6   2   4    0.90    1.30
   6   2   4   -1.10    1.10
  -7  -2  -4   62.79    3.80
   7  -2   4   66.79    3.00
   7  -2   4   58.89    3.60
  -7   2  -4   62.39    3.60
   7   2   4   62.79    3.50
   7   2   4   62.59    3.80
  -8  -2  -4    6.30    2.60
   8  -2   4    6.30    1.80
   8   2   4    5.50    1.70
  -8   2  -4    9.30    2.10
   8   2   4    6.40    2.40
   9  -2   4    7.00    2.50
  -9  -2  -4    8.20    2.40
   9   2   4    9.70    2.60
   9   2   4    4.30    2.20
  -9   2  -4    4.40    2.50
  10  -2   4    6.50    2.60
 -10  -2  -4    6.40    2.40
  10   2   4    7.60    2.80
 -10   2  -4    6.70    2.80
  10   2   4    3.30    2.50
  11  -2   4    0.70    1.80
 -11  -2  -4    1.20    2.90
 -11   2  -4    0.00    2.70
  11   2   4    1.40    1.80
  11   2   4   -1.20    2.50
  12  -2   4   -1.50    2.60
 -12  -2  -4    1.30    3.10
  12   2   4   -0.50    2.70
  12   2   4   -0.50    2.10
 -12   2  -4   -0.10    2.00
 -13  -2  -4   -1.30    2.30
  13  -2   4    1.80    3.00
  13   2   4   -1.90    2.80
 -13   2  -4   -2.60    2.90
  14  -2   4    6.90    2.90
 -14  -2  -4    2.30    3.40
 -14   2  -4    6.60    3.50
  14  -3  -4   30.30    4.70
  14   3  -4   29.70    4.10
  14   3  -4   35.90    4.80
  13  -3  -4    1.90    2.40
  13   3  -4    3.10    2.40
  13   3  -4   -2.40    1.90
  12  -3  -4    3.70    3.00
  12   3  -4   -3.20    2.40
  12   3  -4    3.70    3.00
  11  -3  -4   69.99    5.40
  11   3  -4   71.79    4.70
  11   3  -4   85.99    5.50
  10  -3  -4   12.00    3.00
  10   3  -4   14.50    3.00
  10   3  -4   21.20    3.20
  -9  -3   4  208.78    6.90
   9  -3  -4  198.68    7.40
   9   3  -4  204.68    7.20
   9   3  -4  214.48    7.10
  -8  -3   4   28.00    2.70
   8  -3  -4   28.20    2.50
   8  -3  -4   30.40    3.20
   8   3  -4   32.10    3.00
   8   3  -4   30.10    3.00
  -7  -3   4   55.59    3.20
   7  -3  -4   55.49    2.90
   7  -3  -4   61.79    3.40
  -7   3   4   55.09    2.40
   7   3  -4   52.49    2.80
   7   3  -4   59.39    3.80
   7   3  -4   56.39    3.50
  -6  -3   4   96.29    3.80
   6  -3  -4   98.19    4.00
   6  -3  -4   87.99    3.50
  -6   3   4   90.79    3.00
   6   3  -4   91.19    4.00
   6   3  -4   90.69    3.40
   6   3  -4   91.39    3.60
   5  -3  -4  179.98    5.80
  -5  -3   4  174.58    5.30
   5  -3  -4  176.88    5.20
  -5   3   4  179.28    4.40
   5   3  -4  186.68    5.80
   5   3  -4  185.58    5.00
   5   3  -4  188.88    5.40
  -4  -3   4    3.60    1.40
   4  -3  -4    6.70    1.80
   4  -3  -4    1.70    0.90
   4   3  -4    5.10    1.40
   4   3  -4    5.30    1.30
  -4   3   4    2.70    0.80
   4   3  -4    1.60    1.10
   3  -3  -4   66.29    3.30
   3  -3  -4   67.39    2.90
  -3   3   4   70.59    2.00
   3   3  -4   64.19    2.50
   3   3  -4   69.89    3.20
   3   3  -4   70.69    2.70
  -3   3   4   67.49    3.20
   2  -3  -4  121.49    4.30
   2  -3  -4  125.19    4.10
   2   3  -4  124.19    3.30
  -2   3   4  127.69    3.10
   2   3  -4  127.19    3.80
  -2   3   4  124.19    3.80
  -2   3   4  124.89    3.90
   2   3  -4  117.19    3.80
   1  -3  -4  242.78    6.40
   1  -3  -4  237.78    6.40
   1  -3  -4  237.08    5.50
  -1   3   4  229.78    5.30
  -1   3   4  233.28    6.10
   1   3  -4  233.78    5.20
  -1   3   4  230.58    5.90
   1   3  -4  240.38    5.90
   1   3  -4  229.88    5.90
   0  -3  -4    9.80    1.30
   0  -3   4   10.70    0.90
   0  -3  -4   11.50    1.60
   0   3  -4   10.40    1.30
   0   3  -4    9.10    0.90
   0   3   4   11.40    1.40
   0   3   4   11.20    1.40
   0   3   4    8.80    1.20
   0   3  -4   12.10    1.50
  -1  -3  -4  388.96    9.20
   1  -3   4  407.06    8.40
   1   3   4  398.86    9.40
   1   3   4  405.66    9.50
   1   3   4  409.16    9.00
  -1   3  -4  416.06    8.80
  -1   3  -4  406.56    9.40
   2  -3   4   13.70    1.10
  -2  -3  -4   14.80    1.70
   2   3   4   12.40    1.70
  -2   3  -4   15.00    1.20
   2   3   4   12.90    1.40
   2   3   4   10.50    1.80
  -2   3  -4   12.40    1.80
   3  -3   4  506.05   10.70
   3  -3   4  513.65   11.10
  -3  -3  -4  504.25   11.90
  -3   3  -4  508.35   11.80
   3   3   4  501.55   11.80
  -3   3  -4  534.65   10.80
   3   3   4  519.85   12.00
   3   3   4  517.85   11.60
   4  -3   4   10.50    1.40
  -4  -3  -4    8.00    1.70
   4  -3   4    8.80    1.00
  -4   3  -4    6.40    1.90
  -4   3  -4    7.80    1.10
   4   3   4    6.80    1.60
   4   3   4    6.90    1.80
  -5  -3  -4  511.85   12.40
   5  -3   4  499.85   10.70
   5  -3   4  494.55   11.60
  -5   3  -4  498.85   11.00
   5   3   4  519.35   12.40
   5   3   4  501.15   12.10
  -5   3  -4  507.75   12.20
  -6  -3  -4  302.57    8.80
   6  -3   4  311.47    8.10
   6   3   4  306.67    8.70
  -6   3  -4  295.57    8.40
   6   3   4  309.17    8.60
   7  -3   4   15.20    2.20
  -7  -3  -4   15.00    2.80
  -7   3  -4   18.10    2.80
   7   3   4   17.70    2.30
   7   3   4   18.50    2.60
  -8  -3  -4   25.40    3.10
   8  -3   4   19.10    2.70
  -8   3  -4   19.70    3.00
   8   3   4   22.90    2.70
   8   3   4   18.90    2.50
  -9  -3  -4   -2.30    2.50
   9  -3   4    1.20    2.00
   9   3   4   -0.90    1.60
   9   3   4   -2.00    1.40
  -9   3  -4   -2.60    2.20
 -10  -3  -4   69.89    4.80
  10  -3   4   72.99    4.30
  10   3   4   68.39    5.10
  10   3   4   62.09    4.70
 -10   3  -4   60.29    4.90
  11  -3   4   49.10    4.60
 -11  -3  -4   59.69    5.40
 -11   3  -4   62.89    4.50
  11   3   4   49.40    4.60
  11   3   4   51.79    4.90
 -12  -3  -4    8.10    3.50
  12  -3   4    2.40    2.70
  12   3   4    5.50    2.50
 -12   3  -4    5.50    3.20
  12   3   4    7.00    2.90
 -13  -3  -4   17.10    3.50
  13  -3   4   19.70    3.30
  13   3   4   19.30    3.80
  13   3   4   13.10    3.80
 -13   3  -4   19.90    3.80
  14  -3   4   13.20    3.80
 -14  -3  -4   12.00    4.10
 -14   3  -4   12.70    3.70
  14  -4  -4   19.40    3.60
  14   4  -4   16.10    4.10
  14   4  -4   17.90    3.50
  13  -4  -4   27.80    4.40
  13   4  -4   30.30    4.40
  13   4  -4   24.90    4.20
  12  -4  -4    6.40    3.20
  12   4  -4    4.20    2.90
  12   4  -4   10.30    3.30
  11  -4  -4   -0.20    1.90
  11   4  -4   -0.20    1.80
  11   4  -4   -5.10    2.10
 -10  -4   4    0.80    2.10
  10  -4  -4    1.00    1.80
  10   4  -4    2.40    2.60
  10   4  -4    1.10    2.30
   9  -4  -4    2.00    1.80
  -9  -4   4   -3.00    1.90
   9   4  -4    0.70    1.60
   9   4  -4   -1.00    1.90
   8  -4  -4    3.20    2.20
  -8  -4   4    1.90    1.80
   8   4  -4    7.20    2.00
   8   4  -4    4.50    2.00
   8   4  -4    2.10    1.60
   7  -4  -4    0.80    1.40
  -7  -4   4    0.60    1.70
   7  -4  -4   -0.20    1.10
   7   4  -4   -1.10    1.10
   7   4  -4    1.50    1.50
   7   4  -4    1.20    1.40
   6  -4  -4   71.09    3.60
  -6  -4   4   68.99    3.60
   6  -4  -4   76.69    3.30
   6   4  -4   70.29    3.20
   6   4  -4   74.49    3.10
   6   4  -4   74.69    3.70
  -6   4   4   75.39    2.70
  -5  -4   4    0.30    1.50
   5  -4  -4    2.40    1.20
   5  -4  -4    4.70    1.70
   5   4  -4    0.60    1.20
  -5   4   4    1.30    0.90
   5   4  -4   -1.30    1.20
   5   4  -4    1.70    1.30
   4  -4  -4   25.00    2.50
   4  -4  -4   24.20    2.00
   4   4  -4   25.70    2.10
  -4   4   4   26.50    1.60
   4   4  -4   25.20    1.90
   4   4  -4   27.00    2.30
   3  -4  -4  112.49    4.30
   3  -4  -4  110.29    3.90
   3   4  -4  120.19    3.40
   3   4  -4  109.89    4.00
  -3   4   4  117.19    3.20
   3   4  -4  113.99    3.70
  -3   4   4  114.69    4.20
   2  -4  -4   48.20    2.70
   2  -4  -4   50.69    2.60
   2   4  -4   49.80    2.60
   2   4  -4   52.89    2.50
  -2   4   4   53.39    2.50
   2   4  -4   47.80    1.80
  -2   4   4   50.89    2.30
  -2   4   4   50.89    2.10
   1  -4  -4   17.80    1.50
   1  -4  -4   15.60    1.70
   1  -4  -4   17.50    2.00
   1   4  -4   14.80    0.80
  -1   4   4   17.10    1.40
   1   4  -4   17.70    1.80
  -1   4   4   12.70    1.70
   1   4  -4   15.20    1.40
  -1   4   4   13.40    1.70
   0  -4  -4  403.66    9.40
   0  -4  -4  414.66   10.10
   0   4  -4  406.36    9.60
   0   4   4  408.66    9.50
   0   4   4  409.46    9.20
   0   4  -4  425.46    9.20
   0   4   4  419.36    9.70
   1  -4   4  218.58    4.60
  -1  -4  -4  216.08    5.80
   1   4   4  213.18    5.50
  -1   4  -4  208.28    5.10
   1   4   4  214.48    5.90
  -1   4  -4  220.28    6.00
   1   4   4  213.08    5.80
  -2  -4  -4   40.40    2.50
   2  -4   4   43.00    1.70
  -2   4  -4   41.80    1.60
   2   4   4   44.00    2.70
   2   4   4   42.00    2.20
  -2   4  -4   40.90    2.40
   2   4   4   42.30    2.80
   3  -4   4   64.69    2.30
  -3  -4  -4   65.39    3.20
   3   4   4   68.39    3.20
  -3   4  -4   65.29    2.00
   3   4   4   63.79    3.30
  -3   4  -4   65.49    3.10
   3   4   4   66.69    3.30
   4  -4   4   72.89    2.80
  -4  -4  -4   72.19    3.60
   4   4   4   75.79    3.30
  -4   4  -4   71.39    3.70
   4   4   4   65.19    3.70
   4   4   4   73.59    3.60
  -5  -4  -4   34.60    3.00
   5  -4   4   39.10    2.40
   5   4   4   36.90    2.60
   5   4   4   38.10    2.80
  -5   4  -4   38.00    2.70
  -6  -4  -4   14.10    2.30
   6  -4   4   13.50    1.90
  -6   4  -4   17.40    2.30
   6   4   4   13.00    2.50
   6   4   4   18.80    2.60
   7  -4   4   68.29    3.60
  -7  -4  -4   67.39    4.10
   7   4   4   61.49    3.80
   7   4   4   66.09    4.10
  -7   4  -4   75.49    3.90
  -8  -4  -4   23.50    3.60
   8  -4   4   23.90    2.70
   8   4   4   19.90    3.00
  -8   4  -4   18.90    3.00
   8   4   4   24.40    2.90
   9  -4   4   26.60    3.10
  -9  -4  -4   30.20    3.60
   9   4   4   23.10    3.00
  -9   4  -4   25.80    3.60
   9   4   4   27.00    3.20
 -10  -4  -4   -2.60    2.70
  10  -4   4    3.60    2.30
  10   4   4   -1.10    2.40
 -10   4  -4   -1.40    2.40
  10   4   4    0.30    1.90
 -11  -4  -4   12.70    3.70
  11  -4   4   18.80    3.30
  11   4   4   14.50    3.30
  11   4   4   13.30    2.80
 -11   4  -4   15.30    3.30
 -12  -4  -4    1.20    2.50
  12  -4   4    3.80    2.20
 -12   4  -4   -0.30    1.90
  12   4   4   -0.40    2.10
  12   4   4    4.90    2.40
  13  -4   4    1.80    3.00
 -13  -4  -4   -0.20    3.30
  13   4   4    5.60    3.40
 -13   4  -4    4.60    3.20
  13   4   4    3.80    3.10
  14  -5  -4    9.70    3.60
  14   5  -4    9.70    3.10
  14   5  -4    3.30    3.40
  13  -5  -4   12.70    3.00
  13   5  -4    9.90    3.60
  13   5  -4   12.00    2.90
  12  -5  -4   10.20    3.30
  12   5  -4   11.50    2.90
  12   5  -4    9.00    2.60
  11  -5  -4    3.50    2.80
  11   5  -4    6.00    2.20
  11   5  -4    3.80    2.30
 -10  -5   4    2.40    2.40
  10  -5  -4   -0.40    2.50
  10   5  -4    0.90    2.30
  10   5  -4    2.20    2.70
   9  -5  -4   25.20    3.30
  -9  -5   4   20.80    2.70
   9   5  -4   23.80    3.00
   9   5  -4   20.30    2.60
   9   5  -4   19.30    3.30
  -8  -5   4    1.30    1.60
   8  -5  -4    3.50    1.70
   8   5  -4    2.10    1.70
   8   5  -4    0.80    1.80
   8   5  -4    1.70    1.40
  -7  -5   4   20.30    2.70
   7  -5  -4   21.40    2.80
   7   5  -4   29.60    3.00
   7   5  -4   25.90    2.60
   7   5  -4   24.00    2.50
  -6  -5   4   22.90    2.60
   6  -5  -4   22.20    1.90
   6  -5  -4   12.90    2.40
  -6   5   4   20.00    1.70
   6   5  -4   17.70    2.30
   6   5  -4   18.00    2.10
   6   5  -4   14.40    1.90
   5  -5  -4    0.00    1.00
   5  -5  -4   -2.70    1.00
  -5  -5   4   -1.00    1.60
   5   5  -4    1.10    1.30
   5   5  -4    3.80    1.90
  -5   5   4   -0.90    0.80
   5   5  -4    0.50    1.10
   4  -5  -4    0.90    1.20
   4  -5  -4    2.10    1.20
   4   5  -4    2.90    1.70
   4   5  -4    1.20    1.40
  -4   5   4    3.00    1.10
   4   5  -4    2.10    1.10
   3  -5  -4  290.07    7.70
   3  -5  -4  277.17    7.30
   3   5  -4  290.77    7.50
  -3   5   4  276.27    6.70
  -3   5   4  284.07    7.10
  -3   5   4  267.07    7.40
   3   5  -4  274.77    7.30
   3   5  -4  284.07    6.40
   2  -5  -4  110.29    3.90
   2  -5  -4  118.89    4.20
  -2   5   4  118.09    3.60
  -2   5   4  118.59    4.00
   2   5  -4  114.69    2.90
  -2   5   4  118.19    3.90
   2   5  -4  118.79    3.90
   2   5  -4  117.49    4.00
   1  -5  -4  156.68    5.00
   1  -5  -4  154.78    4.60
   1  -5  -4  151.78    5.20
   1   5  -4  165.48    5.10
   1   5  -4  168.18    4.70
  -1   5   4  167.68    4.80
  -1   5   4  168.48    4.90
  -1   5   4  165.88    4.60
   0  -5  -4   16.30    1.90
   0  -5  -4   15.30    1.60
   0   5  -4   16.70    1.80
   0   5   4   17.10    1.80
   0   5   4   17.00    1.80
   0   5  -4   16.50    1.50
   0   5   4   15.90    1.70
  -1  -5  -4   16.00    2.00
   1   5   4   18.10    2.20
  -1   5  -4   16.00    1.80
  -1   5  -4   18.30    1.40
   1   5   4   20.90    2.10
   1   5   4   17.70    1.90
   2  -5   4   22.70    1.20
  -2  -5  -4   23.80    2.50
  -2   5  -4   22.60    2.40
   2   5   4   23.10    2.20
  -2   5  -4   21.70    1.20
   2   5   4   24.80    2.30
   2   5   4   22.30    2.50
   3  -5   4   26.60    1.60
  -3  -5  -4   28.00    2.60
  -3   5  -4   31.60    1.10
   3   5   4   34.00    2.70
   3   5   4   28.80    2.50
  -3   5  -4   31.50    2.70
   3   5   4   30.40    2.30
  -4  -5  -4   14.50    2.50
   4  -5   4    9.50    1.30
  -4   5  -4   10.00    2.20
   4   5   4    9.50    2.10
   4   5   4    8.60    2.00
   4   5   4   11.10    2.30
   5  -5   4    9.20    1.60
  -5  -5  -4    5.90    1.90
  -5   5  -4   10.50    2.30
   5   5   4    4.20    2.00
   5   5   4    7.60    1.70
   5   5   4    8.30    2.30
  -6  -5  -4   -0.30    1.70
   6  -5   4    1.40    1.40
  -6   5  -4    0.10    1.90
   6   5   4    0.80    1.90
   6   5   4   -0.80    2.00
   7  -5   4   43.70    3.00
  -7  -5  -4   43.90    3.90
   7   5   4   39.40    3.10
   7   5   4   37.70    3.40
  -7   5  -4   28.30    3.30
  -8  -5  -4    6.90    3.10
   8  -5   4   13.20    2.30
   8   5   4    8.20    2.20
   8   5   4   12.20    2.80
  -8   5  -4   11.70    2.70
  -9  -5  -4    4.00    3.10
   9  -5   4    0.10    1.80
   9   5   4    6.20    2.70
  -9   5  -4    4.90    2.60
   9   5   4    8.30    2.40
  10  -5   4   12.00    2.70
 -10  -5  -4   19.80    3.40
  10   5   4   17.00    3.40
  10   5   4   17.10    3.40
 -10   5  -4   11.10    3.00
 -11  -5  -4    3.10    3.50
  11  -5   4    8.10    2.30
  11   5   4    7.50    3.20
  11   5   4    3.70    3.00
 -11   5  -4    8.40    3.10
  12  -5   4    2.30    2.70
 -12  -5  -4    2.60    2.60
  12   5   4    1.20    3.00
  12   5   4    8.00    3.20
 -12   5  -4    2.60    3.00
 -13  -5  -4    8.50    3.80
  13  -5   4   -1.20    2.80
  13   5   4    2.50    2.30
  13   5   4    2.30    3.30
 -13   5  -4   -1.30    2.10
  13  -6  -4   42.60    4.50
  13   6  -4   55.19    5.80
  13   6  -4   55.59    5.20
  12  -6  -4   75.89    5.20
  12   6  -4   83.79    5.70
  12   6  -4   68.09    5.30
  11  -6  -4   16.30    3.40
  11   6  -4   24.50    3.60
  11   6  -4   20.50    3.30
  10  -6  -4   94.39    5.70
 -10  -6   4  105.09    5.40
  10   6  -4   96.09    5.30
  10   6  -4  106.49    5.20
  10   6  -4  105.79    5.70
   9  -6  -4    9.20    2.30
  -9  -6   4   10.20    2.80
   9   6  -4   11.20    3.10
   9   6  -4    8.20    2.40
   9   6  -4    7.60    2.30
   8  -6  -4    4.50    2.30
  -8  -6   4    3.40    2.40
   8   6  -4    4.10    2.50
   8   6  -4    3.10    2.00
   8   6  -4    1.50    1.80
  -7  -6   4    4.20    1.80
   7  -6  -4    5.00    1.70
   7   6  -4   10.10    1.80
   7   6  -4    7.40    1.80
   7   6  -4    4.10    2.40
  -6  -6   4    8.50    2.40
   6  -6  -4   10.70    2.20
   6   6  -4   10.20    1.90
  -6   6   4   12.10    1.70
   6   6  -4    7.20    2.40
   6   6  -4   10.50    2.20
  -5  -6   4   23.60    2.60
   5  -6  -4   25.00    2.70
   5   6  -4   22.50    2.50
   5   6  -4   23.70    2.30
  -5   6   4   20.80    2.00
   5   6  -4   26.80    2.00
   4  -6  -4   26.00    2.40
   4  -6  -4   23.90    2.00
  -4   6   4   25.40    2.00
   4   6  -4   25.10    2.50
   4   6  -4   26.70    1.80
   4   6  -4   26.80    2.40
   3  -6  -4   27.00    2.50
   3  -6  -4   34.60    2.40
  -3   6   4   29.20    2.10
   3   6  -4   30.10    2.30
  -3   6   4   25.70    2.40
   3   6  -4   30.70    2.30
  -3   6   4   26.90    2.10
   2  -6  -4  130.69    4.80
   2  -6  -4  133.99    4.70
  -2   6   4  132.99    4.20
  -2   6   4  137.19    4.40
   2   6  -4  126.89    4.50
  -2   6   4  131.69    4.60
   2   6  -4  135.79    4.60
   2   6  -4  136.69    3.20
   1  -6  -4   70.79    3.30
   1  -6  -4   83.19    3.50
  -1   6   4   76.69    3.20
   1   6  -4   73.49    3.10
  -1   6   4   76.39    3.10
   1   6  -4   73.99    3.40
  -1   6   4   72.29    2.90
   0  -6  -4  372.96    9.20
   0  -6  -4  365.36    9.60
   0  -6  -4  346.37    9.20
   0   6   4  359.06    8.80
   0   6  -4  359.96    9.20
   0   6   4  367.86    9.00
   0   6   4  347.77    9.00
   0   6  -4  361.56    8.40
  -1  -6  -4   83.19    3.90
   1   6   4   82.39    3.60
  -1   6  -4   84.19    2.80
  -1   6  -4   80.99    3.90
   1   6   4   83.99    3.60
   1   6   4   82.29    3.60
  -2  -6  -4  111.89    4.70
   2   6   4  107.49    4.30
   2   6   4  111.79    4.60
  -2   6  -4  112.09    2.90
  -2   6  -4  107.79    4.50
   2   6   4  108.39    4.20
  -3  -6  -4   31.40    2.80
  -3   6  -4   27.30    2.50
   3   6   4   27.70    2.40
   3   6   4   30.90    2.70
   3   6   4   22.20    2.40
  -4  -6  -4   82.89    4.60
   4   6   4   80.39    4.00
  -4   6  -4   89.59    4.40
   4   6   4   87.39    4.10
   4   6   4   92.19    4.30
  -5  -6  -4   61.29    3.80
  -5   6  -4   54.69    3.40
   5   6   4   57.59    3.60
   5   6   4   56.59    3.40
   5   6   4   51.89    3.50
  -6  -6  -4   68.59    4.30
   6   6   4   69.49    4.10
   6   6   4   71.99    4.20
   6   6   4   74.09    3.90
  -6   6  -4   77.09    4.50
  -7  -6  -4  103.39    5.40
  -7   6  -4  112.19    5.50
   7   6   4  121.29    5.80
   7   6   4  107.19    4.90
  -8  -6  -4    0.00    2.00
   8   6   4    1.30    1.70
   8   6   4   -1.10    2.40
  -8   6  -4    1.90    2.40
  -9  -6  -4   44.30    4.80
   9   6   4   37.20    4.10
  -9   6  -4   39.70    4.20
   9   6   4   35.00    4.20
 -10  -6  -4    1.40    3.20
  10   6   4    8.20    2.50
 -10   6  -4    1.10    2.00
  10   6   4   -0.50    2.70
 -11  -6  -4   50.39    5.10
  11   6   4   48.90    4.80
 -11   6  -4   52.09    4.60
  11   6   4   51.69    4.60
 -12  -6  -4   22.70    4.60
  12   6   4   34.80    4.80
  12   6   4   30.80    4.00
 -12   6  -4   31.20    3.90
 -13  -6  -4   18.30    4.50
  13   6   4   13.70    3.30
 -13   6  -4   13.30    3.70
  13   6   4   20.60    3.60
  13  -7  -4    3.80    3.30
  13   7  -4    0.80    2.60
  12  -7  -4    9.30    2.70
  12   7  -4    7.70    3.00
  12   7  -4    6.10    2.70
  11  -7  -4    8.80    3.10
 -11  -7   4   10.90    3.20
  11   7  -4   10.20    2.90
  11   7  -4   10.30    2.90
 -10  -7   4    0.80    2.80
  10  -7  -4   -4.10    2.20
  10   7  -4    3.30    2.30
  10   7  -4    1.80    2.10
  10   7  -4   -1.90    2.20
  -9  -7   4   40.10    4.30
   9  -7  -4   48.20    3.70
   9   7  -4   42.70    4.20
   9   7  -4   42.90    3.60
   9   7  -4   45.70    3.80
   8  -7  -4   30.10    3.40
  -8  -7   4   30.10    3.30
   8   7  -4   23.00    3.10
   8   7  -4   28.90    2.90
   8   7  -4   26.80    2.90
  -7  -7   4    1.50    1.80
   7  -7  -4    2.60    1.60
   7   7  -4    1.70    1.80
   7   7  -4    2.90    1.60
   7   7  -4    2.20    1.60
  -6  -7   4  122.79    5.80
   6  -7  -4  131.99    5.40
   6   7  -4  133.59    5.10
   6   7  -4  129.39    5.80
   5  -7  -4   70.39    3.90
  -5  -7   4   76.89    4.50
  -5   7   4   74.89    3.30
   5   7  -4   64.49    3.90
   5   7  -4   69.69    3.80
   4  -7  -4   15.00    2.00
   4   7  -4   15.00    2.10
  -4   7   4   16.80    1.90
   4   7  -4   16.00    2.50
   3  -7  -4   38.60    3.00
   3  -7  -4   36.00    2.60
  -3   7   4   36.60    2.80
  -3   7   4   42.30    2.60
  -3   7   4   36.90    2.60
   3   7  -4   34.70    3.10
   3   7  -4   40.50    2.60
   2  -7  -4   70.79    3.40
   2  -7  -4   61.89    3.40
   2   7  -4   66.89    3.40
  -2   7   4   66.79    3.10
  -2   7   4   61.69    3.00
  -2   7   4   64.69    3.10
   2   7  -4   61.39    3.20
   1  -7  -4   -0.20    1.40
   1  -7  -4    1.20    1.50
  -1   7   4    2.90    1.40
   1   7  -4    1.80    1.80
  -1   7   4    1.30    1.30
   1   7  -4   -0.60    1.20
  -1   7   4    0.30    1.40
   0  -7  -4   33.70    2.80
   0  -7  -4   25.70    2.40
   0  -7  -4   25.50    2.80
   0   7   4   28.80    2.60
   0   7  -4   29.30    1.90
   0   7   4   26.40    2.40
   0   7   4   35.20    2.70
   0   7  -4   29.70    2.60
  -1  -7  -4   90.69    4.30
  -1   7  -4   87.99    4.00
  -1   7  -4   89.99    3.00
   1   7   4   89.89    4.00
   1   7   4   88.59    3.80
   1   7   4   96.79    3.70
  -2  -7  -4   54.59    3.70
  -2   7  -4   43.70    3.00
   2   7   4   52.39    3.10
   2   7   4   52.19    3.30
   2   7   4   45.90    3.40
  -3  -7  -4  263.17    8.30
  -3   7  -4  276.97    8.30
   3   7   4  292.07    8.50
   3   7   4  282.87    8.00
   3   7   4  292.87    8.00
  -4  -7  -4    1.00    1.70
   4   7   4    2.10    1.60
   4   7   4    4.10    1.60
  -4   7  -4    6.30    2.20
   4   7   4    3.10    1.80
  -5  -7  -4  148.79    6.50
  -5   7  -4  141.29    5.50
   5   7   4  138.59    5.70
   5   7   4  136.09    5.70
   5   7   4  139.79    5.50
  -6  -7  -4  174.38    7.30
   6   7   4  165.48    6.60
  -6   7  -4  167.58    6.70
   6   7   4  186.28    6.60
   6   7   4  177.48    7.10
  -7  -7  -4   42.00    4.50
   7   7   4   48.30    4.20
   7   7   4   39.90    3.90
  -7   7  -4   47.60    4.20
   7   7   4   47.10    3.50
  -8  -7  -4   -2.80    2.90
   8   7   4   -0.80    1.80
  -8   7  -4   -2.50    2.30
   8   7   4   -3.30    1.50
  -9  -7  -4   10.70    3.00
  -9   7  -4   10.50    2.50
   9   7   4   11.90    2.60
   9   7   4   10.80    2.80
 -10  -7  -4    3.90    2.70
  10   7   4    0.80    2.80
 -10   7  -4    4.40    2.90
  10   7   4   -2.00    1.90
 -11  -7  -4   24.80    4.60
  11   7   4   25.50    4.10
  11   7   4   22.60    4.20
 -11   7  -4   28.00    4.20
 -12  -7  -4   -6.00    3.30
  12   7   4   -0.10    3.10
 -12   7  -4   -4.80    2.60
  12   7   4    1.80    2.50
  12  -8  -4   -1.60    2.00
  12   8  -4    0.90    2.40
  11  -8  -4   22.30    3.70
 -11  -8   4   28.70    3.90
  11   8  -4   33.30    5.70
  11   8  -4   24.50    3.80
  10  -8  -4    2.90    2.50
 -10  -8   4   -3.40    2.80
  10   8  -4    1.00    2.50
  10   8  -4    2.00    2.30
  -9  -8   4   -0.80    2.80
   9  -8  -4    4.40    1.90
   9   8  -4    0.30    1.70
   9   8  -4    5.60    3.10
   8  -8  -4    6.00    2.40
  -8  -8   4    8.30    2.50
   8   8  -4   11.70    2.30
   8   8  -4   10.20    3.10
  -7  -8   4   -0.80    2.50
   7  -8  -4    7.10    2.20
   7   8  -4    3.80    2.00
   7   8  -4    3.00    2.30
  -6  -8   4   95.49    5.50
   6  -8  -4  104.29    4.90
   6   8  -4  103.79    5.40
   6   8  -4  108.19    5.20
  -5  -8   4    1.60    1.80
   5  -8  -4    2.20    1.70
  -5   8   4    1.00    1.50
   5   8  -4    0.40    2.00
   5   8  -4    1.10    1.60
   4  -8  -4    1.80    1.60
  -4   8   4    0.20    1.50
   4   8  -4    0.30    1.40
   4   8  -4    1.90    2.00
   3  -8  -4   43.00    3.20
   3   8  -4   44.70    3.30
   3   8  -4   46.90    3.20
  -3   8   4   43.20    2.80
  -3   8   4   43.20    3.10
  -3   8   4   50.99    3.10
   2  -8  -4   -0.10    1.50
   2  -8  -4   -1.20    1.60
  -2   8   4   -1.00    1.20
  -2   8   4    0.90    1.50
   2   8  -4    1.20    1.50
   2   8  -4   -1.20    1.80
  -2   8   4    0.90    1.20
   1  -8  -4    7.40    1.90
   1  -8  -4   12.80    2.20
  -1   8   4    7.60    1.90
   1   8  -4   11.80    2.40
   1   8  -4    7.50    1.60
  -1   8   4    7.40    1.70
  -1   8   4    8.00    1.80
   0  -8  -4   11.50    2.10
   0  -8  -4   10.10    2.30
   0  -8  -4    7.60    2.20
   0   8  -4    9.40    2.30
   0   8   4   12.20    2.10
   0   8   4    9.70    2.10
   0   8   4   10.00    1.90
   0   8  -4    9.90    1.40
  -1  -8  -4   24.40    2.70
   1   8   4   28.60    2.60
   1   8   4   26.40    2.50
   1   8   4   25.40    2.80
  -1   8  -4   30.80    2.80
  -2  -8  -4    6.20    2.40
   2   8   4    7.60    1.80
  -2   8  -4    6.00    2.20
   2   8   4    7.60    2.20
   2   8   4    9.70    1.90
  -3  -8  -4    4.30    2.00
   3   8   4    4.70    1.50
  -3   8  -4    2.60    1.60
   3   8   4    3.20    1.60
   3   8   4    2.60    1.60
  -4  -8  -4   55.99    4.00
   4   8   4   50.99    3.40
  -4   8  -4   61.89    3.80
   4   8   4   57.29    3.70
   4   8   4   51.19    3.20
  -5  -8  -4   11.60    3.20
  -5   8  -4   18.10    3.00
   5   8   4   13.80    2.50
   5   8   4   15.20    2.40
   5   8   4   11.90    2.40
  -6  -8  -4   10.00    3.10
   6   8   4    5.80    2.50
   6   8   4    5.40    2.30
  -6   8  -4    8.80    2.20
   6   8   4    8.30    2.30
  -7  -8  -4    8.30    3.40
  -7   8  -4    6.30    2.10
   7   8   4    9.50    2.90
   7   8   4    6.70    2.40
   7   8   4    4.90    2.00
  -8  -8  -4   42.50    4.50
   8   8   4   49.30    4.20
   8   8   4   42.80    4.10
   8   8   4   40.40    4.70
  -8   8  -4   48.80    4.50
  -9  -8  -4    6.40    2.90
  -9   8  -4   -1.20    2.70
   9   8   4    2.00    3.00
   9   8   4    3.90    2.20
 -10  -8  -4    2.30    2.60
 -10   8  -4    3.60    2.90
  10   8   4    1.90    2.80
  10   8   4   -1.90    3.10
 -11  -8  -4   -5.50    3.40
 -11   8  -4    1.40    2.20
  11   8   4    3.20    2.50
  11   8   4   -1.70    2.00
 -12  -8  -4    0.40    6.10
 -12   8  -4    6.80    2.60
  12   8   4    2.50    3.20
 -11  -9   4   13.80    3.30
  11   9  -4   12.50    4.00
  11   9  -4   11.40    3.20
 -10  -9   4    5.80    3.50
  10   9  -4   -2.50    2.50
  10   9  -4    1.90    3.30
  -9  -9   4   29.50    3.80
   9   9  -4   26.50    3.30
   9   9  -4   24.40    3.70
  -8  -9   4   13.60    3.60
   8   9  -4    8.50    2.80
   8   9  -4   15.10    2.90
  -7  -9   4    2.90    2.90
   7   9  -4   -2.20    1.50
   7   9  -4    3.80    2.70
   6  -9  -4   14.10    2.60
  -6  -9   4   15.60    2.90
   6   9  -4   19.50    2.80
   6   9  -4   18.80    2.80
   5  -9  -4   30.30    3.10
  -5  -9   4   29.50    3.50
   5   9  -4   29.10    3.40
   5   9  -4   30.50    3.10
  -5   9   4   27.00    2.70
   4  -9  -4   12.60    2.20
  -4   9   4   15.20    2.20
   4   9  -4    8.50    2.30
   4   9  -4   11.60    2.70
   3  -9  -4   33.70    3.00
   3   9  -4   27.20    3.30
   3   9  -4   36.30    2.80
  -3   9   4   36.70    3.10
  -3   9   4   33.70    2.90
   2  -9  -4   43.10    3.40
  -2   9   4   45.50    3.30
  -2   9   4   43.70    3.30
   2   9  -4   47.00    3.90
   2   9  -4   39.90    3.10
   1  -9  -4   28.70    3.00
   1  -9  -4   28.90    2.80
  -1   9   4   25.20    2.50
   1   9  -4   29.00    2.50
   1   9  -4   26.10    2.80
  -1   9   4   26.80    2.50
  -1   9   4   29.50    2.70
   0  -9  -4   23.40    2.70
   0  -9  -4   20.50    3.00
   0  -9  -4   21.30    2.90
   0   9  -4   22.50    2.70
   0   9   4   17.60    2.60
   0   9   4   26.20    2.70
   0   9   4   24.20    2.70
  -1  -9  -4  143.79    5.50
  -1  -9  -4  140.89    5.70
   1   9   4  145.19    5.70
   1   9   4  151.98    5.70
   1   9   4  145.79    5.20
  -1   9  -4  145.49    6.10
  -2  -9  -4   12.80    2.40
   2   9   4   17.00    2.40
   2   9   4   14.60    2.30
   2   9   4   14.40    2.70
  -2   9  -4   18.20    3.00
  -3  -9  -4   64.89    4.80
   3   9   4   58.09    3.70
   3   9   4   71.69    4.40
   3   9   4   63.79    3.90
  -3   9  -4   69.39    4.60
  -4  -9  -4   -1.50    2.60
   4   9   4    5.60    2.50
  -4   9  -4    3.40    2.50
   4   9   4    0.90    1.80
   4   9   4   -0.90    2.20
  -5  -9  -4   36.60    4.40
   5   9   4   33.80    3.90
  -5   9  -4   27.50    3.20
   5   9   4   30.40    3.20
   5   9   4   33.80    3.80
  -6  -9  -4    8.90    3.40
   6   9   4   13.90    3.10
   6   9   4    6.80    2.40
   6   9   4   11.70    2.70
  -6   9  -4    9.70    2.90
  -7  -9  -4   76.19    6.10
   7   9   4   68.79    5.30
   7   9   4   81.09    5.80
   7   9   4   80.39    4.50
  -7   9  -4   81.09    5.40
  -8  -9  -4   43.80    5.30
   8   9   4   50.89    4.80
   8   9   4   48.50    4.40
   8   9   4   47.30    4.80
  -8   9  -4   55.69    4.90
  -9  -9  -4   -0.10    2.60
   9   9   4    6.30    2.80
   9   9   4    3.40    2.50
  -9   9  -4    0.90    2.10
 -10  -9  -4   52.79    5.50
  10   9   4   56.79    5.40
 -10   9  -4   55.09    5.20
  10   9   4   50.59    5.00
 -11  -9  -4   30.10    5.30
 -11   9  -4   19.10    4.00
  11   9   4   22.80    4.00
  11   9   4   18.70    4.40
 -11 -10   4    5.70    3.60
  11  10  -4   -0.90    3.40
  11  10  -4    3.20    3.10
 -10 -10   4   13.50    3.20
  10  10  -4    5.90    2.80
  10  10  -4    7.00    2.50
  -9 -10   4   -4.30    3.10
   9  10  -4    5.00    2.90
   9  10  -4   -0.80    3.00
  -8 -10   4   10.30    2.90
   8  10  -4   11.10    3.40
   8  10  -4   12.70    2.80
  -7 -10   4    2.50    3.20
   7  10  -4    4.10    2.60
   7  10  -4    3.30    2.80
  -6 -10   4    0.10    2.10
   6  10  -4   -2.10    1.70
   6  10  -4    1.20    1.90
  -5 -10   4   17.10    3.60
   5  10  -4   16.70    3.20
   5  10  -4   19.80    2.70
   4  10  -4    2.30    1.90
  -4  10   4    2.00    1.90
   4  10  -4    3.20    1.70
   3  10  -4    9.50    2.20
   3  10  -4    6.00    2.10
  -3  10   4    6.20    2.10
   2  10  -4  106.99    5.60
   2  10  -4  115.69    4.80
  -2  10   4  112.89    5.10
   1  10  -4   11.80    2.40
  -1  10   4   18.30    2.70
   0 -10  -4   -1.20    1.90
   0 -10  -4   -4.40    2.00
   0  10  -4    1.70    2.30
   0  10   4    2.40    2.20
   0  10   4    4.50    1.90
  -1 -10  -4    2.50    2.50
  -1  10  -4    2.00    2.40
   1  10   4    8.10    2.30
   1  10   4    6.00    2.40
  -2 -10  -4  192.28    7.30
   2  10   4  186.88    7.00
   2  10   4  198.68    6.90
  -2  10  -4  180.58    7.30
  -3 -10  -4   45.00    4.20
   3  10   4   50.09    4.30
   3  10   4   47.90    3.90
  -3  10  -4   45.50    4.20
  -4 -10  -4   -2.10    1.90
   4  10   4   -2.10    2.30
   4  10   4   -3.30    1.90
   4  10   4    1.90    1.90
  -4  10  -4    1.80    2.50
  -5 -10  -4   13.90    3.00
   5  10   4   20.90    3.00
   5  10   4   13.50    2.60
   5  10   4   15.40    3.30
  -5  10  -4   16.20    3.30
  -6 -10  -4    1.10    2.40
  -6  10  -4    5.90    2.30
   6  10   4    8.80    2.50
   6  10   4   -1.80    2.00
   6  10   4    2.10    2.90
  -7 -10  -4   29.80    4.70
  -7  10  -4   34.50    3.80
   7  10   4   32.60    4.20
   7  10   4   29.30    3.80
   7  10   4   27.60    3.60
  -8 -10  -4   -7.20    3.20
  -8  10  -4   -1.70    1.90
   8  10   4   -3.50    2.90
   8  10   4    1.50    2.40
   8  10   4   -0.40    2.20
  -9 -10  -4   22.40    4.80
   9  10   4   10.50    3.00
  -9  10  -4   23.50    4.10
   9  10   4   17.20    3.80
 -10 -10  -4   30.00    4.60
  10  10   4   26.50    4.20
 -10  10  -4   36.10    4.20
 -10 -11   4   24.60    4.90
  10  11  -4   18.60    3.80
  10  11  -4   23.60    4.60
  -9 -11   4    6.70    3.70
   9  11  -4    0.60    2.80
   9  11  -4    0.60    3.10
  -8 -11   4    0.20    2.50
   8  11  -4   -3.40    2.80
   8  11  -4   -0.90    1.90
  -7 -11   4   -0.90    3.20
   7  11  -4    1.50    2.80
   7  11  -4    0.10    2.00
  -6 -11   4    7.90    2.70
   6  11  -4    4.00    2.10
   6  11  -4    1.30    2.00
  -5 -11   4    8.60    3.30
   5  11  -4   12.70    2.60
   5  11  -4   11.40    3.20
  -4  11   4    9.80    2.50
   4  11  -4   18.90    2.90
   4  11  -4   18.40    3.40
  -3  11   4   10.80    2.50
   3  11  -4    9.70    2.50
   2  11  -4   -1.50    2.40
  -2  11   4    2.00    1.60
   1 -11  -4   11.70    2.50
   1  11  -4   18.60    2.80
  -1  11   4   16.60    2.50
   0 -11  -4   13.60    2.70
   0  11   4   12.90    2.30
   0  11  -4   13.50    2.60
  -1 -11  -4   -1.10    1.80
  -1  11  -4    1.50    1.90
   1  11   4    2.00    2.10
   1  11   4    0.50    1.70
  -2 -11  -4   -0.50    2.00
  -2  11  -4    1.50    2.00
   2  11   4   -2.50    2.00
   2  11   4    0.30    1.80
  -3 -11  -4    7.80    2.60
   3  11   4   13.00    2.90
   3  11   4   10.80    3.00
  -3  11  -4    8.70    3.00
  -4 -11  -4    9.00    3.40
  -4  11  -4   -1.30    2.60
   4  11   4    6.80    2.90
   4  11   4    1.00    2.50
  -5 -11  -4    2.50    3.30
   5  11   4   -3.40    2.50
  -5  11  -4   -3.10    2.50
   5  11   4    2.00    2.80
  -6 -11  -4    4.80    3.60
  -6  11  -4    4.40    2.40
   6  11   4    2.30    2.90
   6  11   4    4.40    3.10
  -7 -11  -4   12.50    4.20
  -7  11  -4    7.10    2.40
   7  11   4   11.70    3.00
   7  11   4    6.40    2.80
  -8 -11  -4    4.20    3.10
  -8  11  -4    0.00    2.80
   8  11   4   -2.40    2.10
   8  11   4    4.50    2.50
  -9 -11  -4    3.40    3.00
   9  11   4   -5.90    2.90
   9  11   4    6.50    3.60
  -9  11  -4   -1.40    2.90
  -9 -12   4    0.30    2.60
   9  12  -4    3.70    3.40
   9  12  -4    1.20    2.30
  -8 -12   4   31.60    4.50
   8  12  -4   32.30    4.30
   8  12  -4   43.40    4.40
  -7 -12   4   11.80    4.10
   7  12  -4    2.70    3.00
   7  12  -4    7.80    3.30
  -6 -12   4    5.30    3.60
   6  12  -4    9.00    3.10
   6  12  -4    0.80    2.90
  -5 -12   4    4.00    2.60
   5  12  -4    2.90    2.60
   5  12  -4    4.00    2.30
  -4 -12   4    4.30    2.60
   4  12  -4    2.40    2.20
  -3  12   4    0.70    2.30
   3  12  -4    2.40    2.90
  -2  12   4    3.60    1.90
   2  12  -4    1.30    2.80
   1 -12  -4    9.50    3.20
   1  12  -4   13.00    3.30
  -1  12   4   14.70    3.00
   0 -12  -4   28.50    3.90
   0  12   4   27.80    3.60
   0  12  -4   21.80    3.60
  -1 -12  -4    2.50    2.90
   1  12   4    7.20    2.20
  -1  12  -4    0.90    2.80
  -2 -12  -4   50.79    4.70
   2  12   4   49.20    4.30
  -2  12  -4   42.10    4.50
   2  12   4   42.30    4.00
  -3 -12  -4    2.60    2.50
   3  12   4   -0.80    2.00
  -3  12  -4    6.90    2.40
   3  12   4   -0.30    2.50
  -4 -12  -4  117.29    7.20
   4  12   4   99.89    6.10
   4  12   4   90.89    6.00
  -4  12  -4  102.09    6.40
  -5 -12  -4   -4.20    3.20
   5  12   4    0.60    2.90
  -5  12  -4    2.70    3.00
   5  12   4    3.60    3.10
  -6 -12  -4   31.60    4.50
  -6  12  -4   40.20    4.30
   6  12   4   33.40    4.60
   6  12   4   31.80    3.90
  -7 -12  -4   17.80    3.90
   7  12   4    9.40    3.00
   7  12   4   11.80    3.10
  -7  12  -4    8.90    3.40
  -8 -12  -4    1.50    3.90
   8  12   4   -1.20    3.20
   8  12   4   -1.00    3.20
  -8  12  -4    2.70    3.30
  -8 -13   4   16.00    4.60
   8  13  -4    6.90    3.70
  -7 -13   4    8.50    3.30
   7  13  -4    8.70    2.80
   7  13  -4    1.50    3.00
  -6 -13   4    0.00    3.70
   6  13  -4    3.60    3.10
  -5 -13   4    0.50    3.70
   5  13  -4    6.90    3.30
  -4 -13   4    7.60    3.80
   4  13  -4    0.60    3.00
   3  13  -4    3.40    3.00
  -3  13   4    1.00    2.40
   2  13  -4   -3.30    2.70
  -2  13   4    0.30    2.50
   1 -13  -4    3.40    2.90
   1  13  -4    6.00    3.30
  -1  13   4    0.00    2.40
   0 -13  -4   36.40    4.10
   0  13   4   37.90    3.80
   0  13  -4   36.20    4.50
  -1 -13  -4   11.50    3.70
   1  13   4    5.30    2.80
  -1  13  -4    8.90    2.80
  -2 -13  -4    9.70    3.70
  -2  13  -4   12.60    3.50
   2  13   4   14.90    3.50
  -3 -13  -4   64.29    5.70
  -3  13  -4   77.69    6.00
   3  13   4   60.69    4.70
  -4 -13  -4   20.70    4.60
   4  13   4   24.80    3.90
   4  13   4   26.00    4.10
  -4  13  -4   24.10    4.30
  -5 -13  -4   18.20    4.50
   5  13   4   13.50    3.60
   5  13   4   12.80    3.60
  -5  13  -4    6.90    3.40
  -6 -13  -4   10.00    3.50
   6  13   4    9.20    3.60
   6  13   4   10.40    3.10
  -6  13  -4   11.90    3.10
   7  13   4   -1.30    2.10
  -7  13  -4   -0.40    2.90
  -5 -14   4    2.70    2.90
   5  14  -4   -2.40    2.10
  -4 -14   4   -3.00    3.50
   4  14  -4   -1.70    2.90
   3  14  -4    0.20    3.10
   2 -14  -4    2.00    3.10
   2  14  -4    2.40    3.20
  -2  14   4   -1.50    2.60
   1 -14  -4    3.50    3.20
  -1  14   4    8.30    2.50
   1  14  -4   10.10    3.60
   0 -14  -4   21.40    4.30
   0  14   4   21.90    3.80
   0  14  -4   16.40    3.30
  -1 -14  -4    9.70    3.70
   1  14   4   13.30    3.00
  -1  14  -4    4.00    3.40
  -2 -14  -4   25.70    4.60
  -2  14  -4   21.60    3.70
   2  14   4   23.70    4.10
  -3 -14  -4   -4.30    3.30
   3  14   4    2.20    3.00
  -3  14  -4    4.40    3.30
  -4 -14  -4    2.30    3.00
   4  14   4   -4.10    1.90
  -4  14  -4    1.10    2.30
   5  14   4   -6.60    3.60
   5  14   4    5.80    3.30
  -5  14  -4    0.00    2.30
   1 -15  -4   -2.90    2.20
  -1  15   4    0.30    2.00
   0 -15  -4   37.70    5.20
   0  15   4   40.10    4.70
   0  15  -4   42.10    5.90
  -1 -15  -4    9.60    4.00
   1  15   4    7.00    3.40
  -2 -15  -4   10.90    4.20
   2  15   4    5.30    3.30
  14   0  -5    7.50    3.70
  13   0  -5    2.30    2.40
  12   0  -5    1.80    2.40
  12   0  -5   -4.50    2.70
  11   0  -5    0.60    2.20
  11   0  -5   -1.80    1.80
  10   0  -5   -1.00    1.70
  10   0  -5   -1.80    1.90
   9   0  -5   -1.50    1.50
   9   0  -5   -1.30    1.90
   8   0  -5    1.40    1.50
   8   0  -5    0.00    1.30
  -7   0   5   -1.10    0.90
   7   0  -5    1.00    1.20
   7   0  -5   -0.50    1.30
  -6   0   5    0.70    0.90
   6   0  -5   -0.30    1.20
   6   0  -5   -1.10    1.10
   5   0  -5    1.60    1.20
  -5   0   5   -0.20    0.70
   5   0  -5   -0.60    1.10
   4   0  -5   -0.40    1.10
  -4   0   5   -1.10    0.60
   4   0  -5   -0.60    1.00
   3   0  -5   -0.40    1.40
   3   0  -5   -2.10    1.40
   2   0  -5   -1.70    1.40
   2   0  -5    0.50    0.50
   2   0  -5   -0.40    1.40
  -2   0   5    0.00    1.30
   1   0  -5    2.10    1.40
  -1   0   5    0.40    1.20
   1   0  -5   -0.40    0.70
   1   0  -5    0.20    1.10
   0   0   5   -0.40    0.80
   0   0   5    0.60    0.90
   0   0  -5   -0.20    1.10
   0   0  -5    0.90    0.90
  -1   0  -5   -1.10    1.10
   1   0   5   -1.70    0.80
  -1   0  -5    0.90    1.20
   1   0   5    0.90    1.00
  -2   0  -5    0.70    1.50
   2   0   5   -0.70    0.90
   2   0   5    0.10    0.90
  -2   0  -5    0.50    1.00
  -3   0  -5   -1.50    1.00
  -3   0  -5    1.50    1.50
   3   0   5    0.70    1.20
   3   0   5   -1.10    1.20
   4   0   5    1.80    1.30
  -4   0  -5    0.30    1.20
   4   0   5   -0.20    1.30
  -5   0  -5   -0.90    1.20
   5   0   5   -1.00    0.90
   5   0   5   -2.50    0.90
  -6   0  -5   -0.70    1.30
   6   0   5   -0.30    1.20
   6   0   5    0.90    1.40
   7   0   5   -1.80    1.20
  -7   0  -5   -1.00    2.00
   7   0   5    1.60    1.60
   8   0   5    1.40    2.00
   8   0   5    1.10    1.60
  -8   0  -5   -0.90    1.50
   9   0   5   -1.50    2.10
   9   0   5    1.20    1.80
  -9   0  -5    1.40    1.90
  10   0   5   -3.60    2.20
 -10   0  -5   -0.10    2.60
  11   0   5    2.80    2.70
 -11   0  -5    2.70    3.00
  12   0   5    0.10    2.00
 -12   0  -5   -5.70    2.80
  13   0   5   -3.20    2.80
 -13   0  -5   -4.20    3.10
 -14   0  -5   -0.30    3.30
  14  -1  -5    6.40    3.60
  14   1  -5    7.60    3.70
  13  -1  -5   21.80    3.60
  13   1  -5   19.90    3.40
  13   1  -5   21.80    3.60
  12  -1  -5   38.10    4.60
  12   1  -5   50.49    5.00
  12   1  -5   50.59    4.70
  11  -1  -5  102.49    6.00
  11  -1  -5   98.79    4.80
  11   1  -5   92.59    5.30
  11   1  -5   92.69    5.40
  10  -1  -5   -0.60    2.00
  10  -1  -5    0.40    1.80
  10   1  -5    0.20    2.40
  10   1  -5    3.10    2.30
   9  -1  -5    1.50    1.90
   9  -1  -5   -2.20    1.50
   9   1  -5    2.80    2.30
   9   1  -5    2.70    2.20
   8  -1  -5   -3.90    1.80
   8  -1  -5    2.60    1.80
   8   1  -5   -0.20    1.90
   8   1  -5    1.80    1.60
   7  -1  -5   66.09    3.60
  -7  -1   5   68.89    2.80
   7  -1  -5   72.99    3.70
   7   1  -5   64.59    3.80
   7   1  -5   65.09    3.50
  -6  -1   5    3.80    1.20
   6  -1  -5    2.50    1.30
   6  -1  -5    4.20    1.80
   6   1  -5    0.00    1.70
  -6   1   5    3.60    0.80
   6   1  -5    2.10    1.30
  -5  -1   5   -0.70    0.90
   5  -1  -5    2.30    1.50
   5  -1  -5    2.00    1.20
   5   1  -5    1.20    0.70
  -5   1   5    0.10    0.50
   5   1  -5   -0.40    1.60
   5   1  -5    1.10    1.10
   4  -1  -5   69.69    3.20
   4  -1  -5   73.29    3.20
  -4  -1   5   74.99    2.40
   4   1  -5   78.49    3.30
   4   1  -5   79.09    3.30
   4   1  -5   75.09    2.30
   3  -1  -5   29.60    2.10
   3  -1  -5   33.70    2.60
  -3   1   5   33.00    2.40
   3   1  -5   32.90    2.30
   3   1  -5   32.20    1.40
   3   1  -5   30.30    2.50
   2  -1  -5    4.10    1.60
  -2  -1   5    2.50    0.90
   2  -1  -5    0.90    1.50
   2   1  -5    2.00    0.80
  -2   1   5    2.50    1.40
   2   1  -5    1.90    1.20
   2   1  -5    0.20    0.90
   1  -1  -5  182.68    4.10
   1  -1  -5  180.58    5.10
   1  -1  -5  173.18    5.30
  -1  -1   5  175.28    4.60
  -1   1   5  183.18    5.10
   1   1  -5  179.58    4.80
   1   1  -5  177.98    5.00
  -1   1   5  179.28    5.00
   1   1  -5  183.18    4.40
   0  -1  -5   10.70    1.20
   0  -1  -5    7.90    1.80
   0  -1   5    8.00    1.20
   0   1   5    8.70    1.60
   0   1  -5    9.80    1.20
   0   1  -5    8.60    1.40
   0   1   5    8.00    1.50
  -1  -1  -5  741.53   15.60
   1  -1   5  765.32   15.60
   1  -1   5  737.23   15.70
  -1  -1  -5  735.43   16.30
   1   1   5  744.83   15.90
  -1   1  -5  764.82   15.90
  -1   1  -5  744.93   15.70
   1   1   5  751.12   15.90
  -2  -1  -5  201.58    5.50
  -2  -1  -5  198.78    6.00
   2  -1   5  196.78    5.20
   2  -1   5  197.38    5.10
   2   1   5  205.18    5.60
  -2   1  -5  197.08    5.40
  -2   1  -5  207.78    5.60
   2   1   5  190.88    5.30
   3  -1   5    0.70    0.90
   3  -1   5    3.80    1.20
  -3  -1  -5    1.00    1.20
  -3   1  -5    2.60    1.60
  -3   1  -5    2.30    1.40
   3   1   5    0.70    1.00
   3   1   5    1.20    1.40
  -4  -1  -5    1.70    1.30
   4  -1   5    3.50    1.10
   4  -1   5    3.30    1.20
  -4   1  -5    1.90    1.40
  -4   1  -5    7.00    1.90
   4   1   5    2.00    1.50
   4   1   5    3.00    1.20
  -5  -1  -5   25.10    2.40
   5  -1   5   27.20    2.10
   5  -1   5   25.10    2.10
   5   1   5   25.60    2.50
   5   1   5   21.90    2.30
  -5   1  -5   27.10    2.50
  -6  -1  -5   -1.80    1.90
   6  -1   5   -2.40    1.40
   6  -1   5    3.90    1.30
  -6   1  -5    1.10    1.50
   6   1   5    1.40    1.10
   6   1   5    0.00    1.30
  -7  -1  -5   32.10    3.40
   7  -1   5   30.60    2.70
   7  -1   5   30.20    2.40
   7   1   5   32.50    2.50
   7   1   5   31.00    2.80
  -7   1  -5   26.80    2.80
  -8  -1  -5   20.30    3.10
   8  -1   5   15.90    2.20
   8  -1   5   15.30    2.70
   8   1   5   13.70    2.70
  -8   1  -5   22.10    3.20
   8   1   5   15.40    2.50
  -9  -1  -5   17.60    2.80
   9  -1   5   11.10    2.70
   9   1   5   16.10    2.70
   9   1   5   14.70    2.90
  -9   1  -5   13.40    3.10
 -10  -1  -5    1.40    2.70
  10  -1   5   -2.60    2.30
  10   1   5    2.30    2.50
 -10   1  -5    0.80    2.70
  10   1   5    2.40    2.10
 -11  -1  -5   66.39    5.60
  11  -1   5   56.89    5.00
 -11   1  -5   73.29    4.90
  11   1   5   59.49    5.10
 -12  -1  -5   21.90    4.20
  12  -1   5   28.70    3.70
 -12   1  -5   23.00    4.00
  12   1   5   31.70    4.30
 -13  -1  -5   26.50    4.60
  13  -1   5   26.50    4.40
 -13   1  -5   21.90    4.10
  13   1   5   15.40    3.40
 -14  -1  -5   23.80    4.60
 -14   1  -5   16.50    4.00
  14  -2  -5    2.10    2.60
  14   2  -5   -1.20    2.80
  14   2  -5    2.20    3.40
  13  -2  -5   15.40    3.80
  13   2  -5   21.10    4.00
  13   2  -5   13.50    3.40
  12  -2  -5   60.29    5.40
  12   2  -5   57.89    4.40
  12   2  -5   63.19    4.80
  11  -2  -5   11.80    2.70
  11   2  -5   12.00    3.30
  11   2  -5   19.00    3.40
  10  -2  -5  153.28    6.50
  10  -2  -5  165.08    5.90
  10   2  -5  156.98    6.70
  10   2  -5  165.48    6.50
   9  -2  -5   12.60    2.40
   9  -2  -5   20.40    2.60
   9   2  -5   22.00    3.10
   9   2  -5   14.00    2.80
   8  -2  -5  167.78    5.80
  -8  -2   5  167.08    5.40
   8  -2  -5  174.98    6.50
   8   2  -5  173.58    6.20
   8   2  -5  175.88    6.30
  -7  -2   5    6.60    1.50
   7  -2  -5    7.10    1.50
   7  -2  -5    7.00    1.80
   7   2  -5    8.40    2.30
   7   2  -5    9.20    2.10
   6  -2  -5    1.80    1.10
  -6  -2   5    1.80    1.30
   6  -2  -5    1.40    1.40
  -6   2   5    1.20    0.70
   6   2  -5    1.50    1.80
   6   2  -5   -0.40    0.90
   6   2  -5    1.00    1.60
  -5  -2   5  167.28    4.80
   5  -2  -5  176.08    5.30
   5  -2  -5  174.88    5.80
   5   2  -5  178.98    5.60
   5   2  -5  175.98    4.60
   5   2  -5  177.18    5.20
   4  -2  -5   79.09    3.30
   4  -2  -5   88.19    3.80
  -4  -2   5   80.89    2.80
   4   2  -5   83.09    2.70
   4   2  -5   82.79    3.50
   4   2  -5   80.79    3.30
   3  -2  -5   14.20    2.10
   3  -2  -5   17.00    2.00
   3   2  -5   15.00    1.70
   3   2  -5   12.40    1.30
   3   2  -5   16.00    1.60
  -3   2   5   16.50    1.80
   2  -2  -5    1.90    1.60
   2  -2  -5    4.70    1.30
   2  -2  -5    4.00    0.60
  -2   2   5    3.60    1.50
   2   2  -5    2.30    1.50
   2   2  -5    4.50    1.00
   2   2  -5    6.30    1.20
   1  -2  -5   39.90    2.40
   1  -2  -5   40.60    2.40
   1  -2  -5   40.40    1.70
  -1  -2   5   37.90    1.90
   1   2  -5   42.40    2.00
  -1   2   5   40.40    2.20
   1   2  -5   41.40    2.10
  -1   2   5   40.90    2.50
   1   2  -5   37.50    2.10
   0  -2  -5   38.00    1.90
   0  -2  -5   41.30    2.50
   0  -2   5   41.20    1.90
   0   2   5   37.20    2.20
   0   2  -5   40.40    2.20
   0   2   5   41.40    2.20
   0   2  -5   38.60    2.10
   1  -2   5  361.36    7.90
  -1  -2  -5  353.96    8.30
  -1  -2  -5  353.56    8.90
  -1   2  -5  342.37    8.30
  -1   2  -5  360.46    8.30
   1   2   5  347.77    8.50
   1   2   5  357.66    8.50
  -2  -2  -5    1.00    1.30
   2  -2   5    0.20    0.90
  -2  -2  -5    0.90    1.10
   2  -2   5   -1.50    0.80
   2   2   5    1.20    1.40
   2   2   5   -0.90    1.00
  -2   2  -5    0.00    1.10
  -2   2  -5   -0.20    1.00
   3  -2   5   14.50    1.50
   3  -2   5   12.70    1.30
  -3  -2  -5   11.30    1.70
  -3   2  -5   12.00    2.00
  -3   2  -5   13.20    1.60
   3   2   5   14.70    1.70
   3   2   5   11.90    1.60
   4  -2   5    0.10    1.00
  -4  -2  -5   -0.70    1.30
   4  -2   5    0.70    0.90
  -4   2  -5    0.90    1.20
   4   2   5    0.30    1.10
   4   2   5   -0.50    1.10
  -4   2  -5   -0.50    1.10
  -5  -2  -5    1.10    1.40
   5  -2   5    1.30    1.10
   5  -2   5    0.00    1.00
  -5   2  -5    0.30    1.40
   5   2   5    0.70    1.20
   5   2   5   -0.30    1.10
  -5   2  -5    1.50    1.40
   6  -2   5   59.69    3.40
  -6  -2  -5   58.99    3.60
   6  -2   5   54.19    2.60
   6   2   5   61.89    3.70
   6   2   5   63.99    3.30
  -6   2  -5   61.09    3.90
   7  -2   5    3.80    1.50
  -7  -2  -5    5.80    2.40
  -7   2  -5    1.80    2.10
   7   2   5    3.00    2.00
   7   2   5    4.00    2.00
   8  -2   5   20.90    2.70
  -8  -2  -5   21.70    3.30
   8   2   5   16.60    2.30
   8   2   5   21.80    2.70
  -8   2  -5   19.60    3.10
  -9  -2  -5    0.10    2.60
   9  -2   5    3.90    2.30
  -9   2  -5    2.50    2.50
   9   2   5    2.60    2.20
   9   2   5   -0.60    2.20
  10  -2   5   80.49    4.70
 -10  -2  -5   88.89    5.30
  10   2   5   71.09    5.20
  10   2   5   81.69    4.60
 -10   2  -5   84.89    5.00
  11  -2   5    8.60    2.50
 -11  -2  -5    4.40    2.50
  11   2   5    9.20    2.80
  11   2   5    9.40    3.10
 -11   2  -5    4.70    3.00
 -12  -2  -5  123.79    7.30
  12  -2   5  108.49    6.60
 -12   2  -5  114.09    6.80
  12   2   5  120.09    7.00
 -13  -2  -5    6.30    3.60
  13  -2   5    9.00    2.80
 -13   2  -5    8.00    2.80
  13   2   5    7.70    2.90
  14  -2   5   36.10    7.30
 -14  -2  -5   25.90    4.60
 -14   2  -5   25.10    4.50
  14  -3  -5    0.00    3.30
  14   3  -5   -2.30    3.10
  14   3  -5    1.90    2.20
  13  -3  -5   14.40    3.90
  13   3  -5    8.90    3.40
  13   3  -5   19.30    4.10
  12  -3  -5   10.70    2.80
  12   3  -5    2.80    2.30
  12   3  -5    6.30    3.10
  11  -3  -5    0.50    2.00
  11   3  -5   -0.50    1.80
  11   3  -5   -3.00    1.70
  10  -3  -5    0.10    1.80
  10   3  -5   -2.60    2.30
  10   3  -5   -1.20    2.20
   9  -3  -5   -1.50    1.50
   9  -3  -5    1.70    1.80
   9   3  -5    1.70    2.20
   9   3  -5    1.80    1.70
  -8  -3   5   90.99    4.10
   8  -3  -5   92.59    4.90
   8  -3  -5   92.39    4.10
   8   3  -5   95.99    4.60
   8   3  -5  101.49    4.70
   8   3  -5   95.79    3.80
   7  -3  -5   21.80    2.60
   7  -3  -5   22.60    2.30
  -7  -3   5   25.70    2.40
   7   3  -5   21.20    2.00
   7   3  -5   25.10    2.70
   7   3  -5   21.50    2.90
   6  -3  -5   22.20    2.40
  -6  -3   5   22.90    2.30
   6  -3  -5   19.50    2.10
   6   3  -5   21.40    2.30
   6   3  -5   20.60    2.70
   6   3  -5   18.90    1.80
   5  -3  -5   20.70    2.20
  -5  -3   5   19.40    1.90
   5  -3  -5   18.50    2.50
   5   3  -5   22.00    2.00
  -5   3   5   19.70    1.10
   5   3  -5   19.70    2.50
   5   3  -5   19.30    1.80
   4  -3  -5   30.20    2.40
   4  -3  -5   31.20    2.40
   4   3  -5   31.30    2.30
   4   3  -5   29.60    1.90
   4   3  -5   28.10    2.10
  -4   3   5   27.30    1.20
   3  -3  -5   44.60    3.00
   3  -3  -5   41.70    2.70
   3   3  -5   41.40    2.10
  -3   3   5   43.60    2.80
   3   3  -5   47.60    2.90
   3   3  -5   40.90    2.10
  -3   3   5   41.40    1.50
   2  -3  -5    4.70    0.80
   2  -3  -5    4.70    1.40
   2  -3  -5    5.70    1.70
  -2   3   5    5.30    1.50
   2   3  -5    4.10    1.20
  -2   3   5    3.80    0.80
   2   3  -5    4.30    1.30
   2   3  -5    5.00    1.10
  -2   3   5    4.70    1.30
   1  -3  -5    7.90    1.50
  -1  -3   5    7.30    1.00
   1  -3  -5    7.50    1.10
   1  -3  -5    6.40    1.80
   1   3  -5    5.40    1.40
  -1   3   5    9.70    1.70
  -1   3   5    5.50    1.00
   1   3  -5    8.30    1.00
  -1   3   5    6.70    1.60
   1   3  -5    7.10    1.10
   0  -3  -5    1.30    1.10
   0  -3  -5    3.70    1.80
   0  -3   5    3.90    0.80
   0   3   5    1.70    1.00
   0   3  -5    4.10    1.30
   0   3  -5    2.60    0.90
   0   3   5    0.20    1.40
   0   3   5    1.20    1.50
   0   3  -5    3.60    1.10
  -1  -3  -5    4.50    1.10
  -1  -3  -5    3.40    1.50
   1  -3   5    4.00    0.90
  -1   3  -5    2.20    1.10
  -1   3  -5    4.50    1.50
   1   3   5    1.60    1.20
   1   3   5    4.10    1.60
   1   3   5    5.40    1.30
   2  -3   5   47.20    2.00
  -2  -3  -5   44.00    2.50
  -2   3  -5   43.90    2.20
   2   3   5   44.60    2.50
   2   3   5   46.10    2.60
  -2   3  -5   46.40    2.50
  -3  -3  -5   84.39    3.90
   3  -3   5   85.99    2.70
   3  -3   5   81.79    2.90
   3   3   5   83.19    3.40
  -3   3  -5   82.19    3.40
   3   3   5   81.59    3.50
  -3   3  -5   83.69    2.90
   4  -3   5    1.50    1.10
   4  -3   5    0.90    0.90
  -4  -3  -5    0.70    1.80
   4   3   5    1.90    1.20
  -4   3  -5   -0.40    1.00
   4   3   5    0.50    1.20
  -4   3  -5    0.80    1.70
  -5  -3  -5  174.08    6.00
   5  -3   5  179.38    4.70
   5  -3   5  182.28    5.40
  -5   3  -5  179.88    5.00
   5   3   5  182.08    6.10
   5   3   5  179.78    6.10
  -5   3  -5  180.88    5.90
   6  -3   5   13.80    1.80
  -6  -3  -5   13.90    2.70
  -6   3  -5   10.70    1.80
   6   3   5   14.20    2.10
   6   3   5   14.70    2.50
  -6   3  -5   16.20    2.20
  -7  -3  -5  104.59    5.40
   7  -3   5  101.39    4.50
  -7   3  -5   95.09    4.90
   7   3   5  103.59    4.60
   7   3   5  103.99    4.60
  -8  -3  -5    2.20    2.00
   8  -3   5    3.80    1.60
   8   3   5    4.00    2.30
   8   3   5    2.20    1.80
  -8   3  -5    3.10    2.40
  -9  -3  -5    5.60    2.90
   9  -3   5    1.90    1.60
   9   3   5    6.80    2.50
   9   3   5    5.90    2.50
  -9   3  -5    5.80    2.70
 -10  -3  -5   32.30    4.30
  10  -3   5   31.70    3.60
  10   3   5   32.30    3.90
 -10   3  -5   31.60    3.90
  10   3   5   28.40    3.80
  11  -3   5    0.40    2.50
 -11  -3  -5    1.40    2.20
  11   3   5    0.10    1.80
  11   3   5    3.80    2.90
 -11   3  -5    2.60    2.10
  12  -3   5    9.60    3.10
 -12  -3  -5    3.50    3.40
 -12   3  -5    9.10    3.40
  12   3   5   12.30    3.30
  12   3   5    9.00    3.40
 -13  -3  -5    2.80    3.60
  13  -3   5   -0.70    2.80
  13   3   5    4.00    2.50
 -13   3  -5    2.90    3.10
  14  -4  -5   -1.10    2.30
  14   4  -5   -0.50    3.20
  14   4  -5   -1.90    3.00
  13  -4  -5   34.00    4.30
  13   4  -5   28.30    3.90
  13   4  -5   29.70    3.90
  12  -4  -5   16.00    3.80
  12   4  -5   10.40    2.80
  12   4  -5   11.40    3.40
  11  -4  -5   10.10    3.30
  11   4  -5    9.40    2.90
  11   4  -5   10.70    2.70
  10  -4  -5   57.39    4.70
  10   4  -5   59.89    4.50
  10   4  -5   59.79    4.30
  -9  -4   5    2.90    2.00
   9  -4  -5   -0.70    2.20
   9   4  -5    1.60    2.20
   9   4  -5   -1.10    1.60
   8  -4  -5   91.59    4.60
  -8  -4   5   84.99    4.30
   8   4  -5   90.59    3.90
   8   4  -5   94.09    4.50
   8   4  -5   84.39    4.50
  -7  -4   5   11.20    2.10
   7  -4  -5    5.40    1.80
   7  -4  -5    6.50    1.80
   7   4  -5    6.10    1.60
   7   4  -5    5.70    1.80
   7   4  -5    7.10    1.90
   6  -4  -5    8.30    1.60
  -6  -4   5   10.00    1.90
   6  -4  -5    3.00    1.60
   6   4  -5    7.80    2.30
   6   4  -5    6.80    1.70
   6   4  -5    4.40    1.50
  -5  -4   5  106.99    4.10
   5  -4  -5   93.59    3.80
   5  -4  -5   95.69    4.40
   5   4  -5   95.79    4.10
   5   4  -5  101.79    3.70
   5   4  -5   93.39    3.60
  -5   4   5   99.09    2.90
   4  -4  -5    2.00    1.30
   4  -4  -5   -2.00    1.60
   4   4  -5   -0.80    1.10
   4   4  -5   -0.40    1.10
  -4   4   5    0.90    0.70
   4   4  -5    0.40    1.20
   3  -4  -5    6.80    1.50
   3  -4  -5    6.60    1.30
   3   4  -5    7.60    1.50
   3   4  -5    6.60    1.40
  -3   4   5    7.10    1.50
  -3   4   5    6.60    0.90
   3   4  -5    5.50    1.10
   2  -4  -5  160.28    4.30
   2  -4  -5  160.28    5.40
   2  -4  -5  159.28    5.10
   2   4  -5  165.18    4.10
  -2   4   5  165.98    5.20
  -2   4   5  162.78    4.20
   2   4  -5  166.68    4.80
  -2   4   5  161.38    4.80
   2   4  -5  168.58    4.90
   1  -4  -5   82.19    3.50
   1  -4  -5   83.09    3.80
   1  -4  -5   79.99    2.90
  -1   4   5   84.19    2.80
  -1   4   5   85.69    3.50
   1   4  -5   80.19    3.20
   1   4  -5   83.59    3.40
  -1   4   5   87.59    3.30
   1   4  -5   85.69    2.30
   0  -4   5   13.80    0.90
   0  -4  -5   10.50    1.50
   0  -4  -5   13.20    1.90
   0   4   5   13.80    1.90
   0   4  -5   13.70    1.00
   0   4   5   11.60    1.60
   0   4   5   15.00    1.50
   0   4  -5   15.40    1.90
   0   4  -5   15.00    1.60
  -1  -4  -5    6.80    1.60
   1  -4   5    8.90    0.80
  -1  -4  -5    8.20    1.70
  -1   4  -5    6.70    1.20
   1   4   5    8.20    1.50
   1   4   5    8.60    1.50
   1   4   5    8.40    1.50
  -1   4  -5   10.10    1.80
   2  -4   5   12.30    1.10
  -2  -4  -5   15.30    1.80
  -2   4  -5   11.00    1.70
   2   4   5   12.00    1.70
   2   4   5   13.80    1.60
  -2   4  -5   14.30    1.30
   2   4   5   12.10    1.90
  -3  -4  -5    0.20    1.70
   3  -4   5    0.20    0.90
  -3   4  -5   -1.00    1.10
  -3   4  -5    1.40    0.90
   3   4   5    0.20    1.20
   3   4   5    0.80    1.10
   3   4   5   -1.10    1.50
   4  -4   5   31.00    2.00
  -4  -4  -5   34.60    2.90
  -4   4  -5   29.80    2.50
   4   4   5   26.50    2.80
  -4   4  -5   28.70    1.70
   4   4   5   28.80    2.80
   5  -4   5   29.10    2.20
  -5  -4  -5   28.80    2.90
  -5   4  -5   29.10    2.60
   5   4   5   29.00    2.80
   5   4   5   23.10    2.50
  -6  -4  -5   -0.70    2.20
   6  -4   5    1.00    1.40
   6   4   5    0.60    1.90
   6   4   5    1.20    1.50
  -6   4  -5    1.00    2.00
   7  -4   5   30.60    2.80
  -7  -4  -5   24.40    3.00
   7   4   5   20.80    3.00
  -7   4  -5   25.00    2.80
   7   4   5   32.60    3.50
   8  -4   5   71.39    4.10
  -8  -4  -5   64.49    4.40
   8   4   5   62.59    4.50
   8   4   5   59.99    4.50
  -8   4  -5   74.39    4.80
   9  -4   5    0.80    1.90
  -9  -4  -5   -0.10    2.80
  -9   4  -5    4.90    2.70
   9   4   5   -0.30    2.40
   9   4   5    1.40    1.90
 -10  -4  -5   37.00    4.60
  10  -4   5   26.00    3.00
  10   4   5   31.70    4.00
 -10   4  -5   36.10    4.30
  10   4   5   28.60    3.90
  11  -4   5   -0.40    2.40
 -11  -4  -5   -1.80    2.10
 -11   4  -5    2.90    2.90
  11   4   5   -0.60    2.60
  11   4   5    0.30    2.70
  12  -4   5   39.90    4.40
 -12  -4  -5   38.90    5.10
  12   4   5   42.70    4.40
  12   4   5   43.20    4.90
 -12   4  -5   41.30    4.40
 -13  -4  -5    8.80    3.10
  13  -4   5   11.50    3.50
  13   4   5   12.90    3.70
  13   4   5   10.40    3.00
 -13   4  -5    5.80    3.40
  14   5  -5   42.30    5.10
  13  -5  -5    5.10    3.40
  13   5  -5    2.70    2.50
  13   5  -5    0.70    3.00
  12  -5  -5   21.90    3.50
  12   5  -5   19.10    3.90
  12   5  -5   21.00    3.70
  11  -5  -5   62.99    4.60
  11   5  -5   61.39    4.90
  11   5  -5   52.99    5.20
  10  -5  -5    3.20    2.10
  10   5  -5    5.40    2.30
  10   5  -5    3.10    2.40
   9  -5  -5   98.49    5.50
  -9  -5   5  106.99    5.20
   9   5  -5   97.79    4.60
   9   5  -5   97.59    5.00
   9   5  -5  106.49    5.80
   8  -5  -5    4.10    2.30
  -8  -5   5   -4.20    1.70
   8   5  -5    3.30    1.80
   8   5  -5   -0.40    1.50
   8   5  -5    3.30    1.90
   7  -5  -5    4.80    2.30
  -7  -5   5    4.40    2.10
   7   5  -5    5.00    1.90
   7   5  -5    3.80    1.70
   7   5  -5    7.50    1.90
  -6  -5   5  196.48    6.30
   6  -5  -5  178.38    6.40
   6  -5  -5  179.58    5.60
   6   5  -5  181.08    5.80
   6   5  -5  176.18    5.50
   6   5  -5  176.28    6.50
  -5  -5   5    0.90    1.60
   5  -5  -5   -0.70    1.30
   5  -5  -5    1.10    1.30
   5   5  -5    0.20    1.30
   5   5  -5    1.20    1.40
  -5   5   5    0.10    0.90
   5   5  -5    0.90    1.50
   4  -5  -5    0.40    1.30
   4  -5  -5    1.50    1.40
  -4   5   5    1.00    1.20
   4   5  -5   -1.40    1.20
   4   5  -5    1.70    1.40
  -4   5   5    1.70    0.90
   4   5  -5    2.50    1.10
   3  -5  -5   54.19    3.10
   3  -5  -5   52.59    3.30
   3   5  -5   55.39    3.20
  -3   5   5   59.59    2.90
   3   5  -5   53.19    2.70
   3   5  -5   56.09    2.10
  -3   5   5   56.19    2.30
  -3   5   5   54.69    3.20
   2  -5  -5    5.10    1.70
   2  -5  -5    6.80    1.20
   2  -5  -5    3.50    1.70
  -2   5   5    8.40    1.80
   2   5  -5    8.60    1.40
   2   5  -5    7.70    0.80
  -2   5   5    5.50    1.30
  -2   5   5    7.20    1.20
   1  -5  -5  130.59    4.70
   1  -5  -5  132.09    4.20
   1  -5  -5  125.49    4.90
  -1   5   5  136.49    4.50
   1   5  -5  132.69    4.30
  -1   5   5  132.29    4.00
  -1   5   5  146.19    4.80
   1   5  -5  136.29    4.60
   0  -5  -5   42.10    3.30
   0  -5  -5   41.80    2.60
   0   5   5   51.59    2.60
   0   5   5   53.19    3.00
   0   5   5   50.69    3.00
   0   5  -5   49.20    2.40
   0   5  -5   46.90    3.00
  -1  -5  -5   36.30    2.70
  -1  -5  -5   37.80    2.90
  -1   5  -5   40.00    1.90
   1   5   5   38.70    2.60
   1   5   5   40.80    2.80
  -1   5  -5   33.90    2.70
   1   5   5   34.20    2.40
  -2  -5  -5   48.70    3.20
   2  -5   5   48.60    1.80
   2   5   5   51.09    2.80
  -2   5  -5   53.29    2.00
  -2   5  -5   49.99    3.20
   2   5   5   51.99    2.60
   2   5   5   53.99    3.00
  -3  -5  -5   16.90    2.50
   3  -5   5   12.60    1.30
   3   5   5   13.20    2.00
  -3   5  -5   12.10    1.00
   3   5   5   14.40    2.10
  -3   5  -5   13.80    2.00
   3   5   5   11.90    2.10
  -4  -5  -5    3.50    2.10
   4  -5   5    3.30    1.00
  -4   5  -5    3.60    1.50
   4   5   5    1.00    1.70
   4   5   5    2.10    1.80
   4   5   5    4.60    1.70
  -5  -5  -5   37.70    3.60
   5  -5   5   42.20    2.40
   5   5   5   46.80    3.20
   5   5   5   40.30    2.90
  -5   5  -5   41.50    3.00
  -6  -5  -5   19.80    3.20
   6  -5   5   25.20    2.30
   6   5   5   28.80    3.10
   6   5   5   33.50    3.20
  -6   5  -5   24.30    2.70
  -7  -5  -5   -1.60    1.70
   7  -5   5    2.80    1.60
   7   5   5   -1.50    1.50
   7   5   5   -1.50    2.20
  -7   5  -5   -0.50    1.60
  -8  -5  -5   24.20    3.40
   8  -5   5   23.10    2.70
   8   5   5   24.80    3.50
  -8   5  -5   23.60    3.40
   8   5   5   24.60    3.10
   9  -5   5   21.60    2.90
  -9  -5  -5   22.80    4.00
   9   5   5   25.60    3.80
   9   5   5   23.80    3.60
  -9   5  -5   18.40    3.30
  10  -5   5    2.20    2.20
 -10  -5  -5    4.60    2.50
 -10   5  -5    1.30    2.10
  10   5   5   -1.70    2.60
  10   5   5   -0.50    1.90
  11  -5   5   59.59    4.70
 -11  -5  -5   55.59    5.70
 -11   5  -5   54.79    5.00
  11   5   5   38.80    4.20
  11   5   5   43.80    4.90
 -12  -5  -5   47.30    5.10
 -12   5  -5   41.20    4.90
  12   5   5   48.80    4.80
  12   5   5   37.20    4.30
 -13  -5  -5   31.60    5.10
  13   5   5   23.20    4.20
 -13   5  -5   35.60    4.70
  13   5   5   23.20    3.80
  13  -6  -5   10.30    3.70
  13   6  -5   11.00    3.50
  13   6  -5   17.90    3.60
  12  -6  -5    6.90    3.30
  12   6  -5   12.60    3.70
  12   6  -5    7.60    3.10
  11  -6  -5    1.20    2.70
  11   6  -5   -1.60    2.30
  11   6  -5    2.30    3.00
  10  -6  -5    5.50    2.80
 -10  -6   5   -1.70    2.60
  10   6  -5    4.70    1.90
  10   6  -5    3.10    2.20
   9  -6  -5    1.80    2.50
  -9  -6   5   -0.30    2.20
   9   6  -5    0.40    1.90
   9   6  -5    1.70    2.00
   9   6  -5    0.30    1.80
   8  -6  -5   31.40    3.20
  -8  -6   5   29.80    3.40
   8   6  -5   27.70    3.20
   8   6  -5   34.10    3.20
   8   6  -5   32.20    3.00
   7  -6  -5   57.69    4.20
  -7  -6   5   58.19    4.10
   7   6  -5   59.99    3.90
   7   6  -5   56.59    3.60
   7   6  -5   60.89    3.30
   6  -6  -5   -0.50    1.80
  -6  -6   5   -1.80    1.90
   6   6  -5    1.80    2.10
   6   6  -5    0.10    1.30
   6   6  -5    1.80    1.70
  -5  -6   5   16.80    2.50
   5  -6  -5   15.00    2.20
   5  -6  -5   13.10    1.80
   5   6  -5   15.00    2.20
  -5   6   5   15.00    1.50
   5   6  -5   10.30    2.40
   5   6  -5   12.10    1.60
   4  -6  -5    4.00    1.50
   4  -6  -5    5.80    1.50
   4   6  -5    3.70    1.70
   4   6  -5    5.50    1.90
  -4   6   5    2.70    1.40
   4   6  -5    4.60    1.10
  -4   6   5    1.20    1.20
   3  -6  -5   16.60    2.10
   3  -6  -5   11.40    1.90
  -3   6   5   13.50    1.60
  -3   6   5   13.60    2.20
  -3   6   5   11.70    1.80
   3   6  -5   12.40    1.20
   3   6  -5    8.70    2.00
   3   6  -5   12.50    2.00
   2  -6  -5   -0.90    1.40
   2  -6  -5    6.10    1.80
  -2   6   5    1.90    1.20
   2   6  -5    3.00    1.70
  -2   6   5    2.10    1.60
   2   6  -5    1.80    1.50
  -2   6   5    1.20    1.40
   1  -6  -5   18.80    2.00
   1  -6  -5   12.10    2.20
   1  -6  -5   18.40    2.10
  -1   6   5   19.80    2.00
   1   6  -5   15.80    2.20
  -1   6   5   16.50    2.10
  -1   6   5   16.60    1.80
   1   6  -5   20.60    2.00
   0  -6  -5    6.20    1.70
   0  -6  -5    5.00    1.90
   0  -6  -5    4.10    1.20
   0   6  -5    4.20    1.80
   0   6   5    3.10    1.40
   0   6  -5    6.30    1.30
   0   6   5    6.10    1.70
   0   6   5    5.20    1.40
  -1  -6  -5   16.30    2.30
  -1   6  -5   15.70    1.50
   1   6   5   18.10    2.30
  -1   6  -5   14.10    2.20
   1   6   5   16.80    2.10
   1   6   5   15.70    2.10
  -2  -6  -5   41.90    3.30
   2   6   5   39.00    2.50
  -2   6  -5   41.80    3.20
   2   6   5   43.00    2.90
   2   6   5   43.10    3.10
  -2   6  -5   43.00    1.80
  -3  -6  -5  127.59    5.40
  -3   6  -5  127.59    4.90
   3   6   5  133.19    5.00
   3   6   5  129.29    5.10
   3   6   5  128.49    4.80
  -4  -6  -5    5.80    2.30
   4   6   5    2.90    1.50
  -4   6  -5    2.80    1.50
   4   6   5    1.50    1.90
   4   6   5    1.60    1.50
  -5  -6  -5    2.10    2.30
   5   6   5    2.40    1.70
  -5   6  -5    4.20    2.20
   5   6   5    2.00    2.00
   5   6   5    0.30    1.40
  -6  -6  -5   -3.10    2.40
   6   6   5   -0.80    2.20
   6   6   5    0.80    1.50
  -6   6  -5   -1.90    1.50
  -7  -6  -5    7.70    3.00
  -7   6  -5    5.50    2.00
   7   6   5    4.30    2.00
   7   6   5    7.00    2.50
  -8  -6  -5    5.10    2.40
  -8   6  -5   12.00    3.10
   8   6   5    4.90    2.80
   8   6   5    7.00    2.70
  -9  -6  -5   -0.50    2.20
   9   6   5   -1.70    1.80
  -9   6  -5    1.70    2.00
   9   6   5    0.50    2.70
 -10  -6  -5    8.70    3.60
  10   6   5    2.70    3.10
  10   6   5   16.80    3.60
 -10   6  -5   11.00    3.20
 -11  -6  -5   10.90    3.30
 -11   6  -5    8.80    3.40
  11   6   5   15.50    3.70
  11   6   5    8.50    2.80
 -12  -6  -5    1.50    3.70
  12   6   5    4.70    3.30
  12   6   5    0.00    3.00
 -12   6  -5    1.80    2.40
 -13   6  -5   -0.80    2.90
  13  -7  -5   -0.20    3.10
  12  -7  -5   44.10    5.00
  12   7  -5   51.09    5.60
  11  -7  -5    1.80    3.00
  11   7  -5    4.20    3.20
 -10  -7   5   11.60    3.10
  10  -7  -5   12.90    3.20
  10   7  -5   11.20    3.50
   9  -7  -5   69.39    5.00
  -9  -7   5   74.79    4.60
   9   7  -5   69.99    4.40
   9   7  -5   58.99    5.20
   8  -7  -5   -1.80    1.50
  -8  -7   5   -1.40    1.70
   8   7  -5    2.10    1.50
   8   7  -5    0.30    2.60
  -7  -7   5   13.80    2.90
   7  -7  -5    9.50    2.50
   7   7  -5   12.30    3.00
   7   7  -5    8.20    1.90
   6  -7  -5    2.40    2.00
  -6  -7   5    2.40    2.30
   6   7  -5    1.90    1.90
   6   7  -5    7.80    2.50
  -5  -7   5   99.99    4.70
   5  -7  -5  104.09    4.50
   5   7  -5  104.09    4.70
   5   7  -5   98.29    4.90
   4  -7  -5  162.88    5.40
   4  -7  -5  158.48    5.90
   4   7  -5  160.78    5.70
   4   7  -5  155.58    5.70
  -4   7   5  155.98    4.90
   3  -7  -5   78.09    3.70
   3  -7  -5   78.89    4.10
  -3   7   5   76.89    3.90
   3   7  -5   75.49    3.70
   3   7  -5   85.49    4.00
  -3   7   5   77.99    3.40
   2  -7  -5    0.30    1.70
   2  -7  -5    3.30    1.70
  -2   7   5    2.90    1.60
  -2   7   5    3.10    1.70
  -2   7   5    4.10    1.30
   2   7  -5    0.90    1.40
   2   7  -5    3.60    1.90
   1  -7  -5  119.49    5.00
   1  -7  -5  118.69    4.90
   1  -7  -5  114.79    4.50
  -1   7   5  121.29    4.60
  -1   7   5  116.39    4.60
   1   7  -5  112.49    4.60
   1   7  -5  117.69    4.20
  -1   7   5  126.29    4.20
   0  -7  -5    5.00    2.00
   0  -7  -5    8.60    2.20
   0  -7  -5    2.70    1.70
   0   7   5    5.10    1.70
   0   7   5    8.10    1.90
   0   7  -5    6.80    2.10
   0   7  -5    4.20    1.20
   0   7   5   10.20    2.00
  -1  -7  -5   36.00    3.10
   1   7   5   39.00    2.90
   1   7   5   33.30    2.80
  -1   7  -5   35.00    2.90
  -1   7  -5   35.60    2.00
   1   7   5   37.00    3.20
  -2  -7  -5   27.10    2.80
   2   7   5   26.40    2.60
   2   7   5   28.40    2.70
   2   7   5   22.00    2.60
  -2   7  -5   24.60    2.60
  -3  -7  -5    5.30    1.90
  -3   7  -5    4.80    1.70
   3   7   5    5.20    1.60
   3   7   5    6.00    1.80
   3   7   5    9.70    1.90
  -4  -7  -5   11.90    2.40
   4   7   5   11.00    2.00
   4   7   5    6.20    2.40
  -4   7  -5    8.60    2.00
   4   7   5   10.50    2.00
  -5  -7  -5    2.30    2.00
   5   7   5   -1.40    1.40
   5   7   5    0.90    2.30
   5   7   5    0.40    1.90
  -5   7  -5    2.20    1.70
  -6  -7  -5   21.30    3.10
   6   7   5   20.80    2.60
   6   7   5   19.90    2.70
   6   7   5   17.50    2.80
  -6   7  -5   23.80    2.90
  -7  -7  -5    2.60    2.30
   7   7   5    4.10    2.50
   7   7   5    1.30    1.90
  -7   7  -5    3.80    2.00
  -8  -7  -5   56.89    5.20
   8   7   5   50.29    4.50
  -8   7  -5   59.29    4.20
   8   7   5   45.20    4.30
  -9  -7  -5  211.88    9.10
   9   7   5  190.98    8.00
  -9   7  -5  202.38    8.20
   9   7   5  192.38    8.10
 -10  -7  -5    9.40    3.10
  10   7   5   11.00    2.80
 -10   7  -5    7.80    3.20
  10   7   5    9.40    2.80
 -11  -7  -5    8.60    4.00
 -11   7  -5   13.80    3.60
  11   7   5   16.60    3.90
  11   7   5   13.60    3.30
 -12  -7  -5    4.80    4.00
 -12   7  -5   -4.30    2.60
  12   7   5   -0.90    3.10
  12   7   5   -6.80    3.00
  12  -8  -5   16.00    3.80
  12   8  -5    3.60    2.80
  11  -8  -5   -0.10    2.80
  11   8  -5   -0.70    2.20
  10  -8  -5   55.89    5.00
 -10  -8   5   44.60    4.80
  10   8  -5   43.70    4.20
  10   8  -5   49.10    4.90
   9  -8  -5   -0.50    2.40
  -9  -8   5    0.60    2.10
   9   8  -5   -2.50    1.80
   9   8  -5    3.10    1.90
  -8  -8   5   60.99    5.00
   8  -8  -5   65.49    4.20
   8   8  -5   64.39    4.60
   8   8  -5   69.09    4.60
   7  -8  -5   73.49    4.60
  -7  -8   5   78.49    5.20
   7   8  -5   68.99    4.50
   7   8  -5   73.99    4.60
   6  -8  -5    4.40    2.20
  -6  -8   5    2.50    1.90
   6   8  -5   -0.10    2.00
   6   8  -5    1.30    2.30
   5  -8  -5   10.00    2.30
  -5  -8   5   11.80    2.40
   5   8  -5   10.70    2.10
   5   8  -5    7.00    2.00
   4  -8  -5    2.10    1.90
   4   8  -5    3.80    1.60
  -4   8   5    4.70    1.70
   4   8  -5    1.10    2.00
   3  -8  -5   62.29    3.80
  -3   8   5   65.69    3.70
   3   8  -5   64.49    3.40
  -3   8   5   54.39    3.20
   3   8  -5   53.49    3.90
  -3   8   5   63.59    3.30
   2  -8  -5  160.48    5.80
   2  -8  -5  153.08    5.80
   2   8  -5  158.78    6.10
  -2   8   5  161.58    5.50
   2   8  -5  165.98    5.50
  -2   8   5  176.08    5.80
  -2   8   5  160.88    5.30
   1  -8  -5   -0.40    1.70
   1  -8  -5   -0.30    1.30
   1  -8  -5   -0.30    1.60
  -1   8   5    1.80    1.70
   1   8  -5    0.40    1.30
  -1   8   5    1.80    1.60
   1   8  -5    1.30    2.00
  -1   8   5    1.80    1.60
   0  -8  -5   46.00    3.40
   0  -8  -5   50.09    3.50
   0  -8  -5   59.09    4.00
   0   8   5   59.09    3.40
   0   8  -5   51.99    3.80
   0   8   5   52.09    3.50
   0   8   5   54.89    3.00
   0   8  -5   49.90    2.70
  -1  -8  -5   51.59    3.90
   1   8   5   45.90    3.30
   1   8   5   43.30    2.80
   1   8   5   47.10    3.50
  -1   8  -5   38.50    3.20
  -2  -8  -5   20.80    2.60
   2   8   5   17.40    2.40
  -2   8  -5   18.40    2.80
   2   8   5   17.40    2.40
   2   8   5   18.30    2.60
  -3  -8  -5   41.70    3.60
   3   8   5   38.40    3.00
   3   8   5   38.60    3.30
   3   8   5   38.20    3.70
  -3   8  -5   38.60    3.30
  -4  -8  -5    5.70    2.10
  -4   8  -5    3.50    2.40
   4   8   5    5.80    1.80
   4   8   5    1.40    1.70
   4   8   5    1.10    1.50
  -5  -8  -5    3.40    2.10
  -5   8  -5    0.70    1.80
   5   8   5   -0.90    1.70
   5   8   5   -2.40    1.50
   5   8   5   -0.70    1.90
  -6  -8  -5   55.69    4.60
   6   8   5   54.39    4.20
  -6   8  -5   53.09    4.60
   6   8   5   54.49    3.90
   6   8   5   51.89    4.10
  -7  -8  -5   53.09    5.20
   7   8   5   53.99    5.00
   7   8   5   49.90    4.50
   7   8   5   58.89    4.60
  -7   8  -5   65.79    5.00
  -8  -8  -5   84.19    6.40
   8   8   5   68.49    5.60
   8   8   5   71.89    5.10
  -8   8  -5   77.99    5.50
  -9  -8  -5   12.00    3.90
   9   8   5    8.00    3.10
  -9   8  -5    5.30    2.40
   9   8   5   10.00    3.50
 -10  -8  -5   15.00    3.50
  10   8   5   18.30    3.60
  10   8   5   19.60    4.00
 -10   8  -5    8.70    3.30
 -11  -8  -5    0.80    3.80
 -11   8  -5   -0.80    2.90
  11   8   5    5.00    3.20
  11   8   5   -4.50    3.00
 -12   8  -5   27.60    4.50
  11   9  -5    8.00    2.90
  10  -9  -5   -2.90    2.80
 -10  -9   5   -4.50    2.80
  10   9  -5   -2.00    2.00
  10   9  -5   -0.90    1.70
  -9  -9   5    4.00    3.20
   9  -9  -5   -3.10    2.30
   9   9  -5    2.10    2.50
   9   9  -5    0.00    2.80
  -8  -9   5    8.00    3.30
   8  -9  -5    2.80    2.40
   8   9  -5    1.60    2.50
   8   9  -5   -0.90    2.70
  -7  -9   5   -0.70    2.60
   7  -9  -5    3.20    2.20
   7   9  -5    0.90    1.70
   7   9  -5    3.20    2.10
   6  -9  -5    9.80    2.40
  -6  -9   5    7.50    2.40
   6   9  -5   11.20    2.30
   6   9  -5   10.80    2.90
   5  -9  -5   30.60    3.20
  -5  -9   5   32.00    3.50
   5   9  -5   32.50    3.30
   5   9  -5   29.60    3.10
   4  -9  -5  119.49    5.40
  -4   9   5  129.89    4.90
   4   9  -5  128.19    5.70
   4   9  -5  128.59    5.60
   3  -9  -5   72.99    4.20
   3   9  -5   71.19    4.10
  -3   9   5   77.19    3.80
   3   9  -5   85.39    4.80
  -3   9   5   75.49    4.10
   2  -9  -5   94.79    4.60
   2   9  -5   80.99    4.80
  -2   9   5   91.49    4.20
   2   9  -5   95.19    4.30
  -2   9   5   98.79    4.50
  -2   9   5   95.09    4.20
   1  -9  -5   49.70    3.70
   1  -9  -5   44.10    3.60
   1  -9  -5   55.99    3.70
   1   9  -5   48.80    3.50
  -1   9   5   50.89    3.50
  -1   9   5   50.39    3.40
   1   9  -5   40.90    3.20
  -1   9   5   49.30    3.30
   0  -9  -5   -0.40    1.80
   0  -9  -5   -1.20    2.00
   0  -9  -5   -0.20    1.40
   0   9   5    3.00    1.90
   0   9  -5    1.70    1.70
   0   9   5    0.90    1.90
   0   9   5    1.60    1.70
  -1  -9  -5   11.50    2.40
  -1  -9  -5   13.60    2.30
  -1  -9  -5   11.30    2.30
   1   9   5   12.40    2.10
   1   9   5   12.70    2.30
   1   9   5   12.90    2.10
  -1   9  -5   20.20    3.00
  -2  -9  -5    1.00    1.80
   2   9   5    0.50    1.50
  -2   9  -5    2.90    2.30
   2   9   5    2.90    1.80
   2   9   5   -0.10    2.00
  -3  -9  -5   25.20    3.60
  -3   9  -5   30.50    3.60
   3   9   5   22.20    2.90
   3   9   5   22.70    2.80
   3   9   5   29.40    3.00
  -4  -9  -5   19.00    3.10
   4   9   5   17.10    2.70
   4   9   5   19.10    3.30
  -4   9  -5   15.20    2.70
   4   9   5   17.50    2.60
  -5  -9  -5    6.30    2.60
   5   9   5    5.70    2.80
   5   9   5    5.80    2.10
   5   9   5    5.30    2.40
  -5   9  -5    5.40    2.70
  -6  -9  -5   55.19    4.90
  -6   9  -5   66.39    4.40
   6   9   5   57.49    4.40
   6   9   5   54.99    4.30
   6   9   5   61.99    4.30
  -7  -9  -5   23.40    3.80
   7   9   5   25.00    3.50
  -7   9  -5   27.20    3.50
   7   9   5   20.10    3.30
   7   9   5   23.60    3.70
  -8  -9  -5    3.80    3.60
   8   9   5   -2.10    2.00
   8   9   5   -0.60    1.80
  -8   9  -5   -1.60    1.90
  -9  -9  -5   -1.60    3.50
  -9   9  -5   -3.00    2.70
   9   9   5    1.70    2.60
   9   9   5    1.30    2.30
 -10  -9  -5   -3.60    2.30
  10   9   5    0.80    2.40
  10   9   5    3.20    3.00
 -10   9  -5   -0.90    2.80
 -11   9  -5   -1.70    2.10
  11   9   5    1.90    2.30
 -10 -10   5    7.10    3.50
  10  10  -5    6.90    3.60
  10  10  -5    4.30    2.90
  -9 -10   5    3.50    3.30
   9  10  -5    1.40    2.60
   9  10  -5    2.20    2.50
  -8 -10   5   33.20    4.70
   8  10  -5   31.80    4.10
   8  10  -5   41.30    4.70
  -7 -10   5   46.40    4.90
   7  10  -5   53.09    4.60
   7  10  -5   53.69    4.60
  -6 -10   5    6.00    2.40
   6  10  -5    3.20    2.60
   6  10  -5    5.40    2.10
  -5 -10   5   17.00    3.50
   5  10  -5   15.60    3.10
   5  10  -5   21.20    2.90
   4  10  -5   -0.30    1.50
   4  10  -5    1.10    2.40
  -3  10   5    4.10    2.30
   3  10  -5    4.50    2.00
  -3  10   5    4.10    2.00
   3  10  -5    0.90    1.90
  -2  10   5    5.60    2.00
   2  10  -5    6.60    2.60
  -2  10   5    8.90    2.30
   1 -10  -5   33.30    3.50
  -1  10   5   39.70    3.20
   1  10  -5   39.60    3.60
  -1  10   5   42.30    3.50
  -1  10   5   41.00    3.40
   0 -10  -5    1.00    1.60
   0 -10  -5    2.20    2.20
   0  10   5    0.10    1.90
   0  10  -5    3.00    2.40
   0  10   5    1.70    1.50
   0  10   5    3.60    1.80
  -1 -10  -5   25.20    3.60
  -1 -10  -5   33.80    3.40
  -1  10  -5   34.30    3.80
   1  10   5   32.90    3.50
   1  10   5   36.30    3.60
   1  10   5   33.70    3.10
  -2 -10  -5    4.40    2.10
   2  10   5    7.20    2.40
   2  10   5    4.40    2.40
  -2  10  -5    8.70    2.80
   2  10   5    5.60    2.50
  -3 -10  -5    0.70    2.70
   3  10   5    6.20    2.10
  -3  10  -5    4.80    2.70
   3  10   5    7.40    2.60
   3  10   5    7.00    2.60
  -4 -10  -5   -2.90    2.70
   4  10   5   -1.50    1.80
   4  10   5   -0.20    1.70
  -4  10  -5    1.40    2.00
   4  10   5    2.30    2.60
  -5 -10  -5   12.40    3.60
   5  10   5    5.10    2.40
   5  10   5    5.20    2.30
  -5  10  -5    4.60    2.90
   5  10   5    3.50    2.60
  -6 -10  -5   19.90    4.10
   6  10   5   19.40    3.60
   6  10   5   15.80    3.00
  -6  10  -5   20.90    3.60
   6  10   5   17.80    3.10
  -7 -10  -5   -1.90    2.40
   7  10   5    2.40    2.30
   7  10   5    0.60    2.20
   7  10   5    1.90    2.50
  -7  10  -5   -2.50    2.60
  -8 -10  -5    8.00    3.10
   8  10   5    2.70    2.10
  -8  10  -5    2.30    3.00
   8  10   5    4.50    3.30
   8  10   5   12.80    3.70
  -9 -10  -5   13.00    4.50
  -9  10  -5    2.80    2.40
   9  10   5    6.00    3.60
   9  10   5    7.80    2.60
 -10 -10  -5    2.40    4.50
  10  10   5    1.90    4.00
  10  10   5    5.60    3.10
 -10  10  -5    0.20    3.10
 -10 -11   5    2.80    2.80
  10  11  -5    4.20    2.80
  10  11  -5    1.10    2.20
  -9 -11   5   20.40    4.60
   9  11  -5   28.30    4.60
   9  11  -5   21.00    3.90
  -8 -11   5   13.40    3.30
   8  11  -5   11.70    3.30
   8  11  -5   11.70    3.00
  -7 -11   5   62.79    5.80
   7  11  -5   59.89    5.20
   7  11  -5   60.89    5.50
  -6 -11   5   58.19    5.00
   6  11  -5   41.80    4.60
   6  11  -5   44.50    4.50
  -5 -11   5    1.50    3.10
   5  11  -5    2.70    2.50
   5  11  -5    0.80    1.90
   4  11  -5   24.30    3.60
   4  11  -5   31.10    3.60
  -3  11   5   24.20    3.00
   3  11  -5   24.10    3.20
   2 -11  -5   -1.70    2.10
  -2  11   5    0.60    2.00
   2  11  -5   -1.50    2.40
   1 -11  -5    1.70    2.20
  -1  11   5   -0.20    1.50
   1  11  -5    0.10    2.40
   0 -11  -5   11.00    2.50
   0  11   5   12.20    2.30
   0  11  -5    9.70    2.40
  -1 -11  -5   50.59    4.40
  -1 -11  -5   59.89    4.30
   1  11   5   49.10    4.20
  -1  11  -5   54.59    4.50
   1  11   5   52.09    3.70
  -2 -11  -5   46.80    4.70
   2  11   5   39.90    4.10
   2  11   5   48.40    3.70
  -2  11  -5   38.80    3.90
  -3 -11  -5   35.70    4.40
  -3  11  -5   27.80    4.00
   3  11   5   34.00    3.90
   3  11   5   33.70    3.90
  -4 -11  -5    5.60    3.60
  -4  11  -5    3.50    2.20
   4  11   5    4.30    2.20
   4  11   5    4.40    2.20
  -5 -11  -5    0.80    2.60
  -5  11  -5    1.70    2.80
   5  11   5   -3.00    1.70
   5  11   5   -2.90    1.70
  -6 -11  -5    2.20    2.80
   6  11   5    5.00    3.10
   6  11   5    3.00    3.10
  -6  11  -5   13.20    3.50
  -7 -11  -5    3.90    3.80
  -7  11  -5   -0.60    2.90
   7  11   5    2.00    3.20
   7  11   5    4.90    3.20
  -8 -11  -5    8.40    4.20
   8  11   5   13.40    4.00
  -8  11  -5   12.90    3.60
   8  11   5   15.80    3.30
  -9 -11  -5    0.20    3.00
  -9  11  -5    1.80    2.30
   9  11   5   -0.30    2.30
  -9 -12   5    8.10    4.00
   9  12  -5    4.60    2.70
   9  12  -5    9.20    3.50
  -8 -12   5    3.30    2.80
   8  12  -5    3.90    3.00
   8  12  -5    5.50    3.30
  -7 -12   5    5.10    3.60
   7  12  -5    9.00    3.40
   7  12  -5    3.40    2.40
  -6 -12   5   -1.20    3.40
   6  12  -5   -4.90    2.20
   6  12  -5    0.00    2.80
  -5 -12   5   12.50    3.80
   5  12  -5    6.30    2.90
   5  12  -5    7.30    3.10
   4  12  -5    0.10    1.90
   3  12  -5    4.90    2.90
   2 -12  -5   33.60    3.60
  -2  12   5   38.00    3.80
   2  12  -5   36.10    4.40
   1 -12  -5   -1.00    2.40
  -1  12   5    1.80    2.40
   1  12  -5    4.10    2.90
   0 -12  -5    0.30    2.70
   0  12  -5    0.90    2.80
   0  12   5    2.70    2.30
  -1 -12  -5   26.90    3.60
  -1  12  -5   24.20    3.90
   1  12   5   23.10    3.10
  -2 -12  -5   11.90    3.60
   2  12   5   15.60    3.30
  -2  12  -5   18.40    3.20
   2  12   5   16.10    3.10
  -3 -12  -5    5.50    3.40
   3  12   5    3.80    2.60
  -3  12  -5    1.80    2.80
   3  12   5    1.30    2.70
  -4 -12  -5   -1.80    2.10
  -4  12  -5   -4.90    1.80
   4  12   5    1.90    2.20
   4  12   5   -3.00    1.70
  -5 -12  -5    3.50    2.70
   5  12   5    4.80    2.40
  -5  12  -5   -1.80    2.90
   5  12   5    2.00    2.90
  -6 -12  -5    0.90    3.70
  -6  12  -5   11.40    3.50
   6  12   5   -1.50    3.00
   6  12   5    9.00    2.80
  -7 -12  -5    6.60    4.10
   7  12   5   13.90    3.80
  -7  12  -5    4.70    3.40
   7  12   5    8.60    3.00
  -8  12  -5    9.20    3.60
   8  12   5   11.70    3.30
  -7 -13   5   10.60    3.40
   7  13  -5   10.30    3.50
   7  13  -5   12.50    3.10
  -6 -13   5   15.80    3.70
   6  13  -5   13.20    3.10
  -5 -13   5   26.60    4.80
   5  13  -5   22.00    3.60
   4  13  -5   18.30    3.80
   3  13  -5    0.10    2.90
   2  13  -5   -1.10    2.80
  -2  13   5    0.60    2.40
   1 -13  -5    0.80    2.80
  -1  13   5    1.50    2.30
   1  13  -5    0.00    2.90
   0 -13  -5   -3.50    2.60
   0  13   5   -0.10    2.50
   0  13  -5   -0.50    2.10
  -1 -13  -5    7.50    3.30
   1  13   5    6.00    2.90
  -1  13  -5    7.50    2.60
  -2 -13  -5   12.30    3.10
   2  13   5    6.00    2.40
  -2  13  -5   10.20    3.60
  -3 -13  -5   -4.00    3.10
   3  13   5    0.70    2.90
  -3  13  -5   -1.30    2.10
   3  13   5    0.70    2.80
  -4 -13  -5   -2.90    2.40
   4  13   5   -2.50    1.80
   4  13   5   -1.60    2.10
  -4  13  -5   -3.10    2.90
  -5 -13  -5   -0.70    3.70
  -5  13  -5    0.60    3.20
   5  13   5    3.10    3.20
   5  13   5    4.40    2.50
  -6 -13  -5   24.70    5.00
   6  13   5    9.00    3.70
  -6  13  -5   11.80    3.80
   6  13   5   15.70    3.40
   7  13   5   -2.10    3.30
  -7  13  -5    4.60    4.30
  -5 -14   5   45.00    6.00
   5  14  -5   42.90    5.30
  -4 -14   5    2.00    3.90
   4  14  -5    4.90    3.40
   3  14  -5   11.80    3.80
   2  14  -5    1.10    3.20
   1 -14  -5   -1.30    3.00
  -1  14   5    0.40    2.60
   1  14  -5    4.60    2.60
   0 -14  -5   28.50    4.40
   0  14  -5   31.90    4.10
   0  14   5   28.70    3.90
  -1 -14  -5    7.70    3.80
  -1  14  -5   11.30    3.80
   1  14   5   11.40    3.50
  -2 -14  -5   -0.90    3.40
   2  14   5    3.00    3.00
  -2  14  -5    0.60    2.40
  -3 -14  -5    4.10    3.70
   3  14   5    7.10    3.20
  -3  14  -5    4.10    3.40
  -4 -14  -5   12.00    4.40
  -4  14  -5   12.50    3.80
   4  14   5   16.30    3.80
   5  14   5    3.30    2.50
   0 -15  -5   -0.40    2.30
   0  15   5    5.10    3.10
  -1 -15  -5   -3.20    3.30
   1  15   5   -0.40    2.80
  14   0  -6    4.70    3.40
  13   0  -6   -1.00    2.30
  12   0  -6    7.40    2.20
  12   0  -6   11.60    2.90
  11   0  -6   -0.30    1.60
  11   0  -6   -1.70    2.70
  10   0  -6    5.30    2.40
  10   0  -6   14.40    3.10
   9   0  -6   -0.30    2.00
   9   0  -6    2.60    2.30
   8   0  -6   40.60    3.00
   8   0  -6   39.70    3.60
   7   0  -6  351.16    9.60
   7   0  -6  361.96    9.70
   6   0  -6   18.10    2.10
   6   0  -6   18.20    2.20
  -6   0   6   20.40    1.50
  -5   0   6  559.34   11.40
   5   0  -6  566.44   13.30
   5   0  -6  564.84   13.30
   4   0  -6   91.09    3.70
   4   0  -6   88.29    3.90
   3   0  -6  268.57    5.80
  -3   0   6  286.57    7.30
   3   0  -6  282.67    7.40
   3   0  -6  280.97    7.50
  -2   0   6 1454.15   29.50
   2   0  -6 1436.96   28.30
   2   0  -6 1463.95   29.70
   2   0  -6 1451.35   30.00
   1   0  -6   50.79    1.90
  -1   0   6   51.29    2.30
   1   0  -6   48.30    3.00
   1   0  -6   53.99    2.90
   0   0   6 1596.34   32.00
   0   0   6 1606.74   32.20
   0   0  -6 1579.74   32.50
   0   0  -6 1574.94   31.50
  -1   0  -6   -2.50    1.60
  -1   0  -6    1.00    0.90
   1   0   6    1.00    1.10
   1   0   6    2.10    1.10
  -2   0  -6  477.85   11.40
  -2   0  -6  475.85   11.00
   2   0   6  476.15   10.90
   2   0   6  480.95   11.00
   3   0   6  334.57    8.40
  -3   0  -6  334.77    8.60
  -3   0  -6  342.17    8.90
   3   0   6  347.17    8.50
   4   0   6  199.08    5.90
  -4   0  -6  195.58    6.30
   4   0   6  189.68    5.70
  -4   0  -6  196.28    6.00
   5   0   6   24.70    2.30
  -5   0  -6   24.80    2.50
   5   0   6   23.50    2.30
   6   0   6   24.00    2.40
  -6   0  -6   19.40    2.50
   6   0   6   23.50    2.60
   7   0   6    3.60    2.00
  -7   0  -6    3.20    2.30
   7   0   6    4.10    1.80
   8   0   6   15.20    2.30
  -8   0  -6    8.10    2.30
   8   0   6   10.60    2.10
  -9   0  -6   46.00    4.60
   9   0   6   44.90    3.50
   9   0   6   45.70    4.10
  10   0   6   24.40    3.60
 -10   0  -6   25.50    4.00
 -11   0  -6   26.00    3.60
  11   0   6   22.00    3.80
 -12   0  -6    6.60    2.80
  12   0   6    9.80    3.50
  13   0   6   16.50    3.40
 -13   0  -6    6.50    2.90
  14  -1  -6    7.50    3.80
  14   1  -6    9.30    3.90
  13  -1  -6    2.70    2.40
  13   1  -6    4.30    3.00
  13   1  -6    2.40    2.40
  12  -1  -6    0.60    2.10
  12   1  -6   -0.60    2.50
  12   1  -6   -1.60    2.70
  11  -1  -6    7.00    3.00
  11  -1  -6    6.70    2.00
  11   1  -6    4.90    2.60
  11   1  -6    9.10    3.10
  10  -1  -6   15.60    3.20
  10  -1  -6   17.60    2.90
  10   1  -6   17.30    2.80
  10   1  -6   15.00    3.00
   9  -1  -6   52.99    4.30
   9  -1  -6   58.49    3.60
   9   1  -6   51.89    3.70
   9   1  -6   52.59    4.20
   8  -1  -6   43.50    3.30
   8  -1  -6   37.60    3.40
   8   1  -6   49.00    3.80
   8   1  -6   40.40    3.10
   7  -1  -6   34.40    3.30
   7  -1  -6   36.10    3.20
   7   1  -6   36.90    3.20
   7   1  -6   28.50    2.80
   6  -1  -6    1.30    1.30
   6  -1  -6    1.70    1.90
  -6  -1   6    0.70    1.00
   6   1  -6    1.70    1.30
   6   1  -6    0.20    1.30
  -5  -1   6   52.69    2.10
   5  -1  -6   60.29    3.40
   5  -1  -6   52.59    3.00
   5   1  -6   53.99    1.90
   5   1  -6   57.79    3.10
   5   1  -6   54.69    3.20
  -4  -1   6   18.70    1.40
   4  -1  -6   20.90    2.40
   4  -1  -6   20.50    2.30
   4   1  -6   19.40    1.20
   4   1  -6   19.60    2.10
   4   1  -6   16.60    2.00
   3  -1  -6   37.40    2.40
   3  -1  -6   38.80    2.50
   3   1  -6   35.10    1.50
   3   1  -6   37.60    2.20
   3   1  -6   34.70    2.80
  -3   1   6   35.70    2.30
   2  -1  -6  289.47    6.10
   2  -1  -6  285.77    7.60
   2  -1  -6  303.17    7.80
  -2  -1   6  298.87    7.20
   2   1  -6  298.27    6.50
  -2   1   6  296.47    7.40
   2   1  -6  291.67    7.40
   2   1  -6  312.57    7.90
  -1  -1   6  397.06    9.00
   1  -1  -6  409.36    9.80
   1  -1  -6  397.86    9.60
   1  -1  -6  400.46    8.50
   1   1  -6  386.86    9.50
  -1   1   6  401.76    9.50
   1   1  -6  391.16    9.30
   1   1  -6  406.66    8.70
  -1   1   6  402.76    9.30
   0  -1  -6  244.88    5.80
   0  -1   6  238.68    6.00
   0  -1  -6  242.58    6.70
   0   1  -6  243.38    5.90
   0   1   6  237.58    6.40
   0   1  -6  239.08    6.40
   0   1   6  242.68    6.40
   1  -1   6   79.19    2.90
  -1  -1  -6   79.39    3.50
  -1  -1  -6   76.19    3.00
   1  -1   6   76.79    2.90
  -1   1  -6   71.09    3.00
   1   1   6   74.59    3.30
  -1   1  -6   74.19    3.10
   1   1   6   81.59    3.20
  -2  -1  -6  144.39    5.00
   2  -1   6  149.39    4.30
  -2  -1  -6  140.29    4.60
   2  -1   6  144.49    4.40
  -2   1  -6  144.79    4.50
   2   1   6  144.39    4.70
   2   1   6  145.89    4.70
  -2   1  -6  146.99    4.80
   3  -1   6   32.70    2.40
   3  -1   6   38.60    2.30
  -3  -1  -6   38.90    2.70
  -3  -1  -6   35.80    2.80
  -3   1  -6   32.00    2.30
   3   1   6   36.30    2.30
  -3   1  -6   39.00    2.40
   3   1   6   32.80    2.60
   4  -1   6    0.20    1.40
   4  -1   6   -0.70    1.10
  -4  -1  -6    0.70    1.30
  -4   1  -6    1.60    1.30
   4   1   6   -1.10    1.40
   4   1   6   -0.60    1.50
  -4   1  -6   -0.30    1.40
   5  -1   6   39.30    2.50
   5  -1   6   38.60    2.50
  -5  -1  -6   36.70    2.80
   5   1   6   34.60    2.60
  -5   1  -6   37.20    2.90
  -5   1  -6   36.80    3.20
   5   1   6   37.70    2.90
   6  -1   6   15.90    1.90
   6  -1   6   14.00    2.20
  -6  -1  -6   13.30    2.20
  -6   1  -6   13.70    2.60
   6   1   6   14.50    2.00
   6   1   6   14.40    2.40
   7  -1   6    1.90    1.90
  -7  -1  -6    0.20    2.20
   7  -1   6    1.20    1.40
   7   1   6    0.60    2.00
  -7   1  -6   -2.00    2.00
   7   1   6    1.20    1.40
  -8  -1  -6   -1.10    1.70
   8  -1   6    5.10    1.80
   8   1   6    3.20    2.00
  -8   1  -6    8.40    2.10
   8   1   6   -0.90    1.50
  -9  -1  -6   13.30    2.70
   9  -1   6   14.60    2.90
  -9   1  -6   16.80    3.30
   9   1   6   15.70    2.30
   9   1   6   15.20    3.10
 -10  -1  -6   20.50    3.20
  10  -1   6   21.40    3.50
  10   1   6   20.40    2.70
  10   1   6   16.50    3.00
 -10   1  -6   24.00    3.40
  11  -1   6  196.98    8.30
 -11  -1  -6  195.08    8.30
 -11   1  -6  203.68    8.70
  11   1   6  212.18    8.20
 -12  -1  -6   38.30    4.50
  12  -1   6   33.40    4.00
 -12   1  -6   28.00    4.50
  12   1   6   36.60    4.60
 -13  -1  -6    1.70    2.60
  13  -1   6    0.00    3.00
 -13   1  -6    1.40    2.40
  13   1   6    0.40    3.10
  14  -2  -6    0.30    3.10
  14   2  -6   -2.40    1.80
  14   2  -6    0.00    3.20
  13  -2  -6   25.00    3.80
  13   2  -6   20.10    3.50
  13   2  -6   25.20    4.00
  12  -2  -6    5.20    3.20
  12   2  -6    2.20    2.90
  12   2  -6    0.10    3.00
  11  -2  -6    1.40    2.80
  11   2  -6    2.00    2.70
  11   2  -6    1.70    2.00
  10  -2  -6   27.10    3.10
  10  -2  -6   22.70    3.50
  10   2  -6   25.40    3.20
  10   2  -6   24.10    3.60
   9  -2  -6   58.29    4.00
   9  -2  -6   67.39    3.70
   9   2  -6   52.69    3.80
   9   2  -6   54.39    4.20
   8  -2  -6   98.09    4.30
   8  -2  -6  107.09    4.90
   8   2  -6   94.29    4.40
   8   2  -6  103.59    4.80
  -7  -2   6    4.40    1.40
   7  -2  -6    2.40    1.60
   7  -2  -6    2.30    1.80
   7   2  -6    2.10    2.10
   7   2  -6    4.00    1.90
  -6  -2   6   27.40    2.10
   6  -2  -6   29.80    2.70
   6  -2  -6   25.00    2.30
   6   2  -6   25.20    1.80
   6   2  -6   31.90    2.70
   6   2  -6   27.50    2.60
  -5  -2   6   31.50    2.10
   5  -2  -6   29.10    2.30
   5  -2  -6   33.10    3.00
   5   2  -6   35.60    2.70
   5   2  -6   37.50    2.70
   5   2  -6   30.90    1.70
   4  -2  -6   54.39    3.40
   4  -2  -6   55.49    3.20
   4   2  -6   57.69    2.20
   4   2  -6   53.19    2.90
   4   2  -6   62.29    3.10
   3  -2  -6  189.48    5.80
   3  -2  -6  195.68    6.10
   3   2  -6  198.18    5.90
   3   2  -6  202.68    4.90
   3   2  -6  198.18    5.30
  -3   2   6  197.78    5.90
   2  -2  -6  451.95    9.20
   2  -2  -6  451.95   10.90
   2  -2  -6  471.95   11.00
  -2  -2   6  454.85   10.10
   2   2  -6  463.05   10.20
  -2   2   6  438.66   10.70
   2   2  -6  451.25   10.80
   2   2  -6  446.96    9.80
  -1  -2   6    6.70    1.20
   1  -2  -6    7.60    2.00
   1  -2  -6    5.40    1.00
   1  -2  -6    7.20    1.60
  -1   2   6    6.60    1.60
  -1   2   6    8.90    1.80
   1   2  -6    6.10    1.20
   1   2  -6    8.90    1.50
   1   2  -6    7.90    1.70
   0  -2  -6    7.50    1.70
   0  -2  -6    7.70    1.20
   0  -2   6   10.70    1.20
   0   2   6    7.90    1.50
   0   2  -6   10.20    1.50
   0   2   6    9.30    1.70
   0   2  -6    6.90    1.30
   1  -2   6    3.30    1.10
  -1  -2  -6    3.00    2.00
  -1  -2  -6    3.20    1.00
   1   2   6    3.10    1.20
  -1   2  -6    3.00    1.10
  -1   2  -6    4.20    1.40
   1   2   6    2.80    1.20
  -2  -2  -6   46.40    3.00
   2  -2   6   43.90    2.30
  -2  -2  -6   49.10    2.80
   2  -2   6   51.59    2.30
   2   2   6   48.00    3.00
   2   2   6   45.40    2.60
  -2   2  -6   55.09    2.60
  -2   2  -6   49.90    2.70
  -3  -2  -6    6.30    1.50
   3  -2   6    9.90    1.40
   3  -2   6    9.20    1.40
  -3  -2  -6    6.90    1.80
  -3   2  -6    8.20    1.60
   3   2   6    6.50    1.80
   3   2   6    9.60    1.60
  -3   2  -6   11.30    1.60
   4  -2   6   28.50    2.30
  -4  -2  -6   29.40    2.60
   4  -2   6   31.40    2.00
  -4   2  -6   28.70    2.30
   4   2   6   30.80    2.80
  -4   2  -6   26.60    2.70
   4   2   6   33.70    2.40
  -5  -2  -6   34.20    3.20
   5  -2   6   29.00    2.10
   5  -2   6   34.80    2.70
  -5   2  -6   35.10    3.20
  -5   2  -6   36.90    2.60
   5   2   6   36.10    2.60
   5   2   6   40.00    3.10
   6  -2   6  126.59    4.30
   6  -2   6  121.29    4.80
  -6  -2  -6  120.69    5.50
   6   2   6  124.19    4.90
  -6   2  -6  127.09    4.60
  -6   2  -6  127.79    5.10
   6   2   6  125.49    5.00
   7  -2   6   70.49    4.00
  -7  -2  -6   77.09    4.80
  -7   2  -6   77.79    4.00
   7   2   6   77.59    4.50
   7   2   6   79.39    4.00
  -7   2  -6   73.59    4.10
  -8  -2  -6   29.40    3.80
   8  -2   6   32.30    3.30
   8   2   6   30.90    3.10
  -8   2  -6   36.60    3.40
   8   2   6   34.40    3.40
   9  -2   6    7.60    2.10
  -9  -2  -6   11.50    3.20
  -9   2  -6    9.90    2.50
   9   2   6    2.50    2.20
   9   2   6    9.30    2.90
 -10  -2  -6   29.50    4.20
  10  -2   6   23.00    3.00
 -10   2  -6   24.60    3.90
  10   2   6   18.60    3.00
  10   2   6   23.60    3.40
  11  -2   6   11.50    3.10
 -11  -2  -6    9.30    2.90
 -11   2  -6   14.50    3.00
  11   2   6   20.20    3.40
  11   2   6   11.10    2.80
  12  -2   6    3.10    2.90
 -12  -2  -6    1.40    2.50
  12   2   6    1.00    2.20
 -12   2  -6    4.60    3.30
 -13  -2  -6    1.80    2.70
  13  -2   6   -0.20    2.20
  13   2   6   -2.70    3.00
 -13   2  -6    0.40    3.00
  14  -3  -6   19.90    3.70
  14   3  -6   11.10    3.90
  14   3  -6   12.90    3.80
  13  -3  -6   23.30    4.40
  13   3  -6   13.40    3.80
  13   3  -6   15.80    3.20
  12  -3  -6   -1.20    3.00
  12   3  -6    6.20    2.50
  12   3  -6   -1.30    2.70
  11  -3  -6    4.70    2.90
  11   3  -6    2.30    2.70
  11   3  -6    2.70    2.80
  10  -3  -6    3.10    2.60
  10   3  -6    1.60    1.90
  10   3  -6   -2.40    2.10
   9  -3  -6   67.19    3.90
   9  -3  -6   66.29    4.70
   9   3  -6   60.09    4.10
   9   3  -6   57.59    4.30
   8  -3  -6   15.40    2.30
   8  -3  -6   14.70    2.40
   8   3  -6   13.60    2.10
   8   3  -6   14.00    2.80
   7  -3  -6   -1.80    1.40
  -7  -3   6   -0.70    1.30
   7  -3  -6    0.80    1.60
   7   3  -6   -0.30    2.00
   7   3  -6    1.20    1.10
   7   3  -6    1.40    1.40
   6  -3  -6  168.68    6.00
   6  -3  -6  176.08    5.80
  -6  -3   6  171.08    5.20
   6   3  -6  177.08    6.30
   6   3  -6  173.78    4.90
   6   3  -6  175.58    5.60
   5  -3  -6  184.28    6.30
  -5  -3   6  197.38    5.40
   5  -3  -6  183.88    5.80
   5   3  -6  182.18    6.00
   5   3  -6  184.68    5.10
   5   3  -6  193.48    5.70
   4  -3  -6  361.76    9.60
   4  -3  -6  373.16    9.30
   4   3  -6  359.46    8.70
  -4   3   6  365.96    9.50
   4   3  -6  357.86    9.40
   4   3  -6  361.26    8.40
   3  -3  -6  755.72   16.80
   3  -3  -6  764.62   15.00
   3  -3  -6  759.12   17.00
   3   3  -6  775.42   16.80
  -3   3   6  748.83   14.90
   3   3  -6  743.03   15.90
   3   3  -6  750.22   16.00
  -3   3   6  756.02   16.70
   2  -3  -6   77.09    2.30
   2  -3  -6   71.09    3.40
   2  -3  -6   73.69    3.40
   2   3  -6   70.39    2.80
  -2   3   6   72.39    2.20
   2   3  -6   62.29    3.30
  -2   3   6   69.59    3.20
  -2   3   6   75.19    3.20
   2   3  -6   74.99    2.90
   1  -3  -6  582.84   13.60
   1  -3  -6  565.04   13.50
   1  -3  -6  576.14   12.30
  -1  -3   6  578.04   12.20
   1   3  -6  589.64   12.40
  -1   3   6  584.14   12.10
  -1   3   6  583.74   13.20
   1   3  -6  595.84   12.80
   1   3  -6  571.34   13.00
  -1   3   6  597.14   13.30
   0  -3   6   69.89    2.40
   0  -3  -6   69.69    3.80
   0  -3  -6   69.19    2.80
   0   3  -6   68.49    2.80
   0   3   6   69.99    3.10
   0   3  -6   66.69    3.00
   0   3   6   68.29    3.40
   0   3  -6   68.59    2.60
  -1  -3  -6  438.56   11.10
   1  -3   6  449.46    9.60
  -1  -3  -6  428.76   10.20
   1   3   6  448.66   10.50
  -1   3  -6  445.06   10.40
  -1   3  -6  436.26   10.10
   1   3   6  434.46   10.60
   2  -3   6    6.40    1.20
  -2  -3  -6    6.40    2.20
  -2  -3  -6    5.90    1.60
  -2   3  -6    5.00    1.30
   2   3   6    6.90    1.90
  -2   3  -6    5.50    1.70
   2   3   6    7.20    1.80
   3  -3   6    5.90    1.20
  -3  -3  -6    8.10    1.60
  -3   3  -6    6.90    1.50
  -3   3  -6    6.00    1.30
   3   3   6    3.60    1.40
   3   3   6    6.20    1.60
  -4  -3  -6   33.50    3.00
   4  -3   6   33.40    1.90
   4  -3   6   35.50    2.30
   4   3   6   37.60    2.60
   4   3   6   29.30    2.60
  -4   3  -6   34.10    2.30
  -4   3  -6   33.70    2.90
   5  -3   6    4.30    1.50
  -5  -3  -6    2.40    2.20
   5  -3   6    5.50    1.10
  -5   3  -6    3.60    1.40
   5   3   6    4.90    1.50
   5   3   6    4.90    1.60
  -5   3  -6    7.90    1.80
   6  -3   6   43.50    3.00
  -6  -3  -6   39.70    3.40
  -6   3  -6   41.70    3.60
   6   3   6   42.50    3.10
   6   3   6   41.10    3.10
  -7  -3  -6    0.10    1.80
   7  -3   6    1.50    1.70
   7   3   6   -0.30    1.50
  -7   3  -6    0.80    1.70
   7   3   6    1.20    2.10
  -8  -3  -6    7.80    2.40
   8  -3   6   10.30    2.30
   8   3   6    6.30    2.10
  -8   3  -6   14.30    2.50
   8   3   6   10.00    2.30
   9  -3   6    4.90    2.40
  -9  -3  -6    1.20    2.90
   9   3   6    4.10    2.60
  -9   3  -6    8.50    2.40
   9   3   6    8.60    2.80
 -10  -3  -6    4.10    3.20
  10  -3   6    3.80    2.50
 -10   3  -6   -0.90    2.00
  10   3   6    2.60    2.60
  10   3   6    2.40    2.10
 -11  -3  -6    2.20    2.50
  11  -3   6    5.20    2.70
  11   3   6    6.70    2.50
  11   3   6    5.10    2.20
 -11   3  -6    2.00    3.10
 -12  -3  -6   10.70    3.20
  12  -3   6   16.70    3.10
 -12   3  -6   13.80    3.20
  12   3   6   16.20    3.40
  12   3   6   12.80    3.10
 -13  -3  -6   29.40    5.00
  13  -3   6   38.30    4.70
  13   3   6   43.30    5.20
 -13   3  -6   40.90    5.20
  14   4  -6    0.20    3.10
  14   4  -6   -2.40    2.10
  13  -4  -6    6.60    2.90
  13   4  -6   -1.20    2.10
  13   4  -6   -1.40    3.00
  12  -4  -6   -2.00    2.10
  12   4  -6   -2.30    2.00
  12   4  -6   -2.60    2.70
  11  -4  -6    2.80    2.20
  11   4  -6   -2.20    2.60
  11   4  -6    2.00    2.60
  10  -4  -6   37.80    3.80
  10   4  -6   33.40    3.40
  10   4  -6   39.50    4.00
   9  -4  -6    6.70    2.70
   9   4  -6   11.60    2.60
   9   4  -6    6.50    2.70
   8  -4  -6    5.00    1.80
   8  -4  -6    4.50    1.90
  -8  -4   6    4.00    1.90
   8   4  -6    5.30    2.10
   8   4  -6    3.30    1.90
   7  -4  -6   55.39    3.30
   7  -4  -6   53.69    4.10
  -7  -4   6   45.40    3.20
   7   4  -6   54.39    3.60
   7   4  -6   53.79    2.90
   7   4  -6   51.09    3.30
   6  -4  -6   20.60    2.30
   6  -4  -6   13.40    2.50
  -6  -4   6   20.20    2.20
   6   4  -6   17.30    2.10
   6   4  -6   14.70    1.90
   6   4  -6    9.80    2.40
  -5  -4   6  178.38    5.50
   5  -4  -6  169.08    5.90
   5  -4  -6  166.68    5.60
   5   4  -6  178.88    5.20
   5   4  -6  167.28    5.80
   5   4  -6  172.28    5.20
   4  -4  -6    3.10    1.20
   4  -4  -6    1.20    1.40
  -4   4   6    3.80    0.70
   4   4  -6    4.50    1.40
   4   4  -6    5.70    1.60
   4   4  -6    4.80    1.20
  -4   4   6    7.70    1.70
   3  -4  -6  119.29    4.90
   3  -4  -6  118.89    3.30
   3  -4  -6  119.19    4.40
   3   4  -6  117.59    3.60
  -3   4   6  115.59    3.10
   3   4  -6  123.19    4.00
   3   4  -6  116.19    4.50
  -3   4   6  124.19    4.70
   2  -4  -6   46.80    2.10
   2  -4  -6   45.10    2.80
   2  -4  -6   38.00    2.70
   2   4  -6   45.50    2.90
  -2   4   6   43.60    3.00
  -2   4   6   43.20    1.90
   2   4  -6   45.60    2.60
   2   4  -6   44.40    2.00
  -2   4   6   41.70    2.90
   1  -4  -6   18.10    1.60
   1  -4  -6   12.70    1.90
   1  -4  -6   18.40    2.40
  -1   4   6   12.30    1.30
   1   4  -6   13.20    1.80
  -1   4   6   15.30    1.80
   1   4  -6   15.30    1.60
  -1   4   6   19.90    2.20
   1   4  -6   15.60    1.20
   0  -4  -6  393.36    9.30
   0  -4   6  386.06    8.30
   0  -4  -6  396.06   10.20
   0   4  -6  396.36    9.30
   0   4  -6  384.76    8.40
   0   4   6  399.06    9.80
   0   4   6  391.16    9.00
   0   4  -6  404.76    9.60
   0   4   6  396.16    9.80
  -1  -4  -6   51.19    2.80
   1  -4   6   53.39    2.00
  -1  -4  -6   48.70    3.20
  -1   4  -6   49.10    3.00
  -1   4  -6   51.29    2.50
   1   4   6   57.09    2.50
   1   4   6   53.29    2.80
   1   4   6   51.09    3.20
  -2  -4  -6  100.59    3.90
   2  -4   6   95.59    3.00
  -2  -4  -6   89.59    4.30
   2   4   6  100.69    3.60
  -2   4  -6   95.49    3.20
   2   4   6   95.59    4.30
  -2   4  -6  101.49    4.20
   2   4   6   97.99    3.90
  -3  -4  -6    1.30    1.80
   3  -4   6    5.00    1.20
  -3   4  -6    4.20    1.20
   3   4   6    2.10    1.70
   3   4   6    3.10    1.40
  -3   4  -6    4.50    1.50
   4  -4   6   33.80    2.30
  -4  -4  -6   36.20    3.30
  -4   4  -6   31.70    2.70
   4   4   6   35.20    3.10
   4   4   6   33.40    2.70
  -4   4  -6   37.60    2.10
   5  -4   6    1.00    1.20
  -5  -4  -6    2.80    1.70
  -5   4  -6   -2.50    1.80
   5   4   6   -0.30    1.40
   5   4   6    1.00    1.40
  -6  -4  -6   -0.10    1.60
   6  -4   6    1.80    1.40
   6   4   6    2.60    1.60
  -6   4  -6   -2.20    1.90
   6   4   6    0.20    2.00
   7  -4   6    8.70    2.00
  -7  -4  -6   10.40    2.90
   7   4   6    8.70    2.50
   7   4   6    7.90    2.10
  -7   4  -6    9.80    2.20
   8  -4   6    2.70    1.90
  -8  -4  -6    0.00    2.00
   8   4   6    1.80    2.50
  -8   4  -6    4.90    2.60
   8   4   6   -0.30    2.30
   9  -4   6   -0.40    1.90
  -9  -4  -6    4.60    3.00
  -9   4  -6   -4.70    2.30
   9   4   6    1.80    2.40
   9   4   6    0.00    2.50
 -10  -4  -6    2.80    3.10
  10  -4   6    9.30    2.60
 -10   4  -6    4.00    3.00
  10   4   6    2.80    2.80
  10   4   6    3.90    2.80
 -11  -4  -6   10.50    3.10
  11  -4   6    6.70    2.90
  11   4   6    8.60    3.20
  11   4   6   10.20    2.80
 -11   4  -6   12.90    2.90
  12  -4   6   26.60    4.00
 -12  -4  -6   24.40    4.70
 -12   4  -6   18.60    3.40
  12   4   6   27.90    3.80
  12   4   6   29.40    4.00
 -13  -4  -6    3.60    3.90
  13  -4   6    1.90    3.00
  13   4   6   -1.60    4.80
  13   4   6    9.70    3.50
 -13   4  -6    6.50    3.50
  13  -5  -6    1.00    3.30
  13   5  -6    1.30    3.30
  13   5  -6   -2.00    2.90
  12  -5  -6    3.90    3.20
  12   5  -6    3.70    2.90
  12   5  -6   -2.20    2.10
  11  -5  -6    2.10    2.80
  11   5  -6   -3.10    2.30
  11   5  -6    1.20    2.20
  10  -5  -6    4.80    2.90
  10   5  -6    3.20    2.40
  10   5  -6    4.70    2.90
   9  -5  -6   15.20    3.20
   9   5  -6   13.40    2.70
   9   5  -6   10.80    2.40
   8  -5  -6  141.29    6.20
  -8  -5   6  136.79    5.60
   8   5  -6  131.09    6.20
   8   5  -6  138.29    5.00
   8   5  -6  125.79    5.30
  -7  -5   6   30.30    2.90
   7  -5  -6   29.10    3.00
   7   5  -6   29.50    2.80
   7   5  -6   30.40    3.20
   7   5  -6   31.40    2.70
   6  -5  -6   37.00    3.00
   6  -5  -6   30.90    3.00
  -6  -5   6   33.30    2.90
   6   5  -6   29.30    3.30
   6   5  -6   38.50    2.70
   6   5  -6   34.30    2.70
   5  -5  -6   71.49    4.20
   5  -5  -6   73.79    3.60
   5   5  -6   67.89    3.20
   5   5  -6   71.89    3.80
   5   5  -6   77.79    3.50
   4  -5  -6   10.40    2.30
   4  -5  -6   14.00    2.00
   4   5  -6   10.60    1.40
   4   5  -6   10.70    2.20
   4   5  -6    8.80    1.70
  -4   5   6    9.70    1.10
  -4   5   6    8.70    2.10
   3  -5  -6   90.59    3.00
   3  -5  -6   82.89    3.70
   3  -5  -6   84.79    4.30
   3   5  -6   91.19    3.80
   3   5  -6   87.99    2.90
   3   5  -6   82.39    3.60
  -3   5   6   86.89    2.80
  -3   5   6   85.69    3.80
  -3   5   6   84.39    4.10
   2  -5  -6   13.60    2.00
   2  -5  -6   12.40    1.50
   2  -5  -6   10.40    1.80
  -2   5   6   11.40    1.80
   2   5  -6    9.80    1.80
   2   5  -6   10.80    1.00
  -2   5   6   11.90    1.40
   2   5  -6   13.30    1.70
  -2   5   6   11.50    1.70
   1  -5  -6   33.20    3.00
   1  -5  -6   42.90    2.50
   1  -5  -6   28.50    2.70
  -1   5   6   40.50    2.60
  -1   5   6   36.20    2.80
   1   5  -6   34.20    2.70
   1   5  -6   33.80    2.40
  -1   5   6   34.30    2.00
   1   5  -6   32.80    1.30
   0  -5  -6  228.08    6.30
   0  -5  -6  225.48    7.20
   0   5  -6  220.58    6.40
   0   5   6  217.88    5.90
   0   5  -6  225.78    6.00
   0   5   6  225.68    6.70
   0   5  -6  223.68    4.80
   0   5   6  221.88    6.70
  -1  -5  -6   39.80    2.50
  -1  -5  -6   39.80    3.50
   1   5   6   42.60    2.70
  -1   5  -6   46.90    2.40
   1   5   6   40.40    3.10
  -1   5  -6   43.10    3.00
   1   5   6   41.20    2.60
  -2  -5  -6  148.59    5.10
   2   5   6  138.19    4.60
  -2   5  -6  152.38    4.10
   2   5   6  138.69    5.00
   2   5   6  144.29    5.50
  -2   5  -6  145.89    5.10
  -3  -5  -6  181.58    6.10
   3   5   6  189.18    6.10
  -3   5  -6  179.38    5.00
  -3   5  -6  191.78    6.30
   3   5   6  188.98    5.80
   3   5   6  191.08    6.50
  -4  -5  -6    2.00    1.60
   4  -5   6    2.60    1.20
  -4   5  -6   -0.90    1.80
   4   5   6    2.00    1.50
   4   5   6    2.90    1.50
   5  -5   6   18.70    1.90
  -5  -5  -6   13.70    2.90
   5   5   6   15.30    2.20
  -5   5  -6   16.90    2.40
   5   5   6   20.30    2.90
   6  -5   6   14.10    1.90
  -6  -5  -6   17.30    2.70
   6   5   6   16.60    2.90
  -6   5  -6   16.10    2.50
   6   5   6   10.90    2.20
   7  -5   6   12.80    2.10
  -7  -5  -6   12.90    3.10
   7   5   6    8.70    2.20
   7   5   6   10.30    2.70
  -7   5  -6    8.60    2.20
   8  -5   6    1.70    2.10
  -8  -5  -6    1.80    2.10
   8   5   6    9.20    2.90
  -8   5  -6    2.50    2.60
   8   5   6   -1.60    1.80
  -9  -5  -6    5.50    3.20
  -9   5  -6   11.30    3.10
   9   5   6    7.30    2.40
   9   5   6    4.50    2.90
 -10  -5  -6   10.40    3.10
  10   5   6    7.30    3.20
  10   5   6    3.10    2.80
 -10   5  -6    6.30    2.40
 -11  -5  -6   35.70    5.00
  11   5   6   28.70    4.30
 -11   5  -6   36.30    4.60
  11   5   6   38.10    4.70
 -12  -5  -6    7.40    3.10
  12   5   6    1.50    3.20
  12   5   6   -0.80    2.20
 -12   5  -6    7.50    3.40
 -13   5  -6   14.40    3.90
  13   5   6   13.10    3.90
  13  -6  -6    7.40    3.50
  13   6  -6    2.20    3.00
  13   6  -6    1.10    3.30
  12  -6  -6    0.60    3.00
  12   6  -6    1.20    3.20
  12   6  -6    2.20    2.80
  11  -6  -6   -2.00    2.70
  11   6  -6   -2.30    1.90
  11   6  -6    4.70    2.70
  10  -6  -6    8.10    3.00
  10   6  -6    4.40    2.40
  10   6  -6   10.60    2.70
   9  -6  -6   40.80    3.80
  -9  -6   6   39.10    3.80
   9   6  -6   39.40    4.30
   9   6  -6   34.30    3.40
   8  -6  -6   27.40    3.60
  -8  -6   6   23.70    3.10
   8   6  -6   21.70    2.60
   8   6  -6   25.30    2.80
   8   6  -6   20.10    3.00
   7  -6  -6   42.00    3.90
  -7  -6   6   46.90    3.80
   7   6  -6   54.69    3.50
   7   6  -6   45.20    3.60
   7   6  -6   51.69    3.40
   6  -6  -6    2.20    2.20
  -6  -6   6    1.70    1.50
   6   6  -6    0.70    1.60
   6   6  -6    2.10    1.30
   6   6  -6   -1.00    1.50
   5  -6  -6  169.98    5.60
   5  -6  -6  168.58    6.30
   5   6  -6  156.08    6.10
   5   6  -6  170.08    5.70
   5   6  -6  149.88    5.20
   4  -6  -6  162.08    5.60
   4  -6  -6  171.38    6.20
  -4   6   6  167.68    6.00
  -4   6   6  161.68    4.60
   4   6  -6  176.68    5.70
   4   6  -6  159.18    5.70
   3  -6  -6   82.79    3.30
   3  -6  -6   79.39    4.00
   3  -6  -6   91.59    4.50
  -3   6   6   79.79    4.10
  -3   6   6   85.99    3.90
   3   6  -6   83.59    3.70
   3   6  -6   89.49    3.80
   2  -6  -6   47.30    3.50
   2  -6  -6   45.80    3.30
   2  -6  -6   43.20    2.70
  -2   6   6   45.30    2.30
  -2   6   6   44.40    3.00
   2   6  -6   48.60    2.80
   2   6  -6   45.50    3.00
  -2   6   6   46.50    3.30
   1  -6  -6   50.39    3.20
   1  -6  -6   40.40    3.40
   1  -6  -6   46.90    2.80
  -1   6   6   50.69    3.30
   1   6  -6   51.19    2.80
   1   6  -6   46.70    2.80
  -1   6   6   52.09    2.90
  -1   6   6   47.60    2.60
   0  -6  -6  315.67    9.10
   0  -6  -6  324.97    8.40
   0   6   6  320.47    8.70
   0   6   6  315.37    8.60
   0   6  -6  318.77    8.70
   0   6   6  315.67    8.10
   0   6  -6  317.57    7.90
  -1  -6  -6   35.40    3.20
  -1  -6  -6   35.70    2.90
   1   6   6   33.40    2.70
  -1   6  -6   34.90    2.10
   1   6   6   33.40    2.60
  -1   6  -6   30.40    2.90
   1   6   6   31.00    2.80
  -2  -6  -6  382.96   10.00
   2   6   6  379.16    9.60
   2   6   6  379.76   10.10
  -2   6  -6  372.56   10.10
   2   6   6  376.76   10.00
  -3  -6  -6   34.20    3.00
   3   6   6   34.80    3.00
   3   6   6   36.20    3.10
  -3   6  -6   29.20    3.10
   3   6   6   30.30    2.80
  -4  -6  -6    1.10    1.70
  -4   6  -6    4.40    2.10
   4   6   6   -1.00    1.90
   4   6   6    9.10    2.50
   4   6   6    4.90    2.00
  -5  -6  -6   22.10    3.40
   5   6   6   19.10    2.90
  -5   6  -6   19.90    2.60
   5   6   6   24.30    3.20
  -6  -6  -6    7.40    2.30
  -6   6  -6    7.10    2.10
   6   6   6    7.50    2.50
   6   6   6   12.90    2.90
  -7  -6  -6   -1.80    1.80
   7   6   6   -1.70    1.60
  -7   6  -6   -0.40    1.70
   7   6   6   -1.40    2.20
  -8  -6  -6    2.70    3.00
   8   6   6    5.20    2.70
  -8   6  -6    3.50    2.80
   8   6   6    0.60    2.70
  -9  -6  -6   42.10    4.40
  -9   6  -6   45.30    4.20
   9   6   6   50.49    5.00
   9   6   6   43.10    4.60
 -10  -6  -6    4.80    3.70
  10   6   6    3.30    3.10
 -10   6  -6    2.80    3.00
  10   6   6    2.10    2.10
 -11  -6  -6   -1.50    2.40
 -11   6  -6    3.10    3.10
  11   6   6    1.30    3.30
  11   6   6    2.90    3.20
 -12  -6  -6    7.80    4.10
  12   6   6   15.30    3.40
 -12   6  -6    9.70    3.60
  12   6   6   10.50    3.90
  13  -7  -6    5.10    3.50
  12  -7  -6   -4.70    2.70
  12   7  -6    0.80    3.20
  11  -7  -6    6.20    3.10
  11   7  -6   12.60    3.20
  10  -7  -6   -1.70    1.80
  10   7  -6    4.60    2.40
  -9  -7   6    5.10    2.70
   9  -7  -6    7.60    2.30
   9   7  -6    5.60    2.40
  -8  -7   6   12.80    2.80
   8  -7  -6   12.80    3.00
   8   7  -6   17.40    2.70
   8   7  -6   17.70    3.00
   7  -7  -6   15.00    2.90
  -7  -7   6   24.00    3.20
   7   7  -6   19.40    2.40
   7   7  -6   21.50    3.00
  -6  -7   6   43.10    3.80
   6  -7  -6   40.30    3.70
   6   7  -6   39.70    3.60
   6   7  -6   44.00    3.50
   5  -7  -6   17.90    2.90
   5   7  -6   18.60    2.30
   5   7  -6   22.00    2.70
   4  -7  -6   68.09    3.70
   4  -7  -6   74.09    3.90
  -4   7   6   60.59    3.90
   4   7  -6   67.29    3.70
   4   7  -6   70.89    4.00
   3  -7  -6  163.68    5.80
   3  -7  -6  150.18    5.70
   3   7  -6  149.88    5.60
  -3   7   6  156.78    4.90
  -3   7   6  158.08    5.40
  -3   7   6  158.28    5.60
   3   7  -6  161.78    5.50
   2  -7  -6    9.80    1.70
   2  -7  -6    6.90    1.70
   2  -7  -6   11.90    2.00
  -2   7   6    7.00    1.90
  -2   7   6    8.50    1.60
   2   7  -6   11.50    1.90
  -2   7   6    8.80    1.80
   2   7  -6    7.90    1.90
   1  -7  -6   41.30    3.10
   1  -7  -6   33.40    3.30
   1  -7  -6   47.00    3.00
  -1   7   6   36.60    2.70
   1   7  -6   36.30    2.80
   1   7  -6   40.90    2.70
  -1   7   6   37.60    2.60
  -1   7   6   38.60    3.20
   0  -7  -6   -1.20    2.00
   0  -7  -6    5.80    1.80
   0  -7  -6    1.10    2.10
   0   7  -6    2.40    1.40
   0   7   6    1.10    1.80
   0   7   6    3.10    1.60
   0   7   6    3.40    1.90
   0   7  -6    1.30    1.90
  -1  -7  -6   13.50    2.80
  -1  -7  -6   14.80    2.30
   1   7   6   14.80    1.90
   1   7   6   14.00    2.50
   1   7   6   16.40    2.40
  -1   7  -6   14.90    2.20
  -2  -7  -6   -1.10    1.90
   2   7   6    0.60    1.30
  -2   7  -6    2.30    1.50
   2   7   6   -0.50    1.40
   2   7   6    2.90    1.80
  -3  -7  -6   11.50    2.70
   3   7   6    8.40    1.90
   3   7   6   10.60    2.00
  -3   7  -6    9.00    2.00
   3   7   6   10.60    2.10
  -4  -7  -6    0.10    1.60
   4   7   6    1.70    1.60
   4   7   6    1.20    2.10
   4   7   6    2.40    1.70
  -4   7  -6    1.00    1.60
  -5  -7  -6   10.80    2.50
   5   7   6    8.40    2.10
  -5   7  -6    7.30    2.00
   5   7   6    5.00    1.90
   5   7   6    8.70    2.70
  -6  -7  -6   15.80    3.50
  -6   7  -6   25.30    3.50
   6   7   6   19.10    2.90
   6   7   6   26.10    3.30
  -7  -7  -6    0.10    2.80
  -7   7  -6   -1.10    2.50
   7   7   6   -0.10    1.80
   7   7   6    2.30    1.90
  -8  -7  -6   -0.40    2.20
   8   7   6    2.60    2.00
   8   7   6   -0.50    2.00
  -8   7  -6   -0.60    1.90
  -9  -7  -6   21.10    4.30
  -9   7  -6   19.50    3.80
   9   7   6   28.20    3.60
   9   7   6   31.40    4.40
 -10  -7  -6    0.40    2.60
  10   7   6   -2.80    2.80
 -10   7  -6   -0.20    2.10
  10   7   6    1.70    3.00
 -11  -7  -6    3.60    3.90
  11   7   6    2.80    2.50
  11   7   6    3.00    2.40
 -11   7  -6    4.30    2.50
  12   7   6    0.80    2.50
  12   7   6    2.20    2.90
 -12   7  -6    3.10    2.50
  12  -8  -6    1.80    3.00
  12   8  -6    2.80    3.50
  11  -8  -6    8.50    3.30
  11   8  -6    4.60    3.40
  10  -8  -6    2.90    2.80
  10   8  -6    3.30    3.20
  -9  -8   6    2.60    2.80
   9  -8  -6   -1.50    1.70
   9   8  -6   -0.80    2.90
   9   8  -6   -0.10    2.20
   8  -8  -6    9.30    2.90
  -8  -8   6    1.70    2.70
   8   8  -6    3.00    2.40
   8   8  -6    2.20    2.80
   7  -8  -6    1.60    2.30
  -7  -8   6    3.30    2.60
   7   8  -6   -1.40    2.00
   7   8  -6   -1.40    2.50
   6  -8  -6   -0.30    1.60
  -6  -8   6    1.40    1.80
   6   8  -6   -1.00    1.60
   6   8  -6   -0.80    2.00
   5  -8  -6   21.80    3.00
   5   8  -6   15.40    2.30
   5   8  -6   19.50    2.70
   4  -8  -6  257.37    8.30
   4   8  -6  247.78    8.00
   4   8  -6  257.77    8.10
  -4   8   6  256.27    8.10
   3  -8  -6   62.19    3.80
   3  -8  -6   69.49    4.20
   3   8  -6   69.09    4.20
  -3   8   6   66.09    3.60
   3   8  -6   68.79    3.90
  -3   8   6   60.89    3.90
  -3   8   6   58.99    3.10
   2  -8  -6    5.20    2.00
   2  -8  -6    2.80    2.20
   2  -8  -6    6.60    1.90
  -2   8   6    7.40    2.10
   2   8  -6    4.40    2.20
  -2   8   6    4.50    1.50
  -2   8   6    3.60    1.70
   2   8  -6    1.80    1.70
   1  -8  -6   26.50    2.80
   1  -8  -6   31.30    2.90
   1  -8  -6   24.80    3.00
  -1   8   6   28.30    2.90
   1   8  -6   24.20    3.00
  -1   8   6   29.10    2.90
  -1   8   6   30.10    2.70
   1   8  -6   30.50    2.50
   0  -8  -6    5.70    2.30
   0  -8  -6    4.20    1.60
   0  -8  -6    0.80    1.50
   0   8  -6    7.70    2.30
   0   8   6    2.00    1.50
   0   8   6    7.10    1.90
   0   8   6    4.50    2.00
  -1  -8  -6    0.60    1.50
  -1  -8  -6   -0.20    2.30
   1   8   6    4.10    2.20
   1   8   6    4.20    1.90
  -1   8  -6    0.60    1.50
   1   8   6    0.50    1.30
  -2  -8  -6    6.60    1.90
   2   8   6   13.30    2.50
   2   8   6    5.70    2.40
  -2   8  -6    9.80    2.50
   2   8   6   13.20    2.10
  -3  -8  -6   27.60    3.10
   3   8   6   25.10    3.00
   3   8   6   33.50    3.00
  -3   8  -6   32.40    3.50
   3   8   6   31.40    3.50
  -4  -8  -6   39.90    3.80
   4   8   6   45.50    3.60
   4   8   6   38.30    3.40
   4   8   6   39.70    3.50
  -4   8  -6   41.10    3.60
  -5  -8  -6   40.40    4.30
   5   8   6   35.40    3.80
   5   8   6   38.00    3.80
  -5   8  -6   39.40    4.10
   5   8   6   35.90    3.30
  -6  -8  -6   89.29    6.00
   6   8   6   90.49    5.40
   6   8   6   88.59    5.20
   6   8   6   86.49    4.70
  -6   8  -6   90.79    5.00
  -7  -8  -6   37.70    4.20
   7   8   6   35.30    4.00
  -7   8  -6   34.00    3.70
   7   8   6   34.00    4.30
  -8  -8  -6   16.60    3.40
   8   8   6   33.20    4.10
  -8   8  -6   17.00    3.60
   8   8   6   24.10    3.60
  -9  -8  -6   30.80    4.70
   9   8   6   23.50    3.90
   9   8   6   33.10    4.20
  -9   8  -6   21.30    3.40
 -10  -8  -6   12.40    3.50
 -10   8  -6    6.90    3.40
  10   8   6    8.50    3.00
  10   8   6   11.70    3.00
 -11  -8  -6    0.00    3.90
  11   8   6    2.50    3.30
 -11   8  -6    4.80    3.20
  11   8   6    3.80    2.70
  11  -9  -6    4.10    3.10
  11   9  -6    6.50    2.90
  10  -9  -6    4.10    3.00
  10   9  -6   14.50    3.40
   9  -9  -6    2.00    2.60
  -9  -9   6    3.90    3.10
   9   9  -6    1.80    2.50
   9   9  -6    6.10    2.60
   8  -9  -6   71.39    5.10
  -8  -9   6   64.59    5.50
   8   9  -6   64.79    4.30
   8   9  -6   65.19    4.80
   7  -9  -6    0.20    2.20
  -7  -9   6    3.70    2.20
   7   9  -6   -0.40    1.60
   7   9  -6   -0.10    2.70
   6  -9  -6  173.38    7.00
  -6  -9   6  192.88    7.30
   6   9  -6  172.68    7.00
   6   9  -6  178.68    6.70
   5  -9  -6   37.70    3.70
   5   9  -6   33.80    3.30
   5   9  -6   41.90    4.00
   4  -9  -6   11.50    2.20
   4   9  -6   14.10    2.80
  -4   9   6    5.80    2.20
   4   9  -6    8.70    2.00
   3  -9  -6   65.89    4.30
  -3   9   6   57.69    3.90
   3   9  -6   53.79    3.80
  -3   9   6   59.99    3.60
   3   9  -6   59.69    4.30
   2  -9  -6  108.59    5.30
   2  -9  -6  106.89    5.20
   2  -9  -6  118.99    5.00
  -2   9   6  105.49    4.50
   2   9  -6  115.99    5.50
   2   9  -6  119.39    4.80
  -2   9   6  118.99    5.00
  -2   9   6  116.49    5.10
   1  -9  -6  312.47    9.00
   1  -9  -6  290.27    9.30
   1  -9  -6  311.77    9.30
  -1   9   6  295.87    8.40
  -1   9   6  291.47    8.80
  -1   9   6  294.87    8.60
   1   9  -6  299.47    9.10
   0  -9  -6   41.50    3.60
   0  -9  -6   34.10    3.50
   0  -9  -6   41.70    4.00
   0   9   6   38.20    3.20
   0   9  -6   38.90    3.50
   0   9   6   37.40    3.30
   0   9   6   42.10    3.60
  -1  -9  -6   65.69    4.80
  -1  -9  -6   72.29    4.50
  -1  -9  -6   69.29    4.50
   1   9   6   72.29    4.40
   1   9   6   74.39    4.20
   1   9   6   74.79    4.20
  -1   9  -6   65.09    4.10
  -2  -9  -6   58.29    4.50
  -2   9  -6   55.19    4.40
   2   9   6   53.49    4.20
   2   9   6   57.19    3.90
   2   9   6   56.79    3.50
  -3  -9  -6  161.48    6.70
   3   9   6  159.98    6.50
  -3   9  -6  160.58    6.50
   3   9   6  164.18    6.30
   3   9   6  165.58    6.20
  -4  -9  -6  100.09    5.50
   4   9   6   92.69    4.70
  -4   9  -6   95.59    5.10
   4   9   6  105.79    5.80
   4   9   6   99.59    4.90
  -5  -9  -6   -2.60    1.90
  -5   9  -6    0.00    2.60
   5   9   6   -1.60    2.50
   5   9   6    2.40    2.30
   5   9   6    2.40    2.60
  -6  -9  -6   -2.80    2.80
   6   9   6    1.00    2.80
   6   9   6   -0.80    2.50
  -6   9  -6    0.10    2.70
   6   9   6    2.50    1.90
  -7  -9  -6   -0.30    2.50
   7   9   6    0.30    2.50
   7   9   6   -2.30    1.90
   7   9   6    0.50    2.10
  -7   9  -6   -0.30    2.80
  -8  -9  -6   -2.20    2.50
   8   9   6   -0.80    2.70
   8   9   6    6.60    3.50
  -8   9  -6    3.80    3.00
  -9  -9  -6   13.40    4.20
  -9   9  -6    4.40    3.10
   9   9   6   -3.90    2.90
   9   9   6    2.50    3.00
 -10  -9  -6    7.80    3.30
  10   9   6    4.30    3.30
  10   9   6    0.80    3.40
 -10   9  -6    3.60    2.50
 -11   9  -6    4.30    3.30
 -10 -10   6    7.60    3.70
  10  10  -6    8.60    3.90
  -9 -10   6    0.20    2.30
   9  10  -6   -1.70    2.40
   9  10  -6    5.30    3.40
  -8 -10   6    2.50    3.10
   8  10  -6    0.30    2.10
   8  10  -6    0.20    2.50
  -7 -10   6  126.79    7.00
   7  10  -6  120.89    5.80
   7  10  -6  111.49    6.50
  -6 -10   6    4.30    2.30
   6  10  -6    1.80    2.40
   6  10  -6    3.10    2.10
   5  10  -6   59.79    4.80
   5  10  -6   58.89    4.60
   4  10  -6   34.30    3.50
   4  10  -6   46.30    4.00
   3 -10  -6   -1.80    2.20
   3  10  -6   -1.30    1.60
   3  10  -6   -1.70    1.90
  -3  10   6   -0.50    1.90
   2 -10  -6   30.00    3.20
   2 -10  -6   27.30    3.50
  -2  10   6   39.40    3.50
   2  10  -6   28.20    3.60
  -2  10   6   41.60    3.40
   1 -10  -6   14.50    2.70
   1 -10  -6    8.50    2.40
  -1  10   6    9.30    2.40
  -1  10   6   10.90    2.40
  -1  10   6   12.70    2.40
   1  10  -6    7.50    2.20
   0 -10  -6    2.90    2.20
   0 -10  -6    1.50    2.40
   0 -10  -6    0.20    2.10
   0  10   6   -1.20    1.90
   0  10  -6    3.40    2.00
   0  10   6    1.40    1.90
   0  10   6    1.50    1.50
  -1 -10  -6    2.00    2.10
  -1 -10  -6   -0.40    1.80
  -1 -10  -6    5.10    2.00
   1  10   6    1.90    1.70
   1  10   6    2.00    1.60
   1  10   6    4.40    2.10
  -1  10  -6    4.80    2.60
  -2 -10  -6   14.40    2.90
  -2 -10  -6   20.60    3.50
  -2  10  -6   20.20    3.40
   2  10   6   25.50    3.00
   2  10   6   22.00    2.90
   2  10   6   17.70    3.00
  -3 -10  -6    2.40    2.80
   3  10   6    3.40    2.20
   3  10   6   -2.40    2.30
  -3  10  -6   -1.20    1.70
   3  10   6   -2.60    2.20
  -4 -10  -6   18.60    3.70
   4  10   6   19.30    3.00
   4  10   6   16.70    3.20
   4  10   6   22.40    3.20
  -4  10  -6   23.20    3.70
  -5 -10  -6    6.50    2.80
   5  10   6    7.10    2.70
   5  10   6   12.60    2.80
  -5  10  -6    7.00    2.50
   5  10   6    4.90    2.20
  -6 -10  -6   17.20    3.40
   6  10   6   16.40    3.20
   6  10   6   11.90    2.90
  -6  10  -6   13.60    3.50
   6  10   6   15.10    3.50
  -7 -10  -6    4.50    3.70
   7  10   6    3.00    3.00
   7  10   6   -0.80    3.00
   7  10   6   -0.10    2.50
  -7  10  -6    4.10    2.40
  -8 -10  -6   -3.10    2.50
   8  10   6    0.60    2.10
   8  10   6   -0.60    3.10
  -8  10  -6   -0.30    2.20
  -9 -10  -6   -2.00    3.70
  -9  10  -6   -1.80    3.00
   9  10   6   -3.90    2.40
   9  10   6    0.50    2.40
 -10  10  -6   -0.70    2.20
  10  10   6   -2.20    2.80
 -10 -11   6    1.60    3.50
  -9 -11   6   -0.10    3.20
   9  11  -6    4.40    2.70
   9  11  -6   -0.80    1.90
  -8 -11   6    0.70    3.40
   8  11  -6   -1.80    2.70
   8  11  -6    3.50    3.20
  -7 -11   6   -0.40    2.20
   7  11  -6   -1.50    1.80
   7  11  -6    4.60    2.40
  -6 -11   6    6.50    3.50
   6  11  -6    2.80    2.70
   6  11  -6    5.00    2.90
  -5 -11   6    1.40    2.40
   5  11  -6   -1.30    2.30
   5  11  -6    0.80    2.00
   4  11  -6    1.10    2.70
   4  11  -6    5.10    2.40
   3  11  -6   -0.70    1.80
  -2  11   6   17.00    2.70
   2  11  -6   18.70    3.40
   1 -11  -6    0.80    2.30
  -1  11   6    0.50    2.00
   1  11  -6    4.40    2.70
   0 -11  -6    5.00    2.10
   0  11  -6    4.30    2.70
   0  11   6    1.00    2.00
   0  11   6    2.70    1.70
  -1 -11  -6    1.90    2.60
  -1 -11  -6    0.50    2.60
   1  11   6    1.10    2.30
  -1  11  -6   -3.60    2.40
   1  11   6    3.00    2.30
  -2 -11  -6    7.80    3.10
  -2 -11  -6    1.70    2.90
   2  11   6    5.60    2.70
  -2  11  -6    2.30    2.70
   2  11   6    6.20    2.70
  -3 -11  -6    3.20    3.00
  -3  11  -6    2.40    2.10
   3  11   6    7.50    2.30
   3  11   6    7.70    2.30
  -4 -11  -6    3.80    2.50
  -4  11  -6    1.00    2.90
   4  11   6    1.90    2.00
   4  11   6   -1.40    2.60
  -5 -11  -6    6.20    3.60
   5  11   6    2.80    2.90
  -5  11  -6    0.30    2.20
   5  11   6    8.60    3.20
  -6 -11  -6   25.10    4.60
   6  11   6   33.10    4.10
   6  11   6   29.90    3.80
  -6  11  -6   28.80    3.80
  -7 -11  -6   -0.20    2.70
  -7  11  -6    0.70    2.40
   7  11   6   -1.30    3.10
   7  11   6   -1.10    2.30
  -8 -11  -6    5.30    4.10
   8  11   6    0.40    2.50
  -8  11  -6    1.70    3.10
  -9  11  -6    4.30    3.50
  -9 -12   6   40.60    5.50
   9  12  -6   33.30    4.90
   9  12  -6   36.60    4.50
  -8 -12   6   -0.30    3.50
   8  12  -6   -3.60    2.80
   8  12  -6    0.40    2.90
  -7 -12   6    8.20    3.10
   7  12  -6    4.70    2.50
   7  12  -6   10.60    2.80
  -6 -12   6    0.10    3.30
   6  12  -6    0.90    2.70
   6  12  -6    3.40    2.80
  -5 -12   6   92.29    6.80
   5  12  -6   96.79    6.20
   4  12  -6   46.00    4.30
   3  12  -6   44.50    4.30
   2  12  -6  119.89    6.10
   1 -12  -6    2.00    2.60
   1  12  -6   -1.60    2.70
  -1  12   6    5.20    2.40
   0 -12  -6   56.49    5.00
   0  12  -6   73.49    5.50
   0  12   6   55.69    4.50
  -1 -12  -6   11.00    3.40
   1  12   6   10.80    3.00
  -1  12  -6   12.80    2.90
  -2 -12  -6    2.70    3.00
  -2 -12  -6   -0.50    3.10
  -2  12  -6    2.40    2.10
   2  12   6    5.10    2.80
   2  12   6    3.40    2.70
  -3 -12  -6   36.60    4.30
   3  12   6   50.69    4.30
  -3  12  -6   40.90    4.80
   3  12   6   39.70    4.50
  -4 -12  -6    2.90    3.40
  -4  12  -6    4.90    2.50
   4  12   6    3.10    2.90
   4  12   6    5.90    3.10
  -5 -12  -6   33.80    4.90
   5  12   6   23.60    3.90
   5  12   6   15.60    3.80
  -5  12  -6   21.00    3.50
  -6 -12  -6   -3.30    2.40
  -6  12  -6   -3.70    2.10
   6  12   6    4.60    3.30
   6  12   6    1.80    2.40
  -7 -12  -6   -0.10    3.80
   7  12   6   -0.10    3.10
  -7  12  -6    0.30    2.30
   7  12   6    2.50    2.50
  -7 -13   6    1.30    3.70
   7  13  -6   -0.30    2.20
   7  13  -6    4.80    3.30
  -6 -13   6   31.00    5.00
   6  13  -6   32.60    4.50
  -5 -13   6    2.60    2.70
   5  13  -6    6.40    2.60
   4  13  -6   22.10    3.50
   3  13  -6   12.80    3.00
   2  13  -6    2.80    2.30
  -1  13   6   48.20    4.20
   1  13  -6   56.59    5.00
   0 -13  -6   12.10    3.60
   0  13  -6    6.80    2.70
   0  13   6    8.00    2.90
  -1 -13  -6   66.69    5.10
  -1  13  -6   58.69    5.60
   1  13   6   60.59    4.40
  -2 -13  -6   14.70    4.00
  -2  13  -6   10.30    3.00
   2  13   6   12.20    3.30
  -3 -13  -6    3.50    2.90
  -3  13  -6    3.20    3.30
   3  13   6    5.90    2.50
   3  13   6    5.50    2.90
  -4 -13  -6   30.40    4.90
  -4  13  -6   29.40    4.10
   4  13   6   26.90    4.30
   4  13   6   33.20    4.50
  -5 -13  -6   -1.50    2.50
   5  13   6   -2.20    2.10
   5  13   6    1.70    3.20
  -5  13  -6   -7.50    1.60
  -6 -13  -6    5.10    4.20
   6  13   6    5.30    3.40
  -6  13  -6    7.20    2.90
   6  13   6   -1.00    3.30
   4  14  -6   -0.40    3.00
   3  14  -6    1.30    2.30
   2  14  -6    2.30    2.50
   1  14  -6   -1.10    2.30
   0 -14  -6    0.60    2.70
   0  14   6    2.20    2.70
   0  14  -6   -0.90    3.10
  -1 -14  -6   -1.40    3.10
   1  14   6   -1.70    2.70
  -1  14  -6    2.30    2.60
  -2 -14  -6   -6.80    2.80
  -2  14  -6   -0.10    3.20
   2  14   6   -0.60    2.90
  -3 -14  -6    8.00    3.90
   3  14   6    5.70    2.60
  -3  14  -6    6.20    2.90
  -4 -14  -6    5.40    4.00
   4  14   6    6.20    3.60
  14   0  -7   -1.80    3.20
  13   0  -7    2.20    2.80
  13   0  -7   -5.80    2.90
  12   0  -7   -1.30    2.00
  12   0  -7   -0.80    2.50
  11   0  -7   -0.10    2.10
  11   0  -7   -2.40    2.30
  10   0  -7    0.00    1.90
  10   0  -7   -1.20    1.60
   9   0  -7    2.30    1.80
   9   0  -7   -1.90    2.10
   8   0  -7    2.80    2.20
   8   0  -7   -0.80    1.40
   7   0  -7   -1.80    1.30
   7   0  -7    0.40    2.00
   6   0  -7   -0.70    1.80
   6   0  -7    0.90    1.30
   5   0  -7    0.10    1.30
   5   0  -7    1.10    1.80
   4   0  -7   -1.00    1.20
   4   0  -7   -1.10    1.60
   3   0  -7   -0.20    1.10
   3   0  -7   -0.60    0.40
  -3   0   7   -1.40    1.00
   3   0  -7    0.10    1.20
   2   0  -7   -0.80    1.50
   2   0  -7    1.20    0.70
  -2   0   7    1.20    1.40
   2   0  -7    0.20    1.20
   1   0  -7   -2.40    1.60
  -1   0   7   -1.80    1.20
   1   0  -7    0.40    1.60
   1   0  -7    1.30    0.90
   0   0   7    1.80    1.40
   0   0   7    1.60    1.50
   0   0  -7    1.80    1.00
   0   0  -7    0.80    1.70
   1   0   7   -0.10    0.90
   1   0   7   -1.70    1.00
  -1   0  -7    0.20    1.30
  -1   0  -7    0.10    1.20
   2   0   7    0.60    1.10
  -2   0  -7   -2.60    1.60
   2   0   7    0.40    1.40
  -2   0  -7   -1.00    1.40
   3   0   7    0.30    1.10
  -3   0  -7    3.10    1.70
  -3   0  -7   -1.30    1.20
   3   0   7   -2.20    0.80
  -4   0  -7   -1.50    1.70
   4   0   7   -0.30    1.10
   4   0   7   -0.90    1.40
  -4   0  -7    0.10    1.30
   5   0   7    1.80    1.50
   5   0   7   -0.40    1.60
  -5   0  -7    2.50    1.50
  -5   0  -7    0.30    1.40
  -6   0  -7    0.10    1.50
  -6   0  -7   -1.50    1.90
   6   0   7   -0.40    1.60
   6   0   7    1.80    1.40
   7   0   7   -0.20    1.60
   7   0   7   -1.40    1.30
  -7   0  -7   -1.20    2.20
  -8   0  -7    0.50    1.90
   8   0   7   -0.90    1.50
   8   0   7    2.10    1.90
  -9   0  -7   -2.30    2.60
   9   0   7    3.30    2.50
 -10   0  -7   -0.40    2.10
  10   0   7    2.50    2.70
  11   0   7    1.60    2.70
 -11   0  -7   -0.10    3.10
  12   0   7    0.40    3.00
 -12   0  -7   -0.90    3.20
 -13   0  -7   -6.90    3.20
  13   0   7   -7.50    2.80
  14  -1  -7   14.20    4.10
  14   1  -7    9.30    2.90
  14   1  -7   17.50    4.20
  13  -1  -7   11.40    3.80
  13   1  -7   14.10    3.00
  13   1  -7   12.40    3.80
  12  -1  -7   16.60    3.30
  12  -1  -7   22.40    3.50
  12   1  -7   16.60    3.10
  12   1  -7   18.80    3.30
  11  -1  -7   62.99    4.70
  11  -1  -7   57.59    4.50
  11   1  -7   58.19    5.10
  11   1  -7   55.99    4.20
  10  -1  -7    2.20    2.00
  10  -1  -7    4.00    1.80
  10   1  -7    1.60    1.90
  10   1  -7    0.90    2.50
   9  -1  -7   -0.80    1.70
   9  -1  -7    5.20    2.30
   9   1  -7    1.30    2.40
   9   1  -7   -0.20    1.60
   8  -1  -7    3.10    2.30
   8  -1  -7    1.80    2.00
   8   1  -7   -0.50    2.00
   8   1  -7    1.30    2.20
   7  -1  -7    1.10    1.90
   7  -1  -7   -0.50    2.00
   7   1  -7    0.00    1.50
   7   1  -7    0.70    1.40
   6  -1  -7   78.89    4.30
   6  -1  -7   72.09    4.00
   6   1  -7   85.19    3.80
   6   1  -7   76.59    4.20
   5  -1  -7   10.20    1.80
  -5  -1   7   11.30    1.10
   5  -1  -7   13.20    2.00
   5   1  -7   10.60    2.20
   5   1  -7   16.20    2.20
   4  -1  -7   -1.30    1.20
   4  -1  -7    0.10    1.30
   4   1  -7    1.80    1.60
  -4   1   7    0.10    1.20
   4   1  -7    0.20    1.70
   4   1  -7    1.10    0.60
  -3  -1   7  102.29    3.60
   3  -1  -7   97.39    4.10
   3  -1  -7  109.29    4.40
   3   1  -7  102.39    2.80
   3   1  -7   99.99    4.10
  -3   1   7  114.69    4.30
   3   1  -7   95.69    3.70
   2  -1  -7   32.90    2.50
  -2  -1   7   36.40    2.30
   2  -1  -7   32.80    1.30
   2  -1  -7   37.10    2.90
   2   1  -7   31.90    2.50
   2   1  -7   34.00    2.50
   2   1  -7   30.60    1.60
  -2   1   7   35.70    2.70
   1  -1  -7   44.80    3.30
  -1  -1   7   44.80    2.20
   1  -1  -7   46.70    1.90
   1  -1  -7   45.50    3.10
   1   1  -7   41.80    2.70
   1   1  -7   43.90    2.00
  -1   1   7   42.00    2.40
  -1   1   7   45.50    2.60
   1   1  -7   43.30    2.70
   0  -1  -7    6.70    1.70
   0  -1  -7    8.10    1.20
   0  -1   7    6.80    1.40
   0   1   7    8.40    1.40
   0   1  -7    9.30    1.60
   0   1  -7    7.30    1.30
   0   1   7    6.40    1.50
   1  -1   7  132.79    4.20
  -1  -1  -7  129.29    4.10
   1  -1   7  125.69    4.00
  -1  -1  -7  130.39    4.80
   1   1   7  130.69    4.40
   1   1   7  127.49    4.30
  -1   1  -7  123.89    4.40
  -1   1  -7  130.49    4.00
  -2  -1  -7  259.67    7.70
   2  -1   7  257.97    6.80
   2  -1   7  262.07    6.80
  -2  -1  -7  241.08    6.90
  -2   1  -7  274.17    7.20
   2   1   7  247.88    7.10
   2   1   7  263.87    7.20
  -2   1  -7  256.57    7.00
   3  -1   7    3.50    1.50
  -3  -1  -7    8.30    2.30
  -3  -1  -7    5.40    1.50
   3  -1   7    7.40    1.60
   3   1   7    7.90    1.90
  -3   1  -7    4.10    1.80
   3   1   7    6.90    1.80
  -3   1  -7    8.50    1.60
   4  -1   7   21.80    2.10
  -4  -1  -7   22.50    2.30
   4  -1   7   21.80    2.30
  -4  -1  -7   23.60    2.60
   4   1   7   22.70    2.30
   4   1   7   21.70    2.30
  -4   1  -7   23.80    2.60
  -4   1  -7   26.30    2.50
  -5  -1  -7    8.90    2.00
  -5  -1  -7    8.00    2.30
   5  -1   7   10.70    1.70
   5  -1   7    9.20    1.70
  -5   1  -7    7.60    2.30
  -5   1  -7    9.90    2.20
   5   1   7    7.80    2.10
   5   1   7   10.10    1.70
   6  -1   7   38.10    3.20
  -6  -1  -7   38.60    3.30
   6  -1   7   43.50    2.90
   6   1   7   40.30    3.00
   6   1   7   40.30    3.30
  -6   1  -7   41.30    3.40
  -6   1  -7   37.20    3.30
   7  -1   7  196.28    6.20
  -7  -1  -7  191.78    7.30
   7  -1   7  192.08    6.50
  -7   1  -7  182.48    6.80
   7   1   7  184.08    6.50
  -7   1  -7  190.08    6.70
   7   1   7  179.98    6.80
  -8  -1  -7    1.50    2.00
   8  -1   7    2.90    2.30
  -8   1  -7    2.40    2.60
  -8   1  -7    6.00    2.30
   8   1   7    2.10    1.60
   8   1   7    5.70    2.00
   9  -1   7  120.79    5.50
  -9  -1  -7  128.59    6.10
  -9   1  -7  117.79    5.90
   9   1   7  116.69    5.50
   9   1   7  114.79    6.10
  10  -1   7   17.10    3.40
 -10  -1  -7   10.90    3.60
 -10   1  -7   18.60    3.80
  10   1   7   19.90    3.10
 -11  -1  -7    2.00    3.30
  11  -1   7    6.60    3.10
  11   1   7    2.60    2.30
 -11   1  -7    1.20    2.40
 -12  -1  -7    1.80    3.60
  12  -1   7   -1.00    2.70
  12   1   7   -1.60    2.20
 -12   1  -7    1.10    3.30
  13  -1   7   13.30    3.20
 -13  -1  -7   11.00    4.10
 -13   1  -7    3.70    3.70
  13   1   7    7.50    3.60
  14  -2  -7   64.69    6.40
  14   2  -7   53.19    5.60
  14   2  -7   51.69    5.70
  13  -2  -7   19.90    3.60
  13   2  -7   16.30    3.30
  13   2  -7   19.00    3.80
  12  -2  -7   29.10    3.80
  12   2  -7   24.40    4.00
  12   2  -7   21.70    3.40
  11  -2  -7   35.80    3.90
  11   2  -7   32.20    3.70
  11   2  -7   31.10    4.10
  10  -2  -7    1.80    2.00
  10  -2  -7   -1.50    1.40
  10   2  -7    0.20    1.80
  10   2  -7   -0.30    1.80
   9  -2  -7   50.79    3.90
   9  -2  -7   43.20    3.80
   9   2  -7   52.09    3.70
   9   2  -7   52.29    3.90
   8  -2  -7   -2.00    1.80
   8  -2  -7    1.20    2.20
   8   2  -7    0.30    1.50
   8   2  -7    0.80    1.60
   7  -2  -7    0.30    2.10
   7  -2  -7    2.60    1.50
   7   2  -7    2.20    1.60
   7   2  -7    4.70    2.00
   6  -2  -7    3.50    2.10
  -6  -2   7    1.80    1.10
   6  -2  -7    0.90    1.80
   6   2  -7   -2.30    1.50
   6   2  -7   -1.60    1.80
   5  -2  -7   15.40    2.40
  -5  -2   7   20.00    1.70
   5  -2  -7   17.00    2.20
   5   2  -7   17.40    1.40
   5   2  -7   16.90    2.20
   5   2  -7   16.40    1.90
   4  -2  -7   60.09    3.60
   4  -2  -7   60.99    3.40
  -4   2   7   68.49    3.40
   4   2  -7   71.29    3.50
   4   2  -7   71.09    3.30
   4   2  -7   68.69    2.40
   3  -2  -7   82.69    4.10
   3  -2  -7   89.39    4.20
   3   2  -7   86.39    2.90
   3   2  -7   85.89    3.70
  -3   2   7   84.29    3.90
   3   2  -7   86.19    3.50
   2  -2  -7   16.20    2.10
   2  -2  -7    9.70    0.90
   2  -2  -7   11.90    2.20
  -2  -2   7   10.40    1.50
   2   2  -7   11.30    1.60
   2   2  -7   14.30    1.90
  -2   2   7   10.40    1.90
   2   2  -7   15.90    1.40
   1  -2  -7   43.40    2.00
   1  -2  -7   44.10    3.30
   1  -2  -7   50.79    3.40
  -1  -2   7   51.19    2.40
  -1   2   7   50.39    3.10
   1   2  -7   48.80    2.70
   1   2  -7   51.69    2.80
   1   2  -7   45.00    2.20
  -1   2   7   48.40    3.00
   0  -2   7   27.70    1.90
   0  -2  -7   25.40    2.80
   0  -2  -7   23.40    1.80
   0   2   7   26.10    2.50
   0   2  -7   24.10    1.70
   0   2  -7   25.10    2.10
   0   2   7   26.60    2.20
   0   2  -7   27.30    2.50
  -1  -2  -7    2.30    1.30
  -1  -2  -7    6.50    1.80
   1  -2   7    3.50    1.10
  -1   2  -7    2.70    1.50
   1   2   7    2.40    1.60
   1   2   7    4.90    1.70
  -1   2  -7    2.90    1.10
   2  -2   7  195.78    5.50
  -2  -2  -7  186.88    5.70
   2  -2   7  185.38    5.30
  -2  -2  -7  187.98    6.60
  -2   2  -7  197.68    5.80
   2   2   7  198.88    6.10
  -2   2  -7  199.68    5.70
   2   2   7  195.68    5.80
  -3  -2  -7   56.49    4.00
   3  -2   7   60.49    2.90
  -3  -2  -7   60.19    3.10
   3  -2   7   62.49    2.90
  -3   2  -7   52.29    2.90
   3   2   7   58.59    3.10
   3   2   7   64.29    3.50
  -3   2  -7   61.89    3.20
   4  -2   7   38.40    2.60
  -4  -2  -7   36.00    3.50
  -4  -2  -7   42.90    3.30
   4  -2   7   43.30    2.50
  -4   2  -7   37.60    2.70
   4   2   7   39.10    3.10
   4   2   7   34.80    2.60
  -4   2  -7   34.00    2.70
   5  -2   7  122.79    4.20
  -5  -2  -7  120.19    5.00
   5  -2   7  127.29    4.70
  -5   2  -7  125.99    5.00
   5   2   7  125.99    5.20
   5   2   7  123.19    4.80
  -5   2  -7  118.29    4.80
   6  -2   7  143.09    5.30
   6  -2   7  132.29    4.60
  -6  -2  -7  139.69    5.60
   6   2   7  135.49    5.50
  -6   2  -7  131.09    5.00
   6   2   7  125.59    5.20
  -6   2  -7  134.59    5.70
   7  -2   7   24.70    2.80
  -7  -2  -7   29.20    3.20
   7   2   7   24.50    3.10
   7   2   7   27.10    3.30
  -7   2  -7   22.30    3.20
  -8  -2  -7   37.00    4.10
   8  -2   7   38.60    3.60
   8   2   7   35.80    3.50
  -8   2  -7   33.90    3.90
   8   2   7   41.50    3.30
   9  -2   7    4.10    2.50
  -9  -2  -7    4.00    3.00
   9   2   7   -0.60    2.20
  -9   2  -7    2.70    2.90
   9   2   7    0.50    2.50
  10  -2   7   56.69    4.10
 -10  -2  -7   50.49    5.20
 -10   2  -7   49.50    4.50
  10   2   7   46.50    4.40
  10   2   7   39.00    4.10
 -11  -2  -7  139.29    7.80
  11  -2   7  148.19    7.10
 -11   2  -7  140.69    7.50
  11   2   7  145.09    8.00
  11   2   7  141.59    6.90
 -12  -2  -7   -3.00    3.30
  12  -2   7    3.00    3.00
 -12   2  -7    1.00    2.40
  12   2   7   -1.20    2.10
 -13  -2  -7   39.70    5.60
  13  -2   7   43.00    5.20
 -13   2  -7   60.29    6.10
  13   2   7   45.50    4.90
  14   3  -7   -2.80    3.10
  14   3  -7   -0.80    3.00
  13  -3  -7    1.90    3.30
  13   3  -7   -3.20    3.00
  13   3  -7    2.40    3.30
  12  -3  -7    2.90    3.10
  12   3  -7    3.40    2.30
  12   3  -7    5.10    2.40
  11  -3  -7    3.00    3.00
  11   3  -7   -2.10    2.50
  11   3  -7    7.50    2.40
  10  -3  -7   -2.20    2.40
  10   3  -7    3.30    2.50
  10   3  -7    6.80    2.90
   9  -3  -7   16.00    2.60
   9  -3  -7   12.00    2.50
   9   3  -7    6.90    2.70
   9   3  -7   10.90    2.30
   8  -3  -7    4.90    2.60
   8  -3  -7   13.40    2.10
   8   3  -7   12.80    2.50
   8   3  -7   12.80    2.40
   7  -3  -7   10.20    2.20
   7  -3  -7    9.90    2.50
   7   3  -7    9.20    2.00
   7   3  -7    6.80    2.00
   6  -3  -7    9.70    2.40
   6  -3  -7    9.90    2.10
  -6  -3   7    9.90    1.70
   6   3  -7   11.90    1.60
   6   3  -7    5.30    2.20
   6   3  -7    6.20    1.80
   5  -3  -7   40.20    3.10
   5  -3  -7   54.59    3.40
  -5  -3   7   52.89    2.80
   5   3  -7   51.39    2.50
   5   3  -7   53.39    3.70
   5   3  -7   53.79    3.00
   4  -3  -7    3.00    1.50
   4  -3  -7    6.00    2.00
   4   3  -7    7.00    1.30
  -4   3   7    4.10    1.60
   4   3  -7    4.90    1.50
   4   3  -7    6.50    1.70
   3  -3  -7  136.29    5.00
   3  -3  -7  140.09    5.10
   3   3  -7  143.89    4.20
  -3   3   7  136.09    4.80
   3   3  -7  137.79    4.30
   3   3  -7  139.89    5.10
   2  -3  -7   42.10    1.80
   2  -3  -7   38.70    2.80
   2  -3  -7   35.80    3.10
  -2  -3   7   41.60    2.10
   2   3  -7   44.10    2.30
  -2   3   7   39.50    3.00
  -2   3   7   39.70    2.60
   2   3  -7   39.70    3.00
   2   3  -7   39.30    2.20
   1  -3  -7   65.09    3.80
   1  -3  -7   63.39    3.80
  -1  -3   7   64.69    2.50
   1  -3  -7   67.29    2.50
   1   3  -7   64.29    3.40
  -1   3   7   63.99    3.40
   1   3  -7   63.19    2.60
   1   3  -7   61.99    2.70
  -1   3   7   68.19    3.20
   0  -3  -7   60.19    2.70
   0  -3   7   52.79    2.30
   0  -3  -7   49.99    3.60
   0   3  -7   52.99    2.60
   0   3   7   56.09    3.00
   0   3  -7   57.89    2.80
   0   3   7   56.09    3.30
   0   3  -7   55.09    2.60
  -1  -3  -7  194.68    6.40
  -1  -3  -7  188.78    5.50
   1  -3   7  190.78    5.00
   1   3   7  196.28    5.90
   1   3   7  191.88    5.80
  -1   3  -7  173.78    5.60
  -1   3  -7  193.18    5.60
   2  -3   7   -0.30    0.90
  -2  -3  -7    1.80    1.60
  -2  -3  -7    2.50    1.50
   2   3   7   -1.30    1.10
  -2   3  -7    0.20    1.20
  -2   3  -7    0.10    1.60
   2   3   7    1.00    1.20
  -3  -3  -7   78.79    4.00
   3  -3   7   83.89    3.20
  -3  -3  -7   88.59    4.40
   3   3   7   82.89    4.20
   3   3   7   82.79    4.10
  -3   3  -7   87.09    3.70
  -3   3  -7   86.09    3.50
   4  -3   7   23.70    2.00
  -4  -3  -7   19.60    2.30
   4  -3   7   20.90    2.00
  -4   3  -7   23.30    2.10
   4   3   7   22.70    2.80
   4   3   7   19.40    2.30
  -4   3  -7   22.40    2.70
  -5  -3  -7    1.80    1.60
   5  -3   7   -1.00    1.30
   5   3   7   -0.30    1.30
  -5   3  -7   -0.30    1.90
  -5   3  -7    2.40    1.40
   5   3   7    0.90    1.40
   6  -3   7    9.10    2.00
  -6  -3  -7   12.60    2.30
   6   3   7   10.90    2.50
  -6   3  -7   10.70    2.60
   6   3   7   15.70    2.30
   7  -3   7    3.00    1.50
  -7  -3  -7    3.50    2.60
   7   3   7    4.30    1.80
   7   3   7    4.00    1.80
  -7   3  -7    0.80    2.30
   8  -3   7   80.19    4.50
  -8  -3  -7   68.29    5.20
   8   3   7   75.99    4.50
  -8   3  -7   78.89    4.70
   8   3   7   72.69    4.80
  -9  -3  -7    2.50    3.00
   9  -3   7    4.50    1.90
   9   3   7   -1.50    2.40
   9   3   7    4.10    2.00
  -9   3  -7    1.80    2.10
 -10  -3  -7    5.70    3.40
  10  -3   7    2.10    2.50
  10   3   7    6.20    2.40
 -10   3  -7    1.20    2.90
  10   3   7    3.30    2.10
  11  -3   7   16.50    3.30
 -11  -3  -7   14.30    4.00
 -11   3  -7   20.60    4.00
  11   3   7   13.20    2.80
  11   3   7   18.80    3.80
 -12  -3  -7   -1.50    2.40
  12  -3   7    1.20    2.10
  12   3   7    6.10    3.30
 -12   3  -7    3.90    2.70
 -13  -3  -7    5.60    3.10
  13  -3   7    2.50    3.10
 -13   3  -7    2.30    3.50
  14   4  -7   38.80    5.30
  14   4  -7   38.20    4.50
  13  -4  -7    1.90    3.30
  13   4  -7    0.00    3.10
  13   4  -7   -3.40    2.90
  12  -4  -7   33.10    4.00
  12   4  -7   26.00    4.00
  12   4  -7   27.40    3.90
  11  -4  -7   15.20    3.10
  11   4  -7   16.20    3.20
  11   4  -7   17.70    3.70
  10  -4  -7   30.10    4.00
  10   4  -7   28.30    4.00
  10   4  -7   30.50    3.60
   9  -4  -7   12.70    3.10
   9   4  -7   17.40    2.90
   9   4  -7   12.90    2.60
   8  -4  -7   33.20    3.30
   8  -4  -7   34.90    3.20
   8   4  -7   32.20    3.10
   8   4  -7   30.40    3.70
   7  -4  -7   18.40    2.50
   7  -4  -7   17.60    2.60
  -7  -4   7   17.70    2.40
   7   4  -7   15.80    2.90
   7   4  -7   17.90    2.50
  -6  -4   7    0.90    1.50
   6  -4  -7    3.00    1.70
   6  -4  -7   -1.10    1.60
   6   4  -7   -1.30    1.40
   6   4  -7   -1.20    1.10
   6   4  -7    1.80    1.60
   5  -4  -7    9.70    1.80
   5  -4  -7    6.90    2.40
   5   4  -7    4.40    1.40
   5   4  -7    5.30    1.50
   5   4  -7    8.40    1.90
   4  -4  -7   15.30    2.30
   4  -4  -7   15.30    2.60
   4   4  -7   11.00    1.90
   4   4  -7   11.80    1.70
  -4   4   7    6.30    2.10
   4   4  -7   14.00    1.70
   3  -4  -7  128.79    5.30
   3  -4  -7  121.49    4.80
   3   4  -7  128.09    4.30
   3   4  -7  134.29    4.00
   3   4  -7  132.39    5.00
  -3   4   7  129.19    3.30
  -3   4   7  126.49    5.00
   2  -4  -7   53.39    3.60
   2  -4  -7   56.59    3.30
   2  -4  -7   51.49    2.20
   2   4  -7   53.29    2.80
  -2   4   7   56.49    3.10
  -2   4   7   46.40    3.20
  -2   4   7   51.39    2.10
   2   4  -7   51.59    3.20
   2   4  -7   49.60    2.30
   1  -4  -7  128.99    5.20
  -1  -4   7  124.59    3.50
   1  -4  -7  119.89    3.80
   1  -4  -7  119.39    5.10
   1   4  -7  127.19    3.60
  -1   4   7  122.89    4.80
   1   4  -7  121.69    4.20
   1   4  -7  118.69    4.40
  -1   4   7  124.19    3.70
  -1   4   7  123.69    4.70
   0  -4  -7   28.30    2.80
   0  -4   7   31.00    1.60
   0  -4  -7   26.10    2.20
   0   4   7   29.90    2.40
   0   4  -7   28.30    2.50
   0   4  -7   29.30    1.90
   0   4   7   31.00    2.00
   0   4   7   24.50    2.70
   0   4  -7   27.20    2.30
  -1  -4  -7  172.68    6.60
  -1  -4  -7  179.98    5.60
   1  -4   7  182.98    4.70
  -1   4  -7  179.48    5.30
   1   4   7  182.38    5.80
  -1   4  -7  183.78    5.60
   1   4   7  192.28    6.20
  -2  -4  -7    1.10    1.50
  -2  -4  -7    0.90    2.20
   2  -4   7    0.20    0.90
   2   4   7   -2.20    1.10
  -2   4  -7    0.60    1.20
   2   4   7   -0.70    1.20
  -2   4  -7   -0.10    1.10
  -3  -4  -7   32.20    3.60
  -3  -4  -7   29.70    2.60
   3  -4   7   35.40    2.10
  -3   4  -7   37.20    2.70
   3   4   7   38.00    3.30
  -3   4  -7   31.50    2.10
   3   4   7   34.10    2.70
   4  -4   7   40.90    2.40
  -4  -4  -7   42.40    3.50
   4   4   7   40.90    3.50
   4   4   7   41.50    3.00
  -4   4  -7   42.50    2.40
  -4   4  -7   39.40    2.90
  -5  -4  -7   20.50    3.00
   5  -4   7   24.50    2.30
   5   4   7   19.80    2.60
   5   4   7   22.30    2.60
  -5   4  -7   20.30    2.80
  -6  -4  -7   95.39    5.00
   6  -4   7  105.49    4.50
  -6   4  -7  112.89    5.00
   6   4   7  108.99    5.30
   6   4   7  103.39    4.90
   7  -4   7    6.70    1.90
  -7  -4  -7    7.40    2.40
  -7   4  -7    5.80    2.10
   7   4   7    6.10    2.00
   7   4   7    5.30    2.60
   8  -4   7   47.30    3.60
  -8  -4  -7   40.10    4.10
  -8   4  -7   47.20    4.10
   8   4   7   45.40    4.00
   8   4   7   53.89    4.00
   9  -4   7   39.30    3.70
  -9  -4  -7   39.00    4.70
   9   4   7   39.80    4.30
  -9   4  -7   43.10    4.50
   9   4   7   44.70    4.50
 -10  -4  -7   56.69    5.60
  10  -4   7   57.79    4.70
 -10   4  -7   55.39    4.90
  10   4   7   59.39    4.70
  10   4   7   54.29    5.10
 -11  -4  -7    1.10    2.60
  11  -4   7    1.50    2.60
  11   4   7    0.70    2.80
 -11   4  -7    4.70    2.50
  11   4   7    1.30    3.10
 -12  -4  -7   13.30    4.00
  12  -4   7    5.60    3.00
 -12   4  -7    5.00    3.50
  12   4   7    4.50    3.40
  12   4   7    9.00    2.80
 -13   4  -7   -1.90    3.20
  13  -5  -7   55.49    5.80
  13   5  -7   54.09    5.90
  13   5  -7   60.49    5.50
  12  -5  -7   31.40    4.60
  12   5  -7   33.30    4.20
  12   5  -7   26.20    4.00
  11  -5  -7    8.70    3.40
  11   5  -7   11.60    3.00
  11   5  -7   13.10    3.50
  10  -5  -7   10.50    3.20
  10   5  -7   15.40    2.90
  10   5  -7    8.10    2.60
   9  -5  -7   10.10    2.50
   9   5  -7    7.00    2.90
   9   5  -7   10.00    2.50
   8  -5  -7    4.70    2.70
   8   5  -7    2.60    1.90
   8   5  -7    7.50    2.30
  -7  -5   7   12.30    2.30
   7  -5  -7   10.60    2.10
   7  -5  -7   13.10    2.90
   7   5  -7   14.50    3.00
   7   5  -7   12.80    2.00
   7   5  -7   17.00    2.30
  -6  -5   7   -0.50    1.60
   6  -5  -7   -0.40    2.10
   6  -5  -7    1.70    1.70
   6   5  -7    1.00    1.60
   6   5  -7    0.30    1.60
   6   5  -7    0.10    1.40
   5  -5  -7   41.80    3.20
   5  -5  -7   42.10    3.20
   5   5  -7   39.70    3.50
   5   5  -7   35.70    2.40
   5   5  -7   44.10    2.80
   4  -5  -7   35.20    3.40
   4  -5  -7   42.60    3.20
   4   5  -7   33.80    2.60
   4   5  -7   39.70    3.30
   4   5  -7   36.80    2.30
  -4   5   7   32.50    3.10
   3  -5  -7   54.69    3.60
   3  -5  -7   50.69    3.80
  -3   5   7   56.59    3.00
   3   5  -7   46.80    2.20
  -3   5   7   50.29    2.10
   3   5  -7   49.20    3.00
   3   5  -7   50.29    2.70
  -3   5   7   51.69    3.50
   2  -5  -7    8.10    1.80
   2  -5  -7   10.60    1.50
   2  -5  -7   13.60    2.50
   2   5  -7    9.40    1.10
  -2   5   7    9.40    1.30
  -2   5   7   11.70    1.80
   2   5  -7    8.70    1.60
   2   5  -7   11.50    1.90
  -2   5   7    9.70    2.20
   1  -5  -7    1.30    1.10
   1  -5  -7    2.50    1.50
   1  -5  -7    1.50    1.50
  -1   5   7    0.70    1.10
   1   5  -7   -0.40    1.00
   1   5  -7    0.60    0.70
  -1   5   7   -1.60    1.10
  -1   5   7    1.00    1.30
   1   5  -7    1.10    1.10
   0  -5  -7   33.40    2.90
   0  -5  -7   36.50    2.60
   0  -5  -7   39.00    3.60
   0   5   7   42.20    2.80
   0   5   7   36.10    3.10
   0   5  -7   33.10    1.90
   0   5  -7   39.30    2.50
   0   5  -7   39.80    2.90
   0   5   7   36.40    2.30
  -1  -5  -7  217.38    6.50
  -1  -5  -7  217.08    7.60
   1   5   7  219.58    6.70
   1   5   7  218.78    7.00
  -1   5  -7  221.88    6.00
  -1   5  -7  220.18    6.50
   1   5   7  222.68    6.10
  -2  -5  -7   37.80    3.50
  -2  -5  -7   41.40    3.20
   2   5   7   39.80    2.90
   2   5   7   40.60    2.80
  -2   5  -7   39.70    2.80
   2   5   7   38.20    3.20
  -2   5  -7   40.60    2.30
  -3  -5  -7    1.30    2.00
  -3  -5  -7    1.90    1.80
   3   5   7    1.20    1.40
   3   5   7    1.20    1.50
  -3   5  -7    1.30    1.40
  -4  -5  -7  176.88    6.40
   4   5   7  174.68    6.40
  -4   5  -7  179.38    6.20
   4   5   7  183.48    6.50
  -5  -5  -7  267.57    8.40
   5   5   7  236.68    7.90
   5   5   7  231.28    7.90
  -5   5  -7  242.48    7.80
  -6  -5  -7    8.30    2.90
  -6   5  -7    6.50    2.00
   6   5   7    8.80    2.10
   6   5   7    6.00    2.10
  -7  -5  -7   97.09    5.30
  -7   5  -7   95.89    5.00
   7   5   7   95.39    5.40
   7   5   7   82.39    4.80
  -8  -5  -7    1.40    3.00
  -8   5  -7    3.10    2.80
   8   5   7    7.80    2.90
   8   5   7    6.80    2.80
  -9  -5  -7   66.39    5.90
  -9   5  -7   84.29    5.70
   9   5   7   87.99    5.90
   9   5   7   80.19    5.70
 -10  -5  -7   22.10    3.70
 -10   5  -7   22.20    3.90
  10   5   7   20.80    3.40
  10   5   7   12.30    3.50
 -11  -5  -7   13.80    4.20
  11   5   7    5.00    2.50
 -11   5  -7    2.30    3.20
  11   5   7   11.70    3.60
 -12  -5  -7   10.00    4.20
 -12   5  -7    8.20    3.60
  12   5   7   14.50    4.00
  12   5   7   14.70    3.80
  13  -6  -7    3.20    2.70
  13   6  -7    1.10    3.80
  12  -6  -7   -1.10    3.10
  12   6  -7   -1.50    2.10
  11  -6  -7    2.80    2.40
  11   6  -7    0.30    3.00
  10  -6  -7   12.70    2.90
  10   6  -7   11.60    3.50
   9  -6  -7   10.80    3.10
   9   6  -7   11.10    2.70
  -8  -6   7    6.20    2.40
   8  -6  -7    8.20    2.30
   8   6  -7    5.80    2.80
   7  -6  -7   41.10    3.90
  -7  -6   7   39.80    3.60
   7   6  -7   41.80    3.20
   7   6  -7   44.90    4.20
   6  -6  -7   32.00    3.00
   6  -6  -7   31.00    3.50
  -6  -6   7   33.30    3.20
   6   6  -7   32.40    2.90
   6   6  -7   31.80    3.30
   5  -6  -7   15.20    2.50
   5  -6  -7   16.70    2.30
   5   6  -7   19.10    2.10
   5   6  -7   16.60    2.80
   4  -6  -7    3.30    2.20
   4  -6  -7    4.30    1.90
  -4   6   7    4.80    2.10
   4   6  -7    5.30    1.40
   4   6  -7    6.40    2.20
   3  -6  -7   -2.60    1.30
   3  -6  -7    0.00    1.30
   3   6  -7   -0.20    1.50
  -3   6   7   -1.00    1.50
   3   6  -7   -1.00    1.20
  -3   6   7    1.20    1.00
  -3   6   7    0.60    1.80
   2  -6  -7   22.80    2.00
   2  -6  -7   24.50    2.70
   2  -6  -7   25.70    2.80
  -2   6   7   24.10    2.70
   2   6  -7   25.00    2.30
  -2   6   7   25.10    2.00
  -2   6   7   26.60    2.70
   2   6  -7   25.50    2.50
   1  -6  -7   11.50    2.50
   1  -6  -7   15.80    1.90
   1  -6  -7   11.30    2.10
  -1   6   7   15.70    1.70
  -1   6   7   16.70    2.10
   1   6  -7   20.00    2.20
  -1   6   7   11.90    2.30
   1   6  -7   16.10    2.00
   0  -6  -7   15.10    2.80
   0  -6  -7   22.40    3.00
   0  -6  -7   20.20    2.30
   0   6   7   18.70    2.00
   0   6  -7   20.80    2.60
   0   6   7   19.70    2.60
   0   6  -7   22.10    2.10
   0   6   7   19.40    2.60
  -1  -6  -7  115.09    4.60
  -1  -6  -7  105.69    5.00
   1   6   7  102.39    4.10
  -1   6  -7  104.39    3.80
   1   6   7   94.99    4.30
   1   6   7  113.29    4.60
  -1   6  -7  106.09    4.70
  -2  -6  -7   10.10    2.30
  -2  -6  -7   13.40    3.00
  -2   6  -7    8.30    1.80
   2   6   7    9.80    2.30
   2   6   7   15.30    2.20
   2   6   7    9.80    2.40
  -3  -6  -7   16.90    2.40
   3   6   7   19.10    3.00
   3   6   7   10.60    1.80
  -3   6  -7   16.00    2.30
   3   6   7   13.20    2.50
  -4  -6  -7   67.99    4.10
   4   6   7   66.89    4.00
  -4   6  -7   64.19    3.80
   4   6   7   71.49    3.90
  -5  -6  -7   23.40    3.50
  -5   6  -7   33.00    3.60
   5   6   7   30.20    3.60
   5   6   7   30.00    3.10
  -6  -6  -7    3.40    2.10
   6   6   7    0.30    1.70
  -6   6  -7   -3.10    2.20
   6   6   7    0.40    1.60
  -7  -6  -7  120.19    6.50
   7   6   7  120.59    5.90
   7   6   7  114.09    5.60
  -7   6  -7  125.69    5.80
  -8  -6  -7    0.30    2.90
  -8   6  -7   -0.30    1.90
   8   6   7    0.50    2.70
   8   6   7   -0.90    1.80
  -9  -6  -7   25.60    3.90
  -9   6  -7   26.30    3.60
   9   6   7   19.50    3.20
   9   6   7   26.90    4.20
 -10  -6  -7    4.80    3.70
  10   6   7   -2.90    2.80
 -10   6  -7    1.70    3.10
  10   6   7   -1.90    2.80
 -11  -6  -7    4.40    2.90
  11   6   7    6.30    3.50
 -11   6  -7    6.70    3.50
  11   6   7    4.20    2.60
 -12   6  -7   12.50    3.80
  12   6   7   16.20    3.90
  12   6   7   12.70    3.80
  12  -7  -7    5.00    2.70
  12   7  -7    8.40    3.00
  11  -7  -7    3.00    2.40
  11   7  -7    2.20    2.40
  10  -7  -7   14.30    2.90
  10   7  -7   21.00    3.50
   9  -7  -7    0.50    2.80
   9   7  -7    1.00    3.00
  -8  -7   7    9.20    2.70
   8  -7  -7   12.30    2.60
   8   7  -7   14.10    3.30
   7  -7  -7   11.60    2.90
  -7  -7   7   14.70    2.90
   7   7  -7   15.40    2.70
   7   7  -7   14.90    2.20
  -6  -7   7   42.60    3.80
   6  -7  -7   45.60    4.20
   6   7  -7   46.10    3.50
   6   7  -7   50.79    3.80
   5  -7  -7   25.20    3.30
   5   7  -7   26.20    3.00
   5   7  -7   24.70    2.50
   4  -7  -7   16.70    2.50
   4  -7  -7   20.20    2.70
   4   7  -7   19.40    2.50
  -4   7   7   17.40    2.70
   4   7  -7   17.20    2.50
   3  -7  -7   14.70    2.40
   3  -7  -7   13.80    2.60
   3   7  -7   16.70    2.20
  -3   7   7    9.50    2.00
   3   7  -7   17.10    2.50
  -3   7   7   13.20    2.30
   2  -7  -7   -0.90    1.30
   2  -7  -7   -3.70    2.00
   2  -7  -7    0.40    1.30
  -2   7   7    1.90    1.20
  -2   7   7    1.40    1.70
   2   7  -7   -0.40    1.10
   2   7  -7   -0.70    1.30
  -2   7   7   -1.50    1.80
   1  -7  -7    3.30    1.60
   1  -7  -7   -0.10    2.00
   1  -7  -7    4.00    2.20
  -1   7   7    0.00    1.80
   1   7  -7    1.20    1.40
  -1   7   7    3.30    1.90
  -1   7   7    1.10    1.40
   1   7  -7    4.00    1.50
   0  -7  -7   37.10    3.30
   0  -7  -7   30.50    3.20
   0  -7  -7   34.20    2.90
   0   7  -7   36.60    2.50
   0   7   7   35.90    2.70
   0   7   7   43.10    3.00
   0   7  -7   36.40    3.00
   0   7   7   29.30    3.00
  -1  -7  -7    7.30    2.80
  -1  -7  -7    4.60    1.90
   1   7   7    6.40    1.90
   1   7   7    7.10    2.30
   1   7   7    5.30    2.00
  -1   7  -7    5.30    1.70
  -2  -7  -7  107.99    5.00
  -2  -7  -7  105.39    5.30
   2   7   7   98.89    4.50
  -2   7  -7  101.29    5.00
   2   7   7  104.99    4.60
   2   7   7  100.99    4.80
  -3  -7  -7   -1.90    2.10
  -3   7  -7    1.70    2.20
   3   7   7    1.00    1.90
   3   7   7    1.60    1.60
   3   7   7    1.80    2.20
  -4  -7  -7   38.10    3.50
   4   7   7   38.90    3.20
  -4   7  -7   36.00    3.40
   4   7   7   35.30    3.50
   4   7   7   35.10    3.60
  -5  -7  -7  107.79    5.90
   5   7   7   92.39    5.20
   5   7   7  102.59    5.70
  -5   7  -7  100.59    5.50
  -6  -7  -7    2.70    2.90
   6   7   7    2.80    2.00
  -6   7  -7    0.70    2.60
   6   7   7    1.80    2.50
  -7  -7  -7  199.48    7.90
   7   7   7  194.18    7.80
  -7   7  -7  187.08    7.80
   7   7   7  170.28    7.40
  -8  -7  -7   48.10    5.20
  -8   7  -7   51.69    4.90
   8   7   7   52.19    4.80
   8   7   7   48.10    4.70
  -9  -7  -7   22.40    3.80
   9   7   7   17.60    3.70
   9   7   7   19.60    4.00
  -9   7  -7   18.10    3.80
 -10  -7  -7   42.90    5.50
  10   7   7   48.80    5.30
 -10   7  -7   40.40    4.40
  10   7   7   41.50    4.50
 -11  -7  -7    7.60    4.20
  11   7   7    5.20    3.50
  11   7   7    3.50    3.30
 -11   7  -7    1.00    2.40
  12  -8  -7   43.20    5.00
  11  -8  -7   15.00    3.20
  11   8  -7   12.80    3.90
  10  -8  -7    5.80    2.40
  10   8  -7    3.90    2.60
   9  -8  -7   22.30    3.80
   9   8  -7   23.50    3.50
  -8  -8   7   14.80    3.30
   8  -8  -7   15.90    2.80
   8   8  -7    9.70    2.60
   8   8  -7   13.00    2.90
  -7  -8   7    8.40    2.90
   7  -8  -7   11.50    2.90
   7   8  -7    7.80    2.40
   7   8  -7   12.90    2.70
  -6  -8   7    8.60    2.70
   6  -8  -7    9.00    2.80
   6   8  -7    8.70    2.50
   6   8  -7    9.10    2.40
   5  -8  -7    3.60    2.50
   5   8  -7    4.80    1.70
   5   8  -7    6.10    2.50
   4  -8  -7    3.00    2.20
  -4   8   7    4.70    2.30
   4   8  -7    3.10    2.20
   4   8  -7    3.40    2.10
   3  -8  -7  167.58    6.30
   3  -8  -7  161.78    6.50
  -3   8   7  153.88    5.80
  -3   8   7  160.38    6.20
   3   8  -7  147.59    5.80
   3   8  -7  163.08    6.20
   2  -8  -7  104.89    5.10
   2  -8  -7   84.19    4.90
   2   8  -7  101.09    4.50
  -2   8   7   95.69    4.60
  -2   8   7   95.19    4.80
   2   8  -7   96.79    4.90
   1  -8  -7    4.70    1.90
   1  -8  -7    4.70    1.90
   1  -8  -7    3.70    2.40
  -1   8   7    3.20    1.60
  -1   8   7    3.50    2.00
   1   8  -7    0.10    2.00
  -1   8   7    1.60    2.00
   1   8  -7    4.70    1.60
   0  -8  -7  152.28    5.80
   0  -8  -7  146.39    6.20
   0  -8  -7  154.58    6.10
   0   8   7  157.98    5.70
   0   8  -7  167.38    6.30
   0   8   7  147.79    5.40
   0   8   7  153.98    5.80
  -1  -8  -7   80.99    5.30
  -1  -8  -7   71.99    4.30
   1   8   7   74.79    4.50
  -1   8  -7   66.69    4.00
   1   8   7   68.79    3.90
   1   8   7   67.89    4.20
  -2  -8  -7    7.30    2.50
  -2  -8  -7    6.80    2.40
   2   8   7    9.40    2.20
  -2   8  -7    6.40    2.00
   2   8   7    6.30    2.30
   2   8   7    5.00    2.00
  -3  -8  -7  101.89    5.00
  -3   8  -7  102.79    5.00
   3   8   7  102.29    5.50
   3   8   7   86.19    4.40
   3   8   7  101.09    5.10
  -4  -8  -7   57.79    4.20
   4   8   7   49.70    4.10
   4   8   7   47.60    4.10
   4   8   7   51.09    3.90
  -4   8  -7   45.80    4.20
  -5  -8  -7  273.87    9.70
   5   8   7  257.77    8.60
   5   8   7  264.27    8.80
  -5   8  -7  259.47    8.80
   5   8   7  274.87    9.20
  -6  -8  -7  235.58    8.80
  -6   8  -7  238.28    8.40
   6   8   7  222.48    8.50
   6   8   7  234.58    8.60
  -7  -8  -7   38.40    4.80
   7   8   7   43.20    4.10
  -7   8  -7   34.40    3.80
   7   8   7   41.80    4.70
  -8  -8  -7   22.10    3.80
   8   8   7   30.90    4.10
  -8   8  -7   18.10    3.20
   8   8   7   32.20    4.10
  -9  -8  -7    5.10    3.80
   9   8   7    4.20    2.60
  -9   8  -7    4.00    3.20
   9   8   7    7.40    2.60
 -10  -8  -7   13.40    3.50
  10   8   7   12.90    3.30
  10   8   7   12.20    3.60
 -10   8  -7   13.10    3.80
  11   8   7   17.40    4.10
 -11   8  -7   11.00    3.70
  11  -9  -7    4.80    3.30
  11   9  -7    4.70    3.60
  10  -9  -7   28.50    4.10
  10   9  -7   32.50    4.80
  -9  -9   7   -0.70    2.90
   9  -9  -7   -1.10    2.60
   9   9  -7   -1.70    2.90
   8  -9  -7   -2.00    2.50
  -8  -9   7    0.10    2.10
   8   9  -7   -0.20    2.30
   8   9  -7    3.70    2.40
  -7  -9   7   21.30    3.60
   7  -9  -7   19.20    3.40
   7   9  -7   15.50    2.90
   7   9  -7   13.60    2.80
  -6  -9   7   -1.10    2.40
   6  -9  -7    2.60    1.90
   6   9  -7    3.00    2.40
   6   9  -7    0.40    2.40
   5  -9  -7    9.80    2.30
   5   9  -7   17.30    3.10
   5   9  -7   14.40    2.80
   4  -9  -7    2.50    2.30
  -4   9   7    4.50    2.40
   4   9  -7    3.90    2.40
   4   9  -7    5.80    1.90
   3  -9  -7    8.10    2.60
   3   9  -7    9.90    2.60
  -3   9   7    9.30    2.30
   3   9  -7   10.10    2.40
  -3   9   7    8.40    2.40
   2  -9  -7    3.20    2.20
   2  -9  -7    0.20    2.10
  -2   9   7    2.30    2.10
   2   9  -7    5.10    2.40
   2   9  -7    4.30    1.90
  -2   9   7    4.10    1.60
  -2   9   7    4.80    1.90
   1  -9  -7   41.80    3.50
   1  -9  -7   42.70    4.00
   1  -9  -7   38.70    3.80
  -1   9   7   38.70    3.60
  -1   9   7   43.20    3.20
  -1   9   7   53.29    3.90
   1   9  -7   44.20    3.70
   0  -9  -7   42.80    4.00
   0  -9  -7   43.50    4.00
   0  -9  -7   45.50    3.80
   0   9   7   47.50    3.40
   0   9  -7   41.70    3.90
   0   9   7   49.00    3.80
   0   9   7   49.70    3.50
  -1  -9  -7    1.50    2.70
  -1  -9  -7    0.70    1.70
  -1  -9  -7    6.70    2.40
   1   9   7    5.10    2.10
   1   9   7    7.20    2.00
  -1   9  -7    5.80    2.10
   1   9   7    1.80    2.30
  -2  -9  -7    1.60    2.40
  -2  -9  -7    1.00    2.90
   2   9   7    3.70    1.70
   2   9   7    5.60    2.20
   2   9   7    2.50    2.40
  -2   9  -7    2.30    2.00
  -3  -9  -7   20.40    3.10
   3   9   7   20.10    3.00
   3   9   7   29.70    3.70
   3   9   7   18.80    2.60
  -3   9  -7   13.70    2.60
  -4  -9  -7    1.70    2.00
   4   9   7    2.10    2.50
   4   9   7    0.00    2.50
   4   9   7    3.50    1.90
  -4   9  -7    4.90    2.80
  -5  -9  -7   13.80    3.60
  -5   9  -7   10.80    3.20
   5   9   7    9.20    3.00
   5   9   7   14.30    3.10
   5   9   7    7.10    2.40
  -6  -9  -7   87.29    5.60
  -6   9  -7   96.89    5.50
   6   9   7   92.49    5.20
   6   9   7   97.29    6.20
   6   9   7   86.79    5.00
  -7  -9  -7   60.29    5.90
   7   9   7   56.69    5.10
   7   9   7   61.39    5.10
  -7   9  -7   64.29    4.80
  -8  -9  -7    1.80    2.70
   8   9   7    3.90    3.30
   8   9   7    7.90    3.10
  -8   9  -7    8.10    3.40
  -9  -9  -7    5.10    3.80
   9   9   7    6.00    2.70
  -9   9  -7   -5.20    1.80
   9   9   7    4.30    3.10
 -10  -9  -7   -2.20    4.10
  10   9   7   -0.40    2.40
 -10   9  -7    4.20    3.50
  10   9   7    4.10    3.20
  10  10  -7    5.40    2.90
  -9 -10   7    0.50    3.10
   9  10  -7    0.00    3.10
  -8 -10   7    2.20    3.20
   8  10  -7    3.40    3.10
   8  10  -7   -0.10    1.80
  -7 -10   7    2.50    2.40
   7 -10  -7    8.70    3.40
   7  10  -7    5.80    2.70
   7  10  -7    5.20    2.40
  -6 -10   7    9.30    3.30
   6 -10  -7   10.70    2.90
   6  10  -7   13.10    3.20
   6  10  -7    8.40    3.00
   5 -10  -7    9.90    2.80
   5  10  -7    9.90    2.40
   5  10  -7    8.00    2.70
   4 -10  -7    3.40    2.40
   4  10  -7    6.90    2.20
  -4  10   7    6.50    2.60
   4  10  -7    4.80    2.40
   3 -10  -7   32.30    3.70
   3  10  -7   37.40    4.00
   3  10  -7   37.90    3.50
  -3  10   7   35.30    3.60
   2 -10  -7    0.50    2.20
  -2  10   7   -2.50    1.90
   2  10  -7   -0.20    1.80
   1 -10  -7   28.60    3.30
   1 -10  -7   28.40    3.20
   1 -10  -7   29.70    3.20
  -1  10   7   26.70    3.10
  -1  10   7   27.80    3.00
   1  10  -7   25.20    3.60
  -1  10   7   29.10    3.30
   0 -10  -7   14.20    2.90
   0 -10  -7   14.30    3.10
   0 -10  -7   12.60    2.90
   0  10   7   16.40    2.80
   0  10   7   17.40    2.70
   0  10   7   14.10    2.70
   0  10  -7   13.60    2.60
  -1 -10  -7   29.70    3.60
  -1 -10  -7   34.50    3.80
  -1 -10  -7   35.80    4.20
  -1  10  -7   38.50    3.80
   1  10   7   34.20    3.70
   1  10   7   28.40    3.00
   1  10   7   37.30    3.70
  -2 -10  -7   10.40    3.00
  -2 -10  -7    3.40    3.10
   2  10   7    5.50    2.50
  -2  10  -7    6.90    2.30
   2  10   7    9.70    2.80
   2  10   7    6.20    2.50
  -3 -10  -7   13.10    3.00
  -3 -10  -7   12.90    3.40
   3  10   7   13.20    2.60
   3  10   7   12.80    2.40
  -3  10  -7   11.70    3.10
   3  10   7   16.10    3.00
  -4 -10  -7    3.80    2.30
   4  10   7   -1.80    2.30
  -4  10  -7   -0.40    2.80
   4  10   7    1.80    2.10
   4  10   7   -2.10    1.60
  -5 -10  -7   -0.50    3.10
   5  10   7    0.00    2.80
   5  10   7   -0.70    2.30
  -5  10  -7    0.40    2.90
   5  10   7   -2.90    2.50
  -6 -10  -7   21.70    4.30
   6  10   7   27.80    3.80
   6  10   7   25.00    3.50
   6  10   7   25.30    3.70
  -6  10  -7   29.60    4.30
  -7 -10  -7    2.40    2.80
   7  10   7    9.30    3.60
  -7  10  -7    6.40    3.30
   7  10   7    6.70    3.00
  -8 -10  -7   78.19    7.00
   8  10   7   83.29    5.90
   8  10   7   78.19    5.80
  -8  10  -7   65.99    5.90
  -9 -10  -7    0.90    2.80
   9  10   7    7.60    3.90
  -9  10  -7   -1.00    2.40
   9  10   7   -0.40    2.80
  -9 -11   7    8.20    3.60
   9  11  -7    1.60    2.50
  -8 -11   7   55.99    5.60
   8  11  -7   69.79    5.40
   8  11  -7   79.29    6.20
  -7 -11   7   22.40    4.20
   7  11  -7   29.70    4.00
   7  11  -7   21.30    3.40
  -6 -11   7   12.10    3.60
   6  11  -7   -0.90    2.50
   6  11  -7    1.80    2.80
   5  11  -7    3.10    2.70
   5  11  -7    1.10    2.30
   4  11  -7   10.00    3.00
   3  11  -7   17.60    3.40
   2  11  -7    1.70    2.00
  -1  11   7   15.40    2.80
   1  11  -7   13.40    3.20
   0 -11  -7    1.30    2.40
   0  11  -7    3.50    2.70
   0  11   7    7.80    2.60
   0  11   7    4.00    2.30
  -1 -11  -7   26.30    4.00
  -1 -11  -7   32.70    4.00
   1  11   7   28.60    3.50
   1  11   7   30.30    3.70
  -1  11  -7   28.70    4.00
  -2 -11  -7  200.88    8.20
  -2 -11  -7  183.18    8.50
   2  11   7  161.88    7.90
   2  11   7  197.38    7.50
  -2  11  -7  181.98    7.60
   2  11   7  185.48    7.70
  -3 -11  -7   66.19    4.90
  -3 -11  -7   61.39    6.00
   3  11   7   53.79    4.50
  -3  11  -7   57.79    5.00
   3  11   7   56.49    5.00
   3  11   7   61.19    4.20
  -4 -11  -7   31.40    4.50
   4  11   7   34.50    4.20
   4  11   7   19.30    3.40
   4  11   7   25.10    4.00
  -4  11  -7   30.60    3.80
  -5 -11  -7   28.80    4.20
   5  11   7   25.60    4.20
   5  11   7   28.40    3.90
   5  11   7   30.10    3.70
  -5  11  -7   28.80    4.40
  -6 -11  -7    1.40    3.50
  -6  11  -7    1.50    3.10
   6  11   7    5.70    3.30
   6  11   7    6.90    3.10
   6  11   7    0.10    3.00
  -7 -11  -7   59.19    6.30
   7  11   7   68.59    5.20
   7  11   7   68.99    5.50
  -7  11  -7   68.89    6.10
  -8 -11  -7    2.10    3.80
   8  11   7    0.20    3.40
  -8  11  -7   -3.00    2.10
  -8 -12   7   -1.60    3.50
   8  12  -7   -2.60    2.00
   8  12  -7   -4.30    1.70
  -7 -12   7    4.40    3.80
   7  12  -7   -0.90    2.90
   7  12  -7    1.20    3.00
  -6 -12   7   -2.50    2.30
   6  12  -7    0.20    2.10
   6  12  -7    4.10    2.90
   5  12  -7   -1.60    2.70
   4  12  -7    2.50    2.90
   3  12  -7   16.50    3.50
   2  12  -7   13.70    3.00
   1  12  -7   -1.90    1.90
   0 -12  -7   24.70    3.80
   0  12  -7   29.30    3.70
   0  12   7   25.00    3.40
  -1 -12  -7   13.30    3.40
   1  12   7    7.30    2.80
   1  12   7    9.40    2.90
  -1  12  -7   11.10    2.90
  -2 -12  -7    5.20    2.60
  -2 -12  -7   17.50    3.80
   2  12   7    8.10    2.50
   2  12   7    4.40    2.20
  -2  12  -7    5.50    3.20
  -3 -12  -7   42.50    5.40
  -3 -12  -7   37.60    5.00
  -3  12  -7   56.89    5.10
   3  12   7   42.60    4.70
   3  12   7   45.30    4.50
  -4 -12  -7    0.10    3.30
  -4 -12  -7    0.30    2.60
   4  12   7    3.10    2.30
   4  12   7   -2.80    2.40
  -4  12  -7   -0.30    3.00
  -5 -12  -7   31.80    4.90
  -5  12  -7   27.40    4.50
   5  12   7   29.40    4.20
   5  12   7   29.50    4.10
  -6 -12  -7   26.80    5.00
  -6  12  -7   21.70    4.30
   6  12   7   23.10    4.20
   6  12   7   21.60    4.20
  -7 -12  -7    4.30    3.10
  -7  12  -7   -3.10    3.10
   7  12   7    4.20    3.40
   7  12   7    3.20    3.40
  -7 -13   7    5.50    3.60
   7  13  -7    5.40    2.50
  -6 -13   7   -4.20    3.30
   6  13  -7    1.00    3.00
  -5 -13   7   16.60    4.30
   5  13  -7   16.90    3.90
   4  13  -7   -0.60    2.90
   3  13  -7   25.80    4.20
   2  13  -7    5.70    2.60
   1  13  -7    1.70    3.00
   0  13  -7    6.90    3.40
   0  13   7    5.80    2.80
  -1 -13  -7    6.70    3.30
  -1  13  -7    5.40    3.30
   1  13   7    8.60    3.10
  -2 -13  -7    0.90    3.20
   2  13   7    1.50    2.60
  -2  13  -7    2.70    2.40
  -3 -13  -7    9.80    4.00
  -3 -13  -7    8.20    3.10
   3  13   7   19.50    3.90
  -3  13  -7   10.50    3.70
   3  13   7   12.10    3.30
  -4 -13  -7    1.40    3.40
  -4 -13  -7    3.70    2.90
   4  13   7    6.50    2.70
  -4  13  -7    7.00    3.70
   4  13   7    2.40    2.30
  -5 -13  -7    8.30    4.00
  -5  13  -7    8.70    3.90
   5  13   7    8.90    2.90
   5  13   7   14.50    3.90
   6  13   7    1.90    2.50
   3  14  -7   16.50    3.40
   2  14  -7   -1.20    3.10
   1  14  -7    3.10    3.50
   0  14  -7    2.60    2.40
  -1  14  -7   29.20    4.70
   1  14   7   23.10    3.40
  -2 -14  -7   15.70    4.20
   2  14   7    9.60    3.40
  -2  14  -7    8.10    3.70
  -3 -14  -7   55.29    5.90
  14   0  -8   30.90    4.80
  13   0  -8   81.99    6.60
  13   0  -8   80.99    5.30
  12   0  -8    9.00    2.80
  12   0  -8   -0.60    1.90
  11   0  -8  121.79    6.40
  11   0  -8  124.99    6.20
  10   0  -8  164.18    7.10
  10   0  -8  164.98    6.90
   9   0  -8   84.29    5.30
   9   0  -8   91.79    4.80
   8   0  -8    2.70    2.40
   8   0  -8    7.80    2.50
   7   0  -8  225.48    7.50
   7   0  -8  233.28    7.70
   6   0  -8 1159.18   25.30
   6   0  -8 1133.89   25.10
   5   0  -8   37.90    2.90
   5   0  -8   38.80    2.80
   4   0  -8  560.94   13.60
   4   0  -8  547.55   13.30
  -3   0   8  114.79    4.20
   3   0  -8  121.89    2.90
   3   0  -8  115.49    4.60
   3   0  -8  112.39    4.40
   2   0  -8    7.20    2.20
   2   0  -8    7.20    1.60
   2   0  -8    9.00    1.00
  -2   0   8    8.10    1.50
  -1   0   8  517.15   11.90
   1   0  -8  518.65   12.30
   1   0  -8  513.15   12.40
   1   0  -8  497.15   11.00
   0   0   8  978.10   21.10
   0   0  -8  958.70   21.50
   0   0   8 1008.70   20.90
   0   0  -8  978.50   20.30
   1   0   8 1186.78   25.00
  -1   0  -8 1220.98   25.80
  -1   0  -8 1172.18   24.70
   1   0   8 1190.68   25.20
   2   0   8 1470.65   30.10
  -2   0  -8 1459.85   30.70
   2   0   8 1429.16   30.20
  -2   0  -8 1452.35   30.00
   3   0   8  875.21   19.50
  -3   0  -8  899.51   20.00
   3   0   8  894.61   19.50
  -3   0  -8  871.61   19.50
   4   0   8  393.86   10.30
  -4   0  -8  404.26   10.90
  -4   0  -8  406.96   10.50
   4   0   8  406.56   10.30
   5   0   8  123.99    4.80
  -5   0  -8  124.69    5.50
   5   0   8  120.29    4.70
  -5   0  -8  115.39    4.90
   6   0   8   80.69    4.40
  -6   0  -8   73.89    4.20
   6   0   8   76.29    3.70
  -6   0  -8   74.49    4.20
   7   0   8   -0.60    1.70
  -7   0  -8    1.40    2.30
  -7   0  -8   -1.70    1.60
   7   0   8   -0.10    1.50
   8   0   8  124.99    5.40
  -8   0  -8  129.49    6.40
   8   0   8  116.19    5.50
  -8   0  -8  116.49    6.00
   9   0   8   23.10    3.60
  -9   0  -8   24.00    3.50
  10   0   8   41.30    4.40
 -10   0  -8   33.20    4.60
  11   0   8  202.08    8.40
 -11   0  -8  234.58    9.70
  12   0   8   96.89    6.00
 -12   0  -8   91.69    6.30
  13   0   8    3.80    4.90
 -13   0  -8   -0.70    3.10
  14  -1  -8    0.70    5.20
  14   1  -8   -0.70    3.30
  14   1  -8    3.10    3.20
  13  -1  -8   16.30    4.10
  13   1  -8   10.00    3.30
  13   1  -8    4.00    3.60
  12  -1  -8    1.50    2.60
  12  -1  -8    5.30    2.60
  12   1  -8    6.90    2.70
  12   1  -8   -2.30    2.70
  11  -1  -8    9.40    2.40
  11  -1  -8    3.60    2.40
  11   1  -8    4.00    2.30
  11   1  -8    9.10    3.00
  10  -1  -8  111.29    5.80
  10  -1  -8   99.39    6.00
  10   1  -8  107.79    5.90
  10   1  -8  110.59    6.00
   9  -1  -8    0.50    1.60
   9  -1  -8   -2.60    2.30
   9   1  -8   -2.00    2.30
   9   1  -8   -0.70    1.70
   8  -1  -8  293.97    8.80
   8  -1  -8  289.67    9.00
   8   1  -8  260.27    8.50
   8   1  -8  286.67    8.90
   7  -1  -8  198.68    6.70
   7  -1  -8  199.38    7.10
   7   1  -8  186.48    6.80
   7   1  -8  190.18    7.10
   6  -1  -8    1.70    1.50
   6  -1  -8    1.10    1.50
   6   1  -8    3.80    1.70
   6   1  -8    3.80    2.00
   5  -1  -8   83.89    4.10
   5  -1  -8   86.79    4.20
   5   1  -8   93.29    4.00
   5   1  -8  110.59    4.50
   4  -1  -8    8.70    1.90
   4  -1  -8    8.90    1.80
  -4   1   8    7.90    1.70
   4   1  -8    8.80    1.70
   4   1  -8    7.10    1.70
   3  -1  -8    1.00    1.90
   3  -1  -8    2.50    1.90
  -3  -1   8    1.80    1.40
   3   1  -8    0.90    1.60
   3   1  -8    0.20    1.30
   3   1  -8    1.60    0.80
  -3   1   8   -0.10    1.60
   2  -1  -8   43.90    2.90
   2  -1  -8   57.09    3.20
  -2  -1   8   46.30    2.70
   2  -1  -8   48.20    1.80
   2   1  -8   41.00    3.30
   2   1  -8   47.50    2.00
  -2   1   8   46.60    2.70
   2   1  -8   46.80    3.00
   1  -1  -8    1.90    0.90
   1  -1  -8    1.50    1.50
   1  -1  -8    1.30    1.40
  -1  -1   8    1.50    1.30
  -1   1   8   -0.80    1.00
   1   1  -8    0.50    1.50
   1   1  -8   -1.20    1.20
   1   1  -8    1.80    1.00
   0  -1  -8   99.99    4.30
   0  -1  -8  105.99    3.40
   0  -1   8   96.49    3.70
   0   1   8   99.49    4.00
   0   1  -8  105.59    4.50
   0   1  -8   99.69    3.80
   0   1   8   98.29    3.80
   0   1  -8   99.59    3.50
   1  -1   8  203.18    5.90
   1  -1   8  200.78    5.80
  -1  -1  -8  203.08    6.80
  -1  -1  -8  203.38    5.70
   1   1   8  192.58    6.00
  -1   1  -8  196.88    5.70
   1   1   8  200.98    6.30
  -1   1  -8  196.18    6.40
   2  -1   8  361.66    9.00
  -2  -1  -8  365.56   10.00
   2  -1   8  346.17    9.10
  -2  -1  -8  366.56    9.10
  -2   1  -8  363.36    9.10
  -2   1  -8  360.66    9.50
   2   1   8  362.76    9.30
   2   1   8  346.37    9.40
   3  -1   8  457.25   10.90
   3  -1   8  446.26   11.00
  -3  -1  -8  462.85   11.30
  -3  -1  -8  462.05   11.90
  -3   1  -8  463.75   11.40
   3   1   8  451.55   11.20
  -3   1  -8  453.15   11.20
   3   1   8  446.66   11.20
  -4  -1  -8   21.00    2.80
   4  -1   8   18.30    2.20
  -4  -1  -8   22.50    3.00
   4  -1   8   19.70    2.30
  -4   1  -8   18.70    2.30
  -4   1  -8   22.60    2.70
   4   1   8   19.60    2.30
   4   1   8   15.30    2.40
   5  -1   8   16.10    2.40
  -5  -1  -8   19.60    2.80
  -5  -1  -8   12.90    2.80
   5  -1   8   17.20    2.20
   5   1   8   12.90    2.30
   5   1   8   11.30    2.00
  -5   1  -8   12.50    2.20
  -5   1  -8   15.70    2.20
   6  -1   8    1.60    1.90
  -6  -1  -8    3.20    1.80
   6  -1   8   -1.30    1.50
  -6  -1  -8    0.80    1.70
   6   1   8   -0.10    1.50
  -6   1  -8   -0.70    1.80
  -6   1  -8    0.60    1.60
   6   1   8    1.40    1.80
   7  -1   8   34.10    3.40
   7  -1   8   35.30    3.00
  -7  -1  -8   26.60    3.60
  -7  -1  -8   35.50    3.60
   7   1   8   39.50    3.50
  -7   1  -8   40.40    3.70
  -7   1  -8   34.40    3.50
   7   1   8   35.80    3.30
  -8  -1  -8    1.90    2.10
   8  -1   8    3.60    2.40
   8   1   8    5.20    2.00
  -8   1  -8    4.50    2.20
   8   1   8    0.70    2.00
   9  -1   8    0.10    1.70
  -9  -1  -8    3.10    2.30
  -9   1  -8    0.60    2.80
   9   1   8    1.40    2.50
   9   1   8    0.70    1.60
 -10  -1  -8   55.59    5.50
  10  -1   8   41.90    4.40
  10   1   8   43.50    4.30
 -10   1  -8   44.20    4.50
 -11  -1  -8    8.80    3.80
  11  -1   8   11.00    3.40
  11   1   8   11.70    3.50
 -11   1  -8    7.70    3.60
  12  -1   8   83.39    6.30
 -12  -1  -8   78.89    6.70
 -12   1  -8   77.79    5.80
  12   1   8   70.99    6.10
  13  -1   8    1.40    3.30
 -13   1  -8    1.20    3.10
  14   2  -8   -4.90    2.70
  14   2  -8   -0.30    3.40
  13  -2  -8    3.70    2.70
  13   2  -8   -0.60    2.90
  13   2  -8   -1.70    2.20
  12  -2  -8   -1.10    2.20
  12   2  -8   -1.60    2.80
  12   2  -8    1.70    2.90
  11  -2  -8   68.19    4.90
  11  -2  -8   66.99    4.30
  11   2  -8   59.79    5.10
  11   2  -8   68.29    5.40
  10  -2  -8   10.60    2.70
  10  -2  -8   19.90    3.10
  10   2  -8   16.40    2.90
  10   2  -8   12.70    3.10
   9  -2  -8    6.50    2.50
   9  -2  -8   15.40    3.20
   9   2  -8   10.70    2.70
   9   2  -8    9.00    2.40
   8  -2  -8   74.29    4.50
   8  -2  -8   64.59    4.20
   8   2  -8   75.29    4.50
   8   2  -8   60.09    4.60
   7  -2  -8   46.00    3.70
   7  -2  -8   42.00    3.60
   7   2  -8   41.70    3.90
   7   2  -8   40.00    3.40
   6  -2  -8   23.40    2.90
   6  -2  -8   23.90    2.70
   6   2  -8   23.40    2.70
   6   2  -8   26.10    2.80
  -5  -2   8    4.30    1.10
   5  -2  -8    4.90    1.60
   5  -2  -8    5.20    2.20
   5   2  -8    2.40    2.10
   5   2  -8    6.00    1.80
   4  -2  -8    1.80    1.50
   4  -2  -8    0.50    1.40
   4   2  -8   -0.50    1.30
   4   2  -8    1.20    1.50
  -4   2   8    0.10    1.30
   4   2  -8    0.80    0.90
   3  -2  -8   33.10    2.90
   3  -2  -8   30.00    3.00
  -3  -2   8   32.70    2.10
   3   2  -8   28.60    2.40
  -3   2   8   30.60    2.80
   3   2  -8   27.00    1.80
   3   2  -8   33.00    2.60
   2  -2  -8   21.80    2.50
  -2  -2   8   19.30    1.90
   2  -2  -8   23.50    2.40
   2  -2  -8   18.30    1.20
  -2   2   8   19.10    2.10
   2   2  -8   19.50    1.70
   2   2  -8   21.70    2.30
   2   2  -8   20.50    2.10
   1  -2  -8    5.40    1.10
  -1  -2   8    5.50    1.30
   1  -2  -8    2.00    2.00
   1  -2  -8    7.60    2.20
   1   2  -8    4.80    1.90
   1   2  -8    5.80    1.50
   1   2  -8    7.50    1.30
  -1   2   8    5.50    1.90
  -1   2   8    3.60    1.80
   0  -2  -8    1.90    1.00
   0  -2   8    0.30    1.10
   0  -2  -8    2.70    1.60
   0   2   8    0.90    1.30
   0   2   8    0.50    1.20
   0   2  -8    2.10    1.40
   0   2  -8    3.00    1.40
   0   2  -8    3.70    1.30
  -1  -2  -8   15.50    2.70
   1  -2   8   13.60    1.70
  -1  -2  -8   14.80    1.80
   1   2   8   12.40    2.10
  -1   2  -8   16.60    2.00
   1   2   8   14.50    2.30
  -1   2  -8   13.00    2.10
  -2  -2  -8  210.88    7.20
  -2  -2  -8  205.98    6.10
   2  -2   8  208.18    5.90
   2   2   8  209.88    6.70
   2   2   8  206.08    6.30
  -2   2  -8  218.08    6.30
  -2   2  -8  203.98    6.30
   3  -2   8    2.20    1.30
   3  -2   8   -1.80    1.20
  -3  -2  -8   -1.70    1.10
  -3  -2  -8    0.10    1.60
  -3   2  -8    2.50    1.60
  -3   2  -8    1.90    1.70
   3   2   8   -1.30    1.70
   3   2   8    0.50    1.30
  -4  -2  -8   83.09    4.50
  -4  -2  -8   78.09    3.90
   4  -2   8   87.69    3.60
   4  -2   8   89.09    3.80
  -4   2  -8   90.59    4.10
  -4   2  -8   89.19    4.40
   4   2   8   82.49    4.00
   4   2   8   83.39    4.00
   5  -2   8   -0.30    1.40
   5  -2   8    0.70    1.20
  -5  -2  -8    2.10    2.10
  -5  -2  -8   -0.20    1.70
  -5   2  -8   -0.40    1.60
   5   2   8    0.60    1.80
   5   2   8   -0.40    1.90
  -5   2  -8   -1.70    1.90
  -6  -2  -8   51.69    4.00
  -6  -2  -8   51.29    3.70
   6  -2   8   53.49    3.60
  -6   2  -8   48.50    3.40
   6   2   8   53.69    3.50
   6   2   8   45.80    3.40
  -6   2  -8   56.39    3.70
   7  -2   8   18.00    2.40
  -7  -2  -8   16.00    2.70
  -7   2  -8   16.00    2.60
   7   2   8   18.30    3.10
   7   2   8   16.50    2.40
  -8  -2  -8    0.00    2.60
   8  -2   8   -0.60    1.50
   8   2   8    1.40    2.20
  -8   2  -8   -2.70    1.70
   8   2   8   -3.80    2.20
   9  -2   8   31.50    3.70
  -9  -2  -8   28.30    4.20
   9   2   8   25.00    3.10
   9   2   8   25.60    3.40
  -9   2  -8   28.70    3.60
 -10  -2  -8    5.20    3.50
  10  -2   8    7.40    2.80
 -10   2  -8   10.20    3.50
  10   2   8    7.00    3.10
  10   2   8    6.20    2.70
  11  -2   8   19.50    3.20
 -11  -2  -8   28.20    4.70
 -11   2  -8   17.70    4.10
  11   2   8   18.00    3.90
 -12  -2  -8    5.40    3.80
  12  -2   8    0.80    3.00
 -12   2  -8   -2.30    3.10
  12   2   8   -1.70    3.00
  13  -2   8    3.30    3.20
  14   3  -8   14.80    3.40
  14   3  -8   10.80    3.90
  13  -3  -8    0.50    3.30
  13   3  -8   -1.80    3.10
  13   3  -8    6.90    3.40
  12  -3  -8   72.19    6.00
  12   3  -8   65.19    5.80
  12   3  -8   69.09    5.60
  11  -3  -8   10.30    3.40
  11   3  -8   12.40    2.70
  11   3  -8   19.00    3.20
  10  -3  -8  187.88    7.50
  10   3  -8  169.88    7.30
  10   3  -8  180.98    7.40
   9  -3  -8  116.29    5.50
   9  -3  -8  113.29    6.10
   9   3  -8  115.89    5.70
   9   3  -8  115.79    5.60
   8  -3  -8  433.46   11.70
   8  -3  -8  420.26   12.00
   8   3  -8  421.96   12.10
   8   3  -8  441.36   11.70
   7  -3  -8  382.16   11.00
   7  -3  -8  369.86   10.40
   7   3  -8  354.76   10.50
   7   3  -8  377.16   10.10
   6  -3  -8   32.20    3.20
   6  -3  -8   35.30    3.60
   6   3  -8   30.40    3.00
   6   3  -8   37.60    3.00
   5  -3  -8  131.19    5.30
   5  -3  -8  125.39    5.00
   5   3  -8  130.59    4.00
   5   3  -8  125.59    5.20
   5   3  -8  133.09    4.70
   4  -3  -8    4.10    1.60
   4  -3  -8    2.90    1.60
   4   3  -8    3.50    1.50
  -4   3   8    4.10    1.60
   4   3  -8    1.30    1.00
   4   3  -8    4.90    2.10
   3  -3  -8  276.17    8.00
   3  -3  -8  261.67    8.00
   3   3  -8  261.17    6.80
   3   3  -8  265.57    7.10
   3   3  -8  281.67    7.80
  -3   3   8  272.17    7.70
  -2  -3   8  591.24   12.90
   2  -3  -8  594.84   14.20
   2  -3  -8  560.34   14.20
   2  -3  -8  586.14   12.20
   2   3  -8  603.64   13.00
  -2   3   8  575.34   13.80
   2   3  -8  590.44   13.90
  -2   3   8  575.44   13.80
   2   3  -8  603.04   13.10
   1  -3  -8   71.99    4.30
   1  -3  -8   73.09    2.80
   1  -3  -8   67.69    4.10
  -1  -3   8   75.09    2.90
  -1   3   8   66.59    3.70
   1   3  -8   72.19    3.10
   1   3  -8   74.29    3.10
  -1   3   8   83.49    3.70
   1   3  -8   80.99    3.90
   0  -3  -8   56.89    2.70
   0  -3  -8   60.39    3.60
   0  -3   8   61.89    2.60
   0   3  -8   63.49    3.40
   0   3  -8   62.69    3.10
   0   3  -8   60.29    2.80
   0   3   8   69.29    3.40
   0   3   8   53.79    3.10
  -1  -3  -8  119.19    4.20
  -1  -3  -8  112.19    4.90
   1  -3   8  117.19    3.70
   1   3   8  108.09    4.70
   1   3   8  108.99    4.40
  -1   3  -8  114.59    4.10
  -1   3  -8  106.89    4.10
  -2  -3  -8   -0.20    1.50
   2  -3   8    1.60    1.10
  -2  -3  -8    2.20    1.80
   2   3   8   -0.60    1.20
  -2   3  -8   -0.60    1.60
  -2   3  -8    0.60    1.40
   2   3   8   -0.40    1.80
  -3  -3  -8  147.69    5.60
   3  -3   8  153.78    4.80
  -3  -3  -8  158.18    6.50
  -3   3  -8  156.48    5.20
   3   3   8  164.98    5.80
   3   3   8  150.48    5.80
  -3   3  -8  155.38    5.60
   4  -3   8  125.09    4.40
  -4  -3  -8  119.39    5.90
   4  -3   8  126.39    4.20
  -4  -3  -8  115.59    4.90
  -4   3  -8  121.89    4.50
  -4   3  -8  121.89    4.90
   4   3   8  121.39    4.90
   4   3   8  107.89    4.80
   5  -3   8   45.80    3.00
  -5  -3  -8   55.19    4.10
  -5  -3  -8   43.50    3.40
   5   3   8   49.30    3.80
  -5   3  -8   43.00    3.20
   5   3   8   51.79    3.40
  -5   3  -8   50.49    3.00
  -6  -3  -8  197.28    7.50
   6  -3   8  193.68    6.30
  -6   3  -8  212.88    7.20
   6   3   8  191.38    6.90
   6   3   8  191.98    6.90
  -7  -3  -8  111.99    6.00
   7  -3   8  112.89    5.00
   7   3   8  104.19    5.50
   7   3   8   99.59    5.00
  -7   3  -8  103.59    5.60
   8  -3   8   98.59    5.00
  -8  -3  -8  104.29    6.10
   8   3   8   92.99    5.60
   8   3   8   86.99    5.30
  -8   3  -8   85.29    5.60
   9  -3   8    7.80    2.70
  -9  -3  -8    5.70    3.20
   9   3   8    6.50    2.20
  -9   3  -8   10.70    3.30
   9   3   8    3.80    2.20
 -10  -3  -8   22.00    4.40
  10  -3   8   21.90    3.10
  10   3   8   16.70    3.70
 -10   3  -8   21.20    4.00
  10   3   8   22.00    3.20
 -11  -3  -8   10.60    4.00
  11  -3   8   10.20    3.10
 -11   3  -8    8.40    3.00
  11   3   8   12.50    2.80
  11   3   8   13.20    3.70
  12  -3   8  143.09    7.00
 -12  -3  -8  142.39    8.50
  12   3   8  148.29    8.10
  13  -4  -8    1.90    3.60
  13   4  -8    7.30    3.60
  13   4  -8    4.90    3.30
  12  -4  -8   50.59    5.30
  12   4  -8   46.10    4.80
  12   4  -8   45.70    5.10
  11  -4  -8   71.49    5.90
  11   4  -8   73.49    4.70
  11   4  -8   64.29    4.90
  10  -4  -8   23.60    4.00
  10   4  -8   18.70    3.70
  10   4  -8   16.20    3.20
   9  -4  -8   53.89    4.20
   9   4  -8   40.80    4.40
   9   4  -8   43.70    3.90
   8  -4  -8   68.09    4.20
   8  -4  -8   72.09    5.10
   8   4  -8   65.09    3.70
   8   4  -8   68.59    4.40
   7  -4  -8   -0.50    1.80
   7  -4  -8    2.00    1.80
   7   4  -8    1.10    1.70
   7   4  -8    1.70    1.40
   6  -4  -8  190.38    7.10
  -6  -4   8  175.38    5.70
   6  -4  -8  179.18    6.50
   6   4  -8  174.18    6.50
   6   4  -8  181.98    5.90
   5  -4  -8   -0.40    1.80
   5  -4  -8    0.60    2.10
   5   4  -8    1.90    1.40
   5   4  -8    0.00    1.30
   5   4  -8    1.00    1.50
   4  -4  -8  452.35   11.90
   4  -4  -8  467.15   12.00
   4   4  -8  461.25   10.70
  -4   4   8  440.16   11.60
   4   4  -8  448.06   11.70
   4   4  -8  454.65   10.70
   3  -4  -8   78.69    4.10
   3  -4  -8   82.59    4.40
   3   4  -8   73.49    3.20
   3   4  -8   81.99    3.30
  -3   4   8   77.59    3.80
   3   4  -8   73.89    3.70
   2  -4  -8    1.80    1.30
   2  -4  -8   -1.30    1.40
   2  -4  -8    2.50    2.10
  -2   4   8   -0.30    1.30
  -2   4   8    2.80    1.40
   2   4  -8    1.60    1.70
   2   4  -8    2.50    1.10
   2   4  -8    1.40    1.30
   1  -4  -8    3.10    1.30
  -1  -4   8    2.70    1.10
   1  -4  -8    0.90    2.00
   1  -4  -8    1.90    1.70
   1   4  -8    6.00    1.80
  -1   4   8    0.80    1.80
   1   4  -8    2.30    1.10
   1   4  -8    3.70    1.20
  -1   4   8    5.10    2.10
   0  -4   8   12.90    1.30
   0  -4  -8   14.00    1.70
   0  -4  -8   14.40    2.70
   0   4  -8   14.00    1.70
   0   4   8   15.30    2.10
   0   4  -8   15.10    2.10
   0   4  -8   15.40    1.60
   0   4   8   14.00    2.30
   1  -4   8    2.20    1.10
  -1  -4  -8    2.10    2.30
  -1  -4  -8    0.20    1.40
   1   4   8    2.90    1.50
  -1   4  -8    1.10    1.60
   1   4   8    0.90    1.80
  -1   4  -8    1.00    1.40
   2  -4   8   -1.00    1.00
  -2  -4  -8    0.50    1.60
  -2  -4  -8    0.70    1.70
  -2   4  -8    0.70    1.30
   2   4   8    0.80    1.80
   2   4   8    1.60    1.50
  -2   4  -8   -1.20    1.20
  -3  -4  -8   77.69    5.00
   3  -4   8   69.89    3.10
  -3  -4  -8   66.49    3.90
   3   4   8   65.19    4.10
  -3   4  -8   66.19    3.10
   3   4   8   75.29    4.20
  -3   4  -8   69.79    4.00
   4  -4   8    5.70    1.60
  -4  -4  -8    6.50    2.20
  -4  -4  -8    5.20    2.30
  -4   4  -8    7.00    1.90
   4   4   8    5.80    1.80
   4   4   8    6.60    1.80
   5  -4   8    1.80    1.60
  -5  -4  -8    5.60    2.40
   5   4   8    3.90    2.30
  -5   4  -8    3.80    1.70
   5   4   8    4.70    1.80
  -6  -4  -8   20.10    3.30
   6  -4   8   20.40    2.60
   6   4   8   31.30    3.60
  -6   4  -8   25.30    3.00
   6   4   8   24.70    2.90
   7  -4   8   13.10    2.30
  -7  -4  -8   16.00    3.30
  -7   4  -8   10.00    2.90
   7   4   8    9.30    2.40
   7   4   8    8.90    2.90
  -8  -4  -8   61.59    5.40
   8  -4   8   62.29    4.10
   8   4   8   64.39    4.40
  -8   4  -8   56.39    4.30
   8   4   8   56.79    4.20
  -9  -4  -8   16.00    3.90
   9  -4   8   24.00    3.20
  -9   4  -8   30.30    3.80
   9   4   8   22.40    3.30
   9   4   8   23.40    3.70
  10  -4   8   14.60    3.80
 -10  -4  -8   11.30    3.80
  10   4   8    3.70    3.20
 -10   4  -8    7.40    2.80
  10   4   8    4.20    2.90
 -11  -4  -8   34.20    4.50
  11   4   8   34.90    4.70
 -11   4  -8   35.10    4.80
  11   4   8   43.20    4.80
 -12  -4  -8   -2.00    2.60
 -12   4  -8    3.00    3.40
  12   4   8    1.20    2.20
  12   4   8    2.30    2.50
  13  -5  -8    0.40    3.20
  13   5  -8    2.80    2.70
  13   5  -8   -1.10    2.90
  12  -5  -8   18.80    4.00
  12   5  -8   10.30    3.30
  12   5  -8   12.10    3.80
  11  -5  -8    6.30    3.30
  11   5  -8    4.50    2.70
  11   5  -8    3.10    2.40
  10  -5  -8    0.10    2.20
  10   5  -8    1.10    2.40
  10   5  -8    4.20    3.10
   9  -5  -8   75.09    5.50
   9   5  -8   74.69    4.90
   9   5  -8   74.79    4.50
   8  -5  -8    2.60    2.10
   8   5  -8    7.70    3.00
   8   5  -8    3.90    2.10
   7  -5  -8   27.50    3.00
   7  -5  -8   32.20    3.80
   7   5  -8   21.00    2.50
   7   5  -8   22.90    3.10
   6  -5  -8   -0.90    1.70
  -6  -5   8   -0.90    1.60
   6  -5  -8   -0.20    2.30
   6   5  -8   -0.70    1.50
   6   5  -8   -3.00    2.10
   6   5  -8   -3.90    1.50
   5  -5  -8   -2.40    1.50
   5  -5  -8    0.80    1.30
  -5   5   8    1.70    1.60
   5   5  -8    0.80    1.40
   5   5  -8    1.10    2.10
   5   5  -8   -2.00    1.30
   4  -5  -8   17.80    2.90
   4  -5  -8   16.30    2.50
   4   5  -8   14.30    1.70
  -4   5   8   14.20    2.60
   4   5  -8   15.00    2.20
   4   5  -8   14.80    2.00
   3  -5  -8    0.60    1.60
   3  -5  -8    0.00    1.40
   3   5  -8   -1.50    0.90
  -3   5   8   -0.40    1.30
   3   5  -8   -2.30    1.20
   3   5  -8   -0.60    1.40
   2  -5  -8   30.00    3.00
   2  -5  -8   32.20    3.10
   2   5  -8   32.80    2.70
   2   5  -8   29.80    2.80
  -2   5   8   35.30    2.00
  -2   5   8   31.50    2.80
  -2   5   8   36.90    2.80
   1  -5  -8    3.90    1.80
   1  -5  -8    0.90    1.20
   1  -5  -8    1.50    2.20
  -1   5   8   -1.50    0.90
  -1   5   8    2.30    1.40
   1   5  -8    2.70    1.60
  -1   5   8   -0.40    1.80
   1   5  -8    0.90    1.50
   0  -5  -8   19.20    2.90
   0  -5  -8   20.00    2.70
   0  -5  -8   19.60    2.10
   0   5  -8   24.60    2.60
   0   5   8   20.30    1.90
   0   5  -8   23.80    2.10
   0   5   8   17.10    2.30
   0   5   8   17.60    2.60
  -1  -5  -8    9.70    2.80
  -1  -5  -8   11.40    2.00
   1   5   8   12.00    2.40
  -1   5  -8    9.50    2.10
  -1   5  -8   10.10    1.70
   1   5   8   12.60    2.50
  -2  -5  -8   14.90    2.60
  -2  -5  -8   14.10    2.30
   2   5   8   12.80    2.20
   2   5   8   14.00    2.50
  -2   5  -8   16.90    2.20
  -2   5  -8   15.10    1.80
  -3  -5  -8   29.90    3.40
  -3  -5  -8   47.10    3.60
   3   5   8   34.10    3.40
   3   5   8   35.30    3.20
  -3   5  -8   35.40    3.00
  -4  -5  -8   22.20    2.70
  -4  -5  -8   19.90    3.10
   4   5   8   20.40    2.60
   4   5   8   18.20    2.60
  -4   5  -8   18.50    2.50
  -5  -5  -8    6.30    2.20
  -5   5  -8    6.80    2.00
   5   5   8    4.30    1.90
   5   5   8    7.90    2.10
  -6  -5  -8    4.10    2.80
   6   5   8    5.20    2.60
  -6   5  -8    6.80    2.20
   6   5   8   11.90    2.50
  -7  -5  -8    5.20    3.10
   7   5   8    2.50    2.00
  -7   5  -8    0.70    1.90
   7   5   8    5.00    2.10
  -8  -5  -8    9.40    3.40
   8   5   8   12.20    3.10
   8   5   8    5.90    2.30
  -8   5  -8   12.10    3.20
  -9  -5  -8   -1.00    2.20
   9   5   8   -2.40    2.60
   9   5   8    2.20    2.80
  -9   5  -8    1.30    2.90
 -10  -5  -8    5.30    2.90
 -10   5  -8    1.60    3.10
  10   5   8   -1.90    2.70
  10   5   8    1.10    3.00
 -11  -5  -8   -1.60    3.60
  11   5   8   -2.50    3.00
 -11   5  -8   -0.70    3.10
  11   5   8    2.00    3.00
 -12   5  -8   -0.80    3.20
  12   5   8    3.90    3.20
  12  -6  -8   21.10    3.70
  12   6  -8   26.60    4.10
  11  -6  -8  150.28    7.30
  11   6  -8  162.88    8.20
  10  -6  -8    8.80    2.70
  10   6  -8   13.50    3.00
   9  -6  -8  119.89    6.60
   9   6  -8  119.39    6.70
   8  -6  -8  324.27   10.40
   8   6  -8  326.87   10.80
   7  -6  -8   38.90    3.70
  -7  -6   8   36.30    3.40
   7   6  -8   39.00    3.80
   6  -6  -8   95.29    5.40
   6  -6  -8   93.19    4.60
  -6  -6   8   83.39    4.50
   6   6  -8   85.49    4.10
   6   6  -8   88.09    5.20
   5  -6  -8   -0.80    1.60
   5  -6  -8    2.60    1.90
  -5   6   8   -2.20    1.50
   5   6  -8    1.70    1.70
   5   6  -8    0.30    1.20
   4  -6  -8  278.37    9.00
   4  -6  -8  275.77    8.60
   4   6  -8  277.47    8.50
  -4   6   8  273.67    8.70
   4   6  -8  279.87    7.90
   3  -6  -8   35.80    3.40
   3  -6  -8   28.70    3.10
  -3   6   8   33.60    3.00
   3   6  -8   34.90    2.90
  -3   6   8   36.40    3.30
   3   6  -8   33.60    2.70
   2  -6  -8  111.19    5.10
   2  -6  -8  110.29    5.50
   2   6  -8  125.39    4.90
  -2   6   8  117.89    5.10
  -2   6   8  120.89    3.80
  -2   6   8  112.79    5.10
   2   6  -8  115.59    4.50
   1  -6  -8    4.10    2.40
   1  -6  -8   11.80    1.80
   1  -6  -8    7.50    2.60
   1   6  -8    3.20    1.80
  -1   6   8    5.70    1.40
  -1   6   8    9.50    2.30
  -1   6   8    5.70    2.20
   1   6  -8    9.40    1.90
   0  -6  -8    3.10    1.80
   0  -6  -8    2.90    2.50
   0  -6  -8    3.80    1.60
   0   6   8    3.20    1.50
   0   6   8    5.40    1.70
   0   6   8    0.60    2.00
   0   6  -8    2.70    1.50
   0   6  -8    6.80    1.70
  -1  -6  -8    1.90    2.60
  -1  -6  -8    9.70    2.10
   1   6   8    6.10    1.80
  -1   6  -8    5.00    1.60
   1   6   8    0.90    2.00
  -1   6  -8    8.70    1.80
   1   6   8    3.70    2.20
  -2  -6  -8  116.29    4.80
  -2  -6  -8  120.99    6.20
   2   6   8  121.59    5.30
  -2   6  -8  127.79    5.30
   2   6   8  116.59    5.50
   2   6   8  112.09    4.60
  -3  -6  -8   10.40    3.10
  -3  -6  -8    6.60    2.40
   3   6   8    4.40    2.40
   3   6   8    5.10    1.80
  -3   6  -8    5.90    2.30
  -4  -6  -8    7.30    2.70
  -4  -6  -8    7.00    2.40
   4   6   8   15.10    2.60
  -4   6  -8   10.10    2.20
   4   6   8   11.70    2.70
  -5  -6  -8    5.70    2.10
   5   6   8    5.20    2.50
   5   6   8    5.60    2.10
  -5   6  -8    5.50    2.50
  -6  -6  -8   84.59    5.60
   6   6   8   86.19    4.90
  -6   6  -8   78.39    5.20
   6   6   8   74.99    5.10
  -7  -6  -8    1.90    2.20
  -7   6  -8   -3.60    1.60
   7   6   8    0.00    2.50
   7   6   8    1.30    2.00
  -8  -6  -8   66.59    5.10
   8   6   8   68.09    5.60
  -8   6  -8   55.99    5.00
   8   6   8   62.49    5.30
  -9  -6  -8   32.50    4.70
  -9   6  -8   25.30    3.70
   9   6   8   33.60    4.60
   9   6   8   35.50    4.50
 -10  -6  -8   22.50    4.50
  10   6   8   18.00    3.40
 -10   6  -8   17.70    4.00
  10   6   8   23.00    3.70
 -11  -6  -8   19.20    3.90
 -11   6  -8   22.80    4.30
  11   6   8   24.50    4.50
  11   6   8   24.50    4.60
  12  -7  -8   51.89    5.10
  12   7  -8   52.49    5.40
  11  -7  -8    2.50    2.40
  11   7  -8    1.40    2.40
  10  -7  -8   21.90    4.00
  10   7  -8   30.50    4.60
   9  -7  -8   26.10    4.00
   9   7  -8   33.70    4.40
   8  -7  -8   17.40    3.00
   8   7  -8   14.20    2.90
   7  -7  -8  100.49    5.90
  -7  -7   8  100.59    5.30
   7   7  -8  120.79    5.80
  -6  -7   8    2.50    2.40
   6  -7  -8    3.90    2.60
   6   7  -8    8.40    2.20
   6   7  -8    2.80    2.50
   5  -7  -8    1.20    2.40
   5  -7  -8    8.90    2.20
  -5   7   8    6.10    2.00
   5   7  -8    6.40    1.70
   5   7  -8    5.80    2.60
   4  -7  -8   18.00    2.80
   4  -7  -8   14.00    2.50
   4   7  -8   11.40    2.30
  -4   7   8   14.30    2.40
   4   7  -8   16.90    2.80
   3  -7  -8  215.78    7.80
   3  -7  -8  215.48    7.50
   3   7  -8  196.98    6.70
   3   7  -8  226.48    7.10
  -3   7   8  213.68    7.10
  -3   7   8  195.68    7.20
   2  -7  -8  153.38    6.10
   2  -7  -8  151.78    6.10
   2   7  -8  157.68    5.90
   2   7  -8  148.89    5.30
  -2   7   8  149.79    5.70
  -2   7   8  141.09    5.70
   1  -7  -8   22.20    2.40
   1  -7  -8   19.10    3.10
   1  -7  -8   19.80    3.20
  -1   7   8   21.70    2.90
  -1   7   8   22.30    2.30
   1   7  -8   25.50    2.70
  -1   7   8   20.70    2.90
   1   7  -8   18.70    2.30
   0  -7  -8    2.40    1.90
   0  -7  -8    0.60    1.60
   0  -7  -8    3.90    1.90
   0   7  -8    3.00    1.60
   0   7   8    3.30    1.60
   0   7  -8    2.20    1.50
   0   7   8    1.80    1.60
   0   7   8   -0.40    1.50
  -1  -7  -8    3.30    2.00
  -1  -7  -8    0.30    1.90
   1   7   8   -1.00    1.40
  -1   7  -8   -1.20    2.00
   1   7   8    2.60    1.70
   1   7   8    0.00    2.10
  -2  -7  -8   -0.70    1.90
  -2  -7  -8   -3.00    1.70
   2   7   8   -0.90    1.40
   2   7   8   -0.30    1.60
  -2   7  -8    0.00    1.50
   2   7   8   -0.30    1.20
  -3  -7  -8    6.10    2.50
  -3  -7  -8   -1.00    2.20
   3   7   8    4.40    1.90
  -3   7  -8    1.40    1.70
   3   7   8   -0.70    2.30
   3   7   8    3.70    2.10
  -4  -7  -8   17.20    3.20
  -4  -7  -8   15.10    2.70
  -4   7  -8   17.90    3.10
   4   7   8   17.80    2.80
   4   7   8   22.10    3.20
  -5  -7  -8   18.70    3.50
  -5   7  -8   17.10    2.70
   5   7   8   15.10    3.20
   5   7   8   12.60    2.90
  -6  -7  -8   74.09    5.00
  -6   7  -8   92.59    5.10
   6   7   8   91.19    5.10
   6   7   8   93.39    5.30
  -7  -7  -8   89.69    6.30
   7   7   8   83.09    5.70
  -7   7  -8   91.79    5.90
   7   7   8   87.39    5.40
  -8  -7  -8  106.59    7.00
   8   7   8  108.49    6.50
  -8   7  -8  119.19    6.80
   8   7   8  120.59    7.00
  -9  -7  -8    1.20    2.70
  -9   7  -8    4.80    3.30
   9   7   8    5.20    2.60
   9   7   8    2.10    3.20
 -10  -7  -8   56.69    6.10
  10   7   8   56.99    5.60
 -10   7  -8   53.19    5.10
  10   7   8   61.79    6.00
 -11  -7  -8    9.00    5.00
  11   7   8   10.80    4.00
  11   7   8   12.00    4.00
 -11   7  -8    8.80    3.10
  12  -8  -8   29.10    4.20
  11  -8  -8    5.40    2.70
  11   8  -8   11.90    3.30
  10  -8  -8    6.90    3.30
  10   8  -8   11.50    3.10
   9  -8  -8    9.50    3.30
   9   8  -8    9.30    2.70
   8  -8  -8   -1.40    1.90
   8   8  -8   -1.20    2.00
  -7  -8   8   -2.70    2.30
   7  -8  -8    1.00    2.60
   7   8  -8    2.50    2.10
   7   8  -8    0.60    2.00
  -6  -8   8   20.30    3.30
   6  -8  -8   30.70    3.90
   6   8  -8   33.10    3.60
   6   8  -8   29.30    3.30
   5  -8  -8   23.30    3.60
   5   8  -8   18.30    2.80
   5   8  -8   21.50    2.90
   4  -8  -8   -0.30    1.70
   4  -8  -8    3.70    2.60
  -4   8   8    1.20    2.30
   4   8  -8    2.60    1.70
   4   8  -8    3.00    1.60
   3  -8  -8   28.90    3.30
   3  -8  -8   26.40    3.50
   3   8  -8   30.50    3.30
  -3   8   8   28.40    3.10
  -3   8   8   30.60    3.20
   3   8  -8   31.40    2.90
   2  -8  -8    7.70    2.70
   2  -8  -8    7.20    2.60
  -2   8   8   10.30    2.50
   2   8  -8    5.50    2.30
   2   8  -8    7.00    2.20
  -2   8   8   14.00    2.80
   1  -8  -8    6.40    2.70
   1  -8  -8    6.40    2.30
   1  -8  -8    8.20    2.70
   1   8  -8    5.70    1.80
  -1   8   8    6.90    2.40
  -1   8   8    6.60    2.40
  -1   8   8    8.80    1.90
   1   8  -8    3.30    2.30
   0  -8  -8   28.80    3.30
   0  -8  -8   28.80    3.10
   0  -8  -8   33.60    4.00
   0   8   8   34.70    3.60
   0   8   8   29.20    3.00
   0   8  -8   30.80    3.10
   0   8   8   29.60    2.80
  -1  -8  -8    4.40    2.30
  -1  -8  -8    0.20    1.70
  -1  -8  -8    1.90    1.90
   1   8   8    4.50    1.60
   1   8   8    3.10    1.70
   1   8   8    6.20    1.90
  -1   8  -8    3.00    2.40
  -2  -8  -8   16.00    2.90
  -2  -8  -8   14.30    2.90
   2   8   8   13.60    2.60
   2   8   8   15.00    2.40
   2   8   8    6.20    2.10
  -2   8  -8   12.00    2.80
  -3  -8  -8    5.60    2.60
  -3  -8  -8    7.80    2.60
   3   8   8    7.20    2.60
   3   8   8   10.20    2.10
   3   8   8    5.80    2.70
  -3   8  -8    5.40    2.60
  -4  -8  -8   13.50    3.20
  -4  -8  -8    7.30    3.00
   4   8   8   10.60    2.80
   4   8   8   10.80    2.90
  -4   8  -8    9.30    2.30
   4   8   8   12.70    2.70
  -5  -8  -8    5.80    2.40
   5   8   8    6.20    2.30
  -5   8  -8   10.10    3.00
   5   8   8    7.60    2.70
  -6  -8  -8   13.10    3.70
   6   8   8   15.00    3.00
   6   8   8   24.00    3.60
  -6   8  -8   16.10    3.40
  -7  -8  -8   16.60    3.40
  -7   8  -8    8.10    3.20
   7   8   8   11.00    3.10
   7   8   8    8.00    2.60
  -8  -8  -8   44.10    5.30
   8   8   8   41.00    4.60
   8   8   8   40.60    4.30
  -8   8  -8   39.50    4.30
  -9  -8  -8    6.60    3.00
   9   8   8    8.60    3.40
   9   8   8    3.10    3.40
  -9   8  -8    7.40    3.50
 -10  -8  -8   35.30    5.30
  10   8   8   27.80    4.60
 -10   8  -8   28.80    4.60
  10   8   8   25.80    4.80
  11  -9  -8   -1.40    2.90
  10  -9  -8   50.29    4.80
  10   9  -8   62.79    6.00
   9  -9  -8   36.30    4.50
   9   9  -8   40.00    5.00
   8  -9  -8    8.80    3.20
  -8  -9   8   14.00    3.40
   8   9  -8    6.90    3.40
  -7  -9   8  225.98    8.70
   7  -9  -8  215.08    8.70
   7   9  -8  233.98    8.20
   7   9  -8  233.18    9.00
   6  -9  -8    1.80    1.90
  -6  -9   8    0.10    2.50
   6   9  -8   -1.30    1.80
   6   9  -8   -1.90    2.20
   5  -9  -8  198.28    7.70
   5   9  -8  218.88    7.70
   5   9  -8  205.38    7.60
   4  -9  -8   32.20    3.50
  -4   9   8   29.50    3.20
   4   9  -8   33.50    3.70
   4   9  -8   25.40    3.40
   3  -9  -8   37.20    3.60
   3   9  -8   39.50    3.10
  -3   9   8   42.40    3.70
  -3   9   8   40.60    3.80
   3   9  -8   40.50    4.00
   2  -9  -8   13.40    3.00
   2  -9  -8    4.50    2.60
  -2   9   8    6.90    2.50
   2   9  -8   12.80    2.40
   2   9  -8    9.80    2.30
  -2   9   8   11.30    2.20
   1  -9  -8    0.20    2.40
   1  -9  -8    0.20    2.40
  -1   9   8    4.50    1.80
  -1   9   8    0.10    2.20
   1   9  -8    1.00    2.20
  -1   9   8    2.40    1.70
   0  -9  -8    3.10    2.50
   0  -9  -8    3.00    2.10
   0  -9  -8    0.10    2.60
   0   9  -8    0.20    1.70
   0   9   8    1.80    1.80
   0   9   8    0.10    2.20
   0   9   8    0.40    2.10
  -1  -9  -8   -1.20    2.20
  -1  -9  -8   -1.20    2.00
  -1  -9  -8   -6.60    1.60
  -1   9  -8    3.50    2.50
   1   9   8    0.90    1.70
   1   9   8   -1.40    1.80
   1   9   8    3.40    2.30
  -2  -9  -8   12.80    3.00
  -2  -9  -8   10.60    2.90
   2   9   8   12.70    2.50
   2   9   8    8.20    2.60
  -2   9  -8    9.50    2.90
   2   9   8   12.10    2.70
  -3  -9  -8   -4.70    2.90
  -3  -9  -8   -0.60    2.50
  -3   9  -8    2.50    1.90
   3   9   8    3.80    2.60
   3   9   8   -1.20    1.50
   3   9   8    1.90    1.70
  -4  -9  -8   17.20    3.50
  -4  -9  -8   13.30    3.20
  -4   9  -8    9.10    2.60
   4   9   8   10.20    2.60
   4   9   8   11.70    3.00
   4   9   8   12.40    3.00
  -5  -9  -8    7.70    2.80
   5   9   8    8.50    2.30
  -5   9  -8    5.50    2.30
   5   9   8    7.90    2.90
   5   9   8   10.50    2.80
  -6  -9  -8   19.30    4.10
  -6   9  -8   24.60    3.50
   6   9   8   24.50    3.60
   6   9   8   21.00    3.20
  -7  -9  -8   49.00    5.00
   7   9   8   50.29    5.40
  -7   9  -8   51.79    4.80
   7   9   8   49.80    4.90
  -8  -9  -8    8.70    4.10
  -8   9  -8   15.20    3.80
   8   9   8   12.80    3.60
   8   9   8    5.50    2.70
  -9  -9  -8   21.00    4.00
   9   9   8   19.80    4.00
   9   9   8   19.30    3.70
  -9   9  -8   16.70    3.40
  10   9   8    8.60    3.00
  10  10  -8    2.60    2.70
   9 -10  -8    7.30    3.60
   9  10  -8   17.90    3.50
   8 -10  -8   25.40    3.90
  -8 -10   8   24.60    4.00
   8  10  -8   21.70    4.20
  -7 -10   8    0.30    2.90
   7 -10  -8    3.00    2.70
   7  10  -8    5.70    3.20
   7  10  -8    5.00    2.70
  -6 -10   8  138.59    7.10
   6 -10  -8  155.58    7.10
   6  10  -8  125.39    6.30
   6  10  -8  138.79    6.60
   5 -10  -8    9.10    3.00
   5  10  -8    2.20    1.90
   5  10  -8    1.70    2.60
   4 -10  -8   41.70    4.30
   4  10  -8   36.70    4.00
   4  10  -8   33.50    3.30
  -4  10   8   34.70    3.90
   3 -10  -8    7.40    2.70
  -3  10   8    4.70    2.50
   3  10  -8    8.60    2.80
   2 -10  -8    8.90    2.70
  -2  10   8    8.60    2.60
   2  10  -8    6.30    2.20
  -2  10   8    3.90    1.80
   1 -10  -8   17.10    3.30
   1 -10  -8   21.50    3.40
  -1  10   8   25.80    3.10
   1  10  -8   21.00    3.40
  -1  10   8   27.20    3.40
   0 -10  -8   47.90    4.20
   0 -10  -8   61.59    4.90
   0 -10  -8   49.40    4.80
   0  10   8   55.19    4.60
   0  10  -8   65.39    4.90
   0  10   8   51.99    4.40
   0  10   8   53.99    3.90
  -1 -10  -8   -0.40    2.50
  -1 -10  -8   -1.50    2.70
  -1 -10  -8    3.90    2.50
  -1  10  -8   -0.30    2.50
   1  10   8    3.90    2.50
   1  10   8   -0.10    2.40
   1  10   8    0.40    2.00
  -2 -10  -8   21.00    3.10
  -2 -10  -8   20.90    4.10
  -2 -10  -8   19.40    3.00
   2  10   8   12.70    2.80
   2  10   8   16.80    2.70
   2  10   8   17.60    3.40
  -2  10  -8   18.20    3.60
  -3 -10  -8   13.70    3.30
  -3 -10  -8   11.30    3.30
   3  10   8   14.40    3.10
   3  10   8   16.50    3.10
  -3  10  -8   17.50    3.00
   3  10   8   14.40    2.90
  -4 -10  -8   63.99    4.80
  -4 -10  -8   60.99    6.20
   4  10   8   67.79    5.50
   4  10   8   56.29    4.80
  -4  10  -8   65.09    5.40
   4  10   8   68.69    5.00
  -5 -10  -8    9.90    3.60
  -5  10  -8   13.70    3.00
   5  10   8   12.10    3.60
   5  10   8   15.00    3.40
   5  10   8    8.30    2.90
  -6 -10  -8   17.00    3.60
  -6  10  -8   16.80    3.30
   6  10   8   26.80    4.50
   6  10   8   25.20    3.90
  -7 -10  -8    3.10    3.70
   7  10   8    3.40    2.50
   7  10   8    1.70    3.00
  -7  10  -8    1.50    2.40
  -8 -10  -8   49.10    5.80
   8  10   8   68.39    5.80
   8  10   8   72.89    6.60
  -8  10  -8   67.29    6.10
   9  10   8   14.90    3.70
  -9  10  -8    8.40    3.60
   9  11  -8    9.50    3.00
  -8 -11   8   -1.90    2.90
   8  11  -8    1.80    2.40
  -7 -11   8   -2.30    3.00
   7  11  -8    0.50    2.70
   7  11  -8    1.50    3.00
  -6 -11   8    6.00    2.50
   6  11  -8   -0.90    1.90
   6  11  -8    4.60    2.20
   5  11  -8    1.40    2.60
   5  11  -8    6.50    2.90
  -4  11   8   18.00    3.80
   4  11  -8   18.80    3.00
   3  11  -8    2.10    2.70
  -3  11   8    1.80    2.40
  -2  11   8   -0.30    2.30
   2  11  -8   -0.10    2.70
   1  11  -8    7.50    2.40
  -1  11   8    9.30    2.70
   0 -11  -8   30.30    3.80
   0  11   8   33.60    3.50
   0  11  -8   28.60    3.60
   0  11   8   33.20    3.40
   0  11   8   33.10    3.50
  -1 -11  -8    2.50    3.10
  -1 -11  -8   -0.60    1.80
   1  11   8   -0.10    2.30
  -1  11  -8    2.30    2.10
   1  11   8   -2.50    2.10
   1  11   8    0.20    2.50
  -2 -11  -8   -4.90    2.50
  -2 -11  -8   -0.80    2.30
  -2  11  -8   -1.20    2.80
   2  11   8    0.50    2.30
   2  11   8   -0.90    1.90
   2  11   8    0.50    2.40
  -3 -11  -8    4.20    3.10
  -3 -11  -8   -2.20    3.20
  -3  11  -8    1.40    2.90
   3  11   8    1.40    2.40
   3  11   8   -1.10    2.50
   3  11   8    4.10    2.90
  -4 -11  -8    4.70    2.80
  -4 -11  -8   -1.70    3.10
   4  11   8    1.70    2.20
   4  11   8    2.40    2.60
   4  11   8    2.50    2.40
  -4  11  -8    0.10    2.80
  -5 -11  -8   23.80    4.50
  -5 -11  -8   20.40    4.00
   5  11   8   17.00    3.40
   5  11   8   23.20    3.90
  -5  11  -8   20.00    3.60
   5  11   8   23.30    3.70
  -6 -11  -8   -2.50    3.30
   6  11   8    2.00    2.90
  -6  11  -8    7.20    2.80
   6  11   8    2.80    2.40
   6  11   8    1.80    2.40
  -7 -11  -8    0.90    3.70
  -7  11  -8    4.70    3.50
   7  11   8    3.60    2.30
   7  11   8    5.10    3.50
   8  11   8   22.10    4.00
  -8 -12   8   10.80    4.10
   8  12  -8   16.10    3.40
   8  12  -8   22.50    4.00
  -7 -12   8    1.40    3.30
   7  12  -8   11.60    2.90
   7  12  -8    5.70    3.30
  -6 -12   8   99.79    7.10
   6  12  -8  118.49    6.70
   5  12  -8    7.20    3.10
   4  12  -8   71.29    4.90
   3  12  -8   -1.10    2.80
   2  12  -8   20.80    3.80
   1  12  -8   -0.40    2.80
   0  12  -8   -0.70    2.80
  -1 -12  -8   -2.90    2.60
   1  12   8    3.50    2.60
   1  12   8    5.30    2.80
  -1  12  -8    1.00    3.00
  -2 -12  -8   -0.10    2.80
  -2 -12  -8    1.20    3.10
   2  12   8    5.60    3.00
  -2  12  -8    0.10    2.20
   2  12   8    1.90    1.80
  -3 -12  -8    4.80    2.90
  -3 -12  -8    4.70    3.50
   3  12   8    4.40    2.40
   3  12   8    6.80    3.00
  -3  12  -8    7.80    3.40
  -4 -12  -8   10.50    4.10
  -4 -12  -8    4.10    2.60
   4  12   8    7.80    3.20
   4  12   8    5.90    3.30
  -4  12  -8    8.10    3.50
  -5 -12  -8    8.80    3.90
  -5 -12  -8    6.50    4.20
  -5  12  -8    7.50    2.90
   5  12   8    9.20    3.50
   5  12   8    2.50    3.00
  -6 -12  -8   18.60    4.60
   6  12   8   26.50    4.60
   6  12   8   25.30    4.30
  -6  12  -8   26.40    4.00
  -6 -13   8    2.90    2.80
   6  13  -8    3.10    2.30
  -5 -13   8   71.99    6.20
   5  13  -8   84.29    5.60
   4  13  -8    1.00    3.10
   3  13  -8   11.10    3.60
   2  13  -8    4.70    3.30
   1  13  -8   -4.40    2.80
   0  13  -8    5.20    2.60
  -1  13  -8    0.00    3.00
   1  13   8    0.80    2.80
  -2 -13  -8   -1.60    2.20
   2  13   8   -1.70    2.50
  -2  13  -8    0.70    3.10
  -3 -13  -8    3.20    3.40
  -3 -13  -8    2.70    3.60
   3  13   8    6.20    3.30
  -3  13  -8    4.10    3.40
   3  13   8    2.30    2.90
  -4 -13  -8    9.10    4.00
  -4 -13  -8   18.50    4.70
   4  13   8    6.10    3.30
  -4  13  -8   16.90    3.50
   4  13   8   13.40    3.80
  -5 -13  -8   24.80    4.10
  -5 -13  -8   26.00    5.40
   5  13   8   26.60    3.80
   5  13   8   32.70    4.90
   2  14  -8    1.00    3.70
   1  14  -8    6.50    3.40
   2  14   8   13.40    3.00
  13   0  -9   -3.80    2.50
  13   0  -9   -7.30    2.90
  12   0  -9    2.10    3.10
  12   0  -9    0.20    2.70
  11   0  -9    2.30    2.80
  11   0  -9    0.10    2.10
  10   0  -9    3.70    2.90
  10   0  -9    1.80    1.90
   9   0  -9   -2.20    1.60
   9   0  -9   -1.20    2.50
   8   0  -9   -0.30    1.60
   8   0  -9   -3.40    2.10
   7   0  -9    0.90    2.20
   7   0  -9    0.80    2.20
   6   0  -9    1.40    2.10
   6   0  -9   -0.80    1.50
   5   0  -9    2.60    1.60
   5   0  -9    0.40    1.50
  -4   0   9   -0.70    1.70
   4   0  -9   -0.70    1.40
   4   0  -9    0.80    1.90
   3   0  -9   -1.10    1.20
  -3   0   9   -0.80    1.10
   3   0  -9    0.40    1.40
   2   0  -9    0.80    2.00
  -2   0   9   -0.60    1.50
   2   0  -9    0.00    1.70
   2   0  -9    0.30    0.80
  -1   0   9   -0.20    1.10
   1   0  -9    0.60    1.00
   1   0  -9    0.90    1.80
   1   0  -9    0.60    1.50
   0   0  -9   -0.10    1.10
   0   0  -9    0.50    1.40
   0   0  -9   -0.90    1.20
   0   0   9   -0.70    1.00
   1   0   9    0.10    1.50
  -1   0  -9    0.70    1.30
   1   0   9   -0.10    1.60
  -1   0  -9    0.20    2.00
   2   0   9    2.70    1.60
  -2   0  -9    1.50    1.20
   2   0   9   -0.90    1.70
  -2   0  -9   -1.70    1.90
   3   0   9    0.00    1.60
  -3   0  -9    2.50    1.60
  -3   0  -9   -0.40    1.20
   3   0   9    1.20    1.30
   4   0   9   -2.20    1.60
  -4   0  -9    3.00    2.00
  -4   0  -9    4.90    2.30
   4   0   9   -2.70    1.50
  -5   0  -9    2.00    2.20
   5   0   9   -2.00    1.10
  -5   0  -9   -1.60    1.50
   5   0   9   -0.80    1.80
  -6   0  -9   -3.40    1.40
   6   0   9   -3.10    1.90
  -6   0  -9   -3.20    2.00
   6   0   9    0.20    1.80
  -7   0  -9   -1.00    1.70
   7   0   9    0.30    1.80
  -7   0  -9   -0.80    1.80
   7   0   9    1.10    1.60
  -8   0  -9    2.50    2.80
   8   0   9   -0.50    1.90
   8   0   9    1.00    1.70
  -8   0  -9   -3.20    2.20
  -9   0  -9   -0.90    2.10
   9   0   9   -0.10    2.50
  10   0   9    0.90    2.10
 -10   0  -9    2.70    3.30
  11   0   9    1.60    2.20
 -11   0  -9    5.40    2.80
 -12   0  -9   -4.20    2.20
  12   0   9    3.20    3.20
  14   1  -9   12.60    3.80
  13  -1  -9   25.90    4.60
  13   1  -9   17.70    4.10
  13   1  -9   23.00    4.20
  12  -1  -9    4.30    2.30
  12  -1  -9    0.00    3.10
  12   1  -9    2.70    2.40
  12   1  -9    7.50    3.30
  11  -1  -9   -1.30    2.40
  11  -1  -9   -2.40    2.80
  11   1  -9    2.80    2.80
  11   1  -9   -0.70    2.00
  10  -1  -9   47.60    4.10
  10  -1  -9   55.99    5.00
  10   1  -9   57.29    5.00
  10   1  -9   49.99    4.30
   9  -1  -9   64.19    4.80
   9  -1  -9   75.79    5.30
   9   1  -9   63.49    4.30
   9   1  -9   74.29    4.60
   8  -1  -9   51.69    3.90
   8  -1  -9   49.99    3.70
   8   1  -9   54.79    4.30
   8   1  -9   50.59    3.80
   7  -1  -9   64.39    4.00
   7  -1  -9   65.39    4.10
   7   1  -9   66.39    3.90
   7   1  -9   71.09    4.70
   6  -1  -9   77.79    4.20
   6  -1  -9   72.59    4.10
   6   1  -9   72.89    3.90
   6   1  -9   79.29    4.20
   5  -1  -9  214.08    7.30
   5  -1  -9  206.98    7.00
   5   1  -9  213.98    7.10
   5   1  -9  210.78    6.90
   4  -1  -9  104.89    4.60
   4  -1  -9   98.69    4.40
  -4   1   9   93.09    4.20
   4   1  -9  101.99    4.20
   4   1  -9  101.09    4.60
  -3  -1   9   71.99    3.50
   3  -1  -9   69.59    4.30
   3  -1  -9   70.99    3.80
  -3   1   9   67.09    3.40
   3   1  -9   68.69    3.70
   3   1  -9   78.59    3.90
  -2  -1   9  129.79    4.40
   2  -1  -9  129.79    3.50
   2  -1  -9  134.29    5.30
   2  -1  -9  139.79    5.30
   2   1  -9  133.19    3.80
   2   1  -9  120.99    4.80
   2   1  -9  124.99    5.00
  -2   1   9  114.89    4.70
   1  -1  -9  232.18    7.00
   1  -1  -9  218.78    7.40
   1  -1  -9  223.68    5.60
  -1  -1   9  211.88    6.20
   1   1  -9  227.38    7.00
  -1   1   9  220.58    6.50
   1   1  -9  228.68    5.90
   1   1  -9  231.98    6.80
   0  -1  -9   23.10    1.90
   0  -1   9   18.90    2.10
   0  -1  -9   22.00    2.60
   0   1  -9   19.20    1.90
   0   1   9   15.10    2.10
   0   1  -9   17.30    2.20
   0   1  -9   19.50    2.40
   0   1   9   20.90    2.40
  -1  -1  -9  166.08    6.00
   1  -1   9  164.58    5.10
  -1  -1  -9  174.68    5.20
   1   1   9  155.38    5.50
  -1   1  -9  161.68    5.20
  -1   1  -9  165.28    6.00
   1   1   9  161.58    5.60
   2  -1   9  112.79    4.50
   2  -1   9  112.29    4.40
  -2  -1  -9  108.39    4.10
  -2  -1  -9  115.69    5.00
  -2   1  -9  112.99    4.20
   2   1   9  113.79    4.80
   2   1   9  110.39    4.40
  -2   1  -9  113.89    4.90
   3  -1   9  877.81   19.70
   3  -1   9  898.91   19.80
  -3  -1  -9  918.41   20.90
  -3  -1  -9  901.21   20.00
  -3   1  -9  902.51   20.40
   3   1   9  882.01   20.10
  -3   1  -9  931.91   20.10
   3   1   9  879.31   20.10
  -4  -1  -9   31.90    3.60
  -4  -1  -9   35.90    3.00
   4  -1   9   34.70    2.90
   4  -1   9   36.40    2.70
  -4   1  -9   34.90    3.30
   4   1   9   35.90    3.20
   4   1   9   35.00    3.00
  -4   1  -9   35.70    3.30
  -5  -1  -9  255.67    8.10
   5  -1   9  274.57    8.00
   5  -1   9  251.67    7.60
  -5  -1  -9  259.37    8.50
  -5   1  -9  254.57    8.00
   5   1   9  257.87    7.90
   5   1   9  245.58    7.80
  -5   1  -9  262.67    8.20
  -6  -1  -9   22.40    2.90
  -6  -1  -9   23.80    3.60
   6  -1   9   20.50    2.60
   6  -1   9   24.90    2.70
   6   1   9   23.90    3.00
  -6   1  -9   25.30    3.20
   6   1   9   21.40    2.70
  -6   1  -9   19.90    2.80
  -7  -1  -9    1.50    2.60
  -7  -1  -9    2.50    2.70
   7  -1   9    3.20    2.30
   7   1   9   -2.80    1.40
  -7   1  -9    0.00    1.80
  -7   1  -9    2.80    2.20
   7   1   9    1.70    2.10
  -8  -1  -9   18.60    3.60
   8  -1   9   14.00    2.90
  -8  -1  -9   16.10    3.00
   8   1   9   14.30    2.70
   8   1   9   13.90    2.80
  -8   1  -9   21.50    3.20
   9  -1   9   -2.90    1.60
  -9  -1  -9    1.60    3.00
  -9  -1  -9    4.40    2.40
   9   1   9    5.60    2.50
   9   1   9    0.30    2.00
  -9   1  -9    0.20    2.10
 -10  -1  -9    4.20    3.30
  10  -1   9   -2.30    2.60
  10   1   9    4.60    3.10
 -10   1  -9   -2.20    3.00
 -11  -1  -9   -0.40    2.40
  11  -1   9    6.30    3.20
 -11   1  -9    0.20    2.40
  11   1   9   -0.90    3.00
 -12  -1  -9    6.80    3.10
  12  -1   9   11.20    3.50
 -12   1  -9    9.40    4.00
  12   1   9   15.20    3.90
  14   2  -9   15.50    3.50
  13  -2  -9   -0.50    2.40
  13   2  -9    3.50    2.50
  13   2  -9    0.40    3.00
  12  -2  -9   -2.80    2.10
  12   2  -9    3.70    3.10
  12   2  -9  -10.20    2.30
  11  -2  -9   41.60    4.30
  11  -2  -9   38.90    4.30
  11   2  -9   40.90    4.70
  11   2  -9   38.10    4.50
  10  -2  -9   10.40    2.40
  10  -2  -9   10.90    3.30
  10   2  -9   15.40    3.40
  10   2  -9   13.70    3.10
   9  -2  -9   49.20    4.30
   9  -2  -9   63.69    5.10
   9   2  -9   58.79    4.60
   9   2  -9   56.39    5.00
   8  -2  -9   15.90    2.90
   8  -2  -9   13.60    2.60
   8   2  -9   15.70    2.80
   8   2  -9   12.60    3.00
   7  -2  -9    0.50    2.20
   7  -2  -9    0.30    1.70
   7   2  -9   -1.40    1.60
   7   2  -9   -0.20    2.00
   6  -2  -9  128.89    5.50
   6  -2  -9  131.39    5.80
   6   2  -9  132.99    5.50
   6   2  -9  125.39    5.00
   5  -2  -9  294.17    8.70
   5  -2  -9  294.57    9.00
   5   2  -9  285.67    8.90
   5   2  -9  289.77    8.30
   4  -2  -9    0.40    2.00
   4  -2  -9    0.70    1.50
   4   2  -9    2.70    1.60
   4   2  -9    1.40    1.30
  -4   2   9    1.30    1.50
   3  -2  -9  237.78    7.50
   3  -2  -9  246.38    7.50
  -3  -2   9  232.58    6.70
  -3   2   9  233.78    7.10
   3   2  -9  232.98    6.90
   3   2  -9  237.48    7.40
   3   2  -9  233.48    5.90
  -2  -2   9   42.00    2.60
   2  -2  -9   39.20    3.00
   2  -2  -9   36.10    3.20
   2   2  -9   37.20    2.80
   2   2  -9   35.80    2.80
  -2   2   9   39.90    2.80
   2   2  -9   37.30    2.20
   1  -2  -9  357.76   10.00
   1  -2  -9  359.46    8.30
   1  -2  -9  356.96    9.80
  -1  -2   9  353.36    8.80
   1   2  -9  358.46    8.60
  -1   2   9  363.96    9.40
   1   2  -9  365.56    9.60
   1   2  -9  358.96    9.20
  -1   2   9  357.76    9.60
   0  -2  -9   45.40    3.40
   0  -2   9   45.50    2.60
   0  -2  -9   45.30    2.40
   0   2   9   44.40    3.30
   0   2  -9   48.30    3.00
   0   2  -9   43.50    2.90
   0   2  -9   44.10    2.60
   0   2   9   44.20    3.00
  -1  -2  -9    4.20    1.90
   1  -2   9    4.20    1.40
  -1  -2  -9    4.00    1.50
   1   2   9    5.10    1.50
  -1   2  -9    4.60    1.50
   1   2   9    3.30    1.60
  -1   2  -9    3.60    1.60
  -2  -2  -9   89.59    4.00
  -2  -2  -9   97.99    5.20
   2  -2   9   96.09    3.90
   2   2   9  106.19    4.70
  -2   2  -9   95.19    3.90
   2   2   9   97.09    4.50
  -2   2  -9   99.49    4.20
  -3  -2  -9   42.00    3.30
  -3  -2  -9   40.20    3.60
   3  -2   9   44.40    2.90
   3  -2   9   39.90    2.90
   3   2   9   41.30    3.00
  -3   2  -9   41.10    3.20
   3   2   9   44.20    3.00
  -3   2  -9   42.10    3.40
   4  -2   9  332.87    8.70
  -4  -2  -9  310.27    9.80
   4  -2   9  332.27    8.70
  -4  -2  -9  331.17    9.20
  -4   2  -9  324.17    9.10
  -4   2  -9  318.07    9.10
   4   2   9  313.67    9.30
   4   2   9  320.47    9.20
  -5  -2  -9   29.90    3.10
   5  -2   9   28.80    2.90
  -5  -2  -9   30.80    3.90
   5  -2   9   28.90    2.70
  -5   2  -9   26.00    2.90
   5   2   9   31.00    3.30
   5   2   9   28.60    3.20
  -5   2  -9   26.50    2.90
  -6  -2  -9  111.69    5.90
   6  -2   9  124.09    5.30
  -6  -2  -9  119.49    5.90
   6   2   9  123.69    5.40
  -6   2  -9  133.99    6.00
   6   2   9  127.29    5.40
  -6   2  -9  130.49    5.40
  -7  -2  -9   -0.20    2.00
  -7  -2  -9    1.90    2.00
   7  -2   9   -0.50    1.90
   7   2   9   -0.80    2.10
   7   2   9   -3.20    2.20
  -7   2  -9   -0.80    2.40
   8  -2   9    1.80    2.30
  -8  -2  -9    3.30    3.00
  -8  -2  -9    3.80    2.30
   8   2   9    4.10    2.50
  -8   2  -9    2.90    3.00
   8   2   9    5.80    2.80
   9  -2   9    1.00    2.40
  -9  -2  -9   -0.60    2.10
  -9  -2  -9   -0.60    3.20
   9   2   9    3.10    2.00
   9   2   9    1.80    2.20
  -9   2  -9    1.60    2.90
 -10  -2  -9    0.40    3.20
  10  -2   9   -1.80    2.50
  10   2   9    1.10    2.50
  10   2   9    3.50    3.00
 -10   2  -9   -0.80    2.20
  11  -2   9    1.00    2.20
 -11  -2  -9   -2.90    3.20
 -11   2  -9   -2.20    3.10
  11   2   9    2.70    2.30
 -12  -2  -9    5.80    3.10
  12  -2   9    3.70    2.40
  12   2   9    6.60    2.90
 -12   2  -9    5.80    3.60
  13  -3  -9   -0.90    3.30
  13   3  -9    0.00    3.00
  13   3  -9    6.00    2.90
  12  -3  -9    5.20    3.40
  12   3  -9    4.30    3.30
  12   3  -9    4.50    3.10
  11  -3  -9   38.10    4.20
  11   3  -9   36.50    4.60
  11   3  -9   46.00    4.30
  10  -3  -9   26.40    3.40
  10  -3  -9   15.30    3.00
  10   3  -9   26.70    3.70
  10   3  -9   26.60    3.50
   9  -3  -9    1.20    2.30
   9  -3  -9    2.10    2.80
   9   3  -9    3.10    2.40
   9   3  -9    1.40    2.00
   8  -3  -9    2.10    2.20
   8  -3  -9   -0.80    1.80
   8   3  -9    3.10    2.10
   8   3  -9   -2.80    1.60
   7  -3  -9   86.89    5.20
   7  -3  -9   85.19    4.40
   7   3  -9   77.49    4.50
   7   3  -9   78.19    4.30
   6  -3  -9   33.50    3.20
   6  -3  -9   29.40    3.60
   6   3  -9   29.50    3.10
   6   3  -9   31.80    2.90
   5  -3  -9   10.80    2.20
   5  -3  -9    4.50    2.30
   5   3  -9    0.20    2.20
  -5   3   9    7.00    2.00
   5   3  -9    6.70    1.90
   4  -3  -9   35.00    3.50
   4  -3  -9   28.70    3.00
   4   3  -9   42.00    2.90
   4   3  -9   33.60    3.40
  -4   3   9   37.50    3.40
   4   3  -9   34.80    2.30
   3  -3  -9   33.30    3.40
   3  -3  -9   25.90    3.10
   3   3  -9   26.40    2.10
   3   3  -9   26.10    2.30
   3   3  -9   27.70    2.70
  -3   3   9   29.50    3.00
   2  -3  -9   26.50    2.80
   2  -3  -9   31.50    3.10
  -2  -3   9   25.70    2.10
   2   3  -9   26.40    2.90
  -2   3   9   25.80    2.90
   2   3  -9   27.50    2.30
   2   3  -9   24.40    2.00
   1  -3  -9   -2.30    2.10
   1  -3  -9   -2.10    1.40
  -1  -3   9    2.30    1.30
   1  -3  -9    0.10    1.00
   1   3  -9    0.70    1.30
  -1   3   9    0.70    1.40
  -1   3   9    2.20    1.40
   1   3  -9    1.10    1.80
   1   3  -9    1.10    1.30
   0  -3  -9   27.40    3.00
   0  -3  -9   24.70    2.10
   0  -3  -9   27.20    2.90
   0  -3   9   30.90    2.30
   0   3   9   28.10    2.70
   0   3  -9   28.00    2.70
   0   3  -9   25.90    2.40
   0   3   9   23.50    2.50
   0   3  -9   24.50    2.20
  -1  -3  -9   -0.30    1.30
   1  -3   9    0.20    1.10
  -1  -3  -9   -0.90    2.20
   1   3   9    0.60    1.40
  -1   3  -9    0.50    1.10
  -1   3  -9    1.70    1.70
   1   3   9    2.00    1.90
   2  -3   9    3.00    1.40
  -2  -3  -9    2.50    1.60
  -2  -3  -9   -0.60    1.70
   2   3   9    0.70    1.40
   2   3   9    1.80    1.50
  -2   3  -9    2.40    1.60
  -2   3  -9    2.10    1.70
  -3  -3  -9    6.50    2.20
  -3  -3  -9   13.60    3.00
   3  -3   9   10.00    1.70
   3   3   9   12.90    2.10
  -3   3  -9   10.00    2.30
  -3   3  -9    9.10    1.90
   3   3   9    8.70    2.30
  -4  -3  -9   19.00    2.50
   4  -3   9   14.60    2.00
  -4  -3  -9   19.50    3.00
   4  -3   9   16.70    2.10
   4   3   9   15.00    2.40
  -4   3  -9   17.20    2.70
  -4   3  -9   19.60    2.40
   4   3   9   15.30    2.70
   5  -3   9   68.29    3.70
  -5  -3  -9   67.79    5.30
  -5  -3  -9   68.29    4.60
   5   3   9   68.49    4.50
   5   3   9   64.59    4.40
  -5   3  -9   63.79    4.40
  -6  -3  -9   77.59    5.00
  -6  -3  -9   66.79    4.30
   6  -3   9   79.29    4.10
   6   3   9   63.99    4.10
   6   3   9   68.79    4.20
  -6   3  -9   66.79    4.70
   7  -3   9   24.00    2.90
  -7  -3  -9   26.10    3.30
  -7  -3  -9   14.90    3.10
   7   3   9   25.20    3.60
   7   3   9   22.60    3.40
  -7   3  -9   28.80    3.30
  -8  -3  -9   57.49    5.30
   8  -3   9   53.69    4.20
  -8   3  -9   55.29    4.60
   8   3   9   58.19    4.80
   8   3   9   58.79    5.00
  -9  -3  -9    2.70    3.20
   9  -3   9    2.00    2.40
   9   3   9   -5.90    2.40
   9   3   9    5.40    2.80
  -9   3  -9    3.90    2.40
 -10  -3  -9    5.20    3.50
  10  -3   9    0.90    1.90
  10   3   9    1.10    2.90
 -10   3  -9    3.50    2.50
  10   3   9   -0.20    1.90
 -11  -3  -9    4.90    3.90
  11  -3   9   -5.30    2.30
 -11   3  -9    0.30    3.30
  11   3   9   -0.70    2.00
  11   3   9    6.50    2.70
  12  -3   9    5.20    3.20
 -12  -3  -9   -2.10    3.80
 -12   3  -9    0.60    2.60
  12   3   9   -4.70    3.00
  13  -4  -9    4.00    3.60
  13   4  -9   -1.30    2.90
  13   4  -9   -2.30    2.30
  12  -4  -9    7.80    3.70
  12   4  -9    7.10    3.50
  12   4  -9    5.60    3.10
  11  -4  -9    9.70    3.60
  11   4  -9    7.90    2.70
  11   4  -9   12.40    3.20
  10  -4  -9   -1.20    3.00
  10   4  -9   -4.60    2.00
  10   4  -9    0.10    2.00
   9  -4  -9    1.30    2.10
   9  -4  -9   -0.80    2.10
   9   4  -9   -0.80    2.10
   9   4  -9    2.00    2.70
   8  -4  -9   77.49    5.50
   8  -4  -9   80.59    4.80
   8   4  -9   80.59    5.40
   7  -4  -9   -2.30    2.30
   7  -4  -9    1.50    1.60
   7   4  -9   -0.90    1.70
   7   4  -9    4.70    2.00
   6  -4  -9  161.08    6.40
   6  -4  -9  148.79    6.20
   6   4  -9  153.18    6.20
   6   4  -9  154.18    5.60
   5  -4  -9   57.89    3.70
   5  -4  -9   53.29    4.40
   5   4  -9   54.09    3.20
   5   4  -9   56.49    3.70
  -5   4   9   56.79    4.20
   4  -4  -9    8.30    2.20
   4  -4  -9   12.00    2.60
  -4   4   9    8.70    2.00
   4   4  -9   13.00    2.00
   4   4  -9   12.20    2.20
   4   4  -9   14.00    1.80
   3  -4  -9  239.78    8.10
   3  -4  -9  237.48    7.90
   3   4  -9  236.88    6.50
   3   4  -9  231.38    6.50
  -3   4   9  236.08    7.60
   3   4  -9  231.08    7.30
   2  -4  -9   26.40    3.30
   2  -4  -9   25.70    2.90
  -2   4   9   23.20    2.60
   2   4  -9   33.90    2.50
   2   4  -9   29.70    2.90
   2   4  -9   33.70    2.40
  -2   4   9   25.10    3.00
   1  -4  -9   63.19    3.90
  -1  -4   9   62.39    2.70
   1  -4  -9   56.79    2.80
   1  -4  -9   61.69    3.80
   1   4  -9   63.39    3.30
   1   4  -9   64.59    3.40
  -1   4   9   60.09    3.50
  -1   4   9   59.79    3.50
   1   4  -9   55.09    2.80
   0  -4   9  521.15   11.50
   0  -4  -9  498.15   13.20
   0  -4  -9  507.45   13.50
   0  -4  -9  533.55   12.00
   0   4   9  513.95   13.00
   0   4  -9  517.95   12.50
   0   4  -9  494.85   11.60
   0   4  -9  536.95   12.40
   0   4   9  503.95   12.90
   1  -4   9   17.30    1.80
  -1  -4  -9   19.00    2.80
  -1  -4  -9   18.70    2.30
   1   4   9   17.00    2.30
   1   4   9   18.00    2.40
  -1   4  -9   21.40    2.10
  -1   4  -9   20.90    2.50
  -2  -4  -9  417.26   12.10
   2  -4   9  431.16   10.00
  -2  -4  -9  430.46   10.90
  -2   4  -9  422.16   10.50
   2   4   9  415.86   11.20
  -2   4  -9  404.06   10.70
   2   4   9  417.96   11.30
  -3  -4  -9   -0.50    1.90
  -3  -4  -9   -2.30    2.50
   3  -4   9    1.60    1.30
   3   4   9    0.70    1.50
  -3   4  -9    0.20    1.30
   3   4   9    1.80    2.10
  -3   4  -9    2.00    1.50
  -4  -4  -9   37.90    3.30
  -4  -4  -9   38.30    3.90
   4  -4   9   36.80    2.60
   4   4   9   37.90    3.60
  -4   4  -9   37.80    3.60
   4   4   9   37.80    3.40
   5  -4   9    0.40    1.70
  -5  -4  -9   -1.00    1.60
  -5  -4  -9   -1.60    2.70
  -5   4  -9   -0.50    1.50
   5   4   9   -1.60    2.10
   5   4   9   -1.10    2.10
  -6  -4  -9   62.19    4.30
  -6  -4  -9   57.79    5.40
   6   4   9   64.09    4.20
  -6   4  -9   65.79    4.80
   6   4   9   62.59    4.70
  -7  -4  -9   25.60    3.40
  -7   4  -9   21.90    3.10
   7   4   9   23.40    3.50
   7   4   9   24.20    3.60
  -8  -4  -9    3.50    3.00
   8   4   9   -0.30    2.60
  -8   4  -9   -2.20    2.70
   8   4   9   -3.00    1.60
  -9  -4  -9   11.50    3.70
   9   4   9   11.50    3.20
   9   4   9    7.40    3.30
  -9   4  -9   11.90    3.50
 -10  -4  -9   -3.10    2.20
  10   4   9    2.50    2.30
  10   4   9    1.40    2.80
 -10   4  -9    2.90    3.30
 -11  -4  -9   -2.70    2.40
  11   4   9    1.60    2.50
  11   4   9    0.90    3.00
 -11   4  -9    3.30    3.50
 -12   4  -9    6.90    3.60
  12   4   9   13.40    3.70
  12  -5  -9   10.10    3.90
  12   5  -9   13.30    4.00
  11  -5  -9    9.50    3.60
  11   5  -9   14.40    3.30
  11   5  -9   14.80    3.20
  10  -5  -9   13.20    3.00
  10   5  -9    8.50    2.70
  10   5  -9    8.10    3.30
   9  -5  -9   46.60    4.90
   9   5  -9   54.09    4.10
   9   5  -9   50.09    4.60
   8  -5  -9    9.80    2.60
   8   5  -9   13.40    3.30
   8   5  -9    7.80    2.20
   7  -5  -9   98.39    5.80
   7  -5  -9  105.09    5.20
   7   5  -9   95.69    5.20
   7   5  -9   99.49    4.50
   6  -5  -9   10.90    2.50
   6  -5  -9   10.00    3.00
   6   5  -9   12.20    2.00
   6   5  -9   13.10    2.50
   5  -5  -9  135.29    5.80
   5  -5  -9  114.49    5.90
   5   5  -9  122.69    4.50
   5   5  -9  119.09    5.70
  -5   5   9  116.69    5.70
   4  -5  -9  337.87   10.30
   4  -5  -9  357.16   10.20
  -4   5   9  348.27   10.10
   4   5  -9  347.67   10.10
   4   5  -9  368.96    9.20
   3  -5  -9    5.30    2.40
   3  -5  -9    0.20    2.30
   3   5  -9    1.50    1.50
  -3   5   9   -0.30    2.00
   3   5  -9    3.10    2.00
   2  -5  -9  212.88    7.50
   2  -5  -9  221.38    7.60
  -2   5   9  226.08    7.30
   2   5  -9  228.98    6.80
  -2   5   9  232.68    7.60
   2   5  -9  232.88    7.10
   1  -5  -9    2.50    2.50
   1  -5  -9    6.80    2.60
   1   5  -9    6.00    1.90
  -1   5   9    7.40    2.20
  -1   5   9    6.50    2.30
   1   5  -9    5.60    1.80
   0  -5  -9  122.89    4.50
   0  -5  -9  121.09    6.00
   0  -5  -9  133.09    5.60
   0   5  -9  119.99    4.60
   0   5   9  122.79    5.10
   0   5  -9  131.79    4.80
   0   5   9  118.19    5.40
  -1  -5  -9  402.96   11.80
  -1  -5  -9  429.06   10.60
  -1   5  -9  397.76   10.70
   1   5   9  422.16   11.20
  -1   5  -9  409.06   10.30
   1   5   9  415.66   11.20
  -2  -5  -9   26.90    3.40
  -2  -5  -9   21.10    2.70
  -2   5  -9   22.00    2.50
   2   5   9   22.20    2.90
  -2   5  -9   22.30    2.20
   2   5   9   21.20    2.70
  -3  -5  -9  401.96   10.90
  -3  -5  -9  382.36   11.80
   3   5   9  401.86   11.20
   3   5   9  404.86   11.00
  -3   5  -9  387.96   10.70
  -4  -5  -9   -2.70    2.10
  -4  -5  -9    1.90    2.10
   4   5   9   -2.50    2.00
  -4   5  -9   -1.50    1.50
   4   5   9   -0.70    1.60
  -5  -5  -9   28.50    3.70
  -5  -5  -9   30.00    3.70
   5   5   9   24.40    3.10
  -5   5  -9   26.00    3.10
   5   5   9   24.80    3.40
  -6  -5  -9   86.09    5.10
  -6  -5  -9   89.59    5.80
  -6   5  -9   90.69    4.90
   6   5   9   95.49    5.10
   6   5   9   78.79    4.80
  -7  -5  -9   82.39    5.20
  -7   5  -9   90.09    5.70
   7   5   9   85.49    5.10
   7   5   9   73.79    5.40
  -8  -5  -9    3.50    2.50
  -8   5  -9    6.10    2.40
   8   5   9    5.90    2.90
   8   5   9    2.20    2.80
  -9  -5  -9    4.70    2.70
   9   5   9    4.60    3.10
  -9   5  -9    4.00    3.20
   9   5   9    8.20    3.20
 -10  -5  -9    1.60    2.70
  10   5   9   -0.10    2.00
  10   5   9    0.40    2.20
 -10   5  -9    1.00    3.20
 -11  -5  -9   -5.40    3.30
 -11   5  -9   -0.50    3.20
  11   5   9    1.60    3.00
  11   5   9    2.40    2.50
  12  -6  -9    9.70    3.20
  12   6  -9    8.10    2.90
  11  -6  -9   11.30    3.00
  11   6  -9    9.80    3.80
  10  -6  -9   21.80    4.10
  10   6  -9   11.50    3.00
   9  -6  -9   19.80    3.80
   9   6  -9   11.30    3.60
   8  -6  -9    1.30    2.10
   8   6  -9   -1.80    2.00
   7  -6  -9    6.80    2.90
   7   6  -9    7.00    3.00
   6  -6  -9   13.60    2.60
   6  -6  -9    7.40    3.00
  -6  -6   9   11.20    2.30
   6   6  -9   16.10    2.70
   5  -6  -9   16.20    3.20
   5  -6  -9   15.80    2.80
   5   6  -9   13.60    2.90
   5   6  -9   14.20    2.20
  -5   6   9   18.80    3.10
   4  -6  -9   55.89    4.20
   4  -6  -9   56.79    4.00
   4   6  -9   57.49    3.70
  -4   6   9   54.09    3.80
   4   6  -9   59.59    3.50
   3  -6  -9  168.88    7.10
   3  -6  -9  195.88    7.30
   3   6  -9  188.68    6.60
  -3   6   9  180.98    6.40
   3   6  -9  185.98    6.20
  -3   6   9  173.68    6.80
   2  -6  -9   56.89    3.90
   2  -6  -9   59.59    4.50
  -2   6   9   50.89    3.90
   2   6  -9   46.80    3.00
  -2   6   9   51.19    4.00
   2   6  -9   55.89    3.30
   1  -6  -9   59.79    4.00
   1  -6  -9   53.89    4.60
   1   6  -9   56.89    3.70
  -1   6   9   58.39    3.60
   1   6  -9   49.10    3.40
  -1   6   9   57.29    4.10
  -1   6   9   59.29    2.90
   0  -6  -9   -0.70    1.70
   0  -6  -9    1.40    2.40
   0  -6  -9   -0.30    1.50
   0   6   9   -2.10    2.00
   0   6   9    3.90    1.80
   0   6  -9    0.40    1.50
   0   6  -9    3.90    2.00
  -1  -6  -9   34.30    4.00
  -1  -6  -9   35.20    3.20
   1   6   9   40.30    3.60
  -1   6  -9   35.10    2.60
   1   6   9   37.60    3.70
  -1   6  -9   37.60    3.40
  -2  -6  -9    2.60    2.10
  -2  -6  -9    3.00    2.30
   2   6   9    0.50    2.10
   2   6   9    1.10    1.70
  -2   6  -9   -2.30    1.90
  -3  -6  -9  122.09    6.80
  -3  -6  -9  145.59    6.00
  -3   6  -9  120.29    5.70
   3   6   9  139.89    5.70
   3   6   9  135.59    6.20
  -4  -6  -9    3.50    2.50
  -4  -6  -9    5.90    2.60
   4   6   9    1.80    2.50
  -4   6  -9    2.60    1.80
   4   6   9   -1.80    1.60
  -5  -6  -9   36.50    3.70
  -5  -6  -9   30.50    4.50
   5   6   9   35.90    4.10
  -5   6  -9   35.70    3.90
   5   6   9   40.60    4.20
  -6  -6  -9   40.40    4.00
   6   6   9   41.80    4.00
   6   6   9   37.10    4.30
  -6   6  -9   40.80    4.20
  -7  -6  -9    1.80    2.20
   7   6   9    2.70    2.20
   7   6   9    1.80    2.10
  -7   6  -9    2.00    2.10
  -8  -6  -9    1.40    3.20
   8   6   9    0.70    2.90
   8   6   9    2.40    2.90
  -8   6  -9   -0.90    2.90
  -9  -6  -9    4.40    3.60
  -9   6  -9    1.70    2.40
   9   6   9    2.30    2.40
   9   6   9    3.40    2.40
 -10  -6  -9    2.60    2.90
 -10   6  -9   -3.40    2.00
  10   6   9   -6.00    1.70
  10   6   9   -0.90    2.90
 -11  -6  -9   65.89    7.40
 -11   6  -9   52.29    5.20
  11   6   9   53.29    5.30
  11   6   9   51.89    5.40
  12  -7  -9   -0.10    2.40
  11  -7  -9    1.80    2.50
  11   7  -9    1.00    3.30
  10  -7  -9    0.60    3.10
  10   7  -9   -0.90    3.00
   9  -7  -9    2.90    3.00
   9   7  -9   -1.70    2.00
   8  -7  -9   -4.00    1.70
   8   7  -9    2.00    2.20
   7  -7  -9   51.69    4.80
   7   7  -9   53.49    4.90
   6  -7  -9    1.50    2.70
   6   7  -9    2.20    2.10
   6   7  -9    1.70    2.60
   5  -7  -9    5.50    2.20
   5  -7  -9    0.20    2.60
  -5   7   9   -0.70    2.40
   5   7  -9    0.80    1.80
   5   7  -9   -1.90    1.50
   4  -7  -9    1.10    2.50
   4  -7  -9    4.70    1.90
   4   7  -9   -0.10    1.60
  -4   7   9    3.50    2.40
   4   7  -9    4.50    2.00
   3  -7  -9   55.89    4.10
   3  -7  -9   74.89    4.80
   3   7  -9   62.29    4.10
   3   7  -9   60.29    3.50
  -3   7   9   67.59    4.30
  -3   7   9   66.49    4.00
   2  -7  -9  161.18    6.50
   2  -7  -9  149.99    6.40
  -2   7   9  156.68    6.10
   2   7  -9  146.19    5.90
   2   7  -9  165.58    6.00
  -2   7   9  158.58    6.10
   1  -7  -9   57.09    4.70
   1  -7  -9   56.39    4.10
   1   7  -9   58.79    4.00
  -1   7   9   57.49    3.80
  -1   7   9   56.69    4.20
   1   7  -9   63.29    3.60
   0  -7  -9   35.40    4.10
   0  -7  -9   27.70    3.80
   0  -7  -9   34.20    3.20
   0   7   9   27.60    3.10
   0   7  -9   32.60    2.70
   0   7  -9   32.10    3.30
   0   7   9   36.10    2.70
   0   7   9   28.80    3.40
  -1  -7  -9  249.38    7.80
  -1  -7  -9  237.98    8.70
   1   7   9  238.18    8.10
   1   7   9  233.78    8.00
  -1   7  -9  232.38    7.70
   1   7   9  246.28    7.20
  -2  -7  -9    0.20    2.10
  -2  -7  -9   -0.70    2.00
  -2   7  -9   -1.00    1.50
   2   7   9   -1.90    1.60
   2   7   9   -2.30    2.10
  -3  -7  -9   51.79    4.30
  -3  -7  -9   51.79    4.70
   3   7   9   55.09    4.00
  -3   7  -9   59.89    3.90
   3   7   9   50.19    3.80
  -4  -7  -9   16.20    2.80
  -4  -7  -9   14.80    3.80
   4   7   9   12.10    3.10
   4   7   9   23.90    3.10
  -4   7  -9   14.10    3.10
  -5  -7  -9   -3.60    2.40
  -5  -7  -9   -3.10    3.10
   5   7   9    2.50    2.00
   5   7   9    1.60    2.70
  -5   7  -9    0.20    1.80
  -6  -7  -9   11.90    3.40
   6   7   9   10.40    3.30
  -6   7  -9    8.20    2.50
   6   7   9   14.60    3.30
  -7  -7  -9    7.00    3.30
  -7   7  -9    8.00    3.20
   7   7   9    3.40    2.30
   7   7   9    1.10    2.20
  -8  -7  -9    5.80    2.80
   8   7   9    5.00    3.30
  -8   7  -9    8.00    3.40
   8   7   9    2.80    2.40
  -9  -7  -9   -0.30    3.40
   9   7   9   -2.00    2.00
   9   7   9    3.80    2.60
  -9   7  -9   -4.40    3.00
 -10  -7  -9   43.80    5.80
  10   7   9   50.09    5.60
 -10   7  -9   44.30    4.80
  10   7   9   36.10    4.60
  11  -8  -9    6.40    2.80
  11   8  -9    8.90    3.10
  10  -8  -9   24.30    4.30
  10   8  -9   23.70    3.80
   9  -8  -9   21.90    4.00
   9   8  -9   13.30    3.10
   8  -8  -9   46.70    4.50
   8   8  -9   46.60    5.00
   7  -8  -9   16.70    3.60
   7   8  -9   11.20    3.30
   6  -8  -9   74.89    5.50
   6   8  -9   77.79    5.40
   6   8  -9   62.29    4.30
   5  -8  -9  119.39    6.40
   5   8  -9  126.59    5.60
   5   8  -9  116.79    6.00
  -5   8   9  121.99    6.20
   4  -8  -9    9.90    2.70
   4  -8  -9   12.10    3.10
   4   8  -9    2.40    2.20
  -4   8   9   10.50    2.90
   4   8  -9   11.10    2.70
   3  -8  -9  147.49    6.80
   3  -8  -9  138.39    6.40
   3   8  -9  146.09    6.00
   3   8  -9  141.89    5.60
  -3   8   9  147.99    6.20
  -3   8   9  133.29    6.30
   2  -8  -9   12.20    3.10
   2  -8  -9   14.20    3.10
   2   8  -9    7.40    2.00
   2   8  -9    9.90    2.30
  -2   8   9   11.50    2.70
  -2   8   9    9.30    2.80
   1  -8  -9  511.05   14.40
   1  -8  -9  520.45   14.30
  -1   8   9  501.75   13.60
  -1   8   9  519.95   13.70
   1   8  -9  499.15   13.20
   0  -8  -9   73.69    4.80
   0  -8  -9   72.39    5.10
   0  -8  -9   58.09    4.80
   0   8   9   64.49    4.10
   0   8   9   60.89    3.50
   0   8  -9   61.89    4.50
   0   8   9   61.79    4.50
  -1  -8  -9   77.79    5.40
  -1  -8  -9   94.89    6.10
  -1  -8  -9   75.19    4.50
   1   8   9   75.89    4.10
   1   8   9   75.79    5.00
  -1   8  -9   81.39    4.50
   1   8   9   74.59    4.90
  -2  -8  -9  192.98    7.00
  -2  -8  -9  207.48    8.70
   2   8   9  197.58    7.70
   2   8   9  204.08    7.30
  -2   8  -9  183.28    7.10
   2   8   9  182.78    6.60
  -3  -8  -9    8.70    2.80
  -3  -8  -9    3.80    2.50
   3   8   9    4.00    2.60
   3   8   9    5.00    2.20
  -3   8  -9    0.90    2.50
  -4  -8  -9  136.39    6.70
  -4  -8  -9  137.09    7.70
  -4   8  -9  127.59    6.00
   4   8   9  131.69    6.50
   4   8   9  128.09    6.70
  -5  -8  -9   43.90    4.30
  -5  -8  -9   42.10    5.40
   5   8   9   42.30    4.40
  -5   8  -9   49.80    4.70
   5   8   9   39.40    4.70
  -6  -8  -9   37.90    4.70
  -6   8  -9   44.70    4.70
   6   8   9   41.50    4.80
   6   8   9   50.69    4.80
  -7  -8  -9  107.49    7.00
   7   8   9  101.99    6.10
  -7   8  -9  107.49    6.70
  -8  -8  -9    1.30    2.50
  -8   8  -9    0.10    2.30
   8   8   9    0.50    2.90
   8   8   9   -4.50    2.90
  -9  -8  -9   19.00    3.80
  -9   8  -9   28.00    4.60
   9   8   9   19.00    4.30
   9   8   9   14.20    4.00
 -10   8  -9   10.30    4.60
  10   8   9    1.20    3.30
  10  -9  -9   14.60    3.30
  10   9  -9   18.10    4.40
   9  -9  -9   12.90    3.60
   9   9  -9    8.80    3.70
   8  -9  -9    2.20    3.00
   8   9  -9    6.40    3.30
   7  -9  -9   11.40    3.30
  -7  -9   9    5.00    2.90
   7   9  -9    7.80    3.30
   6  -9  -9    1.50    2.10
   6   9  -9    4.20    2.30
   6   9  -9    1.70    2.70
   5  -9  -9   -2.30    2.60
   5   9  -9    3.30    2.50
   5   9  -9    2.30    2.30
   4  -9  -9   15.40    3.40
  -4   9   9   10.40    3.00
   4   9  -9    9.70    2.30
   4   9  -9   10.50    2.30
   3  -9  -9   72.89    4.90
   3  -9  -9   62.09    5.20
  -3   9   9   64.99    4.90
   3   9  -9   64.99    4.40
   3   9  -9   76.09    4.40
  -3   9   9   74.99    4.70
   2  -9  -9  322.87   10.50
   2  -9  -9  315.87   10.40
   2   9  -9  309.37    9.80
  -2   9   9  297.67    9.50
  -2   9   9  310.97   10.00
   1  -9  -9   88.99    5.70
   1  -9  -9   88.49    5.70
  -1   9   9   92.19    5.20
   1   9  -9   80.29    5.10
  -1   9   9   74.39    5.00
   0  -9  -9    0.40    2.70
   0  -9  -9    2.00    2.20
   0   9   9   -0.20    1.70
   0   9  -9    5.30    2.60
   0   9   9    2.30    2.50
   0   9   9    1.20    2.40
  -1  -9  -9   24.60    4.10
  -1  -9  -9   26.90    3.90
  -1  -9  -9   27.30    3.40
  -1   9  -9   26.30    3.20
   1   9   9   28.40    3.10
   1   9   9   26.90    3.50
   1   9   9   29.20    3.70
  -2  -9  -9    2.10    2.30
  -2  -9  -9    5.40    3.50
   2   9   9    4.80    2.30
   2   9   9    1.30    1.90
  -2   9  -9    1.40    1.90
   2   9   9    1.10    1.90
  -3  -9  -9    7.70    2.80
  -3  -9  -9    6.70    2.90
   3   9   9    8.00    2.80
   3   9   9   11.20    2.60
   3   9   9    6.00    2.00
  -3   9  -9    8.90    3.10
  -4  -9  -9   10.80    3.10
  -4  -9  -9    5.90    3.00
   4   9   9    4.30    2.80
  -4   9  -9    5.70    2.40
   4   9   9    9.00    2.60
  -5  -9  -9   -4.30    1.90
  -5  -9  -9   -1.60    3.50
  -5   9  -9    1.80    2.90
   5   9   9    4.70    2.90
   5   9   9    1.30    2.30
  -6  -9  -9   16.60    3.80
  -6  -9  -9   20.30    4.00
  -6   9  -9   24.10    4.10
   6   9   9   22.60    3.60
   6   9   9   24.50    3.90
  -7  -9  -9    3.70    3.70
  -7   9  -9    8.50    2.80
   7   9   9    6.90    2.80
   7   9   9    4.00    2.50
  -8  -9  -9   13.70    3.60
   8   9   9   10.60    3.60
   8   9   9   12.80    3.30
  -8   9  -9    7.40    3.50
  -9  -9  -9    8.90    3.30
  -9   9  -9   -1.00    3.20
   9   9   9    1.00    2.50
   9   9   9    4.80    3.80
  10 -10  -9   10.70    3.70
   9 -10  -9    1.20    2.30
   9  10  -9    1.70    2.50
   8 -10  -9   -1.00    2.80
   8  10  -9   -3.50    3.00
   7 -10  -9   -0.40    2.80
  -7 -10   9    3.90    2.90
   7  10  -9    2.40    3.00
   6 -10  -9   35.30    4.30
  -6 -10   9   40.20    4.20
   6  10  -9   50.09    4.80
   6  10  -9   41.40    4.20
   5 -10  -9   13.50    2.90
   5  10  -9   15.20    2.70
   5  10  -9   12.70    3.10
   4 -10  -9   11.10    3.20
   4  10  -9   10.00    2.80
  -4  10   9    3.10    2.70
   4  10  -9    9.80    2.80
   3 -10  -9    5.40    2.90
  -3  10   9    2.20    2.60
   3  10  -9    0.30    1.80
   2 -10  -9   32.10    4.00
  -2  10   9   31.70    3.80
  -2  10   9   36.20    3.60
   2  10  -9   31.80    3.90
   1 -10  -9   35.70    4.30
   1 -10  -9   38.10    4.30
  -1  10   9   36.40    4.00
  -1  10   9   40.80    4.20
   1  10  -9   33.20    3.60
   0 -10  -9   85.79    5.50
   0 -10  -9   88.59    5.90
   0  10   9   96.19    5.20
   0  10   9   95.59    5.50
   0  10  -9  100.09    5.30
  -1 -10  -9   26.70    4.30
  -1 -10  -9   21.90    3.30
  -1 -10  -9   26.80    3.50
   1  10   9   26.90    3.40
  -1  10  -9   30.40    3.60
   1  10   9   25.00    3.10
   1  10   9   21.50    3.00
  -2 -10  -9   30.30    4.20
  -2 -10  -9   21.30    3.10
  -2 -10  -9   26.90    4.10
   2  10   9   25.40    3.30
   2  10   9   31.70    3.90
   2  10   9   28.10    3.50
  -2  10  -9   25.00    3.40
  -3 -10  -9    1.60    2.80
  -3 -10  -9    2.50    3.50
   3  10   9    6.20    2.60
   3  10   9    4.40    2.70
  -3  10  -9    3.70    2.90
   3  10   9    3.00    3.00
  -4 -10  -9    6.20    2.90
  -4 -10  -9    7.00    3.30
   4  10   9    3.70    2.70
  -4  10  -9    6.40    2.60
   4  10   9    2.80    2.30
   4  10   9    1.10    2.60
  -5 -10  -9    2.60    2.60
  -5 -10  -9   -1.20    2.60
  -5  10  -9    4.10    2.50
   5  10   9    7.10    3.00
   5  10   9    6.00    2.70
  -6 -10  -9   -0.70    3.30
  -6 -10  -9    2.20    2.90
  -6  10  -9   -0.10    2.20
   6  10   9    3.50    3.10
   6  10   9    3.20    2.60
  -7 -10  -9    3.20    3.70
   7  10   9    0.00    3.00
  -7  10  -9    1.80    2.40
   7  10   9    1.70    3.40
  -8 -10  -9    3.00    2.90
  -8  10  -9   -0.20    3.30
   8  10   9    4.60    3.10
   8  10   9    5.00    2.70
   9  11  -9   11.50    3.30
   8  11  -9    7.50    2.90
  -7 -11   9   11.80    3.10
   7  11  -9    9.40    3.50
   7  11  -9   15.90    3.90
  -6 -11   9    5.30    3.30
   6  11  -9    0.20    2.60
   6  11  -9    0.70    2.10
   5  11  -9   38.00    3.90
   4 -11  -9   58.29    6.20
  -4  11   9   57.39    4.40
   4  11  -9   59.89    5.10
   3 -11  -9    3.50    3.10
   3  11  -9   -3.50    1.60
  -3  11   9   -4.30    2.30
   2 -11  -9  146.39    7.20
  -2  11   9  144.29    6.80
   2  11  -9  148.39    7.10
   1 -11  -9  101.89    6.20
   1  11  -9   95.39    6.00
  -1  11   9  106.69    6.30
   0 -11  -9   77.19    5.80
   0 -11  -9   59.29    5.00
   0  11   9   59.49    4.40
   0  11  -9   62.89    5.40
   0  11   9   64.49    4.40
  -1 -11  -9    3.80    2.60
  -1 -11  -9   -0.20    2.80
   1  11   9    0.00    1.90
   1  11   9    0.10    2.20
   1  11   9   -0.40    2.50
  -1  11  -9    3.30    3.00
  -2 -11  -9   44.30    4.80
  -2 -11  -9   45.50    5.50
  -2 -11  -9   42.30    4.30
   2  11   9   41.60    4.00
   2  11   9   41.40    4.10
  -2  11  -9   45.40    4.40
   2  11   9   42.40    4.70
  -3 -11  -9   80.39    7.00
  -3 -11  -9   91.99    6.30
  -3  11  -9   97.89    6.40
   3  11   9   80.49    5.60
   3  11   9   94.49    5.70
   3  11   9   93.59    5.70
  -4 -11  -9   48.40    5.90
  -4 -11  -9   34.40    4.20
   4  11   9   39.20    4.90
  -4  11  -9   35.70    4.20
   4  11   9   35.40    4.30
   4  11   9   34.60    3.80
  -5 -11  -9    3.30    3.50
  -5 -11  -9    3.60    4.10
   5  11   9    6.80    3.60
  -5  11  -9    7.80    2.90
   5  11   9    4.10    2.80
  -6 -11  -9   -2.60    3.90
  -6 -11  -9   -0.50    3.50
   6  11   9    7.30    3.20
  -6  11  -9    3.90    2.70
   6  11   9    3.90    3.60
  -7 -11  -9    0.10    2.80
  -7 -11  -9    3.90    3.40
   7  11   9    0.30    2.50
  -7  11  -9    2.50    2.70
   7  11   9    3.70    2.40
  -7 -12   9   -0.10    3.30
   7  12  -9   -0.10    2.80
   7  12  -9    3.00    3.20
  -6 -12   9   22.00    3.70
   6  12  -9   21.20    3.40
   5  12  -9    7.20    3.20
   4  12  -9   12.60    3.40
   3  12  -9   35.90    4.10
   2  12  -9    4.00    2.40
   1  12  -9  111.69    6.10
   0  12  -9    6.80    2.50
  -1 -12  -9   21.70    4.30
   1  12   9   23.70    3.90
  -1  12  -9   20.90    4.00
  -2 -12  -9   62.99    6.20
  -2 -12  -9   70.59    6.60
  -2  12  -9   82.99    6.20
   2  12   9   64.89    5.00
   2  12   9   77.69    5.80
  -3 -12  -9    7.90    3.50
  -3 -12  -9    0.30    3.50
   3  12   9   10.20    3.40
  -3  12  -9    7.60    2.80
   3  12   9    5.80    2.90
  -4 -12  -9    6.40    3.70
  -4 -12  -9    7.00    3.40
  -4  12  -9    2.40    2.60
   4  12   9    7.20    2.70
   4  12   9    0.30    2.90
  -5 -12  -9    7.20    3.00
  -5 -12  -9    9.70    3.80
   5  12   9   -1.40    2.20
   5  12   9    4.80    3.20
  -5  12  -9    2.00    3.40
  -6 -12  -9   -3.50    3.80
   5  13  -9    2.80    3.10
   4  13  -9   54.89    5.30
   3  13  -9   39.00    4.50
   2  13  -9   -0.30    2.20
   1  13  -9   -4.20    2.80
   0  13  -9    6.80    3.40
  -1  13  -9    0.70    2.40
   2  13   9    0.50    2.90
  -2  13  -9   -2.50    2.90
  -3 -13  -9    2.10    3.00
  -3 -13  -9    4.90    2.80
   3  13   9    3.90    2.40
  -3  13  -9    3.10    2.70
   3  13   9    0.80    2.10
  -4 -13  -9   -3.00    3.90
  -4 -13  -9    5.10    3.80
   4  13   9   -4.80    2.70
   4  13   9   -2.40    3.10
  13   0 -10   22.80    4.20
  13   0 -10   25.00    4.60
  12   0 -10   19.50    3.50
  12   0 -10   26.10    4.10
  11   0 -10    4.20    2.40
  11   0 -10    0.10    2.80
  10   0 -10  104.19    6.30
  10   0 -10  107.39    5.70
   9   0 -10   -2.20    2.40
   9   0 -10    5.00    2.80
   8   0 -10  126.09    5.70
   8   0 -10  124.59    5.80
   7   0 -10  102.89    5.60
   7   0 -10  103.09    5.40
   6   0 -10    1.30    2.20
   6   0 -10    0.90    1.70
   5   0 -10  122.29    5.40
   5   0 -10  121.79    5.10
   4   0 -10   67.99    4.20
  -4   0  10   66.49    3.90
   4   0 -10   67.19    4.40
  -3   0  10   67.99    3.80
   3   0 -10   66.29    4.10
   3   0 -10   72.29    4.50
   2   0 -10   99.09    4.60
   2   0 -10   83.29    4.70
  -2   0  10   83.89    4.10
   1   0 -10  536.85   11.90
  -1   0  10  515.85   12.80
   1   0 -10  579.24   14.00
   1   0 -10  541.65   13.40
   0   0 -10  336.37    9.90
   0   0 -10  336.67    8.40
   0   0 -10  351.36    9.70
   0   0  10  340.57    9.00
   1   0  10   64.99    3.30
  -1   0 -10   62.29    3.20
  -1   0 -10   72.99    4.50
   1   0  10   65.59    3.90
   2   0  10  371.96    9.90
  -2   0 -10  387.16    9.70
   2   0  10  354.36    9.70
  -2   0 -10  352.86   10.30
   3   0  10  148.39    5.40
  -3   0 -10  155.38    6.40
  -3   0 -10  151.18    5.40
   3   0  10  154.38    5.80
   4   0  10  725.13   17.20
  -4   0 -10  731.53   17.40
   4   0  10  738.13   17.30
  -4   0 -10  731.23   17.90
   5   0  10   89.29    4.30
   5   0  10   83.89    4.70
  -5   0 -10   81.99    4.40
  -5   0 -10   87.59    5.10
   6   0  10   -1.10    2.10
  -6   0 -10    0.00    2.30
  -6   0 -10    0.20    1.80
   6   0  10    1.60    2.10
  -7   0 -10  154.78    7.00
  -7   0 -10  161.68    6.80
   7   0  10  162.88    6.40
   7   0  10  157.78    6.40
   8   0  10    6.30    2.30
  -8   0 -10   11.80    3.10
  -8   0 -10    5.50    3.10
  -9   0 -10   33.20    4.50
   9   0  10   27.80    4.10
  10   0  10   26.00    3.60
 -10   0 -10   25.10    3.80
 -11   0 -10    7.80    3.00
  11   0  10    4.20    3.30
  12   0  10   25.40    4.40
  13  -1 -10   14.90    4.10
  13   1 -10   25.80    4.30
  13   1 -10   23.70    4.50
  12  -1 -10    3.00    2.90
  12  -1 -10    3.90    2.60
  12   1 -10    4.30    2.50
  12   1 -10   -1.70    2.80
  11  -1 -10   -6.80    2.30
  11  -1 -10    0.00    2.30
  11   1 -10   -3.20    1.90
  11   1 -10   -1.00    2.80
  10  -1 -10   54.99    4.30
  10  -1 -10   66.39    5.40
  10   1 -10   50.49    4.60
  10   1 -10   55.49    4.40
   9  -1 -10    8.20    3.00
   9  -1 -10   16.40    3.40
   9   1 -10   11.80    3.10
   9   1 -10   12.20    2.60
   8  -1 -10   14.10    2.70
   8  -1 -10   15.30    2.70
   8   1 -10   15.90    2.70
   8   1 -10   16.20    3.10
   7  -1 -10  128.79    5.70
   7  -1 -10  138.19    5.90
   7   1 -10  125.59    6.20
   7   1 -10  137.39    5.90
   6  -1 -10    4.70    2.50
   6  -1 -10    6.40    2.00
   6   1 -10    4.70    2.30
   6   1 -10    3.80    2.00
   5  -1 -10    5.90    2.50
   5  -1 -10    6.20    2.00
   5   1 -10    7.00    2.50
   5   1 -10    8.90    2.40
   4  -1 -10   27.90    3.30
  -4  -1  10   29.50    2.70
   4  -1 -10   27.90    3.30
  -4   1  10   34.70    3.20
   4   1 -10   24.10    2.50
   4   1 -10   31.10    3.40
   3  -1 -10   66.29    3.90
   3  -1 -10   61.99    4.20
  -3  -1  10   60.99    3.20
   3   1 -10   65.99    3.50
  -3   1  10   54.29    3.70
   3   1 -10   57.89    3.70
  -2  -1  10   43.90    3.00
   2  -1 -10   45.30    3.40
   2  -1 -10   52.59    3.90
   2   1 -10   46.50    3.40
  -2   1  10   42.30    3.30
   2   1 -10   47.00    2.30
   2   1 -10   40.70    3.20
  -1  -1  10    1.00    1.50
   1  -1 -10    1.30    2.20
   1  -1 -10    0.40    0.90
   1  -1 -10    2.40    1.80
   1   1 -10    0.10    1.50
   1   1 -10    0.90    1.40
   1   1 -10    1.90    1.10
  -1   1  10    1.30    1.80
   0  -1 -10   47.20    2.70
   0  -1 -10   45.10    3.70
   0  -1  10   55.19    3.20
   0  -1 -10   45.10    3.40
   0   1  10   43.80    3.30
   0   1 -10   49.00    2.70
   0   1 -10   49.30    3.30
   0   1  10   40.20    3.00
   0   1 -10   51.49    3.60
  -1  -1 -10   41.30    3.90
   1  -1  10   48.50    3.10
  -1  -1 -10   54.69    3.00
  -1   1 -10   46.70    2.90
   1   1  10   50.99    3.10
   1   1  10   50.39    3.70
  -1   1 -10   46.40    3.80
   2  -1  10   16.20    2.40
   2  -1  10   19.00    2.40
  -2  -1 -10   13.30    2.50
  -2  -1 -10   20.20    2.40
   2   1  10   15.10    2.20
  -2   1 -10   16.50    2.00
   2   1  10   17.40    2.50
  -2   1 -10   16.20    2.70
   3  -1  10  323.07    9.00
  -3  -1 -10  319.97    9.00
  -3  -1 -10  320.87   10.00
   3  -1  10  314.67    8.70
   3   1  10  312.37    9.20
   3   1  10  323.47    9.20
  -3   1 -10  322.47    9.00
  -3   1 -10  310.37    9.40
   4  -1  10  355.96    9.90
  -4  -1 -10  373.06   10.40
  -4  -1 -10  376.46   11.20
   4  -1  10  363.96   10.00
   4   1  10  376.96   10.30
   4   1  10  360.96   10.40
  -4   1 -10  378.06   10.40
  -4   1 -10  367.96   10.40
  -5  -1 -10   78.79    4.80
   5  -1  10   81.49    4.30
   5  -1  10   84.99    4.20
  -5  -1 -10   84.59    4.50
   5   1  10   92.09    4.40
   5   1  10   83.99    4.80
  -5   1 -10   83.99    4.40
  -5   1 -10   82.69    4.40
  -6  -1 -10   36.80    4.20
   6  -1  10   34.60    3.30
  -6  -1 -10   35.90    4.00
   6  -1  10   37.90    3.60
  -6   1 -10   37.50    3.80
   6   1  10   35.30    3.60
  -6   1 -10   38.40    3.90
   6   1  10   41.70    3.60
   7  -1  10   57.69    4.40
  -7  -1 -10   66.39    5.40
  -7  -1 -10   56.59    5.00
  -7   1 -10   60.09    4.60
  -7   1 -10   60.59    5.00
   7   1  10   63.59    4.80
   7   1  10   60.19    4.40
  -8  -1 -10   38.30    4.50
  -8  -1 -10   35.60    4.00
   8  -1  10   37.10    4.00
   8   1  10   36.90    3.80
  -8   1 -10   38.30    4.40
   8   1  10   35.10    4.20
  -9  -1 -10   28.40    4.40
   9  -1  10   30.40    3.60
  -9  -1 -10   30.00    4.30
  -9   1 -10   33.80    4.10
   9   1  10   22.10    3.40
 -10  -1 -10    5.00    2.60
  10  -1  10    3.40    2.90
 -10   1 -10    0.20    3.30
  10   1  10    1.40    3.00
 -11  -1 -10   49.90    5.20
  11  -1  10   43.40    4.80
  11   1  10   47.00    4.80
 -11   1 -10   42.50    5.30
  12  -1  10  102.19    6.30
  12   1  10   92.79    7.00
  13  -2 -10    7.30    3.10
  13   2 -10    4.50    3.40
  13   2 -10    5.70    2.80
  12  -2 -10   -2.70    2.20
  12   2 -10   -1.10    2.90
  12   2 -10   -3.90    2.70
  11  -2 -10    5.80    2.70
  11  -2 -10    9.00    3.10
  11   2 -10   -1.70    2.80
  11   2 -10    8.00    3.20
  10  -2 -10   15.20    3.70
  10  -2 -10   13.50    2.70
  10   2 -10   15.10    3.40
  10   2 -10   17.20    3.70
   9  -2 -10   30.90    3.80
   9  -2 -10   29.80    4.20
   9   2 -10   28.50    3.70
   9   2 -10   25.30    4.00
   8  -2 -10   25.70    3.50
   8  -2 -10   18.30    3.00
   8   2 -10   23.80    3.20
   8   2 -10   28.20    3.10
   7  -2 -10   34.00    3.80
   7  -2 -10   32.90    3.40
   7   2 -10   36.00    3.50
   7   2 -10   36.50    3.60
   6  -2 -10   77.89    4.50
   6  -2 -10   66.89    4.70
   6   2 -10   76.19    4.30
   6   2 -10   73.89    4.40
   5  -2 -10    5.30    2.00
   5  -2 -10    3.30    2.40
   5   2 -10    2.10    1.90
   5   2 -10    6.90    2.50
  -5   2  10    3.20    1.70
   4  -2 -10  301.27    9.40
   4  -2 -10  312.87    9.60
   4   2 -10  311.47    9.20
  -4   2  10  309.77    9.20
   4   2 -10  314.47    8.70
   3  -2 -10   22.00    2.70
  -3  -2  10   23.50    2.40
   3  -2 -10   16.80    2.90
  -3   2  10   19.60    2.40
   3   2 -10   21.90    3.00
   3   2 -10   22.80    2.50
   2  -2 -10   59.99    3.80
   2  -2 -10   59.19    3.70
  -2  -2  10   57.29    3.10
  -2   2  10   51.59    3.30
   2   2 -10   62.19    3.70
   2   2 -10   56.19    2.60
   2   2 -10   51.49    3.40
   1  -2 -10   23.60    2.80
   1  -2 -10   22.10    2.70
  -1  -2  10   28.60    2.40
   1  -2 -10   19.40    2.70
  -1   2  10   26.20    2.70
   1   2 -10   26.00    2.70
   1   2 -10   25.30    2.20
  -1   2  10   27.40    2.60
   1   2 -10   26.00    2.60
   0  -2 -10  105.09    3.90
   0  -2 -10  110.49    5.10
   0  -2 -10  107.19    5.30
   0  -2  10  104.89    4.10
   0   2  10   97.29    4.70
   0   2 -10  108.09    4.50
   0   2 -10  108.59    3.90
   0   2  10   98.59    4.50
   0   2 -10   94.19    4.40
  -1  -2 -10    2.20    2.40
   1  -2  10    3.40    1.50
  -1  -2 -10   -1.60    1.30
   1   2  10   -1.00    1.30
  -1   2 -10   -0.40    1.80
  -1   2 -10   -0.10    1.10
   1   2  10   -1.70    1.90
  -2  -2 -10   51.89    3.80
   2  -2  10   51.29    3.10
  -2  -2 -10   48.00    3.30
  -2   2 -10   47.80    3.70
   2   2  10   45.00    3.60
  -2   2 -10   45.40    3.30
   2   2  10   48.40    3.30
  -3  -2 -10    6.80    2.20
   3  -2  10    0.50    1.70
   3  -2  10    2.10    1.60
  -3  -2 -10    4.00    2.00
   3   2  10    4.10    1.70
  -3   2 -10   -1.10    1.80
  -3   2 -10   -1.40    1.30
   3   2  10    4.20    1.70
   4  -2  10    9.00    2.00
  -4  -2 -10    9.90    2.50
  -4  -2 -10    6.20    2.30
   4  -2  10   10.00    2.10
   4   2  10    7.70    2.40
   4   2  10    7.20    2.00
  -4   2 -10    6.80    2.40
  -4   2 -10   11.00    2.00
   5  -2  10  160.68    6.00
  -5  -2 -10  157.38    7.30
  -5  -2 -10  151.58    6.50
   5  -2  10  164.98    5.80
   5   2  10  158.68    6.50
  -5   2 -10  152.78    6.10
   5   2  10  162.58    6.60
  -5   2 -10  159.58    6.20
  -6  -2 -10  124.49    6.20
  -6  -2 -10  119.29    5.70
   6  -2  10  127.79    5.20
  -6   2 -10  129.99    6.20
   6   2  10  115.69    5.70
   6   2  10  133.19    6.10
  -7  -2 -10   77.59    5.60
  -7  -2 -10  101.69    6.40
   7  -2  10   89.89    5.00
   7   2  10   95.19    5.40
  -7   2 -10   84.09    5.00
   7   2  10   84.29    5.50
  -8  -2 -10   58.69    5.60
   8  -2  10   63.39    4.70
  -8  -2 -10   57.09    4.90
   8   2  10   57.59    4.70
   8   2  10   61.69    5.10
  -8   2 -10   53.59    4.70
  -9  -2 -10   -3.00    3.00
   9  -2  10    6.70    2.70
  -9  -2 -10   -0.10    2.40
   9   2  10    1.50    1.90
   9   2  10   -2.60    2.60
  -9   2 -10    0.60    2.20
  10  -2  10   17.80    3.40
 -10  -2 -10    7.40    3.70
 -10  -2 -10    7.00    3.70
  10   2  10    5.60    2.60
 -10   2 -10   15.00    4.00
 -11  -2 -10   10.60    3.40
  11  -2  10   13.00    3.00
  11   2  10    9.70    3.70
 -11   2 -10   16.70    3.60
  12  -2  10   -1.40    2.90
  13  -3 -10    6.10    4.20
  13   3 -10    3.30    3.40
  13   3 -10    2.00    2.60
  12  -3 -10   10.20    3.90
  12   3 -10    2.50    3.30
  12   3 -10   12.40    3.60
  11  -3 -10  118.99    7.20
  11   3 -10  107.49    5.80
  11   3 -10  101.99    6.80
  10  -3 -10   10.60    2.90
  10  -3 -10   13.00    3.00
  10   3 -10   12.10    3.00
  10   3 -10   12.40    3.60
   9  -3 -10   73.39    5.10
   9  -3 -10   71.09    5.60
   9   3 -10   77.49    5.00
   9   3 -10   79.39    5.10
   8  -3 -10   73.59    5.00
   8  -3 -10   78.79    4.90
   8   3 -10   82.79    4.40
   8   3 -10   77.49    4.80
   7  -3 -10   44.80    4.40
   7  -3 -10   45.40    4.20
   7   3 -10   39.90    3.50
   7   3 -10   55.09    4.00
   6  -3 -10    1.80    2.50
   6  -3 -10    2.10    2.30
   6   3 -10    3.20    2.00
   6   3 -10    5.20    2.00
   5  -3 -10    7.90    2.80
   5  -3 -10    8.50    2.10
  -5   3  10   13.30    2.80
   5   3 -10    9.10    2.10
   5   3 -10    8.00    2.60
   4  -3 -10  211.18    7.40
   4  -3 -10  212.28    7.40
  -4   3  10  217.48    7.20
   4   3 -10  214.88    6.60
   4   3 -10  217.28    7.50
   3  -3 -10   -2.20    2.10
   3  -3 -10   -2.10    2.10
   3   3 -10   -1.00    1.40
   3   3 -10    0.00    1.40
   3   3 -10   -0.60    1.00
  -3   3  10   -1.20    2.00
   2  -3 -10  341.97   10.40
  -2  -3  10  353.96    8.90
   2  -3 -10  347.17   10.10
   2   3 -10  348.77    9.10
  -2   3  10  352.46    9.80
   2   3 -10  353.16   10.00
   2   3 -10  367.36    8.80
   1  -3 -10  201.78    7.10
  -1  -3  10  200.68    5.90
   1  -3 -10  211.88    7.70
   1   3 -10  214.58    6.30
  -1   3  10  211.38    6.80
   1   3 -10  203.58    6.70
  -1   3  10  195.58    6.80
   1   3 -10  207.68    6.00
   0  -3 -10   58.09    4.60
   0  -3 -10   59.39    4.50
   0  -3 -10   64.79    3.00
   0   3 -10   68.89    3.50
   0   3  10   61.29    4.00
   0   3 -10   57.99    3.30
   0   3  10   67.79    4.20
   0   3 -10   59.09    3.80
  -1  -3 -10  176.88    5.70
  -1  -3 -10  173.08    6.80
   1  -3  10  171.78    5.40
  -1   3 -10  169.78    5.90
  -1   3 -10  168.38    5.80
   1   3  10  186.78    6.40
   1   3  10  191.88    6.30
  -2  -3 -10   73.19    5.10
  -2  -3 -10   76.89    4.00
   2  -3  10   82.19    3.60
   2   3  10   77.29    4.60
  -2   3 -10   87.49    3.90
   2   3  10   81.09    4.10
  -2   3 -10   82.79    4.20
   3  -3  10  316.17    8.50
  -3  -3 -10  319.77   10.50
  -3  -3 -10  326.67    9.30
  -3   3 -10  317.27    9.00
   3   3  10  312.57    9.60
   3   3  10  328.37    9.60
  -3   3 -10  330.27    9.20
   4  -3  10  179.48    6.00
  -4  -3 -10  193.58    6.90
  -4  -3 -10  195.58    7.60
   4   3  10  168.98    6.50
  -4   3 -10  184.38    6.40
  -4   3 -10  172.08    6.60
   4   3  10  177.88    6.60
  -5  -3 -10   69.89    4.30
  -5  -3 -10   76.19    5.70
   5  -3  10   79.69    4.00
  -5   3 -10   71.39    4.30
   5   3  10   76.89    4.90
   5   3  10   78.09    4.40
   6  -3  10  187.78    6.40
  -6  -3 -10  196.08    7.70
  -6  -3 -10  190.18    7.90
   6   3  10  190.48    7.20
   6   3  10  181.18    7.50
  -6   3 -10  181.08    7.10
  -7  -3 -10    5.80    3.30
   7  -3  10    1.20    2.10
  -7  -3 -10   -0.60    2.00
   7   3  10    4.10    2.70
  -7   3 -10    0.70    2.60
   7   3  10    5.30    2.20
  -8  -3 -10   56.89    5.70
  -8  -3 -10   54.09    4.90
   8  -3  10   47.10    4.10
   8   3  10   50.39    4.70
  -8   3 -10   55.79    5.20
   8   3  10   53.29    4.60
   9  -3  10   11.70    3.00
  -9  -3 -10    7.80    3.60
  -9  -3 -10    5.80    2.90
   9   3  10    8.80    3.30
  -9   3 -10   11.70    3.70
   9   3  10   10.20    3.10
 -10  -3 -10   -0.10    2.60
 -10  -3 -10   -0.50    3.50
  10  -3  10    2.20    2.60
  10   3  10   -1.30    1.80
  10   3  10   -0.40    2.30
 -10   3 -10    4.80    3.60
 -11  -3 -10   39.00    5.00
 -11  -3 -10   55.89    6.20
 -11   3 -10   48.10    5.10
  11   3  10   51.69    5.60
  13   4 -10   -2.90    2.70
  13   4 -10   -2.40    2.60
  12  -4 -10   30.80    4.30
  12   4 -10   24.20    4.10
  12   4 -10   30.60    4.90
  11  -4 -10   -2.30    3.00
  11   4 -10    1.80    2.30
  11   4 -10   -0.80    2.60
  10  -4 -10   16.30    3.90
  10   4 -10    8.70    2.40
  10   4 -10   13.00    3.00
   9  -4 -10    0.90    2.20
   9  -4 -10    1.90    2.40
   9   4 -10    0.20    2.20
   9   4 -10   -2.20    2.60
   8  -4 -10   25.90    3.50
   8  -4 -10   26.40    4.00
   8   4 -10   17.80    2.80
   8   4 -10   21.10    3.60
   7  -4 -10    4.60    2.20
   7  -4 -10    3.80    2.40
   7   4 -10    6.50    2.10
   7   4 -10    4.80    2.10
   6  -4 -10   56.49    3.90
   6  -4 -10   58.39    4.20
   6   4 -10   55.39    3.60
   6   4 -10   56.39    4.00
   5  -4 -10   29.80    3.30
   5  -4 -10   31.40    3.60
   5   4 -10   31.10    3.20
   5   4 -10   31.60    2.80
  -5   4  10   29.50    3.20
   4  -4 -10   32.00    3.80
   4  -4 -10   42.20    4.00
  -4   4  10   34.90    3.60
   4   4 -10   39.70    3.50
   4   4 -10   37.70    2.80
   3  -4 -10    8.20    2.30
   3  -4 -10   13.20    2.50
  -3   4  10   10.30    2.60
   3   4 -10    7.60    1.60
   3   4 -10    8.20    2.00
   3   4 -10   10.70    1.70
   2  -4 -10   17.30    2.60
   2  -4 -10   15.40    2.70
   2   4 -10   17.50    2.00
   2   4 -10   18.60    2.10
  -2   4  10   13.00    2.30
  -2   4  10   21.50    2.90
   2   4 -10   14.70    2.60
   1  -4 -10   32.90    3.30
   1  -4 -10   30.80    3.40
  -1   4  10   30.20    3.10
   1   4 -10   33.40    3.20
   1   4 -10   35.20    2.80
  -1   4  10   31.00    3.20
   1   4 -10   34.40    2.40
   0  -4 -10  221.98    8.00
   0  -4 -10  228.48    7.90
   0  -4 -10  241.38    6.70
   0   4  10  232.18    7.60
   0   4 -10  232.88    7.10
   0   4  10  221.38    7.40
   0   4 -10  231.58    6.50
   0   4 -10  241.68    7.10
  -1  -4 -10    8.70    1.90
  -1  -4 -10    6.90    2.80
  -1   4 -10    6.50    2.00
   1   4  10    8.40    2.50
   1   4  10    6.80    2.30
  -1   4 -10    5.30    1.70
  -1   4 -10    4.60    2.00
  -2  -4 -10  502.75   12.30
  -2  -4 -10  498.25   14.00
  -2   4 -10  480.85   12.40
  -2   4 -10  504.05   12.30
   2   4  10  482.05   13.10
   2   4  10  494.65   12.80
  -3  -4 -10   58.89    5.10
  -3  -4 -10   61.39    4.10
   3   4  10   57.59    3.80
  -3   4 -10   57.59    3.60
  -3   4 -10   63.09    3.80
   3   4  10   62.39    4.40
  -4  -4 -10  187.38    6.70
  -4  -4 -10  174.28    7.50
   4   4  10  188.88    7.00
  -4   4 -10  182.98    6.90
   4   4  10  188.28    6.90
  -5  -4 -10    7.80    2.80
  -5  -4 -10    7.00    3.40
   5   4  10    4.40    2.60
  -5   4 -10    0.70    2.40
   5   4  10    8.80    2.20
  -6  -4 -10    6.90    2.90
  -6  -4 -10   -0.50    3.00
  -6   4 -10    3.10    2.60
   6   4  10    1.30    2.50
   6   4  10    3.40    2.60
  -7  -4 -10   39.80    4.20
  -7  -4 -10   44.00    5.20
   7   4  10   47.60    4.30
  -7   4 -10   40.20    4.00
   7   4  10   38.40    4.30
  -8  -4 -10   87.39    5.60
  -8  -4 -10   87.59    6.10
   8   4  10   81.49    5.20
   8   4  10   89.99    5.40
  -8   4 -10   91.49    5.50
  -9  -4 -10   27.30    4.90
  -9  -4 -10   28.30    4.00
   9   4  10   19.70    3.80
   9   4  10   24.10    4.20
  -9   4 -10   22.00    4.20
 -10  -4 -10   16.90    4.60
 -10  -4 -10   17.30    3.70
  10   4  10   22.20    4.00
 -10   4 -10   24.30    4.40
  10   4  10   20.00    4.10
 -11  -4 -10   -2.60    2.50
 -11  -4 -10    0.00    3.70
 -11   4 -10    0.20    2.60
  11   4  10   -2.40    3.10
  11   4  10   -2.80    2.80
  12  -5 -10    2.20    3.60
  12   5 -10    2.10    3.50
  11  -5 -10   -3.80    3.00
  11   5 -10   -4.50    1.90
  10  -5 -10   -3.10    2.10
  10   5 -10    3.90    3.20
   9  -5 -10   -3.30    2.60
   9   5 -10    2.20    2.30
   8  -5 -10   20.90    3.20
   8  -5 -10   14.90    3.60
   8   5 -10   17.60    3.10
   7  -5 -10   22.10    3.30
   7  -5 -10   20.20    3.70
   7   5 -10   18.20    3.50
   6  -5 -10    1.90    1.70
   6  -5 -10   -4.80    2.50
   6   5 -10    1.50    1.90
   5  -5 -10   28.40    3.80
   5  -5 -10   31.60    3.60
  -5   5  10   35.90    3.80
   5   5 -10   31.50    3.30
   4  -5 -10   32.30    3.90
   4  -5 -10   33.50    3.40
   4   5 -10   35.30    2.80
  -4   5  10   34.10    3.70
   4   5 -10   40.20    3.80
   3  -5 -10  138.49    6.00
   3  -5 -10  142.49    6.50
  -3   5  10  129.69    5.90
   3   5 -10  136.39    5.00
   3   5 -10  135.09    5.80
   2  -5 -10   42.80    3.80
   2  -5 -10   38.50    4.00
   2   5 -10   41.00    3.00
  -2   5  10   48.10    3.50
   2   5 -10   44.80    3.70
  -2   5  10   45.70    4.00
   1  -5 -10   14.90    2.70
   1  -5 -10   13.00    3.10
  -1   5  10   16.80    2.90
   1   5 -10   16.40    2.50
  -1   5  10   15.60    2.80
   1   5 -10   16.30    2.30
   0  -5 -10    7.70    2.80
   0  -5 -10   10.40    2.50
   0  -5 -10   12.70    2.00
   0   5  10    7.10    2.50
   0   5 -10   10.60    2.20
   0   5  10   11.90    2.30
   0   5 -10    8.90    2.10
  -1  -5 -10   97.59    5.90
  -1  -5 -10   89.99    4.20
   1   5  10   91.59    5.00
   1   5  10   96.89    5.20
  -1   5 -10   96.79    4.30
  -1   5 -10   95.39    4.30
  -2  -5 -10   37.50    4.40
  -2  -5 -10   44.20    3.40
   2   5  10   34.50    3.60
  -2   5 -10   35.00    3.40
  -2   5 -10   32.90    2.80
   2   5  10   35.50    3.80
  -3  -5 -10  135.49    7.00
  -3  -5 -10  117.99    5.10
   3   5  10  133.79    5.60
  -3   5 -10  118.19    5.20
   3   5  10  118.99    5.50
  -4  -5 -10    4.70    2.50
  -4  -5 -10   -2.30    2.00
   4   5  10    2.20    1.80
  -4   5 -10   -1.10    2.20
   4   5  10   -0.30    1.70
  -5  -5 -10    3.80    2.70
  -5  -5 -10    1.20    2.40
   5   5  10    5.60    2.10
   5   5  10    1.20    1.80
  -5   5 -10    4.00    2.00
  -6  -5 -10   26.60    3.90
  -6  -5 -10   23.30    3.80
   6   5  10   27.50    3.80
   6   5  10   23.30    3.20
  -6   5 -10   21.30    3.60
  -7  -5 -10   37.10    4.60
  -7  -5 -10   45.90    4.80
   7   5  10   33.10    3.80
  -7   5 -10   39.70    4.50
   7   5  10   40.30    4.20
  -8  -5 -10   -1.70    3.00
  -8  -5 -10    5.40    3.70
   8   5  10   -2.70    1.90
  -8   5 -10   -1.00    2.80
   8   5  10    6.50    3.10
  -9  -5 -10    6.60    3.20
  -9  -5 -10    9.10    3.70
   9   5  10    3.50    2.40
  -9   5 -10   12.20    3.00
   9   5  10    5.80    3.30
 -10  -5 -10   -1.20    3.40
 -10  -5 -10   -4.10    2.50
 -10   5 -10    0.70    2.50
  10   5  10    3.30    3.40
  10   5  10    1.10    2.20
 -11  -5 -10    5.20    3.30
 -11   5 -10    3.00    2.70
  11   5  10    6.80    2.70
  12  -6 -10   58.09    6.00
  12   6 -10   57.69    6.50
  11  -6 -10    1.00    2.50
  11   6 -10    2.10    3.40
  10  -6 -10   34.10    4.30
  10   6 -10   34.10    4.30
   9  -6 -10   14.40    3.80
   9   6 -10    0.00    3.00
   8  -6 -10   -1.80    2.10
   8   6 -10   -1.30    2.10
   7  -6 -10   11.80    2.80
   7  -6 -10    5.70    3.20
   7   6 -10    9.10    3.30
   6  -6 -10   17.90    3.60
   6  -6 -10   22.50    2.90
   6   6 -10   28.70    3.40
   5  -6 -10    3.00    2.70
   5  -6 -10    3.60    2.50
   5   6 -10    1.90    2.40
  -5   6  10   -0.50    2.40
   4  -6 -10   30.10    3.90
   4  -6 -10   40.90    3.70
   4   6 -10   24.70    2.90
  -4   6  10   28.70    3.60
   4   6 -10   32.70    2.90
   3  -6 -10   98.29    5.10
   3  -6 -10   84.09    5.50
   3   6 -10   80.89    4.70
   3   6 -10   98.89    4.40
  -3   6  10   87.79    5.10
   2  -6 -10   54.89    4.70
   2  -6 -10   71.39    4.50
  -2   6  10   58.49    4.40
   2   6 -10   69.69    3.90
  -2   6  10   61.19    4.40
   2   6 -10   57.89    3.50
   1  -6 -10    2.70    2.00
   1  -6 -10   -1.30    1.80
   1   6 -10   -2.00    1.60
  -1   6  10    0.90    1.70
  -1   6  10    1.70    1.80
   1   6 -10    4.00    1.60
   0  -6 -10   95.09    5.30
   0  -6 -10   90.19    5.10
   0   6 -10   88.09    4.20
   0   6 -10   92.29    4.30
   0   6  10   97.89    4.80
   0   6  10   90.79    4.70
  -1  -6 -10    0.70    1.70
  -1  -6 -10    0.70    2.10
  -1   6 -10   -4.20    1.80
   1   6  10    1.00    1.80
   1   6  10   -3.00    1.40
  -1   6 -10   -1.00    2.80
  -2  -6 -10  251.17    9.20
  -2  -6 -10  254.07    8.10
   2   6  10  260.07    8.70
   2   6  10  256.27    8.60
  -2   6 -10  250.57    8.30
  -3  -6 -10   -0.40    2.20
  -3  -6 -10    1.30    2.10
  -3   6 -10    1.80    2.30
   3   6  10    0.30    1.70
   3   6  10    2.50    2.00
  -4  -6 -10  108.49    6.80
  -4  -6 -10   95.79    5.40
   4   6  10   93.49    5.10
   4   6  10   84.09    4.90
  -4   6 -10   88.39    4.80
  -5  -6 -10  244.98    8.80
  -5  -6 -10  206.88    9.50
  -5   6 -10  240.98    8.60
   5   6  10  230.98    8.80
   5   6  10  225.98    8.30
  -6  -6 -10   18.80    3.60
  -6  -6 -10   13.60    4.10
   6   6  10   19.50    3.70
   6   6  10   16.40    3.60
  -6   6 -10   16.90    2.90
  -7  -6 -10  102.39    6.60
  -7  -6 -10  112.59    7.00
  -7   6 -10  113.09    6.00
   7   6  10   98.59    5.80
   7   6  10   96.09    5.70
  -8  -6 -10    2.70    3.30
  -8  -6 -10    2.50    2.90
  -8   6 -10    9.30    3.50
   8   6  10    4.70    2.50
   8   6  10    1.50    3.10
  -9  -6 -10   42.80    4.80
  -9  -6 -10   28.40    4.70
   9   6  10   37.00    4.80
  -9   6 -10   38.20    5.00
   9   6  10   35.90    4.30
 -10  -6 -10   62.39    5.90
  10   6  10   68.39    6.20
 -10   6 -10   74.09    5.70
  10   6  10   77.89    5.70
  11  -7 -10  101.49    6.40
  11   7 -10   87.09    7.00
  10  -7 -10   -0.90    2.30
  10   7 -10    0.10    3.30
   9  -7 -10    1.50    3.20
   9   7 -10    3.30    2.50
   8  -7 -10    5.80    2.60
   8   7 -10    7.80    2.70
   7  -7 -10    8.00    3.30
   7   7 -10    6.70    3.20
   6  -7 -10   -0.80    2.80
   6   7 -10    2.70    2.10
   5  -7 -10    3.30    2.40
   5  -7 -10    0.80    2.10
   5   7 -10    0.70    1.80
   5   7 -10    0.70    2.10
  -5   7  10    1.90    2.10
   4  -7 -10   78.19    5.20
   4  -7 -10   85.39    5.10
   4   7 -10   89.39    5.10
   4   7 -10   84.89    4.40
  -4   7  10   77.59    4.70
   3  -7 -10   12.30    2.70
   3  -7 -10   13.80    2.60
  -3   7  10    9.00    2.20
   3   7 -10    5.40    2.30
   3   7 -10   15.70    2.50
  -3   7  10   12.20    2.50
   2  -7 -10   54.19    4.20
   2  -7 -10   59.99    4.30
  -2   7  10   54.69    3.90
   2   7 -10   55.69    3.50
  -2   7  10   53.99    3.90
   2   7 -10   54.09    3.40
   1  -7 -10   68.99    5.40
   1  -7 -10   76.39    5.40
  -1   7  10   80.89    4.60
   1   7 -10   91.09    4.30
  -1   7  10   81.99    5.00
   1   7 -10   89.69    4.30
   0  -7 -10   10.10    2.60
   0  -7 -10    7.80    3.20
   0   7  10   11.70    2.40
   0   7 -10   10.60    2.50
   0   7  10    4.10    2.60
  -1  -7 -10  280.17    8.70
  -1  -7 -10  296.47   10.50
  -1  -7 -10  288.37    9.80
   1   7  10  310.47    9.90
   1   7  10  293.07    9.30
  -1   7 -10  293.57    9.20
  -2  -7 -10   14.80    2.70
  -2  -7 -10   18.50    3.90
  -2   7 -10   14.50    3.00
   2   7  10   20.10    3.40
   2   7  10   12.50    3.00
  -3  -7 -10  124.89    6.70
  -3  -7 -10  124.79    5.60
   3   7  10  129.39    5.90
  -3   7 -10  116.39    5.50
   3   7  10  128.09    6.00
  -4  -7 -10   39.10    5.10
  -4  -7 -10   36.80    3.60
  -4   7 -10   33.00    3.90
   4   7  10   35.60    3.80
   4   7  10   31.50    4.10
  -5  -7 -10   11.90    2.70
  -5  -7 -10    7.10    2.90
  -5   7 -10   10.20    2.60
   5   7  10    7.60    3.10
   5   7  10    8.10    2.50
  -6  -7 -10   62.89    6.30
  -6  -7 -10   58.29    4.90
   6   7  10   64.69    5.30
   6   7  10   44.00    4.90
  -6   7 -10   58.69    4.80
  -7  -7 -10    6.00    4.10
  -7  -7 -10    1.60    3.20
   7   7  10    2.40    3.10
   7   7  10    4.60    3.20
  -7   7 -10    0.80    2.90
  -8  -7 -10    9.60    3.80
  -8  -7 -10    8.80    3.50
   8   7  10   11.20    3.00
   8   7  10    6.90    3.40
  -8   7 -10    7.50    2.80
  -9  -7 -10   74.49    6.90
  -9  -7 -10   63.69    6.50
   9   7  10   72.29    6.30
   9   7  10   81.09    5.80
  -9   7 -10   69.69    6.30
 -10  -7 -10    7.30    5.10
 -10   7 -10    8.00    4.40
  10   7  10    3.40    3.60
  10   7  10    1.50    2.50
  11  -8 -10    3.20    2.70
  10  -8 -10   12.00    3.20
  10   8 -10   15.30    3.40
   9  -8 -10   -2.40    3.00
   9   8 -10   -2.00    3.00
   8  -8 -10   15.30    3.70
   8   8 -10   24.50    4.20
   7  -8 -10    2.20    2.90
   7   8 -10    1.90    3.00
   6  -8 -10   27.80    3.70
   6   8 -10   34.80    4.20
   5  -8 -10   -3.90    2.60
   5   8 -10    1.50    2.60
  -5   8  10    3.80    2.20
   5   8 -10    3.10    2.10
   4  -8 -10    8.40    2.80
   4  -8 -10   -1.10    2.70
  -4   8  10   -0.10    2.60
   4   8 -10   -0.20    2.00
   4   8 -10   -3.20    2.00
   3  -8 -10   17.40    3.60
   3  -8 -10   12.10    3.20
  -3   8  10   24.70    3.60
   3   8 -10   16.00    2.90
   3   8 -10   14.80    2.70
  -3   8  10   11.50    2.80
   2  -8 -10  279.37    9.60
   2  -8 -10  251.07    9.30
   2   8 -10  234.28    8.20
  -2   8  10  273.17    9.10
   2   8 -10  242.78    8.10
   1  -8 -10    1.80    2.20
   1  -8 -10    1.00    2.90
  -1   8  10   -0.80    2.40
   1   8 -10    5.60    2.40
  -1   8  10    2.80    2.60
   0  -8 -10   25.30    3.90
   0  -8 -10   29.20    4.20
   0   8  10   28.50    3.60
   0   8 -10   20.10    2.80
   0   8  10   26.50    3.70
  -1  -8 -10    2.80    2.30
  -1  -8 -10    1.10    2.10
   1   8  10   -0.60    1.80
  -1   8 -10   -0.60    1.60
   1   8  10    1.00    1.80
   1   8  10    1.80    1.90
  -2  -8 -10   42.50    4.00
  -2  -8 -10   37.90    4.90
   2   8  10   44.20    4.40
  -2   8 -10   47.20    4.00
   2   8  10   43.90    4.50
  -3  -8 -10   43.20    4.30
  -3  -8 -10   32.90    4.80
   3   8  10   32.30    3.80
   3   8  10   39.60    4.20
  -3   8 -10   39.90    3.90
  -4  -8 -10   12.50    4.10
  -4  -8 -10    7.30    3.10
  -4   8 -10    8.20    3.00
   4   8  10   11.00    3.10
   4   8  10    7.80    3.20
  -5  -8 -10   41.60    4.90
  -5  -8 -10   32.10    4.30
   5   8  10   35.70    4.30
   5   8  10   33.00    4.40
  -5   8 -10   38.20    4.50
  -6  -8 -10   61.49    5.20
  -6  -8 -10   48.10    6.20
   6   8  10   66.09    5.80
  -6   8 -10   79.29    5.90
   6   8  10   71.89    5.10
  -7  -8 -10    5.80    4.20
  -7  -8 -10   -1.60    2.30
   7   8  10    4.90    3.30
   7   8  10    5.80    3.20
  -7   8 -10   12.50    3.60
  -8  -8 -10   76.79    6.50
  -8  -8 -10   68.29    6.60
   8   8  10   66.69    6.00
   8   8  10   71.59    5.60
  -8   8 -10   71.09    5.40
  -9  -8 -10   16.40    4.20
  -9  -8 -10    8.10    4.20
  -9   8 -10   12.10    4.10
   9   8  10   18.80    4.30
   9   8  10   12.70    3.30
  10  -9 -10    0.60    2.40
  10   9 -10   -3.90    3.10
   9  -9 -10    5.20    3.30
   9   9 -10    0.70    3.30
   8  -9 -10    3.20    3.30
   8   9 -10    8.50    3.50
   7  -9 -10    0.30    2.20
   7   9 -10    6.00    3.10
   6  -9 -10   -0.80    2.80
   6   9 -10    0.50    2.80
   5  -9 -10   -0.20    2.80
  -5   9  10    3.60    2.90
   5   9 -10    3.50    2.30
   5   9 -10    0.00    2.60
   4  -9 -10    3.10    2.30
   4   9 -10   -0.90    2.10
   4   9 -10    4.50    2.60
  -4   9  10    1.90    2.10
   3  -9 -10  142.89    6.60
   3  -9 -10  125.39    6.60
   3   9 -10  121.79    6.00
  -3   9  10  132.79    5.90
  -3   9  10  133.89    6.20
   3   9 -10  128.59    5.60
   2  -9 -10    0.30    2.60
   2  -9 -10    2.90    2.80
  -2   9  10   -0.80    1.70
  -2   9  10    1.90    2.40
   2   9 -10    2.40    2.40
   1  -9 -10    9.70    3.20
   1  -9 -10   10.90    3.40
  -1   9  10    7.90    2.90
   1   9 -10    9.20    2.80
  -1   9  10   10.90    3.10
   0  -9 -10   50.29    5.00
   0  -9 -10   44.00    4.90
   0   9  10   46.70    4.20
   0   9  10   54.29    4.70
   0   9 -10   51.19    4.00
  -1  -9 -10  221.78    9.00
  -1  -9 -10  219.28    8.50
   1   9  10  217.18    7.30
  -1   9 -10  211.08    8.20
   1   9  10  212.48    8.10
   1   9  10  215.38    8.00
  -2  -9 -10    0.80    3.40
  -2  -9 -10    4.90    2.10
   2   9  10    5.90    2.90
   2   9  10    7.00    2.90
  -2   9 -10    8.50    2.40
   2   9  10    5.20    2.30
  -3  -9 -10   28.10    3.70
  -3  -9 -10   33.60    5.10
  -3   9 -10   25.20    3.50
   3   9  10   33.00    3.90
   3   9  10   31.00    4.00
  -4  -9 -10   15.00    4.40
  -4  -9 -10   14.20    3.50
  -4   9 -10   14.50    3.00
   4   9  10   15.00    3.40
   4   9  10   16.40    3.70
  -5  -9 -10   59.89    6.50
  -5  -9 -10   69.39    5.90
   5   9  10   69.59    5.90
  -5   9 -10   58.79    5.40
   5   9  10   61.49    5.40
  -6  -9 -10   62.99    5.90
  -6  -9 -10   70.09    7.00
  -6   9 -10   83.09    6.10
   6   9  10   82.39    6.10
   6   9  10   89.19    6.60
  -7  -9 -10   -2.20    2.70
  -7  -9 -10   -0.90    2.50
   7   9  10   -0.30    2.40
  -7   9 -10    1.40    2.30
   7   9  10    0.50    2.20
  -8  -9 -10   49.30    6.50
  -8  -9 -10   42.00    5.50
  -8   9 -10   41.20    4.80
   8   9  10   45.50    5.40
   8   9  10   39.50    4.60
   9 -10 -10   -4.40    2.80
   9  10 -10   -2.80    2.10
   8 -10 -10    1.30    3.00
   8  10 -10   -2.30    2.90
   7 -10 -10   -1.50    3.00
   7  10 -10    2.40    3.10
   6 -10 -10    7.60    2.70
   6  10 -10   19.00    3.70
   5 -10 -10   16.10    3.70
   5  10 -10   13.10    3.00
   5  10 -10   11.20    2.60
   4 -10 -10    0.90    2.90
  -4  10  10    1.30    2.80
   4  10 -10   -1.60    2.30
   3 -10 -10   16.00    3.00
   3  10 -10   14.00    3.10
  -3  10  10   18.90    3.00
   2 -10 -10   79.39    5.80
   2 -10 -10   74.69    5.70
   2  10 -10   66.99    4.50
  -2  10  10   76.09    5.30
  -2  10  10   66.69    4.50
   1 -10 -10    2.50    3.00
   1 -10 -10    3.50    3.30
  -1  10  10    8.20    3.00
   1  10 -10    3.80    2.70
  -1  10  10    1.60    2.70
   0 -10 -10  193.88    8.20
   0 -10 -10  207.38    9.10
   0  10  10  212.98    8.30
   0  10 -10  213.58    8.40
  -1 -10 -10   33.40    4.80
  -1 -10 -10   44.60    5.00
   1  10  10   43.90    4.40
  -1  10 -10   37.30    4.40
   1  10  10   42.10    4.50
  -2 -10 -10   80.69    6.80
  -2 -10 -10   79.49    5.40
   2  10  10   79.19    4.90
   2  10  10   66.89    5.50
   2  10  10   68.89    4.80
  -2  10 -10   70.19    4.90
  -3 -10 -10   21.00    3.90
  -3 -10 -10   13.20    3.30
   3  10  10   17.50    3.40
  -3  10 -10   15.60    3.10
   3  10  10   12.60    2.60
   3  10  10   21.10    3.40
  -4 -10 -10   24.20    4.10
  -4 -10 -10   16.20    4.50
   4  10  10   20.50    3.20
  -4  10 -10   23.10    3.50
   4  10  10   24.60    4.20
  -5 -10 -10   33.10    5.60
  -5 -10 -10   36.00    4.90
   5  10  10   37.10    4.40
   5  10  10   39.70    5.10
  -5  10 -10   49.60    5.30
  -6 -10 -10    4.80    2.80
  -6 -10 -10    9.40    3.60
   6  10  10    3.80    3.20
  -6  10 -10    6.50    3.50
   6  10  10    8.30    3.00
  -7 -10 -10   22.10    4.00
  -7 -10 -10   16.60    4.30
   7  10  10   19.20    4.10
  -7  10 -10   21.50    3.80
   7  10  10   21.90    4.00
   8  10  10   -5.80    2.90
   8  11 -10    3.60    2.60
   7  11 -10   -0.30    3.00
   6 -11 -10   -2.80    2.80
  -6 -11  10   -1.30    2.10
   6  11 -10   -3.80    2.60
   6  11 -10    4.60    3.10
   5 -11 -10    9.00    3.20
   5  11 -10   -2.90    2.50
   4 -11 -10    3.90    2.90
   4  11 -10    2.20    2.10
  -4  11  10    6.10    3.00
   3 -11 -10    1.70    2.90
  -3  11  10   -1.10    2.50
   3  11 -10   -1.50    2.60
   2 -11 -10   10.10    3.30
  -2  11  10    7.60    3.00
   2  11 -10   11.00    3.10
   1 -11 -10   46.70    4.90
   1  11 -10   44.60    4.30
  -1  11  10   56.29    4.90
   0 -11 -10    2.50    3.20
   0 -11 -10    4.50    3.00
   0  11  10   -0.30    2.60
   0  11  10    1.10    2.00
   0  11 -10    2.00    2.10
  -1 -11 -10    0.40    3.00
  -1 -11 -10   -5.30    3.00
  -1  11 -10    1.80    2.90
   1  11  10   -2.70    2.60
   1  11  10    2.20    2.70
  -2 -11 -10    0.00    3.50
  -2 -11 -10    4.30    3.20
  -2  11 -10    3.50    3.20
   2  11  10    3.50    2.90
   2  11  10    5.10    2.90
   2  11  10    4.30    3.00
  -3 -11 -10   -2.20    2.90
  -3 -11 -10   -1.40    3.60
  -3 -11 -10   -1.50    2.90
   3  11  10    2.60    2.70
   3  11  10   -0.50    2.90
   3  11  10    1.70    2.80
  -3  11 -10   -1.00    2.20
  -4 -11 -10   -2.40    2.60
  -4 -11 -10   -3.00    2.90
  -4  11 -10   -1.40    2.10
   4  11  10    0.20    2.30
   4  11  10    1.80    2.90
  -5 -11 -10   13.60    3.80
  -5 -11 -10    9.80    3.10
   5  11  10    6.30    2.90
  -5  11 -10    9.70    3.60
   5  11  10    5.10    3.30
  -6 -11 -10   -2.10    2.90
  -6 -11 -10   -2.00    3.50
  -6  11 -10   -0.60    3.30
   6  11  10   -7.70    2.40
   6  11  10    2.20    2.70
  -6 -12  10   -0.50    3.20
   6  12 -10    1.10    2.80
   5  12 -10    5.20    3.10
   4  12 -10   -1.80    2.00
   3  12 -10    2.90    3.00
   2  12 -10   24.90    4.10
   1  12 -10   11.70    3.50
   0  12 -10   65.69    5.70
  -1 -12 -10   -1.10    2.30
  -1  12 -10    7.40    2.60
   1  12  10   -0.10    2.80
  -2 -12 -10   33.00    4.60
  -2  12 -10   30.70    4.50
   2  12  10   32.70    4.50
  -3 -12 -10   16.00    4.60
   3  12  10   19.40    4.10
   3  12  10   15.00    2.90
  -3  12 -10   15.10    3.40
  -4 -12 -10   12.30    4.00
  -4 -12 -10    6.90    4.30
   4  12  10    9.00    3.70
  -4  12 -10   11.90    3.90
  -5 -12 -10   24.50    4.80
  -5 -12 -10   24.30    6.50
   5  12  10   33.20    5.00
   4  13 -10   -1.20    2.80
   3  13 -10   10.00    3.70
   2  13 -10    0.90    3.10
   1  13 -10   43.00    4.60
   0  13 -10   31.80    4.20
  -1  13 -10   18.00    4.20
   2  13  10    3.10    3.20
  -3 -13 -10   41.00    6.10
   3  13  10   60.59    5.80
  13   0 -11   -1.70    2.30
  13   0 -11    3.40    3.30
  12   0 -11   -0.70    2.90
  12   0 -11    3.80    2.60
  11   0 -11    2.10    2.40
  11   0 -11   -5.10    2.60
  10   0 -11    0.00    2.10
  10   0 -11    3.00    2.30
   9   0 -11   -3.30    2.50
   9   0 -11   -0.20    2.00
   8   0 -11   -1.40    2.50
   8   0 -11    0.20    1.90
   7   0 -11    0.70    1.80
   7   0 -11    0.90    2.40
   6   0 -11   -1.80    2.20
   6   0 -11   -0.70    2.40
   5   0 -11    1.50    1.80
   5   0 -11   -0.30    2.20
  -4   0  11   -2.10    1.30
   4   0 -11   -0.90    1.50
   4   0 -11    1.20    1.70
  -3   0  11    1.70    1.90
   3   0 -11    2.90    2.20
   3   0 -11    3.70    2.40
   2   0 -11    2.70    2.10
   2   0 -11    3.20    2.40
  -2   0  11   -0.70    1.70
   1   0 -11   -0.30    2.00
   1   0 -11    2.40    1.70
  -1   0  11   -2.30    1.60
   0   0 -11    0.10    1.40
   0   0  11   -0.30    1.70
   0   0 -11   -0.80    1.60
   0   0 -11    2.70    2.20
  -1   0 -11   -1.00    2.20
  -1   0 -11   -0.10    1.40
   1   0  11    2.50    2.00
   1   0  11    1.60    1.40
   2   0  11   -0.30    1.90
  -2   0 -11   -1.80    1.60
  -2   0 -11   -3.40    2.10
   2   0  11   -1.20    1.90
  -3   0 -11   -1.80    1.60
   3   0  11    0.10    2.00
  -3   0 -11    0.70    1.90
   3   0  11    1.00    1.90
   4   0  11    0.30    2.00
  -4   0 -11    1.70    2.50
   4   0  11   -2.70    1.90
  -4   0 -11   -1.60    2.10
  -5   0 -11    0.70    1.70
  -5   0 -11   -1.70    2.40
   5   0  11   -0.20    2.10
   5   0  11   -0.60    2.10
  -6   0 -11    0.90    2.00
   6   0  11    1.40    2.10
  -6   0 -11   -1.30    2.40
   6   0  11    0.00    2.30
  -7   0 -11    3.60    2.20
   7   0  11    2.60    1.90
  -7   0 -11   -1.10    1.90
   7   0  11    0.40    2.10
  -8   0 -11   -0.70    2.20
   8   0  11    0.60    1.80
   9   0  11   -3.00    2.60
  -9   0 -11   -1.70    3.00
 -10   0 -11    0.30    2.40
  10   0  11   -4.10    2.60
  11   0  11    0.30    3.10
 -11   0 -11   -7.00    3.10
  13   1 -11  114.19    6.70
  13   1 -11  117.59    7.40
  12  -1 -11    6.50    3.20
  12  -1 -11    9.20    3.00
  12   1 -11    5.10    2.70
  12   1 -11    4.50    3.40
  11  -1 -11   31.40    4.00
  11  -1 -11   31.20    4.30
  11   1 -11   24.10    4.20
  11   1 -11   29.10    3.80
  10  -1 -11   18.50    3.80
  10  -1 -11   18.70    3.10
  10   1 -11   17.30    3.00
  10   1 -11   19.10    3.30
   9  -1 -11    5.70    3.00
   9  -1 -11    7.20    3.10
   9   1 -11   12.20    3.20
   9   1 -11    5.60    2.40
   8  -1 -11   19.80    3.00
   8  -1 -11   18.60    3.00
   8   1 -11   19.00    3.30
   8   1 -11   13.70    2.80
   7  -1 -11   72.89    5.20
   7  -1 -11   75.49    5.20
   7   1 -11   69.29    4.70
   7   1 -11   79.09    5.30
   6  -1 -11    5.00    2.10
   6  -1 -11    3.00    2.60
   6   1 -11    3.20    1.80
   6   1 -11    5.00    2.10
   5  -1 -11  484.25   13.00
   5  -1 -11  491.25   13.20
   5   1 -11  488.45   12.70
   5   1 -11  466.65   13.00
   4  -1 -11   87.09    4.60
  -4  -1  11   85.29    4.40
   4  -1 -11   85.79    4.70
  -4   1  11   82.29    4.30
   4   1 -11  101.29    4.90
   4   1 -11   82.19    4.60
   3  -1 -11   29.70    3.40
  -3  -1  11   30.70    2.90
   3  -1 -11   30.80    3.60
   3   1 -11   37.00    3.70
  -3   1  11   36.20    3.30
   3   1 -11   26.70    3.10
   2  -1 -11   18.90    3.00
   2  -1 -11   20.00    3.10
  -2  -1  11   22.40    2.60
   2   1 -11   23.10    2.90
   2   1 -11   22.00    2.80
  -2   1  11   21.10    2.80
   1  -1 -11   11.70    2.30
   1  -1 -11   14.20    2.50
  -1  -1  11   12.80    2.10
   1   1 -11   13.30    2.50
   1   1 -11    9.60    2.60
  -1   1  11   14.10    2.10
   1   1 -11   14.80    1.70
   0  -1  11    4.70    1.80
   0  -1 -11    6.70    2.50
   0  -1 -11    4.20    1.50
   0  -1 -11    4.20    1.90
   0   1 -11    4.80    1.50
   0   1 -11    6.60    2.20
   0   1 -11    3.30    2.30
   0   1  11    9.40    2.30
   0   1  11    6.90    1.90
  -1  -1 -11    2.70    2.40
   1  -1  11    0.80    1.70
  -1  -1 -11   -0.90    1.40
   1   1  11   -2.30    1.90
  -1   1 -11    0.70    1.20
   1   1  11    1.20    1.50
  -1   1 -11   -1.40    1.50
   2  -1  11   24.80    2.60
  -2  -1 -11   24.80    2.40
   2  -1  11   25.20    2.50
  -2  -1 -11   26.30    3.20
   2   1  11   22.10    2.90
  -2   1 -11   24.30    3.20
   2   1  11   20.40    3.00
  -2   1 -11   25.30    2.50
  -3  -1 -11   65.49    4.40
   3  -1  11   65.09    4.10
   3  -1  11   75.29    4.10
  -3  -1 -11   64.99    3.70
  -3   1 -11   68.09    4.60
  -3   1 -11   60.59    4.00
   3   1  11   68.49    3.90
   3   1  11   60.79    3.80
  -4  -1 -11   18.20    3.50
  -4  -1 -11   21.00    3.00
   4  -1  11   18.30    2.60
   4  -1  11   18.80    2.70
   4   1  11   19.00    3.00
  -4   1 -11   19.70    3.00
  -4   1 -11   20.10    3.10
   4   1  11   19.00    3.00
   5  -1  11  109.79    4.90
   5  -1  11   99.39    4.60
  -5  -1 -11  106.39    5.60
  -5  -1 -11  105.39    6.20
   5   1  11  111.69    5.10
  -5   1 -11  105.49    5.10
   5   1  11  109.29    5.60
  -5   1 -11  106.49    5.60
   6  -1  11   -1.70    2.10
   6  -1  11    6.60    2.30
  -6  -1 -11    3.30    3.00
  -6  -1 -11   -2.50    2.50
  -6   1 -11    1.00    2.60
  -6   1 -11   -0.80    2.40
   6   1  11    3.70    2.00
   6   1  11    0.40    2.30
  -7  -1 -11  116.89    6.60
  -7  -1 -11  122.59    6.80
   7  -1  11  130.29    6.10
  -7   1 -11  124.19    6.60
   7   1  11  121.29    6.00
   7   1  11  116.09    6.30
   8  -1  11   53.89    4.70
  -8  -1 -11   51.69    5.10
  -8  -1 -11   52.89    4.70
   8   1  11   46.50    4.70
  -8   1 -11   49.30    5.10
   8   1  11   40.20    4.10
  -9  -1 -11  141.09    7.80
   9  -1  11  146.39    6.70
  -9   1 -11  142.79    7.70
   9   1  11  145.39    7.40
 -10  -1 -11    9.10    3.00
  10  -1  11    3.90    3.00
 -10   1 -11    4.60    2.80
  10   1  11    9.70    2.90
  11  -1  11   81.79    5.60
 -11  -1 -11   77.29    6.80
  11   1  11   83.29    6.60
 -11   1 -11   93.09    7.30
  13   2 -11    7.20    3.60
  13   2 -11   -1.40    3.10
  12  -2 -11   67.89    6.20
  12   2 -11   67.19    6.20
  12   2 -11   65.69    5.80
  11  -2 -11   25.50    3.80
  11  -2 -11   38.80    4.50
  11   2 -11   32.00    4.60
  11   2 -11   22.50    4.00
  10  -2 -11   58.29    5.10
  10  -2 -11   49.70    4.50
  10   2 -11   51.89    4.80
  10   2 -11   47.60    5.00
   9  -2 -11   84.19    5.60
   9  -2 -11   74.89    5.90
   9   2 -11   77.19    5.30
   9   2 -11   71.79    5.70
   8  -2 -11    0.80    2.00
   8  -2 -11    2.30    2.20
   8   2 -11    2.30    2.70
   8   2 -11    0.30    1.80
   7  -2 -11   12.80    3.20
   7  -2 -11    9.70    2.50
   7   2 -11   11.40    2.70
   7   2 -11   11.30    2.60
   6  -2 -11  130.79    6.40
   6  -2 -11  116.89    6.10
   6   2 -11  110.99    5.50
   6   2 -11  129.49    5.60
   5  -2 -11    5.30    2.70
   5  -2 -11    5.60    2.60
  -5   2  11    4.00    2.40
   5   2 -11    5.20    2.20
   5   2 -11    5.80    2.10
   4  -2 -11  337.37   10.20
   4  -2 -11  342.27   10.60
   4   2 -11  349.17    9.60
  -4   2  11  345.57    9.90
   4   2 -11  356.16   10.50
   3  -2 -11   -1.00    2.30
  -3  -2  11    0.40    1.60
   3  -2 -11    2.60    2.50
  -3   2  11   -3.10    1.90
   3   2 -11    1.00    1.80
   3   2 -11   -0.70    1.50
  -2  -2  11   -1.30    1.50
   2  -2 -11   -2.10    1.50
   2  -2 -11   -1.30    1.50
  -2   2  11    0.40    1.50
   2   2 -11   -0.50    1.70
   2   2 -11   -2.10    2.10
   1  -2 -11   -0.40    1.70
   1  -2 -11   -2.20    2.20
  -1  -2  11    1.10    1.40
   1   2 -11   -0.80    1.50
   1   2 -11   -0.10    1.20
  -1   2  11    0.50    1.90
   1   2 -11    0.90    1.80
   0  -2 -11    5.80    2.10
   0  -2 -11    8.40    1.70
   0  -2  11    7.60    1.80
   0  -2 -11    6.10    2.20
   0   2 -11    6.60    1.70
   0   2  11    7.60    2.00
   0   2 -11    7.20    2.10
   0   2 -11    5.10    2.40
   0   2  11    9.50    2.00
  -1  -2 -11    5.50    2.20
   1  -2  11    8.10    1.90
  -1  -2 -11    7.50    1.80
   1   2  11    7.70    2.00
  -1   2 -11    8.90    1.90
  -1   2 -11    6.00    1.80
   1   2  11    5.00    1.80
   2  -2  11   -3.20    1.40
  -2  -2 -11    3.80    1.80
  -2  -2 -11    4.50    2.70
  -2   2 -11    1.10    1.80
  -2   2 -11    0.40    2.10
   2   2  11   -3.10    2.00
   2   2  11    1.80    1.60
  -3  -2 -11   57.59    5.10
   3  -2  11   58.39    3.60
  -3  -2 -11   62.89    3.60
   3   2  11   68.49    4.50
  -3   2 -11   59.59    4.20
   3   2  11   60.89    4.20
  -3   2 -11   63.39    4.10
   4  -2  11    1.40    1.80
   4  -2  11    0.40    1.80
  -4  -2 -11   -0.90    1.50
  -4  -2 -11    0.00    2.00
  -4   2 -11    1.30    2.20
   4   2  11    1.10    1.70
  -4   2 -11    3.30    2.20
   4   2  11   -0.90    1.60
   5  -2  11    6.40    2.10
  -5  -2 -11    1.00    1.80
  -5  -2 -11    3.20    3.00
   5  -2  11    3.50    1.60
  -5   2 -11    3.00    2.50
   5   2  11    3.10    1.90
   5   2  11    2.60    2.40
  -5   2 -11    5.50    2.40
  -6  -2 -11  101.59    5.40
  -6  -2 -11  108.99    6.00
   6  -2  11   98.29    5.10
   6   2  11  100.79    5.60
   6   2  11   98.19    5.80
  -6   2 -11  107.09    5.40
  -7  -2 -11   42.20    4.50
  -7  -2 -11   56.99    5.10
   7  -2  11   49.40    4.20
   7   2  11   50.19    4.50
  -7   2 -11   47.40    4.40
   7   2  11   48.10    4.30
   8  -2  11  172.98    7.30
  -8  -2 -11  156.38    7.40
  -8  -2 -11  162.78    8.30
   8   2  11  170.78    7.40
   8   2  11  171.28    7.40
  -8   2 -11  165.88    7.90
   9  -2  11    3.70    2.70
  -9  -2 -11    0.50    3.50
  -9  -2 -11    5.30    2.80
  -9   2 -11    9.00    2.90
   9   2  11    5.70    3.10
   9   2  11    4.50    2.20
  10  -2  11   71.09    5.60
 -10  -2 -11   83.89    7.60
 -10  -2 -11   91.59    7.00
 -10   2 -11   79.09    5.80
  10   2  11   85.89    6.40
  11  -2  11    3.70    3.00
 -11  -2 -11   -1.50    2.50
  11   2  11    6.10    3.50
 -11   2 -11    0.70    3.60
  13   3 -11    4.50    3.40
  12  -3 -11   -6.00    3.20
  12   3 -11   -1.00    3.30
  12   3 -11    2.20    3.10
  11  -3 -11    5.20    3.70
  11   3 -11    1.00    2.10
  11   3 -11   -1.80    3.00
  10  -3 -11   26.20    3.80
  10  -3 -11   20.10    4.20
  10   3 -11   26.80    3.80
  10   3 -11   14.20    3.20
   9  -3 -11   -1.40    2.00
   9  -3 -11   -6.40    2.30
   9   3 -11    2.60    2.30
   9   3 -11    1.00    1.80
   8  -3 -11   23.20    3.70
   8  -3 -11   24.70    3.80
   8   3 -11   29.90    3.60
   8   3 -11   23.40    3.20
   7  -3 -11   -1.00    2.60
   7  -3 -11    1.80    1.90
   7   3 -11   -3.20    2.00
   7   3 -11   -1.90    1.70
   6  -3 -11   55.29    4.30
   6  -3 -11   55.19    4.10
   6   3 -11   57.99    3.90
   6   3 -11   62.49    4.30
   5  -3 -11  124.59    5.80
   5  -3 -11  118.39    5.70
  -5   3  11  138.19    5.80
   5   3 -11  123.19    5.70
   5   3 -11  124.59    5.20
   4  -3 -11   32.90    3.90
   4  -3 -11   31.20    3.50
  -4   3  11   33.10    3.60
   4   3 -11   32.20    3.70
   4   3 -11   31.80    3.00
   3  -3 -11   -1.40    2.30
  -3  -3  11   -0.60    1.40
   3  -3 -11    0.20    1.70
  -3   3  11   -0.80    2.10
   3   3 -11   -2.30    1.50
   3   3 -11   -1.50    2.10
  -2  -3  11   26.60    2.40
   2  -3 -11   24.70    3.20
   2  -3 -11   26.60    3.20
  -2   3  11   26.80    2.90
   2   3 -11   33.70    2.90
   2   3 -11   26.30    2.30
   2   3 -11   29.00    3.10
   1  -3 -11   14.60    3.10
  -1  -3  11   16.40    2.00
   1  -3 -11   20.00    3.00
  -1   3  11   18.60    2.60
   1   3 -11   16.50    2.10
  -1   3  11   14.60    2.70
   1   3 -11   18.70    2.50
   1   3 -11   15.90    2.20
   0  -3 -11   11.60    2.50
   0  -3  11   13.10    1.90
   0  -3 -11   11.20    3.10
   0   3 -11   16.20    2.20
   0   3  11   16.50    2.80
   0   3  11   12.50    2.80
   0   3 -11   15.50    2.70
   0   3 -11   11.80    2.40
  -1  -3 -11    0.20    1.90
   1  -3  11   -1.00    1.40
  -1  -3 -11    0.20    1.50
  -1   3 -11    2.90    1.80
  -1   3 -11   -3.00    1.50
   1   3  11   -1.10    1.50
  -1   3 -11    1.70    1.50
   1   3  11   -2.10    1.40
  -2  -3 -11   37.60    3.90
  -2  -3 -11   35.20    3.10
   2  -3  11   35.70    2.80
   2   3  11   35.30    3.60
  -2   3 -11   38.40    3.40
  -2   3 -11   37.80    3.40
   2   3  11   34.70    3.40
  -3  -3 -11    0.40    1.40
   3  -3  11   -0.50    1.50
  -3  -3 -11   -1.40    2.00
  -3   3 -11    1.20    1.90
  -3   3 -11    2.70    2.10
   3   3  11   -1.10    1.50
   3   3  11    2.40    1.80
  -4  -3 -11    9.70    2.60
  -4  -3 -11   12.90    3.40
   4  -3  11   11.10    2.10
   4   3  11    8.70    2.70
  -4   3 -11   11.20    2.40
  -4   3 -11    9.70    2.70
   4   3  11   10.30    2.80
  -5  -3 -11    2.40    2.60
   5  -3  11    3.90    2.00
  -5  -3 -11   -0.20    2.20
  -5   3 -11   -2.70    2.30
   5   3  11    1.90    2.50
   5   3  11   -2.60    2.20
   6  -3  11    0.50    1.90
  -6  -3 -11   -0.10    2.20
  -6  -3 -11   -2.40    1.70
   6   3  11    3.00    2.00
   6   3  11    3.00    1.90
  -6   3 -11    5.40    2.90
  -7  -3 -11    2.90    2.50
   7  -3  11    2.70    2.20
  -7  -3 -11   -0.40    2.80
   7   3  11    7.50    2.90
   7   3  11    5.50    2.40
  -7   3 -11   11.90    3.30
  -8  -3 -11    4.40    2.60
  -8  -3 -11    3.00    3.50
   8   3  11    1.70    2.20
  -8   3 -11   -1.50    2.10
   8   3  11   -1.00    2.60
  -9  -3 -11   -3.80    2.20
  -9  -3 -11    3.50    3.30
   9   3  11    3.10    2.50
   9   3  11    0.10    2.60
  -9   3 -11   -0.80    2.20
 -10  -3 -11    7.40    4.10
 -10  -3 -11   13.50    4.30
 -10   3 -11    3.20    2.60
  10   3  11    8.70    2.80
  10   3  11   11.40    3.70
 -11   3 -11   13.60    4.90
  11   3  11   15.10    3.80
  12  -4 -11   66.99    5.90
  12   4 -11   59.89    6.20
  12   4 -11   52.79    5.20
  11  -4 -11    1.00    2.60
  11   4 -11    0.80    2.40
  11   4 -11    8.10    3.20
  10  -4 -11   17.80    4.10
  10   4 -11   16.10    3.30
  10   4 -11   12.50    2.60
   9  -4 -11    4.90    2.80
   9  -4 -11    7.80    3.40
   9   4 -11    3.50    2.40
   9   4 -11    2.00    3.20
   8  -4 -11    1.40    2.50
   8  -4 -11    1.50    2.10
   8   4 -11    1.50    2.00
   8   4 -11   -4.20    2.60
   7  -4 -11  166.28    7.20
   7  -4 -11  168.68    7.20
   7   4 -11  167.98    6.40
   7   4 -11  167.68    7.00
   6  -4 -11   80.19    5.70
   6  -4 -11   71.59    5.10
   6   4 -11   79.39    4.20
   6   4 -11   83.09    4.90
   5  -4 -11   28.30    3.60
   5  -4 -11   29.00    3.80
   5   4 -11   29.10    3.30
   5   4 -11   26.60    2.70
  -5   4  11   21.60    3.40
   4  -4 -11   65.19    5.10
   4  -4 -11   66.29    4.90
  -4   4  11   69.29    4.70
   4   4 -11   66.29    3.80
   4   4 -11   65.59    4.20
   3  -4 -11   -1.80    1.70
   3  -4 -11    0.40    2.40
   3   4 -11    0.90    1.50
   3   4 -11   -0.30    1.50
  -3   4  11    0.10    1.60
   2  -4 -11  256.17    8.70
   2  -4 -11  256.07    8.80
  -2   4  11  242.78    8.10
   2   4 -11  260.17    7.30
   2   4 -11  267.57    8.20
   1  -4 -11    6.00    2.90
   1  -4 -11   11.60    2.60
  -1   4  11    7.30    2.10
   1   4 -11   11.20    2.10
  -1   4  11   12.80    2.70
   1   4 -11   10.70    2.10
   0  -4 -11    9.80    3.00
   0  -4 -11    2.60    2.80
   0   4 -11    7.70    2.00
   0   4  11    5.70    2.50
   0   4 -11    7.50    2.30
   0   4  11    7.50    2.50
  -1  -4 -11   14.40    2.90
  -1  -4 -11    8.00    1.90
   1   4  11    9.40    2.60
  -1   4 -11    7.40    2.20
  -1   4 -11    9.30    2.30
   1   4  11    8.70    2.20
  -2  -4 -11   56.39    3.70
  -2  -4 -11   42.50    4.20
  -2   4 -11   54.29    3.90
   2   4  11   53.49    3.70
   2   4  11   49.50    3.70
  -2   4 -11   50.19    3.70
  -3  -4 -11    9.60    2.70
  -3  -4 -11    8.70    2.40
   3   4  11    8.70    2.20
   3   4  11   10.50    2.70
  -3   4 -11   10.10    2.60
  -3   4 -11    6.20    2.10
  -4  -4 -11   73.79    6.00
  -4  -4 -11   81.89    5.00
   4   4  11   76.99    5.10
   4   4  11   88.29    5.30
  -4   4 -11   79.79    4.50
  -5  -4 -11   58.89    5.60
  -5  -4 -11   54.39    4.70
   5   4  11   53.39    4.70
  -5   4 -11   59.09    4.10
   5   4  11   55.49    4.70
  -6  -4 -11   20.50    3.60
  -6  -4 -11   23.10    3.80
   6   4  11   15.80    2.90
  -6   4 -11   15.70    2.90
   6   4  11   16.40    3.40
  -7  -4 -11   -2.60    2.80
  -7  -4 -11   -2.10    3.30
   7   4  11    1.00    2.60
   7   4  11    2.60    3.00
  -7   4 -11   -1.10    2.60
  -8  -4 -11   97.59    6.00
  -8  -4 -11   91.69    6.50
   8   4  11  102.79    5.80
  -8   4 -11  103.79    6.60
   8   4  11   99.09    6.50
  -9  -4 -11   -8.80    3.10
  -9  -4 -11   -2.00    2.30
   9   4  11    2.20    3.00
   9   4  11   -1.80    2.10
  -9   4 -11    0.20    2.20
 -10  -4 -11   97.99    6.50
 -10  -4 -11   92.69    6.90
  10   4  11   84.69    6.30
 -10   4 -11   89.49    7.00
  10   4  11   99.59    7.00
 -11  -4 -11   -4.80    2.60
  11   4  11   -1.70    2.80
  12  -5 -11   14.90    4.80
  12   5 -11   10.00    4.10
  11  -5 -11  139.79    8.10
  11   5 -11  109.69    6.80
  10  -5 -11   22.40    4.40
  10   5 -11   25.40    4.40
   9  -5 -11    4.60    2.50
   9   5 -11    1.30    2.40
   8  -5 -11   29.70    3.70
   8  -5 -11   28.50    4.40
   8   5 -11   24.70    4.10
   7  -5 -11   50.49    4.60
   7  -5 -11   52.39    4.60
   7   5 -11   47.40    4.80
   6  -5 -11  118.49    6.20
   6  -5 -11  115.39    6.10
   6   5 -11  125.19    5.90
   5  -5 -11   25.90    3.90
   5  -5 -11   34.70    4.00
  -5   5  11   23.80    3.60
   5   5 -11   27.70    3.70
   4  -5 -11   -2.10    2.60
   4  -5 -11    0.10    2.40
   4   5 -11    0.70    2.40
  -4   5  11   -2.50    2.30
   3  -5 -11  418.16   12.30
   3  -5 -11  436.06   12.60
  -3   5  11  414.46   11.80
   3   5 -11  423.56   10.70
   3   5 -11  412.36   11.70
   2  -5 -11    1.20    2.00
   2  -5 -11    3.20    2.60
  -2   5  11    0.90    1.70
   2   5 -11   -2.00    1.40
   2   5 -11    0.50    1.60
  -2   5  11   -0.70    2.30
   1  -5 -11    1.70    2.10
   1  -5 -11   -0.10    1.90
  -1   5  11   -1.40    1.60
   1   5 -11    0.30    1.40
   1   5 -11   -1.80    1.60
  -1   5  11    1.30    1.70
   0  -5 -11    3.70    2.90
   0  -5 -11    1.60    2.00
   0   5 -11    0.10    1.80
   0   5  11   -0.70    1.60
   0   5 -11    0.90    1.80
   0   5  11    0.60    1.70
  -1  -5 -11    3.30    2.30
  -1  -5 -11    2.10    1.80
   1   5  11    1.80    1.70
  -1   5 -11    2.30    1.90
   1   5  11    0.80    1.80
  -1   5 -11    1.90    1.50
  -2  -5 -11   54.49    3.90
  -2  -5 -11   69.69    4.90
  -2   5 -11   53.49    3.60
   2   5  11   56.29    4.50
   2   5  11   59.99    4.20
  -3  -5 -11    2.10    1.70
  -3  -5 -11    2.40    3.20
  -3   5 -11   -2.60    1.50
   3   5  11   -0.50    2.40
   3   5  11    2.90    1.90
  -4  -5 -11   12.40    2.90
  -4  -5 -11    7.80    2.80
  -4   5 -11    4.60    2.70
   4   5  11    7.50    2.30
   4   5  11   10.80    2.50
  -5  -5 -11    2.60    3.40
  -5  -5 -11   -0.50    1.80
   5   5  11   -2.80    2.30
  -5   5 -11   -2.10    2.50
   5   5  11    1.60    2.00
  -6  -5 -11   63.09    4.70
  -6  -5 -11   55.59    5.90
  -6   5 -11   59.59    5.10
   6   5  11   55.99    4.50
   6   5  11   67.59    4.70
  -7  -5 -11  136.29    7.40
  -7  -5 -11  139.99    7.70
  -7   5 -11  153.68    7.00
   7   5  11  147.99    7.50
   7   5  11  155.58    7.10
  -8  -5 -11   18.90    4.20
  -8  -5 -11   19.60    4.70
   8   5  11   21.00    3.90
   8   5  11   17.50    4.00
  -8   5 -11   15.90    3.70
  -9  -5 -11   86.09    6.70
  -9  -5 -11   89.99    7.10
   9   5  11   93.49    6.70
   9   5  11   91.69    5.90
  -9   5 -11  100.99    6.90
 -10  -5 -11    2.50    3.80
 -10  -5 -11    1.70    3.80
 -10   5 -11    1.30    3.30
  10   5  11   -1.00    2.30
  10   5  11   -1.00    2.10
  11  -6 -11   19.10    4.30
  11   6 -11   20.50    4.50
  10  -6 -11    3.70    2.60
  10   6 -11    1.80    2.60
   9  -6 -11   58.69    5.30
   9   6 -11   62.99    5.80
   8  -6 -11   -1.20    3.10
   8   6 -11    3.60    2.40
   7  -6 -11    0.00    2.20
   7  -6 -11    1.80    1.80
   7   6 -11    1.90    2.90
   6  -6 -11    8.10    2.80
   6  -6 -11   10.00    2.80
   6   6 -11   12.00    2.50
   5  -6 -11   17.00    3.60
   5  -6 -11   21.90    3.50
  -5   6  11   15.60    3.30
   5   6 -11   23.40    3.60
   4  -6 -11   -2.80    2.60
   4  -6 -11   -3.20    2.40
  -4   6  11   -1.20    2.40
   4   6 -11    0.40    1.60
   3  -6 -11   22.40    3.80
   3  -6 -11   14.80    3.40
   3   6 -11   15.60    2.40
  -3   6  11   12.10    3.00
   3   6 -11   14.30    2.90
   2  -6 -11    8.70    3.00
   2  -6 -11    3.50    2.80
  -2   6  11    9.80    2.80
   2   6 -11    2.70    1.80
   2   6 -11    3.30    1.70
  -2   6  11    7.60    2.70
   1  -6 -11    4.60    2.40
   1  -6 -11    7.60    3.10
  -1   6  11    5.30    2.60
   1   6 -11    8.60    2.30
  -1   6  11    9.60    2.30
   1   6 -11    5.10    2.20
   0  -6 -11    4.10    3.10
   0  -6 -11    2.30    2.80
   0   6  11    5.70    2.60
   0   6 -11    4.10    1.90
   0   6  11   -1.00    2.40
   0   6 -11    5.70    1.90
  -1  -6 -11   54.99    4.80
  -1  -6 -11   70.39    5.70
   1   6  11   67.19    4.30
   1   6  11   67.49    4.90
  -1   6 -11   70.19    4.40
  -2  -6 -11    9.80    2.30
  -2  -6 -11   -0.30    3.00
   2   6  11    2.60    2.50
  -2   6 -11    5.80    2.50
   2   6  11    6.70    2.90
  -3  -6 -11    2.50    2.30
  -3  -6 -11    6.50    2.70
   3   6  11    1.90    2.00
   3   6  11   -0.60    1.80
  -3   6 -11    3.90    2.50
  -4  -6 -11    0.80    2.60
  -4  -6 -11    2.60    3.40
   4   6  11    0.30    2.60
  -4   6 -11    0.80    1.80
   4   6  11    0.80    1.90
  -5  -6 -11   82.59    5.60
  -5  -6 -11   80.49    5.90
  -5   6 -11   74.29    4.80
   5   6  11   75.59    5.60
   5   6  11   80.99    5.70
  -6  -6 -11    0.40    2.80
  -6  -6 -11    0.80    2.70
  -6   6 -11   -0.40    2.00
   6   6  11    1.10    2.20
   6   6  11    4.00    2.90
  -7  -6 -11    0.90    2.20
  -7  -6 -11   -8.50    3.30
   7   6  11    2.70    3.10
   7   6  11   -1.20    2.70
  -7   6 -11   -0.30    2.90
  -8  -6 -11    7.70    3.40
  -8  -6 -11    2.10    2.60
   8   6  11    2.50    3.20
   8   6  11   -0.50    2.20
  -8   6 -11    6.80    2.70
  -9  -6 -11    6.60    4.50
  -9  -6 -11    7.10    3.00
   9   6  11   12.30    3.80
   9   6  11    7.10    3.40
  -9   6 -11    8.90    3.90
 -10  -6 -11   46.10    6.50
  10   6  11   39.60    5.20
  11  -7 -11   31.80    5.00
  11   7 -11   29.00    5.10
  10  -7 -11    4.20    2.70
  10   7 -11    7.90    3.80
   9  -7 -11   17.30    4.00
   9   7 -11   16.30    3.50
   8  -7 -11   58.49    5.60
   8   7 -11   61.19    5.00
   7  -7 -11    5.60    2.60
   7   7 -11    2.10    3.00
   6  -7 -11   -0.40    2.10
   6  -7 -11    2.50    1.80
   6   7 -11   -0.50    1.90
   5  -7 -11    2.60    2.00
   5  -7 -11    3.20    3.10
   5   7 -11    3.00    2.00
  -5   7  11    1.00    2.80
   4  -7 -11   39.70    4.30
   4  -7 -11   38.10    4.40
   4   7 -11   34.40    3.90
  -4   7  11   36.60    4.30
   4   7 -11   39.60    4.10
   3  -7 -11   45.90    4.80
   3  -7 -11   52.59    4.80
   3   7 -11   51.29    4.20
  -3   7  11   51.99    4.70
   3   7 -11   48.30    3.70
   2  -7 -11   18.80    3.10
   2  -7 -11   12.70    2.70
   2   7 -11   12.60    2.30
  -2   7  11   12.90    2.60
  -2   7  11   13.50    2.70
   2   7 -11   10.90    2.50
   1  -7 -11   41.60    4.60
   1  -7 -11   35.80    4.00
   1   7 -11   34.30    3.30
  -1   7  11   30.40    3.90
  -1   7  11   39.20    3.80
   1   7 -11   36.80    3.50
   0  -7 -11    0.90    2.80
   0  -7 -11    3.40    2.30
   0   7  11   -1.10    1.70
   0   7  11    0.10    2.40
   0   7 -11    1.10    1.60
  -1  -7 -11   -1.90    2.10
  -1  -7 -11    2.90    3.00
  -1   7 -11    4.30    2.50
   1   7  11    3.60    2.10
   1   7  11    2.70    2.70
  -2  -7 -11   -2.20    2.20
  -2  -7 -11    1.40    2.10
   2   7  11    0.20    1.90
  -2   7 -11    1.60    2.50
   2   7  11   -0.90    2.40
  -3  -7 -11   26.40    4.40
  -3  -7 -11   21.40    2.90
  -3   7 -11   16.00    2.70
   3   7  11   16.10    3.50
   3   7  11   18.20    2.90
  -4  -7 -11   40.20    4.20
  -4  -7 -11   35.90    4.50
   4   7  11   35.80    4.00
  -4   7 -11   33.90    4.10
   4   7  11   38.90    4.00
  -5  -7 -11   -4.70    2.40
  -5  -7 -11   -6.60    2.40
  -5   7 -11    2.50    2.80
   5   7  11   -3.30    2.70
   5   7  11    0.30    2.10
  -6  -7 -11   17.40    3.90
  -6  -7 -11   26.50    4.20
  -6   7 -11   25.50    4.10
   6   7  11   23.80    3.50
   6   7  11   25.00    3.60
  -7  -7 -11   16.90    4.00
  -7  -7 -11   15.60    4.80
  -7   7 -11   16.50    3.80
   7   7  11   19.60    4.00
   7   7  11    7.90    3.50
  -8  -7 -11    3.30    3.20
  -8  -7 -11    5.40    3.60
   8   7  11    8.40    3.60
   8   7  11    3.70    2.70
  -8   7 -11    5.00    2.70
  -9  -7 -11  107.59    6.90
  -9  -7 -11   96.69    8.60
  -9   7 -11  110.89    7.40
   9   7  11  115.09    7.60
   9   7  11  114.19    7.50
  10  -8 -11   39.50    4.70
  10   8 -11   36.80    4.70
   9  -8 -11   38.00    4.60
   9   8 -11   44.30    4.90
   8  -8 -11   -0.50    3.10
   8   8 -11   -3.50    2.90
   7  -8 -11  139.99    7.10
   6  -8 -11    8.70    3.40
   6   8 -11    2.80    2.80
   5  -8 -11   34.40    4.50
  -5   8  11   39.60    4.60
   5   8 -11   37.70    4.20
   4  -8 -11   21.10    3.60
   4  -8 -11   21.50    3.50
  -4   8  11   24.50    3.40
   4   8 -11   20.10    2.90
   4   8 -11   20.50    3.00
   3  -8 -11    3.90    3.10
   3  -8 -11    1.10    2.70
  -3   8  11   -6.00    2.30
  -3   8  11   -0.10    1.80
   3   8 -11   -0.80    1.60
   3   8 -11    0.70    1.50
   2  -8 -11  326.57   11.10
   2  -8 -11  337.27   11.30
  -2   8  11  330.27   10.70
   2   8 -11  299.27    9.50
   2   8 -11  319.27    9.70
  -2   8  11  334.37   10.60
   1  -8 -11   49.20    4.70
   1  -8 -11   56.79    5.20
  -1   8  11   50.69    4.10
   1   8 -11   51.89    4.30
  -1   8  11   50.89    4.70
   0  -8 -11   16.90    4.00
   0  -8 -11   15.20    3.00
   0   8  11   15.00    3.30
   0   8 -11   15.70    2.70
   0   8  11   15.60    2.80
  -1  -8 -11   48.70    5.30
  -1  -8 -11   40.70    4.80
   1   8  11   41.40    4.40
  -1   8 -11   48.30    4.40
   1   8  11   37.80    4.50
  -2  -8 -11    4.40    2.70
  -2   8 -11    2.80    2.60
   2   8  11    8.30    3.00
   2   8  11   -1.00    1.90
  -3  -8 -11   20.80    3.90
  -3  -8 -11   10.90    3.00
   3   8  11   17.10    3.00
   3   8  11   13.20    3.40
  -3   8 -11   13.90    2.70
  -4  -8 -11    2.50    2.70
  -4  -8 -11    0.90    2.70
   4   8  11    0.30    2.80
  -4   8 -11    1.50    2.80
   4   8  11    2.40    2.30
  -5  -8 -11   27.90    4.20
  -5  -8 -11   32.50    4.70
  -5   8 -11   29.10    4.30
   5   8  11   35.00    4.50
   5   8  11   30.00    4.00
  -6  -8 -11    7.10    3.30
  -6  -8 -11    0.80    3.20
  -6   8 -11    5.20    3.20
   6   8  11    3.10    2.60
   6   8  11    3.50    2.40
  -7  -8 -11  124.69    7.70
  -7  -8 -11  146.49    9.30
   7   8  11  136.89    7.90
   7   8  11  132.99    7.60
  -7   8 -11  131.99    7.50
  -8  -8 -11  122.19    8.00
  -8  -8 -11  119.09    8.10
  -8   8 -11  123.59    6.90
   8   8  11  138.59    7.40
   8   8  11  126.69    7.70
   9  -9 -11    9.50    3.10
   9   9 -11    8.20    3.70
   8  -9 -11   21.30    4.30
   8   9 -11   37.30    4.90
   7  -9 -11   26.60    4.30
   7   9 -11   18.30    4.00
   6  -9 -11   20.50    4.10
   6   9 -11    8.80    3.30
   5  -9 -11   27.50    4.40
  -5   9  11   30.10    4.30
   5   9 -11   30.70    4.10
   4  -9 -11   15.10    3.70
   4   9 -11   22.30    3.20
   4   9 -11   13.40    3.10
  -4   9  11   18.10    3.70
   3  -9 -11    6.90    2.40
   3  -9 -11    1.10    2.20
  -3   9  11    3.10    2.70
  -3   9  11    0.40    2.00
   3   9 -11    4.40    1.90
   2  -9 -11    3.20    3.20
   2  -9 -11    3.70    3.00
  -2   9  11   -2.50    2.50
   2   9 -11    4.20    2.50
  -2   9  11    3.00    2.10
   1  -9 -11   11.10    3.60
   1  -9 -11   10.90    3.60
  -1   9  11   11.00    3.10
   1   9 -11   12.00    2.50
  -1   9  11   12.70    3.30
   0  -9 -11    9.00    3.70
   0  -9 -11    3.60    2.50
   0   9 -11    4.80    2.70
   0   9  11    7.30    3.00
   0   9  11    2.90    2.10
  -1  -9 -11   85.39    6.60
  -1  -9 -11   80.09    6.30
  -1   9 -11   88.39    5.70
   1   9  11   90.69    5.90
   1   9  11   88.39    5.90
  -2  -9 -11    0.90    3.00
  -2  -9 -11   -0.90    2.50
   2   9  11    3.10    2.80
   2   9  11    2.10    2.20
  -2   9 -11   -2.40    2.60
  -3  -9 -11    3.80    2.80
  -3  -9 -11   -3.60    3.20
  -3   9 -11    1.20    2.10
   3   9  11    1.00    3.00
   3   9  11    3.90    2.90
  -4  -9 -11   45.50    5.30
  -4  -9 -11   33.70    4.30
   4   9  11   39.70    4.60
  -4   9 -11   39.40    4.60
   4   9  11   34.60    4.20
  -5  -9 -11   17.90    4.10
  -5  -9 -11   14.90    3.90
   5   9  11   23.20    3.70
   5   9  11   28.50    4.30
  -5   9 -11   27.70    4.30
  -6  -9 -11    5.60    3.40
  -6  -9 -11   -0.20    3.30
   6   9  11    1.90    3.10
  -6   9 -11   -0.70    3.10
   6   9  11   -1.90    2.20
  -7  -9 -11    3.10    4.40
  -7  -9 -11    7.30    3.80
  -7   9 -11    5.40    2.80
   7   9  11    4.30    3.60
   7   9  11    1.40    2.40
  -8  -9 -11   29.80    5.20
   8   9  11   34.80    4.50
   9 -10 -11   12.00    4.00
   8 -10 -11   11.50    3.70
   8  10 -11    5.20    3.50
   7 -10 -11   20.30    4.20
   7  10 -11   19.80    4.10
   6 -10 -11   14.20    3.80
   6  10 -11    8.30    3.40
   5 -10 -11   13.70    3.80
   5  10 -11   10.50    2.70
  -5  10  11    6.00    3.40
   4 -10 -11    6.30    3.30
  -4  10  11    7.30    3.20
   4  10 -11    8.70    2.90
   3 -10 -11    2.30    3.10
  -3  10  11   -0.10    2.80
   3  10 -11    3.20    2.50
   2 -10 -11    7.00    3.10
   2 -10 -11   11.00    3.30
  -2  10  11    5.50    2.40
   2  10 -11    9.50    2.90
  -2  10  11    8.50    2.50
   1 -10 -11    6.40    3.40
   1 -10 -11    3.40    3.20
   1  10 -11    3.80    2.80
  -1  10  11   10.20    3.20
  -1  10  11    3.50    3.00
   0 -10 -11   65.59    5.10
   0 -10 -11   56.79    5.80
   0  10  11   62.49    4.60
   0  10  11   61.59    5.40
   0  10 -11   52.39    5.00
  -1 -10 -11    1.70    3.50
  -1 -10 -11    1.10    3.10
   1  10  11    0.50    2.80
   1  10  11   -0.80    2.60
  -1  10 -11    1.40    2.80
  -2 -10 -11    7.90    3.20
  -2 -10 -11    6.90    3.50
   2  10  11    9.40    3.20
   2  10  11    6.40    2.50
  -2  10 -11    8.10    3.20
  -3 -10 -11   22.80    5.00
   3  10  11   20.80    4.00
   3  10  11   23.10    4.10
  -3  10 -11   15.40    3.10
  -4 -10 -11   11.60    3.70
  -4 -10 -11    6.50    3.20
   4  10  11    9.30    3.40
   4  10  11    7.20    2.80
  -4  10 -11   12.70    3.50
  -5 -10 -11    1.10    3.20
  -5 -10 -11   -0.80    3.10
   5  10  11   -2.00    2.10
  -5  10 -11    0.80    3.20
   5  10  11   -3.30    2.10
  -6 -10 -11   13.40    4.00
  -6 -10 -11   20.60    5.20
  -6  10 -11    5.90    3.70
   6  10  11   11.50    3.90
   6  10  11   -0.70    3.10
  -7 -10 -11    5.90    3.80
   7  10  11    3.70    3.40
   7 -11 -11   31.00    4.70
   7  11 -11   37.20    4.90
   6 -11 -11   88.09    5.90
   6  11 -11   74.29    6.90
   5 -11 -11   28.60    4.50
   5  11 -11   29.10    4.70
   4 -11 -11   15.70    3.70
   4  11 -11    7.40    3.00
  -4  11  11   10.50    2.90
   3 -11 -11   30.90    4.50
  -3  11  11   31.60    4.30
   3  11 -11   31.30    4.10
   2 -11 -11   32.80    4.50
   2  11 -11   31.20    3.80
  -2  11  11   33.80    4.20
   1 -11 -11   24.40    4.40
   1 -11 -11   15.80    3.90
  -1  11  11   22.10    3.80
   1  11 -11   26.70    4.00
  -1  11  11   21.50    3.80
   0 -11 -11    5.30    3.40
   0 -11 -11   10.70    3.90
   0  11 -11    3.70    2.30
   0  11  11   10.00    3.30
   0  11  11    8.60    3.20
  -1 -11 -11   59.09    6.10
  -1 -11 -11   60.99    5.40
   1  11  11   66.99    4.80
  -1  11 -11   71.39    5.10
   1  11  11   55.69    5.40
  -2 -11 -11    1.40    3.30
  -2 -11 -11   -5.30    2.30
   2  11  11    1.30    2.40
  -2  11 -11    6.20    3.20
   2  11  11    5.60    3.00
  -3 -11 -11    6.90    4.20
  -3 -11 -11    4.60    3.40
   3  11  11    7.70    3.50
   3  11  11    5.60    3.20
  -3  11 -11   11.30    2.90
  -4 -11 -11   90.49    8.00
  -4 -11 -11  110.69    7.10
   4  11  11   97.29    5.90
  -4  11 -11   93.59    6.80
   4  11  11   90.29    6.80
  -5 -11 -11    7.90    3.80
  -5 -11 -11    8.40    4.80
   5  11  11    9.40    3.90
  -5  11 -11   12.50    4.00
   5  11  11   12.30    3.70
  -6 -11 -11   29.60    4.90
   5  12 -11   -1.20    2.60
   4  12 -11    0.30    2.80
   3  12 -11   -3.20    2.50
   2  12 -11   12.80    3.50
   1  12 -11   21.40    4.00
  -1  12  11   21.90    3.90
   0  12  11    0.80    2.90
   0  12  11   -1.90    2.70
   0  12 -11   -0.10    2.90
  -1 -12 -11   30.70    4.50
   1  12  11   27.90    4.20
  -1  12 -11   28.50    4.50
   1  12  11   25.80    3.70
  -2 -12 -11    1.00    3.90
   2  12  11   -1.90    2.70
  -2  12 -11   -3.40    2.00
   2  12  11   -0.80    2.90
  -3 -12 -11   14.20    3.80
  -3  12 -11   13.00    4.00
   3  12  11   11.30    3.50
   3  12  11    8.00    2.90
  -4 -12 -11   13.40    4.10
   4  12  11   13.50    3.40
   4  12  11   11.90    3.80
  13   0 -12   15.00    4.00
  12   0 -12   10.30    3.60
  12   0 -12    3.30    3.50
  11   0 -12   49.70    5.20
  11   0 -12   46.10    5.20
  10   0 -12   -0.10    2.20
  10   0 -12   -1.20    2.90
   9   0 -12  163.08    7.60
   9   0 -12  174.98    7.60
   8   0 -12   58.89    5.00
   8   0 -12   46.20    4.40
   7   0 -12    4.10    2.90
   7   0 -12    9.70    3.00
   6   0 -12  138.09    6.30
   6   0 -12  137.99    6.00
   5   0 -12  284.27    9.40
   5   0 -12  303.17   10.00
   4   0 -12  212.58    7.60
  -4   0  12  198.88    7.20
   4   0 -12  206.48    7.60
   3   0 -12   19.60    3.30
   3   0 -12   14.40    2.50
  -3   0  12   16.20    2.70
   2   0 -12  153.18    6.40
  -2   0  12  151.58    5.90
   2   0 -12  156.68    6.40
   1   0 -12  138.19    6.40
  -1   0  12  147.29    5.50
   1   0 -12  148.59    5.90
   0   0 -12   16.20    3.00
   0   0 -12   11.80    2.00
   0   0 -12   15.10    2.60
   0   0  12   13.30    2.50
  -1   0 -12   24.80    2.50
  -1   0 -12   25.10    3.50
   1   0  12   24.70    3.00
   2   0  12  450.85   11.80
  -2   0 -12  456.95   11.60
  -2   0 -12  444.76   12.80
   2   0  12  436.26   12.20
  -3   0 -12  619.24   15.30
   3   0  12  621.74   15.50
   3   0  12  623.64   15.70
  -3   0 -12  616.84   16.30
  -4   0 -12  342.97   10.70
   4   0  12  327.27   10.00
   4   0  12  349.17   10.10
  -4   0 -12  345.27   10.20
   5   0  12   22.20    3.30
  -5   0 -12   24.70    3.50
   5   0  12   24.90    3.00
  -5   0 -12   26.20    3.90
  -6   0 -12   11.30    2.60
   6   0  12   13.40    2.90
  -6   0 -12   11.80    2.80
   6   0  12    9.50    2.60
   7   0  12   10.30    2.60
   7   0  12   11.70    3.30
  -7   0 -12   12.00    2.80
  -7   0 -12   13.40    2.90
   8   0  12   10.60    2.60
  -8   0 -12    2.60    2.40
   9   0  12   40.90    4.30
  -9   0 -12   52.19    5.50
  10   0  12    4.90    3.20
 -10   0 -12    5.40    3.00
  11   0  12   14.70    3.30
  12  -1 -12   -4.30    3.20
  12  -1 -12   -0.70    2.20
  12   1 -12    1.20    3.30
  12   1 -12   -3.50    3.10
  11  -1 -12   -2.30    2.90
  11  -1 -12   -4.20    2.90
  11   1 -12    1.60    3.10
  11   1 -12   -2.30    2.90
  10  -1 -12    7.90    2.80
  10  -1 -12    4.20    3.10
  10   1 -12    1.10    3.10
  10   1 -12    4.20    3.10
   9  -1 -12   -1.20    2.80
   9  -1 -12   -3.10    1.80
   9   1 -12    2.40    3.00
   9   1 -12    0.80    2.10
   8  -1 -12   -6.60    2.50
   8  -1 -12    3.50    2.90
   8   1 -12    0.60    2.00
   8   1 -12    6.00    2.80
   7  -1 -12   22.10    3.20
   7  -1 -12   29.80    3.90
   7   1 -12   24.70    3.40
   7   1 -12   24.20    3.10
   6  -1 -12   36.40    4.10
   6  -1 -12   36.30    4.10
   6   1 -12   33.00    3.60
   6   1 -12   32.10    4.00
   5  -1 -12  276.37    9.20
   5  -1 -12  267.67    9.20
   5   1 -12  266.57    9.40
   5   1 -12  268.17    8.60
  -5   1  12  287.07    8.80
   4  -1 -12   46.70    4.30
  -4  -1  12   50.59    3.30
   4  -1 -12   42.50    4.00
  -4   1  12   41.90    3.90
   4   1 -12   43.10    3.90
   4   1 -12   42.50    3.80
  -3  -1  12   37.50    3.30
   3  -1 -12   34.10    3.90
   3  -1 -12   29.90    3.80
   3   1 -12   42.20    3.80
  -3   1  12   40.80    3.70
   3   1 -12   37.80    4.00
   2  -1 -12   88.29    4.90
   2  -1 -12   82.19    4.60
  -2  -1  12   88.99    4.40
  -2   1  12   89.59    4.40
   2   1 -12   96.49    4.90
   2   1 -12   93.49    4.90
  -1  -1  12    9.10    1.80
   1  -1 -12    6.60    2.80
   1  -1 -12   11.80    2.90
   1   1 -12    2.60    2.50
   1   1 -12   11.00    2.60
  -1   1  12   10.50    2.50
   0  -1  12  105.79    4.70
   0  -1 -12   93.39    5.10
   0  -1 -12  101.49    5.10
   0   1 -12   92.39    5.40
   0   1 -12   98.69    5.10
   0   1  12  106.39    4.70
   0   1 -12  106.89    4.20
  -1  -1 -12    7.50    2.90
  -1  -1 -12    4.70    1.70
   1  -1  12    5.90    2.10
   1   1  12    3.70    2.40
   1   1  12    3.20    1.70
  -1   1 -12    6.80    2.20
  -1   1 -12    7.40    1.80
   2  -1  12    7.20    2.20
  -2  -1 -12    9.70    3.10
  -2  -1 -12   11.00    2.20
   2   1  12    8.70    2.70
  -2   1 -12   10.90    1.90
  -2   1 -12    9.30    2.30
   2   1  12    6.20    1.90
   3  -1  12  257.77    8.10
  -3  -1 -12  244.18    9.20
   3  -1  12  250.67    8.00
   3   1  12  250.37    8.40
  -3   1 -12  246.88    8.70
  -3   1 -12  246.48    8.10
   3   1  12  262.07    8.70
   4  -1  12   54.59    3.60
  -4  -1 -12   53.19    3.80
   4  -1  12   60.89    3.70
  -4  -1 -12   52.39    4.30
   4   1  12   57.09    3.90
  -4   1 -12   56.89    4.10
   4   1  12   61.79    4.00
  -4   1 -12   58.49    4.40
   5  -1  12   11.60    2.60
  -5  -1 -12   10.20    2.90
   5  -1  12    5.30    1.90
  -5  -1 -12    9.60    3.40
  -5   1 -12   17.40    2.80
  -5   1 -12    7.20    2.80
   5   1  12    3.20    2.60
   5   1  12    6.30    2.70
   6  -1  12   25.30    3.30
  -6  -1 -12   25.80    3.80
  -6  -1 -12   23.60    4.00
   6   1  12   19.30    3.40
  -6   1 -12   29.10    3.90
   6   1  12   26.00    3.80
  -6   1 -12   25.60    3.30
  -7  -1 -12   -2.80    2.70
   7  -1  12   -2.00    2.30
  -7  -1 -12    1.00    3.00
  -7   1 -12   -1.20    2.70
   7   1  12   -1.50    2.50
   7   1  12   -2.80    2.30
  -8  -1 -12    3.90    3.40
   8  -1  12    2.60    2.80
  -8  -1 -12    2.40    2.40
   8   1  12    3.80    2.60
  -8   1 -12    7.50    3.30
   8   1  12    2.20    2.80
   9  -1  12    4.80    2.90
  -9  -1 -12   12.00    3.80
   9   1  12    6.00    3.20
  -9   1 -12    2.60    3.40
  10  -1  12   -1.40    2.70
 -10  -1 -12    1.20    2.60
 -10   1 -12    0.40    3.50
  10   1  12   -1.20    2.10
  11  -1  12    0.80    3.10
  11   1  12   -0.30    4.70
  12  -2 -12   -1.10    3.50
  12  -2 -12   -3.80    1.80
  12   2 -12    5.00    3.40
  12   2 -12    1.10    3.30
  11  -2 -12    2.60    3.10
  11  -2 -12   -2.90    3.20
  11   2 -12    2.40    3.40
  11   2 -12   -1.00    2.90
  10  -2 -12   -0.40    2.80
  10  -2 -12    3.20    2.40
  10   2 -12    5.20    3.30
  10   2 -12    5.20    3.00
   9  -2 -12   27.90    3.80
   9  -2 -12   26.90    3.50
   9   2 -12   21.20    3.90
   9   2 -12   22.10    3.70
   8  -2 -12   12.20    3.40
   8  -2 -12   14.50    3.40
   8   2 -12   11.00    2.90
   8   2 -12    7.00    3.20
   7  -2 -12   76.09    5.50
   7  -2 -12   58.09    5.00
   7   2 -12   59.19    5.10
   7   2 -12   57.89    4.50
   6  -2 -12   -0.60    1.90
   6  -2 -12   -0.10    2.00
   6   2 -12    3.40    2.30
   6   2 -12   -2.60    2.50
   5  -2 -12   18.10    3.50
   5  -2 -12   18.30    3.00
  -5   2  12   16.10    2.70
   5   2 -12   15.50    2.80
   5   2 -12   10.40    2.60
   4  -2 -12   73.69    4.60
   4  -2 -12   90.89    5.50
  -4   2  12   75.49    4.40
   4   2 -12   74.29    4.50
   4   2 -12   78.09    4.70
  -3  -2  12    4.50    1.60
   3  -2 -12   -1.50    2.50
   3  -2 -12    1.60    1.90
   3   2 -12    3.80    2.00
   3   2 -12    5.00    2.00
  -3   2  12    4.30    2.40
   2  -2 -12   45.40    4.30
  -2  -2  12   48.30    3.30
   2  -2 -12   46.20    4.10
   2   2 -12   47.60    3.70
   2   2 -12   50.09    4.30
  -2   2  12   48.80    4.00
   1  -2 -12   31.10    3.50
   1  -2 -12   26.70    3.40
  -1  -2  12   31.10    2.90
  -1   2  12   30.30    3.00
   1   2 -12   32.20    3.20
   1   2 -12   28.10    3.10
   0  -2  12    8.40    2.00
   0  -2 -12    5.30    2.30
   0  -2 -12    8.40    2.40
   0   2 -12    4.90    2.00
   0   2 -12    7.50    1.80
   0   2  12    6.80    1.90
   0   2  12    4.60    1.90
   0   2 -12    6.30    2.30
   1  -2  12   21.00    2.50
  -1  -2 -12   16.20    2.30
  -1  -2 -12   16.70    2.90
  -1   2 -12   12.90    2.60
   1   2  12   15.40    2.40
  -1   2 -12   23.60    3.20
   1   2  12   13.20    2.40
  -1   2 -12   19.50    2.50
  -2  -2 -12   11.00    2.30
   2  -2  12    6.50    2.00
  -2  -2 -12   10.00    2.70
   2   2  12    6.40    2.10
   2   2  12    6.00    1.90
  -2   2 -12   12.00    2.80
  -2   2 -12    5.80    1.70
  -3  -2 -12    7.20    2.40
  -3  -2 -12   10.60    2.80
   3  -2  12    7.80    2.10
  -3   2 -12   12.50    2.80
   3   2  12    7.90    2.20
  -3   2 -12   12.40    2.70
   3   2  12   10.60    2.70
   4  -2  12    1.10    1.90
  -4  -2 -12   -1.20    2.10
  -4  -2 -12   -3.90    2.70
   4  -2  12    0.60    2.00
  -4   2 -12   -0.60    2.20
   4   2  12    0.10    2.40
   4   2  12    2.30    2.60
  -4   2 -12   -1.80    2.20
   5  -2  12   18.20    2.50
  -5  -2 -12   19.90    3.40
  -5  -2 -12   13.80    3.10
   5   2  12   13.30    3.10
  -5   2 -12   14.60    3.20
   5   2  12   17.30    2.80
  -5   2 -12   22.40    3.20
   6  -2  12    6.60    2.50
  -6  -2 -12    3.80    2.90
  -6  -2 -12    5.00    2.60
   6   2  12    2.20    2.00
  -6   2 -12    4.00    2.10
   6   2  12    3.80    2.10
  -7  -2 -12   -4.90    2.50
   7  -2  12   -1.50    2.20
  -7  -2 -12   -0.40    2.30
  -7   2 -12    2.50    3.00
   7   2  12    0.20    2.70
   7   2  12   -0.40    1.80
   8  -2  12    7.00    2.90
  -8  -2 -12    2.20    3.30
  -8  -2 -12    3.60    2.50
   8   2  12    7.70    3.00
   8   2  12   -4.60    2.60
  -8   2 -12    5.80    3.40
  -9  -2 -12    3.90    3.60
   9  -2  12    1.20    2.70
  -9  -2 -12    5.50    3.70
  -9   2 -12    0.20    3.30
   9   2  12    2.00    2.10
   9   2  12    5.10    2.60
  10  -2  12   -3.10    1.80
 -10  -2 -12    2.20    2.80
  10   2  12    2.80    3.40
 -10   2 -12   -2.50    3.20
  12  -3 -12   -2.00    2.40
  12   3 -12    0.60    2.30
  12   3 -12   -4.10    3.10
  11  -3 -12    3.20    2.70
  11  -3 -12    3.50    3.70
  11   3 -12    2.00    2.70
  11   3 -12    1.70    2.90
  10  -3 -12   57.99    5.70
  10  -3 -12   52.39    5.20
  10   3 -12   48.30    4.90
  10   3 -12   53.39    4.80
   9  -3 -12    0.20    2.20
   9  -3 -12    2.30    2.10
   9   3 -12   -4.70    2.10
   9   3 -12   -2.00    2.00
   8  -3 -12   32.80    3.80
   8  -3 -12   39.60    4.70
   8   3 -12   35.20    4.10
   8   3 -12   27.10    3.10
   7  -3 -12   20.70    3.60
   7  -3 -12   16.70    3.10
   7   3 -12   21.20    3.30
   7   3 -12   22.80    3.10
   6  -3 -12  170.78    7.80
   6  -3 -12  167.88    7.50
   6   3 -12  168.08    7.00
   6   3 -12  170.38    6.50
   5  -3 -12  135.49    6.90
   5  -3 -12  147.29    6.50
   5   3 -12  149.69    5.80
   5   3 -12  143.89    6.30
  -5   3  12  150.88    6.80
   4  -3 -12    8.70    3.10
   4  -3 -12    6.40    2.30
   4   3 -12    6.20    2.20
   4   3 -12    6.70    2.10
  -4   3  12    6.20    2.60
   3  -3 -12  116.89    6.30
  -3  -3  12  134.59    5.10
   3  -3 -12  129.79    6.60
   3   3 -12  120.09    5.10
  -3   3  12  136.09    6.10
   3   3 -12  129.59    5.80
   2  -3 -12    8.30    2.40
  -2  -3  12    8.90    1.90
   2  -3 -12   11.80    2.60
   2   3 -12    9.20    2.40
   2   3 -12    8.30    2.20
  -2   3  12    7.80    2.10
   1  -3 -12  263.87    8.90
   1  -3 -12  258.87    9.00
  -1  -3  12  267.57    7.60
  -1   3  12  258.07    8.50
   1   3 -12  256.37    7.80
   1   3 -12  265.87    8.70
  -1   3  12  250.87    8.20
   1   3 -12  247.88    7.30
   0  -3 -12  110.09    5.80
   0  -3 -12  119.99    5.80
   0  -3  12  113.69    4.50
   0   3 -12  115.59    4.70
   0   3 -12  117.79    5.00
   0   3  12  106.39    5.10
   0   3 -12  106.49    5.40
   0   3  12  111.99    5.30
   1  -3  12    2.90    1.60
  -1  -3 -12    0.60    1.80
  -1  -3 -12   -3.60    2.70
   1   3  12    2.20    2.50
   1   3  12   -1.80    1.50
  -1   3 -12   -0.40    1.30
  -1   3 -12   -0.50    1.90
  -1   3 -12   -1.00    2.10
  -2  -3 -12   41.30    4.70
  -2  -3 -12   41.00    3.40
   2   3  12   42.60    4.20
  -2   3 -12   43.40    3.90
  -2   3 -12   42.30    3.50
   2   3  12   39.40    3.90
  -3  -3 -12    4.30    2.20
  -3  -3 -12    2.80    2.30
  -3   3 -12    0.00    2.10
   3   3  12    0.90    1.70
   3   3  12    5.50    2.10
  -3   3 -12    1.10    1.60
  -4  -3 -12    2.70    2.50
  -4  -3 -12    1.70    2.30
  -4   3 -12    0.60    1.70
  -4   3 -12   -0.10    2.10
   4   3  12    0.90    1.80
   4   3  12    2.40    2.60
  -5  -3 -12   18.20    2.90
  -5  -3 -12   16.90    3.30
  -5   3 -12   24.90    3.10
   5   3  12   21.20    3.10
   5   3  12   22.30    3.10
  -6  -3 -12    0.50    2.40
  -6  -3 -12   -2.80    2.50
  -6   3 -12   -1.70    2.60
   6   3  12    0.00    1.80
   6   3  12    0.30    2.60
  -7  -3 -12   38.60    4.60
  -7  -3 -12   35.90    4.50
   7   3  12   36.50    4.40
   7   3  12   32.90    3.80
  -7   3 -12   34.10    4.00
  -8  -3 -12   36.70    5.30
  -8  -3 -12   40.00    4.40
   8   3  12   35.10    4.40
  -8   3 -12   40.30    4.90
   8   3  12   27.60    4.40
  -9  -3 -12   14.30    3.60
  -9  -3 -12   14.30    3.50
  -9   3 -12   21.70    4.30
   9   3  12   16.50    4.00
   9   3  12   18.40    3.30
 -10  -3 -12   19.60    4.80
 -10  -3 -12   19.10    4.60
 -10   3 -12   26.00    4.60
  10   3  12   21.40    4.00
  10   3  12   21.30    3.80
  12   4 -12   -1.60    3.60
  11  -4 -12    3.40    3.70
  11   4 -12    9.80    3.20
  10  -4 -12    5.90    2.80
  10   4 -12    6.60    3.50
   9  -4 -12   12.90    3.90
   9  -4 -12    8.90    2.60
   9   4 -12    8.10    3.40
   8  -4 -12   33.20    4.10
   8  -4 -12   33.90    4.50
   8   4 -12   30.30    3.90
   7  -4 -12   18.90    3.50
   7  -4 -12   19.20    3.90
   7   4 -12   16.90    3.10
   6  -4 -12  248.28    9.10
   6  -4 -12  246.78    9.00
   6   4 -12  222.68    8.50
   5  -4 -12   74.49    5.00
   5  -4 -12   88.59    5.70
  -5   4  12   80.29    4.80
   5   4 -12   74.19    5.30
   4  -4 -12   56.89    4.70
   4  -4 -12   55.89    4.30
  -4   4  12   64.79    4.30
   4   4 -12   69.69    5.00
   3  -4 -12   52.79    4.50
   3  -4 -12   48.90    4.30
  -3   4  12   53.59    3.90
   3   4 -12   43.80    4.10
   2  -4 -12   59.09    4.40
   2  -4 -12   51.49    4.90
  -2   4  12   49.60    3.80
   2   4 -12   56.19    4.40
   1  -4 -12  149.19    6.60
   1  -4 -12  145.89    6.70
   1   4 -12  147.59    5.40
   1   4 -12  146.79    6.30
  -1   4  12  156.88    6.40
  -1   4  12  148.49    6.10
   0  -4 -12    6.70    2.40
   0  -4 -12    3.90    2.90
   0   4  12    0.90    1.70
   0   4 -12    1.40    1.90
   0   4 -12    3.90    2.20
   0   4  12    5.00    2.70
  -1  -4 -12   79.59    5.90
  -1   4 -12   91.39    4.70
   1   4  12   93.59    5.30
   1   4  12   94.19    5.50
  -1   4 -12   93.39    4.90
  -2  -4 -12   52.49    5.20
  -2  -4 -12   51.29    3.70
  -2   4 -12   49.10    3.80
  -2   4 -12   60.39    4.20
   2   4  12   46.60    4.40
   2   4  12   47.60    4.00
  -3  -4 -12  145.69    7.10
  -3  -4 -12  139.59    6.00
   3   4  12  131.99    6.40
   3   4  12  137.69    6.20
  -3   4 -12  139.69    5.80
  -4  -4 -12    6.70    3.50
  -4  -4 -12    5.10    2.60
   4   4  12    0.30    2.60
  -4   4 -12    1.70    2.40
   4   4  12   -2.40    2.30
  -5  -4 -12    2.10    2.60
  -5  -4 -12    3.60    2.70
   5   4  12    4.80    2.30
  -5   4 -12    6.10    2.80
   5   4  12    5.60    2.30
  -6  -4 -12    5.70    2.70
  -6  -4 -12    7.60    3.20
  -6   4 -12    9.70    3.20
   6   4  12    4.90    2.30
   6   4  12    8.10    3.20
  -7  -4 -12   38.30    4.30
  -7  -4 -12   33.00    4.60
   7   4  12   33.40    3.90
  -7   4 -12   29.50    3.80
   7   4  12   32.90    4.40
  -8  -4 -12   11.50    3.90
  -8  -4 -12    6.80    4.10
   8   4  12    9.40    3.40
   8   4  12   14.30    3.20
  -8   4 -12    8.10    2.80
  -9  -4 -12   12.70    3.50
  -9  -4 -12    4.60    2.90
   9   4  12    6.50    3.20
   9   4  12    3.10    3.30
  -9   4 -12   -0.80    3.20
 -10  -4 -12    6.20    3.30
 -10  -4 -12   -0.20    2.70
  10   4  12   12.10    3.90
 -10   4 -12    1.20    3.50
  10   4  12    2.70    2.40
  11  -5 -12   -0.30    2.60
  11   5 -12   -2.00    3.20
  10  -5 -12   10.90    4.00
  10   5 -12    7.20    3.60
   9  -5 -12    1.30    3.30
   9   5 -12   -1.90    2.20
   8  -5 -12   81.79    5.70
   8  -5 -12   91.29    5.90
   8   5 -12   87.09    6.30
   7  -5 -12    8.70    3.10
   7  -5 -12    3.80    3.40
   7   5 -12    3.90    2.40
   6  -5 -12   13.80    3.70
   6  -5 -12    5.30    2.90
   6   5 -12   11.50    2.70
   5  -5 -12   -4.60    1.80
   5  -5 -12   -0.30    2.70
   5   5 -12    4.60    2.80
  -5   5  12    0.10    2.00
   4  -5 -12   32.90    3.90
   4  -5 -12   40.70    4.10
   4   5 -12   35.60    3.60
  -4   5  12   39.00    3.80
   3  -5 -12   71.99    4.90
   3  -5 -12   60.59    4.60
   3   5 -12   61.29    4.10
  -3   5  12   58.49    4.20
   2  -5 -12   18.90    3.10
   2  -5 -12   20.70    3.80
  -2   5  12   18.90    2.80
   2   5 -12   18.30    3.00
  -2   5  12   19.30    2.90
   2   5 -12   18.50    2.50
   1  -5 -12   36.80    4.40
   1  -5 -12   32.70    3.90
  -1   5  12   32.70    3.80
   1   5 -12   36.60    3.20
   1   5 -12   25.40    3.20
  -1   5  12   38.40    3.80
   0  -5 -12   -2.40    2.90
   0  -5 -12    3.60    3.10
   0   5 -12    4.60    2.10
   0   5  12    3.80    2.50
   0   5  12    3.70    2.60
   0   5 -12    6.10    2.30
  -1  -5 -12    8.60    2.60
  -1  -5 -12    6.40    3.30
  -1   5 -12   10.50    2.40
  -1   5 -12    4.50    2.10
   1   5  12    8.60    3.00
   1   5  12    7.70    2.30
  -2  -5 -12    0.30    1.90
  -2  -5 -12    2.10    3.10
   2   5  12    2.80    2.60
  -2   5 -12    0.40    1.60
   2   5  12    0.60    2.60
  -3  -5 -12    7.10    2.40
  -3  -5 -12    9.40    3.10
  -3   5 -12    9.80    2.80
   3   5  12   10.70    2.60
   3   5  12    5.70    2.80
  -4  -5 -12   -1.90    3.20
  -4  -5 -12   -0.70    2.40
  -4   5 -12    2.10    2.00
   4   5  12    2.50    2.70
   4   5  12    0.60    2.80
  -5  -5 -12    1.80    3.50
  -5  -5 -12   -2.90    2.50
   5   5  12   -4.60    2.60
  -5   5 -12    1.20    2.00
   5   5  12   -3.30    2.60
  -6  -5 -12    1.20    3.70
  -6  -5 -12    0.60    2.90
   6   5  12    1.90    3.00
   6   5  12   -3.90    1.70
  -6   5 -12   -5.00    1.70
  -7  -5 -12   11.40    2.90
  -7  -5 -12   12.90    4.40
   7   5  12   11.40    2.90
   7   5  12   17.50    3.80
  -7   5 -12    9.30    3.60
  -8  -5 -12   19.20    3.60
  -8  -5 -12   13.60    3.90
   8   5  12   14.50    3.20
  -8   5 -12   15.40    3.20
   8   5  12   16.80    3.30
  -9  -5 -12   12.60    4.70
  -9  -5 -12    8.20    4.00
   9   5  12    5.80    2.80
   9   5  12    7.40    3.50
  -9   5 -12   12.10    3.20
 -10  -5 -12    5.20    4.50
  10   5  12    4.20    3.40
  11  -6 -12    0.50    3.60
  11   6 -12    0.90    3.50
  10  -6 -12   11.00    4.00
  10   6 -12   10.70    3.20
   9  -6 -12   13.60    3.30
   9   6 -12   18.10    4.10
   8  -6 -12   23.80    4.40
   8   6 -12   14.20    3.10
   7  -6 -12  169.38    7.70
   7  -6 -12  168.48    8.50
   7   6 -12  194.88    8.40
   6  -6 -12   71.69    6.00
   6  -6 -12   67.99    5.40
   6   6 -12   61.69    4.60
   5  -6 -12   -1.60    2.00
   5  -6 -12    0.10    2.00
   5   6 -12   -0.10    2.60
  -5   6  12   -0.90    1.90
   4  -6 -12   70.69    5.10
   4  -6 -12   70.99    4.90
   4   6 -12   69.19    5.00
  -4   6  12   74.99    4.80
   3  -6 -12    2.00    2.20
   3  -6 -12   -3.20    2.70
   3   6 -12    5.60    2.60
  -3   6  12    1.90    2.70
   2  -6 -12  168.98    8.00
   2  -6 -12  164.08    7.80
  -2   6  12  184.18    7.60
  -2   6  12  162.18    7.20
   2   6 -12  172.68    6.80
   2   6 -12  173.98    6.30
   1  -6 -12   29.60    3.80
   1  -6 -12   33.00    3.90
  -1   6  12   33.80    3.70
  -1   6  12   31.20    3.50
   1   6 -12   28.70    3.10
   1   6 -12   34.40    3.50
   0  -6 -12    0.30    2.20
   0  -6 -12    0.00    2.20
   0   6  12    3.10    2.10
   0   6 -12    3.60    2.20
   0   6 -12    3.50    2.10
   0   6  12    1.30    1.90
  -1  -6 -12   55.49    5.40
  -1  -6 -12   56.79    5.10
  -1   6 -12   58.79    4.30
   1   6  12   50.09    4.60
   1   6  12   56.29    4.30
  -2  -6 -12    5.30    2.70
  -2   6 -12    2.40    2.40
   2   6  12    4.20    2.30
   2   6  12    9.50    3.00
  -3  -6 -12    5.20    3.60
  -3  -6 -12    6.50    2.60
  -3   6 -12    4.80    2.70
   3   6  12    5.50    2.30
   3   6  12    6.60    3.10
  -4  -6 -12    1.60    2.70
  -4  -6 -12    3.20    2.60
   4   6  12    0.30    2.00
  -4   6 -12    2.30    2.60
   4   6  12    1.60    2.20
  -5  -6 -12    0.80    2.00
  -5  -6 -12    3.50    2.90
  -5   6 -12    4.60    2.20
   5   6  12   -2.10    2.70
   5   6  12    2.80    2.20
  -6  -6 -12   10.20    3.50
  -6  -6 -12    5.20    3.10
  -6   6 -12    9.10    3.30
   6   6  12    9.80    2.80
   6   6  12    8.00    2.70
  -7  -6 -12    6.80    3.40
  -7  -6 -12    0.60    2.90
  -7   6 -12    0.30    3.10
   7   6  12    2.80    3.20
   7   6  12    4.60    2.60
  -8  -6 -12   19.30    5.00
  -8  -6 -12    8.60    3.80
  -8   6 -12   10.90    3.10
   8   6  12    9.50    3.00
   8   6  12    8.20    2.80
  -9  -6 -12    2.10    4.20
  -9  -6 -12   -2.70    3.40
   9   6  12    4.30    3.50
   9   6  12    3.90    2.80
  -9   6 -12    1.10    2.50
  10  -7 -12    3.80    3.90
  10   7 -12    5.60    3.80
   9  -7 -12   13.60    3.40
   9   7 -12    3.90    3.60
   8  -7 -12   36.10    5.00
   8   7 -12   38.50    4.50
   7  -7 -12   76.19    6.40
   7   7 -12   85.29    6.20
   6  -7 -12   29.90    3.70
   6  -7 -12   39.00    4.90
   6   7 -12   36.30    4.50
   5  -7 -12   65.99    4.80
   5  -7 -12   71.49    5.30
   5   7 -12   66.89    4.60
  -5   7  12   60.99    4.80
   4  -7 -12   36.70    4.40
   4  -7 -12   44.80    5.10
   4   7 -12   50.99    4.50
  -4   7  12   42.60    4.60
   3  -7 -12   13.80    3.60
   3  -7 -12    9.30    3.60
  -3   7  12   10.10    3.20
   3   7 -12   15.80    3.20
   3   7 -12   15.90    3.10
   2  -7 -12   15.30    3.10
   2  -7 -12   16.20    3.10
  -2   7  12   13.60    2.80
  -2   7  12   22.20    3.60
   2   7 -12   19.30    3.00
   2   7 -12   19.10    2.90
   1  -7 -12   25.80    4.30
   1  -7 -12   28.50    4.40
  -1   7  12   26.50    3.90
   1   7 -12   35.00    3.60
  -1   7  12   33.40    4.10
   1   7 -12   25.60    3.20
   0  -7 -12   49.90    5.20
   0  -7 -12   56.69    5.50
   0   7 -12   52.29    4.30
   0   7  12   59.69    4.40
   0   7  12   54.39    4.30
  -1  -7 -12   30.00    4.50
  -1  -7 -12   35.30    4.80
  -1   7 -12   28.70    3.60
   1   7  12   26.30    3.50
   1   7  12   35.70    4.20
  -2  -7 -12   73.89    6.50
   2   7  12   67.39    5.50
  -2   7 -12   75.29    5.10
   2   7  12   70.19    4.80
  -3  -7 -12    0.70    1.60
  -3  -7 -12   -1.50    2.40
  -3   7 -12    2.20    2.00
   3   7  12    0.60    2.00
   3   7  12    1.80    2.20
  -4  -7 -12    3.10    2.70
  -4  -7 -12   -2.40    3.50
   4   7  12    6.20    2.50
   4   7  12    2.40    2.40
  -4   7 -12    3.60    2.80
  -5  -7 -12   15.50    3.60
  -5  -7 -12    5.10    4.10
  -5   7 -12    5.40    3.10
   5   7  12   11.30    3.60
   5   7  12    9.60    3.50
  -6  -7 -12    3.00    3.20
  -6  -7 -12   -6.60    3.50
  -6   7 -12    1.40    2.90
   6   7  12    1.30    2.30
   6   7  12   -1.30    2.00
  -7  -7 -12   15.20    3.90
  -7  -7 -12   10.20    3.70
   7   7  12   11.70    3.10
   7   7  12    9.10    2.90
  -7   7 -12   10.30    3.10
  -8  -7 -12   63.19    7.30
  -8  -7 -12   57.79    5.50
   8   7  12   58.29    5.40
   8   7  12   59.99    6.10
  -8   7 -12   58.09    5.80
   9  -8 -12   23.70    4.60
   9   8 -12   15.10    3.50
   8  -8 -12   10.90    3.30
   8   8 -12   28.20    4.00
   7  -8 -12    5.80    3.50
   7   8 -12   -2.90    2.90
   6  -8 -12    5.90    2.80
   6   8 -12    1.70    3.00
   5  -8 -12   11.30    3.30
   5  -8 -12   23.40    4.40
   5   8 -12   10.70    3.20
  -5   8  12    9.80    3.60
   4  -8 -12   13.40    3.50
   4  -8 -12   15.40    3.30
   4   8 -12   14.30    3.20
  -4   8  12   14.90    3.20
   3  -8 -12   19.20    4.00
   3  -8 -12   15.60    3.10
   3   8 -12   21.50    3.30
  -3   8  12   17.90    3.60
   3   8 -12   17.30    2.90
   2  -8 -12    5.00    3.30
   2  -8 -12    6.40    3.20
   2   8 -12    7.20    2.50
  -2   8  12   -0.90    2.60
  -2   8  12    9.20    3.20
   1  -8 -12    4.80    2.70
   1  -8 -12    1.10    2.40
  -1   8  12    3.10    2.20
   1   8 -12    3.70    1.90
  -1   8  12    3.10    2.20
   0  -8 -12   69.89    5.40
   0  -8 -12   60.39    5.80
   0   8  12   71.29    4.90
   0   8  12   76.79    5.60
   0   8 -12   76.49    5.10
  -1  -8 -12   12.70    3.30
  -1  -8 -12   16.70    3.40
   1   8  12   14.90    3.40
  -1   8 -12   12.30    3.10
   1   8  12   12.90    2.90
  -2  -8 -12   24.90    3.90
  -2  -8 -12   29.00    4.90
   2   8  12   28.50    3.70
   2   8  12   29.60    3.70
  -2   8 -12   25.20    3.80
  -3  -8 -12    1.40    2.70
   3   8  12    3.20    2.30
  -3   8 -12    4.20    2.20
   3   8  12    5.00    2.50
  -4  -8 -12   22.50    5.00
  -4  -8 -12   17.90    3.50
   4   8  12   14.80    3.10
   4   8  12   16.60    3.90
  -4   8 -12   19.40    3.70
  -5  -8 -12    5.20    3.00
  -5  -8 -12    6.10    4.30
  -5   8 -12   -2.60    2.70
   5   8  12    1.50    3.20
   5   8  12   -0.70    3.00
  -6  -8 -12   30.90    5.70
  -6  -8 -12   28.00    3.90
   6   8  12   33.80    4.80
   6   8  12   23.30    3.80
  -6   8 -12   23.70    4.20
  -7  -8 -12   -2.80    2.20
  -7  -8 -12    4.40    3.30
  -7   8 -12    1.10    2.30
   7   8  12   -0.60    2.30
   7   8  12   -1.20    2.30
  -8  -8 -12    3.40    2.70
   8   8  12    0.10    2.70
   9  -9 -12   -0.60    3.40
   9   9 -12    0.80    3.60
   8  -9 -12   78.69    6.60
   8   9 -12   73.79    6.40
   7  -9 -12    0.80    2.40
   7   9 -12   -5.40    2.70
   6  -9 -12   25.30    4.50
   6   9 -12   33.20    4.50
   5  -9 -12   93.89    6.10
  -5   9  12  106.39    6.10
   5   9 -12   98.19    6.20
   4  -9 -12   27.80    4.60
  -4   9  12   26.40    4.20
   4   9 -12   17.10    3.50
   3  -9 -12  120.99    7.30
   3  -9 -12  131.19    7.00
   3   9 -12  135.69    6.30
  -3   9  12  134.09    6.60
   2  -9 -12   24.40    3.80
   2  -9 -12   23.50    4.20
  -2   9  12   21.70    3.90
   2   9 -12   22.00    3.00
  -2   9  12   27.00    3.60
   1  -9 -12   12.50    3.30
   1  -9 -12   15.40    3.40
  -1   9  12    9.10    3.30
   1   9 -12   10.10    2.90
  -1   9  12   14.70    3.50
   0  -9 -12   71.69    6.40
   0  -9 -12   62.89    6.10
   0   9  12   56.69    5.30
   0   9 -12   56.09    4.90
   0   9  12   65.39    5.50
  -1  -9 -12   42.00    4.80
  -1  -9 -12   53.49    5.40
  -1   9 -12   54.29    4.90
   1   9  12   45.90    4.90
   1   9  12   49.30    4.50
  -2  -9 -12   20.20    4.00
  -2  -9 -12   19.20    3.60
   2   9  12   15.10    3.00
   2   9  12   16.70    3.20
  -2   9 -12   16.20    3.50
  -3  -9 -12   11.00    4.20
   3   9  12   16.90    3.30
   3   9  12   13.40    3.00
  -3   9 -12   13.30    2.90
  -4  -9 -12   15.00    3.50
  -4  -9 -12   10.70    4.50
   4   9  12    4.80    3.50
  -4   9 -12    9.30    3.40
   4   9  12   14.50    3.70
  -5  -9 -12   -1.50    3.90
  -5  -9 -12   -1.60    2.10
   5   9  12    0.60    3.10
  -5   9 -12   -6.20    2.90
   5   9  12    5.10    3.50
  -6  -9 -12    5.00    2.60
  -6  -9 -12    7.60    4.60
   6   9  12   14.30    3.90
  -6   9 -12    7.70    3.60
   6   9  12   10.00    3.70
  -7  -9 -12    1.40    2.70
   7   9  12    1.30    2.60
   8 -10 -12    6.50    3.60
   8  10 -12   21.20    4.40
   7 -10 -12   15.30    4.00
   7  10 -12    7.00    3.60
   6 -10 -12   30.50    4.20
   6  10 -12   28.90    4.30
   5 -10 -12   10.40    3.80
  -5  10  12    6.60    3.40
   5  10 -12   12.80    2.80
   4 -10 -12   83.19    5.80
  -4  10  12   67.79    5.30
   3 -10 -12   21.00    4.30
  -3  10  12   16.30    3.90
   3  10 -12   17.20    3.40
   2 -10 -12    8.60    3.60
   2 -10 -12   10.60    2.90
  -2  10  12    8.70    2.70
  -2  10  12    7.70    3.30
   2  10 -12   11.40    3.10
   1 -10 -12   16.10    4.00
   1 -10 -12   13.20    4.10
  -1  10  12   16.00    3.70
  -1  10  12   12.60    3.60
   1  10 -12   12.90    2.90
   0 -10 -12   41.20    5.30
   0 -10 -12   37.80    5.20
   0  10  12   35.20    4.50
   0  10 -12   36.70    4.00
   0  10  12   37.40    4.60
  -1 -10 -12    8.20    3.20
  -1 -10 -12   11.10    3.80
   1  10  12    9.20    3.40
   1  10  12   13.70    3.50
  -1  10 -12   18.30    3.60
  -2 -10 -12    3.70    3.90
  -2 -10 -12    5.90    2.80
   2  10  12    4.60    2.50
   2  10  12   -0.10    2.20
  -2  10 -12   -0.10    2.80
  -3 -10 -12   16.50    4.20
  -3 -10 -12   11.50    3.50
   3  10  12   14.70    3.30
   3  10  12   11.20    3.50
  -3  10 -12   15.50    3.10
  -4 -10 -12   49.40    6.30
  -4  10 -12   43.10    5.10
   4  10  12   48.70    5.50
   4  10  12   49.80    5.40
  -5 -10 -12    2.50    2.60
  -5 -10 -12    1.50    4.40
  -5  10 -12    0.30    3.20
   5  10  12    3.10    2.70
   5  10  12   -2.60    3.20
  -6 -10 -12    2.40    2.60
   6  10  12    8.50    3.70
   6 -11 -12   -0.50    3.30
   5 -11 -12   -0.90    3.20
   4 -11 -12    2.30    3.20
   4  11 -12   -1.30    3.00
  -4  11  12    0.50    3.10
   3 -11 -12   -4.10    3.00
   3  11 -12   -1.20    1.90
  -3  11  12   -0.90    3.00
   2 -11 -12   -3.10    2.10
  -2  11  12   -0.60    2.10
   2  11 -12    2.20    2.90
   1 -11 -12    1.70    2.50
   1 -11 -12    1.10    3.10
  -1  11  12    4.10    3.20
   1  11 -12    1.20    2.90
  -1  11  12    8.40    3.40
   0 -11 -12    3.30    2.80
   0 -11 -12   -2.80    3.10
   0  11  12    4.40    3.10
   0  11 -12   -2.70    2.70
   0  11  12    2.00    3.10
  -1 -11 -12   -1.90    3.20
  -1 -11 -12   -2.50    2.50
   1  11  12   -0.80    2.10
   1  11  12    2.60    3.10
  -1  11 -12    1.00    2.10
  -2 -11 -12   -1.20    3.90
  -2 -11 -12    0.10    3.30
   2  11  12    2.20    3.10
   2  11  12   -1.30    2.90
  -2  11 -12    1.30    3.00
  -3 -11 -12    8.30    3.90
  -3 -11 -12    0.10    3.00
   3  11  12    4.40    2.60
  -3  11 -12    4.20    2.60
   3  11  12    5.10    3.30
  -4 -11 -12   -4.30    2.70
   4  11  12    6.70    2.80
   4  11  12    8.60    3.40
  -4  11 -12    0.00    3.20
   4  12 -12   56.89    5.40
  -4  12  12   49.30    5.30
   3  12 -12   -0.90    2.00
  -3  12  12    0.00    3.10
   2  12 -12   36.50    4.20
  -2  12  12   27.90    4.40
   1 -12 -12   21.40    4.50
  -1  12  12   23.00    4.10
   1  12 -12   23.30    3.50
   0 -12 -12   45.80    5.50
   0  12  12   53.79    5.10
   0  12 -12   31.90    4.20
   0  12  12   48.70    5.10
  -1 -12 -12    4.20    3.70
  -1 -12 -12   13.10    4.40
   1  12  12    0.10    3.10
   1  12  12    4.50    3.30
  -1  12 -12    4.40    3.30
  -2 -12 -12    6.90    4.20
  -2 -12 -12    0.50    3.70
   2  12  12    6.50    3.50
   2  12  12    3.70    3.30
  12   0 -13   -2.90    2.10
  12   0 -13   -0.40    3.30
  11   0 -13   -0.50    2.20
  11   0 -13    2.80    3.40
  10   0 -13   -4.60    2.80
  10   0 -13   -3.40    2.90
   9   0 -13   -8.10    2.50
   9   0 -13   -0.70    2.00
   8   0 -13    1.40    2.80
   8   0 -13    0.60    2.10
   7   0 -13    2.40    2.10
   7   0 -13    0.10    2.10
   6   0 -13    4.40    2.80
   6   0 -13    1.30    2.80
   5   0 -13   -2.30    2.60
   5   0 -13    1.70    2.70
  -4   0  13    0.10    2.20
   4   0 -13    1.20    2.40
   4   0 -13    1.90    1.90
   3   0 -13   -0.70    1.80
  -3   0  13   -2.00    1.90
   3   0 -13   -0.20    2.70
   2   0 -13   -2.00    1.80
   2   0 -13   -2.70    2.30
  -2   0  13   -0.30    1.50
  -1   0  13   -2.70    1.90
   1   0 -13   -0.20    2.50
   1   0 -13   -0.10    1.90
   0   0  13    3.70    2.20
   0   0 -13    2.40    2.00
   0   0 -13    0.20    2.50
  -1   0 -13    0.40    1.60
  -1   0 -13    2.40    2.80
  -1   0 -13    1.00    2.50
   1   0  13    1.00    2.10
   2   0  13   -0.50    2.30
  -2   0 -13   -2.90    1.70
  -2   0 -13   -1.70    2.50
   2   0  13   -2.00    2.00
  -3   0 -13   -0.20    1.90
  -3   0 -13    0.60    2.10
   3   0  13   -1.70    1.60
   3   0  13   -0.70    1.50
   4   0  13   -1.20    2.20
   4   0  13   -0.80    2.20
  -4   0 -13    1.20    2.20
  -4   0 -13    1.50    2.70
  -5   0 -13    0.70    2.50
   5   0  13    0.60    2.30
  -5   0 -13    1.60    2.10
   5   0  13   -1.90    1.60
   6   0  13   -4.70    1.30
   6   0  13   -0.60    2.40
  -6   0 -13   -6.80    2.50
  -6   0 -13    1.10    2.00
  -7   0 -13   -3.60    2.90
   7   0  13   -0.60    2.60
  -7   0 -13    0.20    2.20
   8   0  13   -2.80    2.50
  -8   0 -13   -0.60    2.20
   9   0  13   -0.20    2.80
  -9   0 -13   -1.60    3.30
 -10   0 -13   -4.30    3.30
  10   0  13    0.80    2.90
  12  -1 -13   12.00    4.10
  12  -1 -13   12.30    3.20
  12   1 -13    5.60    3.60
  12   1 -13   13.30    3.30
  11  -1 -13    2.40    3.50
  11  -1 -13   -0.10    2.20
  11   1 -13    1.50    3.20
  11   1 -13    3.70    2.60
  10  -1 -13    7.10    3.30
  10  -1 -13    7.00    3.60
  10   1 -13   -0.10    3.00
  10   1 -13    4.20    2.70
   9  -1 -13    6.60    2.70
   9  -1 -13    0.60    2.90
   9   1 -13    0.40    3.10
   9   1 -13    3.30    3.10
   8  -1 -13   21.80    3.50
   8  -1 -13   22.60    4.00
   8   1 -13   31.20    3.50
   8   1 -13   23.30    4.10
   7  -1 -13   79.59    5.80
   7  -1 -13   92.09    5.40
   7   1 -13   79.89    5.90
   7   1 -13   90.39    5.60
   6  -1 -13   16.00    3.00
   6  -1 -13   22.80    3.90
   6   1 -13   20.50    3.40
   6   1 -13   15.90    3.00
   5  -1 -13    2.20    2.10
   5  -1 -13    2.10    2.80
   5   1 -13    4.90    2.50
   5   1 -13    6.80    2.50
  -5   1  13    5.30    2.60
   4  -1 -13   -1.90    2.50
   4  -1 -13    4.70    2.90
  -4  -1  13    1.30    2.10
   4   1 -13    0.20    2.40
  -4   1  13    1.70    2.50
   4   1 -13    3.70    2.10
  -3  -1  13    4.60    2.20
   3  -1 -13    7.00    2.40
   3  -1 -13    3.00    2.70
   3   1 -13    8.40    3.00
  -3   1  13    4.40    2.50
   3   1 -13    6.10    2.60
  -2  -1  13   12.50    2.10
   2  -1 -13   15.50    2.70
   2  -1 -13   15.20    3.40
   2   1 -13   14.00    2.80
  -2   1  13   15.50    2.90
   2   1 -13   10.50    2.50
   1  -1 -13   13.30    2.80
  -1  -1  13   14.50    2.60
   1  -1 -13   18.20    3.00
  -1   1  13   17.70    2.50
   1   1 -13   20.20    3.00
   1   1 -13   15.70    3.00
   0  -1 -13  137.59    6.30
   0  -1 -13  143.69    6.60
   0  -1  13  144.59    5.50
   0   1 -13  150.28    6.10
   0   1 -13  140.89    6.30
   0   1  13  145.19    5.80
  -1  -1 -13  105.39    5.70
   1  -1  13  106.19    5.00
   1   1  13  113.89    5.10
  -1   1 -13  117.19    4.80
  -1   1 -13  105.99    5.60
   1   1  13  102.49    5.20
  -1   1 -13  101.09    5.40
  -2  -1 -13   25.20    3.40
  -2  -1 -13   26.30    2.90
   2  -1  13   24.00    3.00
  -2   1 -13   26.30    2.90
   2   1  13   21.40    3.20
   2   1  13   28.40    3.20
  -2   1 -13   18.50    3.00
  -3  -1 -13    5.90    2.20
  -3  -1 -13    8.20    2.70
   3  -1  13    3.20    1.80
   3  -1  13    6.10    2.20
  -3   1 -13    4.40    2.30
  -3   1 -13    7.30    2.40
   3   1  13    6.40    2.10
   3   1  13    3.10    2.00
   4  -1  13   72.39    4.60
   4  -1  13   62.09    4.50
  -4  -1 -13   55.19    5.30
  -4  -1 -13   60.29    4.50
   4   1  13   64.39    4.80
  -4   1 -13   68.79    4.70
  -4   1 -13   70.49    5.20
   4   1  13   68.29    5.00
  -5  -1 -13   95.79    5.20
  -5  -1 -13  105.99    6.00
   5  -1  13   89.59    5.20
   5  -1  13   91.39    4.80
   5   1  13   86.09    5.00
  -5   1 -13  112.39    6.00
   5   1  13   92.99    5.70
  -5   1 -13  101.29    5.50
  -6  -1 -13   25.00    3.80
   6  -1  13   13.50    2.60
  -6  -1 -13   22.60    3.60
   6   1  13   29.10    3.40
  -6   1 -13   27.80    3.90
   6   1  13   18.30    3.50
  -6   1 -13   22.70    3.90
  -7  -1 -13   16.10    3.30
  -7  -1 -13   13.00    3.00
   7  -1  13   10.00    3.10
   7   1  13   15.30    3.00
   7   1  13   17.90    3.40
  -7   1 -13   18.20    3.30
   8  -1  13   55.39    5.00
  -8  -1 -13   51.19    5.00
  -8  -1 -13   41.80    5.20
   8   1  13   45.80    4.60
  -8   1 -13   43.60    4.60
  -9  -1 -13   21.90    4.40
   9  -1  13   18.60    3.90
  -9   1 -13   16.70    4.10
   9   1  13   15.40    3.20
 -10  -1 -13   37.30    4.90
  10  -1  13   22.50    3.70
 -10   1 -13   36.80    6.20
  10   1  13   28.20    4.70
  12  -2 -13   -4.70    2.90
  12  -2 -13    3.30    3.20
  12   2 -13    1.50    2.40
  12   2 -13   -0.20    2.40
  11  -2 -13   -1.40    3.30
  11  -2 -13    1.30    2.40
  11   2 -13    4.60    2.80
  11   2 -13   -0.50    2.20
  10  -2 -13   -0.60    3.00
  10  -2 -13    4.50    3.50
  10   2 -13    2.30    2.40
  10   2 -13   -2.20    2.00
   9  -2 -13    2.30    3.00
   9  -2 -13    3.40    3.20
   9   2 -13    1.30    2.80
   9   2 -13    2.50    2.40
   8  -2 -13    3.20    2.40
   8  -2 -13   -0.20    2.10
   8   2 -13    3.80    2.50
   8   2 -13    4.50    2.80
   7  -2 -13   -0.10    3.00
   7  -2 -13    1.50    2.90
   7   2 -13    4.50    2.50
   7   2 -13    2.90    2.20
   6  -2 -13   19.10    3.80
   6  -2 -13   10.70    2.70
   6   2 -13   14.00    2.90
   6   2 -13   16.60    3.00
   5  -2 -13   40.10    4.50
   5  -2 -13   31.60    4.20
  -5   2  13   41.70    3.90
   5   2 -13   42.20    3.90
   5   2 -13   33.50    3.70
   4  -2 -13   11.90    3.20
   4  -2 -13    1.80    2.10
  -4   2  13   10.00    2.40
   4   2 -13    6.40    2.30
   4   2 -13    6.80    2.40
   3  -2 -13   49.20    4.50
  -3  -2  13   60.99    3.90
   3  -2 -13   69.89    5.40
   3   2 -13   67.79    5.10
   3   2 -13   55.79    4.10
  -3   2  13   67.69    4.20
   2  -2 -13   13.80    2.80
  -2  -2  13   11.70    2.30
   2  -2 -13   17.00    3.40
   2   2 -13   11.50    3.10
   2   2 -13    7.50    2.40
  -2   2  13   13.80    2.50
  -1  -2  13  120.09    5.00
   1  -2 -13  105.19    6.30
   1  -2 -13  116.49    6.40
   1   2 -13  118.69    5.50
  -1   2  13  112.39    5.60
   1   2 -13  114.79    6.00
   0  -2  13   30.30    3.00
   0  -2 -13   39.60    4.00
   0  -2 -13   31.80    4.10
   0   2 -13   26.10    3.20
   0   2  13   27.60    3.40
   0   2  13   33.80    3.50
   0   2 -13   28.70    3.30
   0   2 -13   25.10    3.20
  -1  -2 -13   74.89    5.00
  -1  -2 -13   75.89    5.00
   1  -2  13   79.09    4.20
  -1   2 -13   72.29    4.80
   1   2  13   78.79    4.70
  -1   2 -13   79.09    4.70
  -1   2 -13   79.49    4.20
   1   2  13   80.09    4.50
  -2  -2 -13  119.19    5.30
   2  -2  13  134.29    5.50
  -2  -2 -13  118.39    6.90
  -2   2 -13  138.49    5.70
   2   2  13  134.69    6.50
   2   2  13  130.79    6.20
  -2   2 -13  138.49    6.40
  -3  -2 -13    2.30    2.10
  -3  -2 -13    0.80    3.00
   3  -2  13    0.20    1.90
  -3   2 -13    1.30    2.10
  -3   2 -13    1.60    2.50
   3   2  13    1.10    1.70
   3   2  13    0.30    2.50
  -4  -2 -13  153.68    6.50
  -4  -2 -13  139.39    7.00
   4  -2  13  140.89    5.70
  -4   2 -13  131.09    5.90
   4   2  13  135.99    6.30
  -4   2 -13  140.79    6.60
   4   2  13  152.28    6.40
   5  -2  13    5.40    2.30
  -5  -2 -13    7.70    2.90
  -5  -2 -13    5.00    3.50
  -5   2 -13    4.80    2.60
   5   2  13    3.40    2.10
   5   2  13    4.00    2.20
  -6  -2 -13   68.59    5.40
  -6  -2 -13   60.29    5.90
   6  -2  13   62.49    4.60
   6   2  13   66.89    5.20
   6   2  13   50.99    4.90
  -6   2 -13   61.19    5.20
  -7  -2 -13   28.20    4.70
  -7  -2 -13   22.10    3.50
   7  -2  13   14.50    3.20
  -7   2 -13   15.50    3.80
   7   2  13   19.40    3.20
   7   2  13   20.90    4.00
  -8  -2 -13    7.50    2.80
   8  -2  13    7.30    3.10
  -8  -2 -13    6.30    2.90
   8   2  13   13.30    3.40
  -8   2 -13    4.00    3.40
   8   2  13    7.00    3.30
  -9  -2 -13   55.09    5.80
  -9  -2 -13   42.90    5.60
  -9   2 -13   53.39    5.70
   9   2  13   59.59    5.80
  10   2  13    6.90    3.00
  12   3 -13    4.00    3.40
  11  -3 -13    2.90    2.80
  11  -3 -13    0.60    3.00
  11   3 -13   -4.60    2.80
  11   3 -13    0.20    2.40
  10  -3 -13   12.50    3.00
  10  -3 -13   16.50    3.50
  10   3 -13   17.70    3.60
  10   3 -13   16.20    4.00
   9  -3 -13    3.10    3.00
   9  -3 -13   -1.90    3.20
   9   3 -13    2.30    3.30
   9   3 -13   -1.70    2.50
   8  -3 -13   -3.20    2.60
   8  -3 -13    2.20    2.50
   8   3 -13   -0.90    2.90
   8   3 -13    3.10    2.40
   7  -3 -13    2.90    3.30
   7  -3 -13    1.50    2.10
   7   3 -13    3.50    2.40
   7   3 -13    0.10    2.90
   6  -3 -13   16.00    3.20
   6  -3 -13   24.20    3.90
   6   3 -13   20.20    3.20
   6   3 -13   15.10    2.80
   5  -3 -13   36.90    4.00
   5  -3 -13   40.70    4.20
   5   3 -13   39.90    3.60
  -5   3  13   41.80    4.40
   5   3 -13   43.30    4.10
   4  -3 -13   -1.70    2.60
   4  -3 -13   -2.80    2.80
  -4   3  13    1.00    2.50
   4   3 -13    5.40    2.40
   4   3 -13    1.00    2.00
   3  -3 -13   -1.00    1.90
   3  -3 -13    0.60    2.80
   3   3 -13    3.10    2.10
   3   3 -13    2.20    2.00
  -3   3  13    0.50    2.50
   2  -3 -13   12.10    3.50
   2  -3 -13   16.10    3.50
  -2   3  13   13.50    3.00
   2   3 -13   14.30    2.60
   2   3 -13   16.90    2.80
   1  -3 -13   33.60    4.30
   1  -3 -13   32.60    3.90
   1   3 -13   29.10    3.10
   1   3 -13   31.20    3.40
  -1   3  13   38.80    3.90
   0  -3 -13   48.40    4.60
   0  -3 -13   38.80    4.60
   0   3 -13   45.90    3.80
   0   3  13   38.80    3.80
   0   3 -13   45.20    3.40
   0   3 -13   49.00    4.30
   0   3  13   51.59    4.40
  -1  -3 -13   21.60    3.40
  -1  -3 -13   21.70    3.40
  -1   3 -13   19.10    2.80
  -1   3 -13   19.70    2.80
  -1   3 -13   24.30    3.00
   1   3  13   20.10    3.00
   1   3  13   22.10    2.90
  -2  -3 -13    9.70    2.60
  -2  -3 -13    8.60    2.70
  -2   3 -13   12.00    2.60
   2   3  13    4.70    2.20
  -2   3 -13    8.90    2.30
   2   3  13    8.60    2.80
  -3  -3 -13    3.70    3.20
  -3  -3 -13    9.70    2.50
   3   3  13    5.60    2.80
   3   3  13    0.80    2.50
  -3   3 -13   -6.30    1.80
  -3   3 -13    0.50    2.20
  -4  -3 -13    1.10    2.50
  -4  -3 -13    0.10    2.40
  -4   3 -13   -3.10    2.20
   4   3  13    3.60    2.70
   4   3  13    2.90    2.10
  -5  -3 -13    4.50    3.60
  -5  -3 -13    2.20    2.70
  -5   3 -13    0.70    2.60
   5   3  13   -2.40    2.50
   5   3  13    0.10    2.70
  -6  -3 -13   -1.40    3.10
  -6  -3 -13   -1.20    2.70
   6   3  13    2.10    2.20
   6   3  13    1.60    2.80
  -6   3 -13    2.60    2.30
  -7  -3 -13   26.80    4.80
  -7  -3 -13   30.80    4.00
  -7   3 -13   40.00    4.70
   7   3  13   35.80    4.10
   7   3  13   35.20    4.10
  -8  -3 -13   -0.40    2.60
  -8  -3 -13   -3.40    3.20
  -8   3 -13   -5.80    2.70
   8   3  13   -1.90    2.20
   8   3  13    4.30    3.00
  -9  -3 -13   46.90    5.10
  -9  -3 -13   47.60    5.90
   9   3  13   30.80    4.60
  -9   3 -13   42.70    5.40
   9   3  13   46.50    4.90
 -10  -3 -13    3.50    4.00
  11  -4 -13   16.40    4.50
  11   4 -13    8.90    3.80
  10  -4 -13   11.10    4.10
  10  -4 -13    3.30    2.40
  10   4 -13   11.20    4.00
   9  -4 -13   -0.40    2.50
   9  -4 -13    1.00    3.00
   9   4 -13    3.50    2.60
   8  -4 -13    4.10    3.50
   8  -4 -13    3.70    2.40
   8   4 -13    0.50    2.20
   7  -4 -13   40.20    4.20
   7  -4 -13   40.70    4.90
   7   4 -13   35.70    4.70
   6  -4 -13   31.20    4.30
   6  -4 -13   30.00    4.60
   6   4 -13   24.40    4.00
   5  -4 -13    5.80    2.60
   5  -4 -13    0.60    2.10
   5   4 -13    2.90    2.20
  -5   4  13    3.10    2.20
   4  -4 -13   38.80    4.30
   4  -4 -13   48.90    4.50
  -4   4  13   42.60    4.00
   4   4 -13   46.90    4.20
   3  -4 -13    0.30    3.00
   3  -4 -13    0.70    2.80
  -3   4  13   -1.70    2.40
   3   4 -13   -0.40    1.80
   2  -4 -13    0.30    2.10
   2  -4 -13    1.70    3.00
  -2   4  13   -1.60    2.30
   2   4 -13    0.70    2.40
   1  -4 -13    5.70    3.20
   1  -4 -13    4.20    2.50
  -1   4  13    6.50    2.80
   1   4 -13    0.40    2.40
  -1   4  13    5.30    2.30
   0  -4 -13   -3.00    2.00
   0  -4 -13    3.70    2.50
   0   4  13    4.20    2.00
   0   4  13    6.00    2.90
   0   4 -13    3.30    2.40
   0   4 -13    1.60    1.90
  -1  -4 -13  124.39    7.00
  -1  -4 -13  117.79    6.40
   1   4  13  110.79    6.10
  -1   4 -13  121.59    5.80
  -1   4 -13  112.89    5.00
   1   4  13  130.99    6.50
  -2  -4 -13   78.39    5.50
   2   4  13   83.59    5.00
   2   4  13   76.39    4.70
  -2   4 -13   76.39    4.30
  -2   4 -13   74.29    4.20
  -3  -4 -13   43.50    3.90
  -3  -4 -13   49.80    5.40
  -3   4 -13   37.50    3.90
   3   4  13   37.60    3.80
   3   4  13   44.00    4.60
  -4  -4 -13  123.09    6.00
  -4  -4 -13  120.29    6.80
   4   4  13  103.29    5.70
  -4   4 -13  118.79    5.70
   4   4  13  117.09    6.10
  -5  -4 -13    9.70    3.90
  -5  -4 -13    5.20    2.90
   5   4  13   11.50    3.30
   5   4  13    3.80    2.30
  -5   4 -13    9.60    2.50
  -6  -4 -13   10.70    4.20
  -6  -4 -13   15.50    3.70
  -6   4 -13   16.50    3.50
   6   4  13   14.10    3.00
   6   4  13   15.10    3.60
  -7  -4 -13    7.00    3.30
  -7  -4 -13   15.00    3.20
  -7   4 -13   14.80    3.70
   7   4  13   10.20    2.80
   7   4  13   17.90    3.90
  -8  -4 -13   37.90    5.60
  -8  -4 -13   27.50    4.60
   8   4  13   30.40    4.50
   8   4  13   37.60    4.90
  -8   4 -13   46.00    5.40
  -9  -4 -13   21.30    4.20
  -9  -4 -13   13.50    4.30
   9   4  13   23.80    4.50
  -9   4 -13   20.90    4.30
   9   4  13   11.60    3.00
  10  -5 -13    9.10    3.20
  10   5 -13   12.40    3.30
   9  -5 -13   -0.10    2.40
   9  -5 -13    1.30    3.20
   9   5 -13   -4.80    3.00
   8  -5 -13    9.10    3.90
   8  -5 -13    6.40    2.50
   8   5 -13    5.60    2.60
   7  -5 -13    5.10    3.00
   7  -5 -13   -3.70    2.20
   7   5 -13   -0.80    2.00
   6  -5 -13   11.60    3.70
   6  -5 -13   13.80    3.40
   6   5 -13   11.40    3.50
   5  -5 -13    1.60    2.20
   5  -5 -13    0.40    3.20
  -5   5  13    1.10    2.10
   5   5 -13   -0.30    1.90
   4  -5 -13    6.80    2.80
   4  -5 -13    5.40    3.10
   4   5 -13    7.30    2.90
  -4   5  13    4.40    2.20
   3  -5 -13   10.70    3.50
   3  -5 -13   15.30    3.70
   3   5 -13   13.20    3.10
  -3   5  13   11.40    3.10
   2  -5 -13   79.49    5.30
   2  -5 -13   82.69    6.20
   2   5 -13   78.09    4.60
  -2   5  13   63.39    5.20
   1  -5 -13    7.00    2.80
   1  -5 -13    7.30    2.70
   1   5 -13    7.00    2.20
   1   5 -13    7.30    2.50
  -1   5  13    6.20    2.40
  -1   5  13    0.20    1.90
   0  -5 -13   46.80    4.70
   0  -5 -13   44.80    4.60
   0   5 -13   51.89    4.20
   0   5  13   43.30    4.60
   0   5 -13   44.70    3.70
   0   5  13   46.60    4.40
  -1  -5 -13   50.89    5.30
  -1  -5 -13   50.79    5.00
  -1   5 -13   56.09    4.20
   1   5  13   59.19    4.40
  -1   5 -13   57.89    4.20
   1   5  13   49.99    4.40
  -2  -5 -13   92.59    6.10
   2   5  13   93.19    5.50
   2   5  13  100.09    5.90
  -2   5 -13   92.19    5.30
  -3  -5 -13   36.50    3.70
  -3  -5 -13   40.80    5.30
   3   5  13   42.40    4.50
   3   5  13   43.80    4.80
  -3   5 -13   45.70    4.30
  -4  -5 -13    4.30    2.00
  -4  -5 -13   -0.40    2.60
  -4   5 -13   -0.40    2.60
   4   5  13    2.40    2.90
   4   5  13    0.00    2.00
  -5  -5 -13   87.09    6.40
  -5  -5 -13  101.89    6.10
  -5   5 -13   85.89    5.90
   5   5  13   91.99    5.70
   5   5  13   88.39    5.50
  -6  -5 -13   27.00    4.40
  -6  -5 -13   25.20    3.60
   6   5  13   18.30    3.40
  -6   5 -13   26.10    4.20
   6   5  13   24.60    4.30
  -7  -5 -13   54.29    6.40
  -7  -5 -13   52.19    5.50
   7   5  13   47.50    5.20
   7   5  13   53.89    5.40
  -7   5 -13   44.30    4.70
  -8  -5 -13   17.10    4.90
  -8  -5 -13   26.80    4.10
   8   5  13   28.20    4.60
   8   5  13   20.60    3.60
  -8   5 -13   28.80    4.80
  -9  -5 -13    0.40    2.70
  -9  -5 -13   -0.80    4.00
   9   5  13   -2.90    3.00
  10  -6 -13   -1.20    2.50
  10   6 -13    4.10    3.70
   9  -6 -13   -7.80    3.20
   9   6 -13   -0.40    2.30
   8  -6 -13   25.00    4.60
   8   6 -13   30.20    4.70
   7  -6 -13   13.20    3.40
   7  -6 -13    9.30    3.10
   7   6 -13   12.60    3.10
   6  -6 -13    5.90    2.50
   6  -6 -13    7.00    3.70
   6   6 -13    9.70    3.40
   5  -6 -13    8.10    2.90
   5  -6 -13   14.30    3.00
  -5   6  13   12.70    3.10
   5   6 -13   13.20    2.80
   4  -6 -13    4.50    2.50
   4  -6 -13   -2.10    2.80
   4   6 -13    4.40    2.90
  -4   6  13    4.70    2.30
   3  -6 -13   56.99    5.60
   3  -6 -13   57.09    5.10
  -3   6  13   61.79    5.30
   3   6 -13   69.79    4.50
   2  -6 -13    0.70    3.20
   2  -6 -13    2.10    2.40
   2   6 -13    4.10    2.50
  -2   6  13    1.70    2.10
   1  -6 -13   -1.50    2.30
   1  -6 -13    2.40    2.40
   1   6 -13   -0.80    2.20
  -1   6  13    2.50    2.10
   1   6 -13   -2.50    1.90
  -1   6  13    0.40    2.00
   0  -6 -13   -0.40    2.30
   0  -6 -13   -4.00    3.00
   0   6  13   -0.30    2.50
   0   6  13   -1.20    1.90
   0   6 -13    0.50    2.10
   0   6 -13   -2.40    1.40
  -1  -6 -13   -0.10    2.30
  -1  -6 -13    3.00    3.30
  -1   6 -13    2.10    2.30
   1   6  13    1.40    2.70
   1   6  13    2.10    2.20
  -2  -6 -13    0.30    3.30
   2   6  13    2.10    2.10
   2   6  13   -2.70    2.70
  -2   6 -13   -2.50    2.30
  -3  -6 -13   -2.60    2.30
   3   6  13    3.40    2.30
  -3   6 -13    1.30    1.90
   3   6  13   -1.30    1.90
  -4  -6 -13   32.70    3.90
  -4  -6 -13   25.20    4.90
   4   6  13   36.90    4.50
  -4   6 -13   30.60    4.00
   4   6  13   22.90    4.10
  -5  -6 -13   16.00    4.50
  -5  -6 -13   21.90    3.80
   5   6  13   31.30    4.50
   5   6  13   19.10    3.90
  -5   6 -13   24.50    3.90
  -6  -6 -13   10.10    4.20
  -6  -6 -13    8.50    3.40
   6   6  13    9.70    3.50
  -6   6 -13    7.70    3.40
   6   6  13   13.40    3.70
  -7  -6 -13    3.90    3.20
  -7  -6 -13    5.50    2.70
   7   6  13    4.70    2.80
   7   6  13    3.90    2.70
  -7   6 -13    1.60    2.50
  -8  -6 -13   12.90    4.10
  -8  -6 -13    5.60    4.50
  -8   6 -13   12.40    3.90
   8   6  13   10.30    3.10
   8   6  13   14.60    4.10
   9  -7 -13   -7.40    3.20
   9   7 -13    3.70    3.60
   8  -7 -13    2.40    3.50
   8   7 -13    5.80    3.50
   7  -7 -13   37.50    4.80
   7   7 -13   32.30    4.20
   6  -7 -13    0.60    3.60
   6  -7 -13    3.10    2.90
   6   7 -13    5.70    3.20
   5  -7 -13   13.60    3.30
   5  -7 -13   14.00    3.60
   5   7 -13   10.80    3.40
  -5   7  13   16.10    3.30
   4  -7 -13   22.60    4.00
   4  -7 -13   15.40    4.10
  -4   7  13   17.90    3.80
   4   7 -13   15.60    2.90
   3  -7 -13   -0.20    2.30
   3  -7 -13    1.70    3.10
   3   7 -13    2.50    2.60
  -3   7  13    1.20    2.20
   2  -7 -13   43.40    5.00
   2  -7 -13   36.90    4.50
  -2   7  13   43.30    4.70
   2   7 -13   39.20    4.00
  -2   7  13   42.70    4.60
   1  -7 -13   16.10    4.10
   1  -7 -13    9.60    3.80
  -1   7  13    9.60    3.30
   1   7 -13   11.60    2.80
  -1   7  13   11.20    3.40
   0  -7 -13   47.10    5.40
   0  -7 -13   42.90    5.30
   0   7  13   48.20    5.00
   0   7 -13   48.40    4.20
   0   7  13   40.80    4.60
  -1  -7 -13    7.50    3.70
  -1  -7 -13    5.50    2.70
   1   7  13    1.10    2.20
   1   7  13    4.50    3.10
  -1   7 -13    2.50    2.50
  -2  -7 -13    7.00    3.00
  -2  -7 -13   11.60    3.40
  -2   7 -13   15.20    3.20
   2   7  13   12.90    2.90
   2   7  13   10.00    2.70
  -3  -7 -13  170.88    9.20
  -3   7 -13  177.48    7.20
   3   7  13  159.78    7.40
   3   7  13  169.58    8.20
  -4  -7 -13    6.80    3.30
  -4  -7 -13   10.70    3.20
   4   7  13   16.20    3.20
  -4   7 -13    8.40    2.60
   4   7  13   11.30    3.70
  -5  -7 -13   92.39    6.90
  -5  -7 -13   89.29    6.10
   5   7  13  105.79    6.80
  -5   7 -13  100.99    6.40
   5   7  13   84.99    5.90
  -6  -7 -13    7.30    4.60
  -6  -7 -13   10.30    3.00
  -6   7 -13   15.10    3.20
   6   7  13    7.40    3.50
   6   7  13    6.80    3.70
  -7  -7 -13   27.00    4.50
  -7  -7 -13   33.80    5.80
  -7   7 -13   29.70    4.20
   7   7  13   23.70    3.90
   7   7  13   20.20    4.30
  -8  -7 -13   19.70    4.60
   9  -8 -13    6.40    4.00
   9   8 -13    5.80    3.90
   8  -8 -13   16.40    4.50
   8   8 -13   15.20    3.40
   7  -8 -13    3.00    2.70
   7   8 -13    6.50    2.80
   6  -8 -13    1.70    3.40
   6   8 -13    9.80    3.40
   5  -8 -13    0.50    3.50
   5  -8 -13    3.20    2.30
   5   8 -13    1.90    3.00
  -5   8  13   -3.40    2.80
   4  -8 -13   10.30    3.80
   4  -8 -13    8.10    3.40
   4   8 -13   15.20    3.30
  -4   8  13    9.50    3.50
   3  -8 -13   28.20    4.70
   3  -8 -13   25.70    4.40
   3   8 -13   27.90    3.70
  -3   8  13   28.30    4.20
   2  -8 -13   28.00    4.00
   2  -8 -13   20.20    4.20
   2   8 -13   29.90    3.60
  -2   8  13   23.20    3.50
  -2   8  13   19.90    3.20
   1  -8 -13   17.30    3.50
   1  -8 -13   10.10    3.80
  -1   8  13   15.60    3.10
   1   8 -13   15.00    2.60
  -1   8  13   12.90    3.60
   0  -8 -13    2.90    2.80
   0  -8 -13    0.00    2.50
   0   8 -13    6.30    2.80
   0   8  13    5.40    2.50
   0   8  13    2.00    2.30
  -1  -8 -13   34.30    5.20
  -1  -8 -13   34.40    4.50
  -1   8 -13   37.00    4.10
   1   8  13   39.40    4.20
   1   8  13   28.70    3.90
  -2  -8 -13   26.20    4.90
  -2  -8 -13   44.30    5.40
  -2   8 -13   28.90    4.00
   2   8  13   36.90    4.70
   2   8  13   40.80    4.90
  -3  -8 -13   15.80    3.80
   3   8  13   11.50    3.20
   3   8  13   15.10    3.10
  -3   8 -13   13.50    3.40
  -4  -8 -13   44.80    5.50
  -4   8 -13   47.30    4.50
   4   8  13   37.00    4.30
   4   8  13   47.60    5.00
  -5  -8 -13   -2.00    2.80
  -5  -8 -13    2.30    3.00
   5   8  13    6.60    2.80
  -5   8 -13    0.90    2.20
   5   8  13    1.80    3.20
  -6  -8 -13  117.89    7.30
  -6  -8 -13  109.79    7.80
   6   8  13  107.59    7.20
   6   8  13  109.39    6.70
  -6   8 -13  109.09    6.40
  -7  -8 -13   -7.30    3.00
  -7   8 -13    1.40    2.90
   7   8  13    1.40    2.60
   8  -9 -13   12.10    4.30
   8   9 -13   12.20    3.30
   7  -9 -13   -5.90    3.10
   7   9 -13    1.90    2.40
   6  -9 -13    1.90    2.80
   6   9 -13    0.20    3.00
   5  -9 -13   -7.10    3.10
   5   9 -13    1.20    2.80
  -5   9  13   -4.70    3.10
   4  -9 -13    1.60    3.40
   4  -9 -13    8.60    2.70
   4   9 -13    4.30    2.30
  -4   9  13    4.00    3.30
   3  -9 -13    4.10    2.70
   3  -9 -13   -4.20    3.00
  -3   9  13    2.80    2.40
   2  -9 -13    5.70    3.60
   2  -9 -13    1.90    2.50
  -2   9  13    2.50    2.40
   2   9 -13    4.30    2.10
  -2   9  13    4.10    3.30
   1  -9 -13   42.10    4.80
   1  -9 -13   43.50    5.00
   1   9 -13   48.10    4.70
  -1   9  13   43.00    4.90
  -1   9  13   35.90    4.20
   0  -9 -13  109.79    6.90
   0  -9 -13  101.59    6.60
   0   9  13  104.29    6.10
   0   9 -13  104.39    6.10
   0   9  13  107.49    6.10
  -1  -9 -13   21.90    4.10
  -1  -9 -13   14.70    4.20
  -1   9 -13   11.70    3.30
   1   9  13   24.00    3.70
   1   9  13   19.60    3.80
  -2  -9 -13   12.10    4.20
  -2  -9 -13   13.20    4.50
   2   9  13   17.80    4.10
   2   9  13   16.60    3.90
  -2   9 -13    6.50    3.10
  -3  -9 -13   21.00    4.30
   3   9  13   12.20    3.20
  -3   9 -13   24.00    3.60
   3   9  13   20.80    3.50
  -4  -9 -13   -0.60    2.90
  -4   9 -13    0.60    2.30
   4   9  13    2.60    2.50
   4   9  13    6.30    2.90
  -5  -9 -13    6.20    3.40
  -5  -9 -13    6.50    3.40
  -5   9 -13    7.90    3.50
   5   9  13    4.50    3.20
   5   9  13    1.30    2.60
  -6  -9 -13   32.50    5.00
  -6   9 -13   29.80    4.90
   6   9  13   37.60    5.20
   7 -10 -13    5.90    3.00
   7  10 -13    6.10    2.80
   6 -10 -13    2.20    3.60
   6  10 -13   -1.40    2.10
   5 -10 -13    6.10    3.70
  -5  10  13    7.00    3.50
   4 -10 -13   10.50    3.20
  -4  10  13    5.90    2.80
   3 -10 -13   -4.60    3.20
  -3  10  13    2.70    3.30
   2 -10 -13    0.10    3.40
   2 -10 -13    8.80    3.00
   2  10 -13    3.80    2.80
  -2  10  13    4.50    3.20
  -2  10  13    0.10    3.00
   1 -10 -13    4.10    2.70
   1 -10 -13    4.60    2.70
  -1  10  13    4.90    2.60
  -1  10  13    2.60    3.20
   1  10 -13   -1.20    1.80
   0 -10 -13   -0.90    2.40
   0 -10 -13    2.90    3.60
   0  10  13    1.90    3.10
   0  10 -13    4.10    2.20
   0  10  13    1.70    3.10
  -1 -10 -13   12.30    4.20
  -1 -10 -13    5.90    3.20
  -1  10 -13    4.40    2.40
   1  10  13    5.60    2.70
   1  10  13   -1.40    3.00
  -2 -10 -13   24.00    4.70
  -2 -10 -13   21.80    4.90
   2  10  13   13.80    3.80
   2  10  13   14.50    4.00
  -2  10 -13   19.50    3.90
  -3 -10 -13   24.50    4.60
  -3 -10 -13   14.40    3.70
   3  10  13   17.30    3.50
   3  10  13   27.30    4.00
  -3  10 -13   18.20    3.40
  -4 -10 -13   68.79    6.90
  -4  10 -13   71.89    6.20
   4  10  13   63.59    6.00
   4  10  13   62.89    6.00
   5  10  13   -0.20    3.20
   5 -11 -13    0.90    2.50
  -5  11  13   -3.70    2.20
   4 -11 -13    1.50    3.50
  -4  11  13    2.20    3.50
   3 -11 -13    8.40    3.70
  -3  11  13   19.40    4.30
   3  11 -13   11.80    3.90
   2 -11 -13   12.90    4.10
  -2  11  13    7.60    3.40
   2  11 -13   13.20    3.50
   1 -11 -13   14.50    3.60
   1 -11 -13   14.80    3.50
  -1  11  13   16.40    3.90
   1  11 -13   11.20    3.20
  -1  11  13   14.20    3.30
   0 -11 -13   32.00    5.00
   0 -11 -13   39.70    5.10
   0  11  13   39.50    4.50
   0  11 -13   37.50    4.70
   0  11  13   36.90    4.90
  -1 -11 -13   20.00    5.00
  -1 -11 -13   26.40    4.80
   1  11  13   21.80    4.20
  -1  11 -13   18.80    3.90
   1  11  13   16.50    3.40
  -2 -11 -13    5.40    4.30
  -2 -11 -13    8.30    3.10
   2  11  13    4.40    2.60
   2  11  13    5.90    3.50
  -2  11 -13    0.00    3.00
  -3 -11 -13   26.00    4.30
  -3 -11 -13   27.10    6.40
   3  11  13   17.50    4.40
   3  11  13   30.00    4.50
   1  12 -13   23.60    4.20
  11   0 -14   35.20    4.40
  11   0 -14   29.40    4.80
  10   0 -14   -1.10    2.40
  10   0 -14   -1.80    3.00
   9   0 -14    1.30    2.40
   9   0 -14   -1.50    2.90
   8   0 -14   56.99    5.20
   8   0 -14   53.69    5.10
   7   0 -14   64.59    5.70
   7   0 -14   48.20    4.90
   6   0 -14  153.38    7.70
   6   0 -14  157.18    6.90
   5   0 -14   61.09    5.10
   5   0 -14   48.60    4.60
   4   0 -14   18.70    3.50
   4   0 -14   18.60    3.20
  -4   0  14   19.10    3.30
   3   0 -14   17.20    3.10
   3   0 -14   24.30    3.60
  -3   0  14   15.80    3.00
  -2   0  14   39.30    3.80
   2   0 -14   43.40    4.30
   2   0 -14   37.20    4.50
   1   0 -14   47.30    4.20
  -1   0  14   46.70    4.00
   1   0 -14   45.80    4.70
   0   0 -14   56.39    5.10
   0   0  14   36.10    3.60
   0   0 -14   41.40    4.00
  -1   0 -14   10.50    3.20
   1   0  14   10.70    2.80
  -1   0 -14   15.70    3.60
  -2   0 -14    2.50    2.00
   2   0  14   -0.40    2.30
  -2   0 -14    9.00    2.70
  -3   0 -14    4.10    2.40
   3   0  14    2.60    1.90
  -3   0 -14   -0.70    2.10
   3   0  14    2.40    2.40
   4   0  14   54.49    4.50
   4   0  14   54.39    4.80
  -4   0 -14   50.69    3.90
  -4   0 -14   45.30    4.90
  -5   0 -14    1.30    3.00
   5   0  14    1.90    2.70
   5   0  14    6.50    2.80
  -5   0 -14    6.50    2.90
   6   0  14    3.30    2.80
   6   0  14   10.20    3.10
  -6   0 -14    2.80    2.30
  -6   0 -14    6.60    3.50
   7   0  14   94.69    6.10
  -7   0 -14   80.79    5.50
  -8   0 -14   -2.00    2.20
   8   0  14    0.20    2.90
  -9   0 -14   -1.20    3.20
   9   0  14    8.70    3.50
  11  -1 -14    2.40    3.30
  11  -1 -14   -1.00    2.40
  11   1 -14   -0.90    2.20
  11   1 -14   -7.80    3.00
  10  -1 -14    1.10    2.50
  10  -1 -14    0.80    2.20
  10   1 -14   -2.00    3.00
  10   1 -14   -1.20    2.10
   9  -1 -14   34.20    4.60
   9  -1 -14   39.50    4.50
   9   1 -14   31.20    4.20
   9   1 -14   36.40    4.50
   8  -1 -14   -5.80    2.80
   8  -1 -14   -0.80    3.00
   8   1 -14    1.10    2.30
   8   1 -14    0.80    2.90
   7  -1 -14    4.80    3.20
   7  -1 -14    6.30    3.20
   7   1 -14    1.40    2.00
   7   1 -14   -1.60    2.10
   6  -1 -14   10.80    2.80
   6  -1 -14   13.30    3.10
   6   1 -14    7.40    3.00
   6   1 -14   11.20    2.80
   5  -1 -14   33.70    4.40
   5  -1 -14   38.20    4.10
  -5   1  14   36.00    4.10
   5   1 -14   37.90    4.10
   5   1 -14   37.10    4.10
  -4  -1  14   -0.80    2.20
   4  -1 -14   -3.40    2.80
   4  -1 -14   -0.20    2.90
   4   1 -14    2.90    2.60
   4   1 -14   -3.60    1.80
  -4   1  14   -2.80    2.40
  -3  -1  14    1.30    2.20
   3  -1 -14   -4.90    2.70
   3  -1 -14   -1.40    2.00
   3   1 -14   -3.70    2.60
  -3   1  14   -2.50    2.30
   3   1 -14   -1.30    2.40
  -2  -1  14   16.10    2.80
   2  -1 -14   26.70    3.90
   2  -1 -14   20.10    3.30
   2   1 -14   17.80    3.60
   2   1 -14   19.90    3.20
  -2   1  14   16.70    3.00
   1  -1 -14   19.30    3.20
  -1  -1  14   19.50    2.50
   1  -1 -14   20.70    3.80
  -1   1  14   17.80    3.00
   1   1 -14   10.30    2.80
   1   1 -14   16.20    3.70
   0  -1 -14    7.60    2.70
   0  -1  14   13.20    2.60
   0  -1 -14    8.50    3.30
   0   1 -14   12.10    3.30
   0   1  14   13.50    2.90
   0   1 -14    8.80    2.90
  -1  -1 -14    6.50    2.60
  -1  -1 -14    5.00    2.60
   1  -1  14    6.90    2.40
  -1   1 -14    4.00    2.90
   1   1  14    4.40    2.10
  -1   1 -14   11.80    3.10
  -2  -1 -14    1.40    2.20
   2  -1  14    6.10    2.30
  -2   1 -14    0.30    2.90
  -2   1 -14    4.80    2.10
   2   1  14    1.70    2.00
   2   1  14    2.90    2.40
  -3  -1 -14   15.50    2.80
  -3  -1 -14   17.20    3.90
   3  -1  14   13.50    2.90
   3   1  14   27.10    3.80
  -3   1 -14   19.50    3.20
   3   1  14   16.20    3.20
  -3   1 -14   14.70    2.90
   4  -1  14   18.90    3.30
  -4  -1 -14   29.50    3.60
   4  -1  14   23.60    3.50
  -4  -1 -14   19.40    3.40
  -4   1 -14   19.50    3.70
  -4   1 -14   20.70    3.50
   4   1  14   18.10    3.40
   4   1  14   21.90    3.20
  -5  -1 -14  122.99    7.30
   5  -1  14  120.69    6.10
   5  -1  14  112.09    6.00
  -5  -1 -14  117.69    6.20
   5   1  14  120.29    6.50
  -5   1 -14  108.49    6.20
  -5   1 -14  116.79    6.60
   5   1  14  110.29    6.30
  -6  -1 -14    9.00    3.70
  -6  -1 -14    3.30    2.30
   6  -1  14    6.00    2.80
  -6   1 -14    5.90    3.10
   6   1  14    9.40    3.30
   6   1  14    5.90    2.40
  -7  -1 -14    5.40    3.50
   7  -1  14    3.70    2.80
  -7  -1 -14    7.00    2.60
   7   1  14    0.80    2.80
   7   1  14    4.70    2.40
  -7   1 -14    0.50    2.40
  -8  -1 -14   44.00    4.70
   8  -1  14   38.70    4.50
   8   1  14   41.10    4.90
  -8   1 -14   37.20    4.50
  -9  -1 -14   -5.30    3.30
   9  -1  14    5.50    3.10
  -9   1 -14   -4.10    2.20
   9   1  14   -2.60    3.00
  11  -2 -14   -4.20    3.40
  11  -2 -14    1.50    3.30
  11   2 -14   -0.40    3.00
  11   2 -14   -4.80    3.10
  10  -2 -14    3.50    2.80
  10  -2 -14    9.00    3.60
  10   2 -14   10.90    3.90
  10   2 -14    7.30    3.30
   9  -2 -14   22.70    3.60
   9  -2 -14   27.30    4.00
   9   2 -14   18.20    4.10
   9   2 -14   24.80    3.90
   8  -2 -14   30.90    4.60
   8  -2 -14   42.80    5.10
   8   2 -14   34.30    4.70
   8   2 -14   34.20    4.10
   7  -2 -14   43.00    4.60
   7  -2 -14   46.70    4.60
   7   2 -14   38.50    4.70
   7   2 -14   36.10    4.10
   6  -2 -14    9.40    3.60
   6  -2 -14   11.40    3.00
   6   2 -14    3.90    2.60
   6   2 -14    5.50    3.20
   5  -2 -14   24.30    4.10
   5  -2 -14   20.10    4.00
   5   2 -14   23.40    3.30
  -5   2  14   25.30    3.80
   5   2 -14   23.60    4.00
   4  -2 -14   -1.10    2.90
   4  -2 -14    0.80    2.10
  -4  -2  14    0.70    1.60
   4   2 -14   -6.50    2.50
  -4   2  14    1.90    2.00
   4   2 -14   -6.30    1.90
   3  -2 -14   39.70    4.20
  -3  -2  14   37.10    3.50
   3  -2 -14   36.80    4.10
   3   2 -14   37.60    3.70
  -3   2  14   37.20    3.70
   3   2 -14   39.70    4.40
   2  -2 -14   10.40    2.80
   2  -2 -14   17.90    3.70
  -2  -2  14   18.20    2.80
   2   2 -14   20.20    3.60
  -2   2  14   18.50    2.90
   2   2 -14   18.90    3.10
  -1  -2  14   15.90    2.60
   1  -2 -14    9.40    3.30
   1  -2 -14   17.10    3.10
  -1   2  14   19.10    3.20
   1   2 -14   17.10    3.50
   1   2 -14   12.40    2.70
   0  -2 -14    1.50    2.90
   0  -2 -14    0.50    2.20
   0  -2  14   -2.00    1.70
   0   2  14   -1.50    2.30
   0   2 -14    1.80    2.70
   0   2 -14    1.30    2.40
   1  -2  14    3.30    2.10
  -1  -2 -14    3.70    3.30
  -1  -2 -14    5.30    2.60
   1   2  14    2.50    2.70
  -1   2 -14    3.20    2.00
  -1   2 -14    6.40    2.30
  -1   2 -14   -0.70    2.30
   1   2  14    5.80    2.10
   2  -2  14   10.70    2.40
  -2  -2 -14   10.60    3.60
  -2   2 -14    3.00    2.10
   2   2  14    5.80    2.80
  -2   2 -14    5.60    2.30
   2   2  14    4.70    2.90
   3  -2  14    1.30    1.90
  -3  -2 -14    1.70    2.20
  -3  -2 -14    0.20    2.20
  -3   2 -14    0.90    2.60
  -3   2 -14   -1.40    1.60
   3   2  14   -1.60    2.40
   3   2  14    0.40    1.90
  -4  -2 -14   10.90    2.80
  -4  -2 -14    9.10    3.80
   4  -2  14   10.70    2.60
  -4   2 -14   15.10    2.70
   4   2  14   12.60    3.40
  -4   2 -14    7.90    2.50
   4   2  14   13.70    3.30
  -5  -2 -14   -3.40    3.00
  -5  -2 -14    4.50    2.20
   5   2  14    7.10    2.90
  -5   2 -14    3.00    2.10
   5   2  14   -1.00    2.70
  -6  -2 -14    2.20    3.60
  -6  -2 -14    3.60    2.30
  -6   2 -14    6.40    3.10
   6   2  14    2.30    2.10
   6   2  14    3.40    2.90
  -7  -2 -14    2.90    3.60
  -7  -2 -14    4.00    2.50
   7   2  14   -2.30    2.80
  -7   2 -14   -0.60    2.90
   7   2  14    4.10    2.50
  -8  -2 -14   36.20    5.20
  -8  -2 -14   28.40    4.60
   8   2  14   29.00    4.00
   8   2  14   27.50    3.80
  -8   2 -14   33.80    4.20
  -9  -2 -14   22.90    4.60
   9   2  14   15.60    3.40
  -9   2 -14   22.70    4.00
  11  -3 -14    0.60    3.20
  11  -3 -14    4.10    3.90
  11   3 -14   -0.20    3.90
  10  -3 -14   54.99    5.50
  10  -3 -14   49.90    5.80
  10   3 -14   51.29    5.70
   9  -3 -14   26.50    3.80
   9  -3 -14   26.20    4.10
   9   3 -14   21.50    3.80
   9   3 -14   23.40    4.20
   8  -3 -14    5.00    3.20
   8  -3 -14    3.40    2.60
   8   3 -14    4.30    2.60
   8   3 -14    4.40    3.00
   7  -3 -14  125.99    7.60
   7  -3 -14  116.59    6.50
   7   3 -14  130.69    6.90
   7   3 -14  118.29    6.50
   6  -3 -14    6.90    3.60
   6  -3 -14    8.40    3.40
   6   3 -14    4.00    3.20
   6   3 -14    5.60    2.80
   5  -3 -14   81.49    5.50
   5  -3 -14   79.29    5.40
   5   3 -14   79.29    5.90
   5   3 -14   81.19    5.40
  -5   3  14   94.09    5.40
   4  -3 -14   -4.40    1.70
   4  -3 -14    1.20    3.20
  -4   3  14   -2.70    2.60
   4   3 -14    3.20    2.90
   3  -3 -14    5.10    3.30
   3  -3 -14    4.70    3.20
  -3   3  14    2.50    2.70
   3   3 -14    3.30    2.90
   2  -3 -14    1.90    2.20
   2  -3 -14   -0.80    2.20
  -2   3  14    0.80    1.90
   2   3 -14   -3.00    1.70
   1  -3 -14   20.80    3.40
   1  -3 -14   26.10    3.60
  -1   3  14   17.70    2.90
   1   3 -14   19.20    3.00
   0  -3 -14   19.00    3.50
   0  -3 -14   23.40    4.10
   0   3 -14   26.90    3.30
   0   3  14   22.60    3.30
   0   3  14   23.40    3.60
  -1  -3 -14   13.20    3.20
  -1  -3 -14   14.90    3.20
   1   3  14   17.30    3.00
   1   3  14   17.70    2.90
  -1   3 -14   17.40    3.30
  -1   3 -14   15.30    2.60
  -2  -3 -14   -0.70    3.20
   2   3  14    6.10    2.90
  -2   3 -14    2.70    2.60
   2   3  14    9.60    3.20
  -2   3 -14    7.20    2.00
  -3  -3 -14   52.79    5.10
  -3  -3 -14   54.29    6.50
   3   3  14   47.10    4.60
  -3   3 -14   54.39    4.10
   3   3  14   52.29    4.70
  -3   3 -14   64.39    4.70
  -4  -3 -14    0.60    3.50
  -4  -3 -14    4.50    2.40
   4   3  14   10.20    3.40
  -4   3 -14    3.00    2.70
   4   3  14    5.00    2.90
  -5  -3 -14   48.60    5.30
  -5  -3 -14   52.49    4.80
  -5   3 -14   54.79    5.00
   5   3  14   57.99    4.90
   5   3  14   59.09    5.30
  -6  -3 -14   19.20    3.80
  -6  -3 -14    8.70    2.70
   6   3  14   12.80    3.40
  -6   3 -14   15.50    3.60
   6   3  14   15.80    3.70
  -7  -3 -14   11.40    4.30
  -7  -3 -14    9.40    3.60
   7   3  14   18.50    3.80
  -7   3 -14   19.80    3.90
   7   3  14   15.70    3.80
  -8  -3 -14   12.20    3.90
  -8  -3 -14   11.90    4.40
  -8   3 -14    7.90    2.90
   8   3  14    6.60    2.60
   8   3  14    8.90    3.70
  -9  -3 -14   13.50    3.50
  -9  -3 -14   10.10    4.50
   9   3  14   10.40    5.80
   9   3  14    0.40    3.20
  10  -4 -14   -3.20    2.90
  10  -4 -14   -0.70    2.70
  10   4 -14   -1.70    2.30
   9  -4 -14   -1.10    2.10
   9  -4 -14    5.20    3.80
   9   4 -14    9.60    3.80
   8  -4 -14   -1.80    3.30
   8  -4 -14    3.70    3.30
   8   4 -14   -3.10    3.10
   7  -4 -14   13.30    3.10
   7  -4 -14    5.60    2.90
   7   4 -14    8.60    2.80
   6  -4 -14   53.19    5.70
   6  -4 -14   54.19    5.40
   6   4 -14   48.60    4.70
   5  -4 -14   14.20    3.30
   5  -4 -14   17.80    3.30
   5   4 -14   13.40    3.60
  -5   4  14   14.50    3.10
   4  -4 -14    5.30    3.30
   4  -4 -14    1.20    2.60
   4   4 -14    4.00    2.90
  -4   4  14    5.50    2.40
   3  -4 -14   -1.40    3.20
   3  -4 -14   -2.90    2.90
   3   4 -14   -3.10    1.70
  -3   4  14    0.80    2.80
   2  -4 -14    0.00    2.30
   2  -4 -14    4.10    2.50
   2   4 -14    1.50    2.00
  -2   4  14   -0.50    1.90
   1  -4 -14    6.70    2.90
   1  -4 -14   11.30    3.00
   1   4 -14   12.20    3.10
  -1   4  14   12.10    2.70
   0  -4 -14   -4.10    3.10
   0  -4 -14   -1.20    2.10
   0   4  14    0.90    2.60
   0   4 -14    1.30    2.50
   0   4  14    1.00    2.10
  -1  -4 -14   50.89    5.00
  -1  -4 -14   42.10    4.60
  -1   4 -14   39.10    3.80
   1   4  14   29.20    4.00
   1   4  14   42.90    4.30
  -1   4 -14   49.00    4.00
  -2  -4 -14   -2.70    2.20
   2   4  14    1.40    2.10
  -2   4 -14   -0.10    2.30
   2   4  14    1.60    2.00
  -2   4 -14    6.20    2.40
  -3  -4 -14   14.40    3.50
   3   4  14   20.30    3.20
   3   4  14   19.30    3.40
  -3   4 -14   15.00    2.70
  -4  -4 -14   37.80    5.40
  -4  -4 -14   34.70    4.10
   4   4  14   35.30    4.00
  -4   4 -14   43.90    4.40
   4   4  14   38.00    4.70
  -5  -4 -14    7.10    2.90
  -5  -4 -14    5.10    3.90
   5   4  14   10.70    3.40
  -5   4 -14    9.30    3.30
   5   4  14    6.90    3.30
  -6  -4 -14    4.20    4.00
  -6  -4 -14    4.60    2.50
   6   4  14    5.10    2.50
  -6   4 -14    2.50    2.40
   6   4  14    2.10    3.10
  -7  -4 -14   27.70    4.60
  -7  -4 -14   34.30    5.60
   7   4  14   31.30    4.10
   7   4  14   25.20    4.40
  -7   4 -14   26.70    4.40
  -8  -4 -14   -2.50    2.30
  -8  -4 -14    4.60    3.20
   8   4  14    3.00    2.50
   8   4  14    0.20    2.40
  -8   4 -14   -0.40    2.30
  -9  -4 -14   29.90    5.60
   9   4  14   18.20    4.20
  10  -5 -14   -5.90    3.30
  10   5 -14    4.60    3.70
   9  -5 -14    4.60    3.30
   9  -5 -14    3.80    3.80
   9   5 -14   12.80    3.40
   8  -5 -14    5.90    2.60
   8  -5 -14    1.30    2.60
   8   5 -14    3.30    2.50
   7  -5 -14   32.50    5.00
   7  -5 -14   22.90    4.20
   7   5 -14   36.30    4.80
   6  -5 -14   13.10    3.40
   6  -5 -14   13.50    3.80
   6   5 -14   15.90    3.20
   5  -5 -14    1.10    2.20
   5  -5 -14    4.00    3.50
   5   5 -14    1.50    2.90
  -5   5  14   -2.30    2.90
   4  -5 -14    1.30    2.60
   4  -5 -14    0.00    3.00
  -4   5  14    1.90    2.20
   4   5 -14    1.70    2.10
   3  -5 -14   13.50    3.90
   3  -5 -14   18.20    4.20
  -3   5  14   16.80    3.60
   3   5 -14   20.40    3.60
   2  -5 -14    0.50    2.30
   2  -5 -14    0.30    2.30
  -2   5  14    0.00    2.00
   2   5 -14    2.00    2.60
   1  -5 -14   -3.80    2.00
   1  -5 -14   -2.20    3.10
  -1   5  14    2.00    2.70
   1   5 -14   -0.20    1.70
  -1   5  14    2.90    2.30
   0  -5 -14    3.50    2.60
   0  -5 -14    2.10    2.50
   0   5  14   -1.40    2.00
   0   5  14    2.90    2.10
   0   5 -14    0.10    2.00
   0   5 -14   -4.70    2.20
  -1  -5 -14    1.40    2.50
  -1  -5 -14    1.80    3.50
   1   5  14    0.80    2.70
   1   5  14   -0.70    2.10
  -1   5 -14    3.50    2.30
  -2  -5 -14   43.70    5.60
  -2   5 -14   48.60    4.30
   2   5  14   39.40    4.80
   2   5  14   46.20    4.90
  -3  -5 -14   18.80    3.80
   3   5  14   18.20    3.70
   3   5  14   14.60    3.10
  -3   5 -14   22.00    3.50
  -4  -5 -14   29.90    5.10
  -4  -5 -14   35.40    4.10
   4   5  14   27.40    4.40
  -4   5 -14   30.10    3.70
   4   5  14   29.10    4.20
  -5  -5 -14    0.20    3.90
  -5  -5 -14    1.80    2.10
  -5   5 -14    2.20    2.20
   5   5  14   -2.70    2.00
   5   5  14   -3.90    2.80
  -6  -5 -14   -2.70    2.80
  -6  -5 -14   -1.20    4.00
   6   5  14    0.50    2.30
  -6   5 -14    0.70    2.10
   6   5  14   -3.00    3.00
  -7  -5 -14    0.90    2.30
  -7  -5 -14    2.90    3.10
   7   5  14    2.70    3.40
  -7   5 -14   -2.00    3.10
   7   5  14   -0.30    2.30
  -8  -5 -14   -2.20    3.90
  -8  -5 -14   12.30    4.00
  -8   5 -14   11.30    3.20
   8   5  14   10.90    3.90
   8   5  14    7.70    3.70
   9  -6 -14   21.50    4.70
   9   6 -14   21.90    4.60
   8  -6 -14   29.30    6.70
   8  -6 -14   28.10    4.20
   8   6 -14   31.70    4.20
   7  -6 -14    7.60    3.40
   7  -6 -14   10.70    4.30
   7   6 -14   15.90    3.90
   6  -6 -14    1.30    2.70
   6  -6 -14   -0.70    2.20
  -6   6  14    5.90    2.80
   6   6 -14    2.10    2.30
   5  -6 -14    9.00    3.70
   5  -6 -14    7.90    3.80
   5   6 -14   15.60    3.60
  -5   6  14   15.20    3.80
   4  -6 -14   21.40    3.70
   4  -6 -14   32.40    4.40
  -4   6  14   27.90    3.70
   4   6 -14   27.60    3.60
   3  -6 -14    3.60    3.50
   3  -6 -14    7.00    4.00
   3   6 -14   11.50    3.20
  -3   6  14    3.90    3.00
   2  -6 -14   -0.50    2.40
   2  -6 -14   -3.90    2.90
   2   6 -14    0.20    2.40
  -2   6  14   -0.30    2.00
   1  -6 -14    3.40    3.60
   1  -6 -14   -1.00    2.30
  -1   6  14   -0.60    2.00
  -1   6  14   -3.60    2.50
   1   6 -14    2.80    2.40
   0  -6 -14   59.19    5.90
   0  -6 -14   47.90    5.20
   0   6  14   40.30    4.50
   0   6 -14   46.10    4.00
   0   6  14   50.89    4.80
  -1  -6 -14    0.40    3.50
  -1  -6 -14    4.90    2.90
   1   6  14    6.90    3.40
  -1   6 -14    3.20    2.40
   1   6  14    4.40    2.40
  -2  -6 -14    8.80    3.30
  -2  -6 -14    6.70    3.10
  -2   6 -14   10.40    2.40
   2   6  14    7.20    2.60
   2   6  14    6.20    2.60
  -3  -6 -14    0.20    3.70
   3   6  14   -1.60    3.00
  -3   6 -14   -1.80    2.60
   3   6  14    1.00    2.10
  -4  -6 -14   -3.80    2.40
   4   6  14   -2.80    1.90
  -4   6 -14   -2.40    1.70
   4   6  14   -0.80    3.00
  -5  -6 -14   -0.10    2.90
  -5  -6 -14   -0.30    2.90
  -5   6 -14    0.00    2.20
   5   6  14    2.90    2.40
   5   6  14   -0.60    2.30
  -6  -6 -14   54.69    5.30
  -6  -6 -14   59.59    6.20
   6   6  14   59.39    5.80
  -6   6 -14   54.09    5.00
   6   6  14   49.40    5.00
  -7  -6 -14    3.40    3.40
  -7  -6 -14   -0.20    4.30
   7   6  14   -0.20    3.10
  -7   6 -14    4.30    3.60
   7   6  14    2.60    3.60
  -8  -6 -14   -3.50    2.30
   9   7 -14    8.50    3.10
   8  -7 -14    3.40    3.00
   8   7 -14    2.30    3.40
   7  -7 -14   19.80    4.60
   7   7 -14   21.60    4.30
   6  -7 -14    2.40    3.70
   6  -7 -14   -0.80    2.90
   6   7 -14   -1.10    2.00
   5  -7 -14    5.00    2.70
   5  -7 -14    2.20    2.80
  -5   7  14    3.60    2.60
   5   7 -14    2.70    2.90
   4  -7 -14    0.70    3.60
   4  -7 -14   -3.00    3.00
  -4   7  14   -4.50    2.90
   4   7 -14    3.20    2.90
   3  -7 -14    3.90    2.70
   3  -7 -14    0.40    2.30
  -3   7  14    0.40    2.20
   3   7 -14    0.10    2.50
   2  -7 -14    3.70    3.60
   2  -7 -14    3.20    3.60
   2   7 -14   -1.80    1.60
  -2   7  14    1.60    3.10
   1  -7 -14   10.00    3.90
   1  -7 -14    4.60    2.90
  -1   7  14   14.70    3.00
  -1   7  14    3.80    3.20
   0  -7 -14   16.60    4.50
   0  -7 -14   18.50    3.70
   0   7  14   17.30    3.90
   0   7 -14   12.00    2.50
   0   7  14   15.10    3.10
  -1  -7 -14   15.70    4.40
  -1  -7 -14   15.80    3.70
  -1   7 -14   17.80    3.30
   1   7  14   14.50    3.60
   1   7  14   14.00    3.20
  -2  -7 -14    5.10    3.90
  -2  -7 -14    8.70    4.00
  -2   7 -14    9.10    2.50
   2   7  14    9.20    3.40
   2   7  14   11.60    3.00
  -3  -7 -14   20.90    4.20
   3   7  14   23.10    3.60
   3   7  14   24.80    3.80
  -3   7 -14   17.30    3.60
  -4  -7 -14    7.10    4.10
   4   7  14    0.40    3.00
  -4   7 -14   -1.20    2.00
   4   7  14   -1.00    3.00
  -5  -7 -14   15.00    4.90
  -5  -7 -14   11.80    3.90
   5   7  14   13.20    4.00
  -5   7 -14   13.20    3.10
   5   7  14   19.20    4.00
  -6  -7 -14   10.40    3.80
  -6  -7 -14   16.40    4.00
   6   7  14   19.10    3.70
  -6   7 -14   16.10    4.00
   6   7  14   11.70    3.90
  -7  -7 -14    4.70    3.40
   8  -8 -14    7.70    3.30
   8   8 -14   10.70    4.00
   7  -8 -14   29.50    4.50
   7   8 -14   25.80    4.50
   6  -8 -14   -2.50    3.50
   6   8 -14    0.50    2.30
   5  -8 -14    2.70    3.20
   5  -8 -14   -1.60    2.40
  -5   8  14    1.60    2.50
   5   8 -14    2.80    2.20
   4  -8 -14   -5.80    3.00
   4  -8 -14    2.70    2.50
   4   8 -14    3.80    2.90
  -4   8  14   -0.70    2.40
   3  -8 -14   14.70    4.50
   3  -8 -14   22.20    4.50
  -3   8  14   16.00    3.90
   3   8 -14   14.80    3.70
   2  -8 -14    6.90    3.90
   2  -8 -14   15.80    3.60
  -2   8  14   17.10    3.30
  -2   8  14    7.20    2.80
   1  -8 -14   13.90    3.50
   1  -8 -14   20.50    4.40
  -1   8  14   20.60    4.00
  -1   8  14   13.90    3.20
   1   8 -14   19.20    2.90
   0  -8 -14    8.60    4.00
   0  -8 -14    0.20    3.70
   0   8  14    4.00    2.40
   0   8 -14    2.60    2.60
   0   8  14    6.40    3.30
  -1  -8 -14    2.70    3.80
  -1  -8 -14   10.60    4.20
  -1   8 -14   10.50    3.10
   1   8  14   10.80    3.60
   1   8  14   13.30    3.80
  -2  -8 -14    6.10    3.20
  -2  -8 -14    1.20    3.90
   2   8  14   -1.10    3.00
   2   8  14    5.80    2.70
  -2   8 -14    2.90    2.20
  -3  -8 -14   -6.20    3.60
  -3   8 -14   -4.70    2.50
   3   8  14   -3.30    3.10
   3   8  14   -2.60    2.90
  -4  -8 -14    1.60    4.20
   4   8  14    2.00    3.50
   4   8  14   -2.70    2.20
  -4   8 -14    2.60    2.20
  -5  -8 -14    4.30    4.70
   5   8  14    7.40    3.70
   5   8  14    2.60    3.50
  -5   8 -14   11.90    3.00
  -6  -8 -14   32.80    4.90
   7  -9 -14    3.40    4.30
   7   9 -14   -2.10    3.10
   6  -9 -14    1.60    2.80
   6   9 -14   -3.80    2.70
   5  -9 -14   -1.20    3.50
   5   9 -14    3.60    3.10
  -5   9  14    7.80    3.70
   4  -9 -14   10.40    4.20
   4  -9 -14   21.00    4.30
  -4   9  14   17.60    4.10
   3  -9 -14   -2.20    2.40
   3  -9 -14    3.20    3.50
  -3   9  14    4.10    2.50
   2  -9 -14    9.20    3.90
   2  -9 -14   14.70    3.60
  -2   9  14   11.60    3.00
  -2   9  14   16.20    3.90
   1  -9 -14   38.20    5.50
   1  -9 -14   31.20    4.60
   1   9 -14   36.70    4.30
  -1   9  14   37.90    4.80
  -1   9  14   26.00    3.90
   0  -9 -14    6.50    3.20
   0  -9 -14    8.60    4.00
   0   9  14    8.10    2.90
   0   9  14   10.70    3.60
   0   9 -14   10.60    3.20
  -1  -9 -14    5.50    3.90
  -1  -9 -14    7.10    4.30
   1   9  14    7.30    3.50
  -1   9 -14   10.20    3.30
   1   9  14    8.40    3.60
  -2  -9 -14    5.60    4.10
  -2  -9 -14    8.50    3.60
   2   9  14   14.40    3.90
   2   9  14    5.70    2.90
  -2   9 -14   11.00    3.30
  -3  -9 -14    1.10    4.10
  -3  -9 -14    4.70    4.10
  -3   9 -14   -0.90    2.80
   3   9  14   12.20    3.80
   3   9  14    1.20    3.30
  -4  -9 -14   -3.10    4.00
   4   9  14    1.00    3.40
  -4   9 -14    3.10    2.40
   4   9  14   -2.30    2.30
   5   9  14    4.80    4.00
   5 -10 -14    4.70    3.80
  -5  10  14    5.40    3.60
   4 -10 -14    2.80    2.90
  -4  10  14   -2.30    2.30
   3 -10 -14    2.30    3.10
   3 -10 -14    1.80    3.70
  -3  10  14    3.00    3.30
   2 -10 -14    0.50    3.70
   2 -10 -14    5.20    3.00
  -2  10  14    2.20    3.40
  -2  10  14   -1.40    3.00
   1 -10 -14   14.00    4.30
   1 -10 -14   20.80    4.00
  -1  10  14   17.90    4.10
  -1  10  14   21.70    4.30
   1  10 -14   18.50    3.20
   0 -10 -14   -3.60    2.40
   0 -10 -14   -3.70    3.40
   0  10  14    1.10    2.40
   0  10 -14    1.20    2.30
   0  10  14   -1.80    2.90
  -1 -10 -14   29.80    5.20
  -1 -10 -14   32.40    5.60
   1  10  14   25.30    4.60
  -1  10 -14   33.90    4.40
   1  10  14   30.80    4.70
  -2 -10 -14   68.89    6.90
  -2 -10 -14   60.19    6.30
  -2  10 -14   57.19    5.60
   2  10  14   84.09    6.00
   2  10  14   65.49    6.20
  -3 -10 -14    2.70    4.10
  -3 -10 -14   -2.50    4.10
   3  10  14    1.70    3.30
  -3  10 -14    2.20    2.40
   3  10  14    7.80    3.80
   3 -11 -14    8.70    4.10
  -3  11  14   13.80    4.10
   2 -11 -14    4.50    3.80
  -2  11  14    2.00    3.30
  -2  11  14   -1.90    3.30
   1 -11 -14   -3.60    3.30
   1 -11 -14    0.10    2.70
   1  11 -14    2.10    2.90
  -1  11  14   -0.30    3.20
  -1  11  14    7.30    3.70
   0 -11 -14   12.00    4.00
   0 -11 -14    2.50    2.80
   0  11  14    3.20    2.70
   0  11  14    7.30    3.60
   0  11 -14    8.20    3.50
  -1 -11 -14    5.20    4.30
  -1 -11 -14   -5.90    3.50
   1  11  14   -0.70    3.20
  -1  11 -14   -2.30    2.90
   1  11  14    1.80    3.40
  11   0 -15   -5.50    3.10
  11   0 -15   -0.80    3.70
  10   0 -15   -1.30    3.20
  10   0 -15   -3.90    3.20
   9   0 -15   -7.60    2.80
   9   0 -15    3.00    3.10
   8   0 -15    1.70    3.40
   8   0 -15    3.70    3.10
   7   0 -15   -2.40    3.00
   7   0 -15   -0.30    3.00
   6   0 -15    4.00    3.10
   6   0 -15    0.30    3.20
   5   0 -15   -2.40    1.90
   5   0 -15    0.20    3.00
   4   0 -15    0.00    2.20
   4   0 -15   -0.60    2.80
  -4   0  15    0.30    2.50
   3   0 -15    1.60    2.20
   3   0 -15    0.40    2.80
  -3   0  15    1.80    2.50
  -2   0  15   -1.40    2.20
   2   0 -15    2.80    2.90
   2   0 -15    0.60    2.20
  -1   0  15    0.60    2.30
   1   0 -15   -4.30    2.60
   1   0 -15    3.40    2.30
   0   0  15   -0.30    1.70
   0   0 -15   -0.20    2.90
   0   0 -15    2.00    2.20
  -1   0 -15   -2.00    2.80
   1   0  15    0.50    2.40
  -1   0 -15   -3.60    2.70
  -2   0 -15   -0.90    2.20
   2   0  15   -1.10    1.60
   3   0  15   -2.30    2.30
  -3   0 -15    0.40    1.70
  -3   0 -15   -2.70    2.90
  -4   0 -15   -0.70    2.30
   4   0  15    6.90    2.70
   4   0  15    2.50    2.10
  -4   0 -15   -1.60    2.10
  -5   0 -15   -0.20    2.70
   5   0  15   -0.20    1.90
  -5   0 -15    2.50    3.20
   5   0  15    0.60    2.60
   6   0  15   -0.40    2.70
  -6   0 -15    4.00    3.40
  -6   0 -15   -3.00    2.60
  -7   0 -15   -3.40    2.00
   7   0  15   -3.80    1.80
  -8   0 -15   -2.50    2.30
   8   0  15   -2.20    2.00
  11  -1 -15    4.80    2.90
  11  -1 -15    5.20    4.40
  11   1 -15    4.00    3.40
  10  -1 -15   -2.10    3.30
  10  -1 -15    5.10    3.60
  10   1 -15    1.80    2.60
  10   1 -15   -2.80    3.00
   9  -1 -15   11.00    3.80
   9  -1 -15   18.30    4.30
   9   1 -15   12.80    3.70
   9   1 -15   18.40    3.70
   8  -1 -15   12.70    3.10
   8  -1 -15    8.50    3.70
   8   1 -15   17.60    3.50
   8   1 -15    8.60    2.60
   7  -1 -15   19.70    4.10
   7  -1 -15   32.30    4.20
   7   1 -15   24.60    4.00
   7   1 -15   20.80    3.60
   6  -1 -15   26.40    3.70
   6  -1 -15   20.00    3.50
   6   1 -15   26.30    3.80
   6   1 -15   33.90    3.80
   5  -1 -15   -0.20    2.30
   5  -1 -15    4.20    3.20
   5   1 -15   -0.20    2.20
   5   1 -15    4.90    2.90
  -5   1  15   -1.50    2.70
   4  -1 -15   71.59    5.80
   4  -1 -15   58.79    5.10
  -4  -1  15   67.29    4.80
  -4   1  15   54.59    4.90
   4   1 -15   54.99    5.00
   4   1 -15   57.69    4.90
  -3  -1  15   15.60    3.00
   3  -1 -15   12.60    3.70
   3  -1 -15   25.00    4.20
  -3   1  15   13.20    2.70
   3   1 -15   13.50    3.10
   3   1 -15   14.00    3.30
   2  -1 -15   10.10    2.70
   2  -1 -15   10.20    3.60
  -2  -1  15    6.20    2.50
  -2   1  15   15.00    2.60
   2   1 -15    8.00    2.70
   2   1 -15   10.10    3.20
   1  -1 -15   15.20    3.10
   1  -1 -15   17.50    4.00
  -1  -1  15   11.00    2.60
  -1   1  15   12.90    3.00
   1   1 -15   12.70    3.30
   1   1 -15   12.50    3.00
   0  -1 -15    9.70    3.40
   0  -1 -15   11.20    3.60
   0  -1  15    5.20    2.30
   0   1 -15   11.00    2.80
   0   1  15   10.80    2.90
   0   1 -15    5.40    3.00
  -1  -1 -15   56.79    4.90
   1  -1  15   50.49    3.70
  -1  -1 -15   55.79    5.10
   1   1  15   44.20    4.00
  -1   1 -15   53.79    4.80
  -1   1 -15   62.19    5.40
  -2  -1 -15    5.30    2.70
   2  -1  15   -1.30    2.20
   2   1  15    4.70    2.20
  -2   1 -15    2.90    2.90
  -2   1 -15    1.80    3.00
   2   1  15    4.30    2.60
   3  -1  15   63.49    4.20
  -3  -1 -15   60.19    5.70
   3   1  15   60.79    5.30
  -3   1 -15   63.89    4.60
   3   1  15   58.09    4.90
  -3   1 -15   60.39    5.40
   4  -1  15    5.30    2.60
  -4  -1 -15    0.10    3.30
  -4  -1 -15    1.90    2.50
  -4   1 -15    2.60    3.00
  -4   1 -15    3.00    2.60
   4   1  15    0.50    2.80
   4   1  15    4.90    2.80
  -5  -1 -15    7.40    2.90
   5  -1  15   16.90    2.80
  -5  -1 -15   13.20    3.40
  -5   1 -15    9.10    3.10
   5   1  15   11.90    2.80
   5   1  15    6.70    3.20
  -5   1 -15    7.40    3.40
  -6  -1 -15    0.10    2.80
  -6  -1 -15    3.40    3.50
   6  -1  15    2.10    2.80
   6   1  15    4.10    3.00
  -6   1 -15    3.70    3.10
   6   1  15    3.80    3.10
  -7  -1 -15   13.30    3.10
   7  -1  15    9.60    2.60
  -7  -1 -15   10.60    3.90
   7   1  15    2.30    2.90
  -7   1 -15   10.00    2.90
  -8  -1 -15    1.40    3.30
   8  -1  15    0.30    2.10
   8   1  15    0.70    2.30
  -8   1 -15   -2.30    2.30
  11  -2 -15    2.90    2.60
  11   2 -15    5.30    3.30
  10  -2 -15   13.50    3.30
  10  -2 -15    8.60    4.00
  10   2 -15   13.60    3.70
  10   2 -15   11.40    3.30
   9  -2 -15    0.80    3.50
   9  -2 -15   -7.90    2.90
   9   2 -15    7.30    3.00
   9   2 -15    2.50    3.00
   8  -2 -15   74.59    5.60
   8  -2 -15   63.59    6.00
   8   2 -15   72.79    5.60
   8   2 -15   71.09    5.60
   7  -2 -15    0.10    3.40
   7  -2 -15    7.90    2.80
   7   2 -15    4.40    2.20
   7   2 -15    9.20    3.60
   6  -2 -15    1.30    2.50
   6  -2 -15    2.60    2.40
   6   2 -15    5.50    2.80
   6   2 -15    0.20    3.10
   5  -2 -15   16.70    4.00
   5  -2 -15   19.60    4.20
   5   2 -15   13.60    3.10
   5   2 -15   13.10    3.70
  -5   2  15   17.10    3.70
   4  -2 -15    3.90    3.20
   4  -2 -15   10.10    2.90
  -4  -2  15    6.50    2.40
   4   2 -15    4.00    2.60
   4   2 -15    7.80    3.40
  -4   2  15    4.30    2.40
  -3  -2  15   62.79    3.90
   3  -2 -15   53.79    5.00
   3  -2 -15   49.10    5.20
  -3   2  15   55.89    4.90
   3   2 -15   55.69    5.30
   3   2 -15   58.29    4.60
   2  -2 -15   63.09    5.60
  -2  -2  15   59.19    4.10
   2  -2 -15   55.89    5.10
  -2   2  15   51.99    4.70
   2   2 -15   56.39    4.60
   2   2 -15   46.70    4.60
   1  -2 -15    3.10    2.50
  -1  -2  15    1.80    2.30
   1  -2 -15    2.10    2.30
   1   2 -15    1.20    2.10
   1   2 -15    1.00    2.40
  -1   2  15    2.40    2.00
   0  -2 -15   51.99    5.30
   0  -2 -15   53.49    5.00
   0   2 -15   48.00    4.50
   0   2 -15   54.79    4.60
   0   2  15   46.40    4.50
  -1  -2 -15   33.00    4.80
  -1  -2 -15   35.40    4.20
  -1   2 -15   22.20    3.60
   1   2  15   21.80    3.10
  -1   2 -15   18.80    3.70
  -2  -2 -15    1.50    2.40
   2   2  15   -0.40    1.90
   2   2  15    3.20    2.70
  -2   2 -15   -1.30    2.40
  -2   2 -15    3.60    2.20
  -2   2 -15   -1.20    2.50
  -3  -2 -15   -0.30    3.20
   3   2  15   -0.60    2.60
  -3   2 -15    1.20    2.80
  -3   2 -15    0.90    1.80
   3   2  15   -1.60    2.70
  -4  -2 -15    0.80    2.60
  -4  -2 -15    2.70    2.70
   4   2  15    3.50    2.80
   4   2  15    2.70    2.20
  -4   2 -15    3.60    2.70
  -4   2 -15    1.60    2.10
  -5  -2 -15    0.70    2.60
  -5  -2 -15   -4.10    2.40
  -5   2 -15   -2.90    1.70
   5   2  15   -0.30    2.00
   5   2  15   -0.60    2.00
  -6  -2 -15   12.80    3.50
  -6  -2 -15   14.60    3.60
  -6   2 -15    7.80    3.20
   6   2  15   13.40    3.00
   6   2  15   12.20    3.60
  -7  -2 -15    1.70    3.10
  -7  -2 -15   -0.60    2.50
  -7   2 -15   -0.80    2.20
   7   2  15    5.20    2.60
   7   2  15    0.00    3.00
  -8  -2 -15   -2.00    3.20
  -8  -2 -15   -2.70    3.50
  -8   2 -15    0.10    2.50
   8   2  15   -0.30    3.20
  10  -3 -15    6.70    2.90
  10  -3 -15   12.10    3.40
  10   3 -15   18.70    3.80
   9  -3 -15   23.50    4.40
   9  -3 -15   22.50    4.00
   9   3 -15   17.20    4.40
   8  -3 -15   -4.20    3.30
   8  -3 -15    0.90    3.10
   8   3 -15    3.10    3.60
   7  -3 -15   -3.40    2.10
   7  -3 -15    1.40    2.70
   7   3 -15    1.70    2.50
   6  -3 -15    5.80    3.40
   6  -3 -15    2.00    3.60
   6   3 -15    4.60    2.60
   5  -3 -15   -0.10    2.50
   5  -3 -15    0.90    3.20
  -5   3  15   -0.40    2.20
   5   3 -15    2.60    3.20
   4  -3 -15   14.20    3.30
   4  -3 -15   15.40    4.10
   4   3 -15   15.10    3.70
  -4   3  15   18.30    3.70
   3  -3 -15   10.20    3.00
   3  -3 -15   13.80    3.30
  -3   3  15    5.40    2.50
   3   3 -15    9.10    3.40
   2  -3 -15    4.40    3.50
   2  -3 -15    3.50    2.50
   2   3 -15    3.90    2.30
  -2   3  15   10.70    3.10
   1  -3 -15    8.60    3.80
   1  -3 -15    0.60    2.40
   1   3 -15    6.70    2.40
  -1   3  15    8.20    3.00
   0  -3 -15   -2.70    3.20
   0  -3 -15   -2.10    2.20
   0   3 -15    1.80    2.90
   0   3  15    5.20    2.80
  -1  -3 -15    4.50    2.80
  -1  -3 -15   -0.10    2.30
  -1   3 -15    0.30    2.60
   1   3  15    2.50    2.30
   1   3  15   -2.20    1.80
  -2  -3 -15    1.50    3.40
   2   3  15    3.10    3.00
  -2   3 -15    3.00    2.30
   2   3  15    1.40    2.80
  -2   3 -15    0.80    2.70
  -3  -3 -15   10.40    3.20
  -3   3 -15   11.50    2.90
   3   3  15    8.20    2.70
   3   3  15   17.50    3.60
  -4  -3 -15    7.60    3.10
   4   3  15    1.20    2.10
  -4   3 -15    0.60    1.90
   4   3  15    2.10    2.40
  -5  -3 -15   19.10    3.60
  -5  -3 -15   16.20    4.40
   5   3  15   10.00    3.40
   5   3  15   17.20    3.90
  -5   3 -15   17.50    3.00
  -6  -3 -15   11.90    4.30
  -6  -3 -15   15.00    3.60
   6   3  15   12.80    3.10
  -6   3 -15   11.20    3.40
   6   3  15   12.00    3.10
  -7  -3 -15   -2.70    2.90
  -7  -3 -15    2.30    2.90
   7   3  15   -4.40    1.90
  -7   3 -15    1.00    2.40
   7   3  15    0.60    2.20
  -8  -3 -15   -6.80    3.40
  -8  -3 -15   -1.30    3.20
   8   3  15   -2.50    2.10
  -8   3 -15    3.00    3.50
   8   3  15   -3.80    2.90
  10  -4 -15   -4.30    3.00
   9  -4 -15    1.10    2.40
   9  -4 -15   12.00    4.30
   9   4 -15   -4.10    2.20
   8  -4 -15    2.20    3.20
   8  -4 -15    2.50    2.80
   8   4 -15    5.20    2.80
   7  -4 -15   -1.50    2.20
   7  -4 -15   -0.60    3.60
   7   4 -15   -1.30    3.10
   6  -4 -15   66.09    6.30
   6  -4 -15   49.40    5.00
   6   4 -15   59.29    5.20
   5  -4 -15   70.79    6.20
   5  -4 -15   73.29    6.10
  -5   4  15   75.19    5.30
   5   4 -15   58.19    5.20
   4  -4 -15    1.50    2.40
   4  -4 -15   -5.50    3.20
   4   4 -15   -2.30    2.80
  -4   4  15   -0.10    3.00
   3  -4 -15   20.50    3.60
   3  -4 -15   24.70    4.60
   3   4 -15   21.50    3.30
  -3   4  15   21.80    3.40
   2  -4 -15   32.30    4.30
   2  -4 -15   40.80    4.60
   2   4 -15   49.70    4.50
  -2   4  15   41.00    4.60
   1  -4 -15  102.79    6.30
   1  -4 -15   92.59    7.00
  -1   4  15   96.99    6.10
   1   4 -15   92.89    6.00
   0  -4 -15   72.09    6.40
   0  -4 -15   71.69    5.60
   0   4 -15   77.39    4.90
   0   4  15   75.09    5.20
   0   4  15   73.09    5.60
  -1  -4 -15    2.50    2.70
  -1  -4 -15    4.30    2.80
   1   4  15    5.40    2.40
   1   4  15    4.10    2.40
  -1   4 -15    4.00    2.70
  -2  -4 -15   45.80    5.60
  -2  -4 -15   48.80    5.20
   2   4  15   44.90    4.40
   2   4  15   44.70    5.00
  -2   4 -15   46.00    4.20
  -3  -4 -15   16.00    3.70
  -3   4 -15   24.10    3.60
   3   4  15   15.50    3.20
   3   4  15   13.60    3.00
  -4  -4 -15    0.70    2.70
  -4   4 -15    0.70    2.60
   4   4  15   -2.90    2.00
   4   4  15   -3.10    2.80
  -5  -4 -15    2.50    2.80
  -5  -4 -15   -2.70    2.60
  -5   4 -15    1.20    2.80
   5   4  15    3.10    2.40
   5   4  15   -2.80    2.10
  -6  -4 -15    0.90    2.90
  -6  -4 -15    0.20    3.00
   6   4  15   -3.50    2.90
  -6   4 -15    6.70    3.20
   6   4  15   -1.00    2.20
  -7  -4 -15   -2.40    2.80
  -7  -4 -15    7.00    3.40
   7   4  15    4.10    3.50
  -7   4 -15    4.70    2.70
   7   4  15    9.30    3.70
  -8  -4 -15    6.80    3.80
  -8  -4 -15    1.40    4.10
   8   4  15    4.10    3.40
   9  -5 -15    8.00    3.40
   9  -5 -15    3.50    3.40
   9   5 -15   10.30    4.10
   8  -5 -15   22.30    4.20
   8  -5 -15   20.10    4.00
   8   5 -15   18.90    3.60
   7  -5 -15   20.80    4.30
   7  -5 -15   14.00    4.50
   7   5 -15   22.50    3.80
   6  -5 -15   21.10    4.00
   6  -5 -15   22.90    3.70
   6   5 -15   27.60    4.40
  -6   5  15   24.60    3.80
   5  -5 -15    9.00    4.10
   5  -5 -15    3.90    3.40
   5   5 -15    5.10    2.50
  -5   5  15    4.80    3.40
   4  -5 -15   30.30    4.40
   4  -5 -15   26.20    4.50
  -4   5  15   25.20    4.20
   4   5 -15   31.80    4.40
   3  -5 -15    1.80    2.50
   3  -5 -15   -0.60    3.60
  -3   5  15    0.10    2.20
   3   5 -15    0.90    2.10
   2  -5 -15   78.99    6.60
   2  -5 -15   60.89    5.50
  -2   5  15   62.19    5.50
   2   5 -15   65.59    5.30
   1  -5 -15   75.19    5.70
   1  -5 -15   64.79    5.80
  -1   5  15   71.99    5.10
   1   5 -15   69.89    4.70
   0  -5 -15    5.00    3.90
   0  -5 -15    3.00    2.70
   0   5 -15    1.40    2.60
   0   5  15    1.60    2.30
   0   5  15   -1.10    2.80
  -1  -5 -15   11.80    4.10
  -1  -5 -15   15.60    4.40
   1   5  15    5.40    3.20
   1   5  15    7.00    2.70
  -1   5 -15   14.60    2.90
  -2  -5 -15    2.40    2.90
  -2  -5 -15   -0.10    3.70
  -2   5 -15    1.90    2.50
   2   5  15    9.60    3.40
   2   5  15   -3.30    2.90
  -3  -5 -15   40.90    5.70
  -3   5 -15   33.00    4.00
   3   5  15   28.80    4.60
   3   5  15   34.80    4.60
  -4  -5 -15   11.20    3.40
   4   5  15    4.40    2.50
  -4   5 -15    4.30    3.00
   4   5  15    3.80    2.50
  -5  -5 -15   17.30    4.00
   5   5  15   18.10    3.50
   5   5  15   18.50    4.10
  -5   5 -15   14.80    3.70
  -6  -5 -15    3.60    3.10
  -6  -5 -15   -3.20    1.90
   6   5  15   -0.40    3.20
  -6   5 -15   -0.10    3.00
   6   5  15   -3.20    2.00
  -7  -5 -15   -1.60    3.00
  -7  -5 -15   -0.50    4.10
   7   5  15   -2.60    2.10
   7   5  15   -2.90    3.00
  -7   5 -15    0.50    2.30
   8  -6 -15    8.80    4.00
   8  -6 -15    8.80    3.60
   8   6 -15   12.20    4.10
   7  -6 -15   -2.20    3.00
   7  -6 -15    2.20    3.90
   7   6 -15    0.30    2.40
   6  -6 -15    3.00    3.30
   6  -6 -15    3.40    3.00
   6   6 -15    9.60    3.70
  -6   6  15    4.40    2.90
   5  -6 -15   -0.40    2.30
   5  -6 -15   -5.40    3.40
  -5   6  15   -4.90    2.90
   5   6 -15    2.00    2.30
   4  -6 -15   12.50    3.90
   4  -6 -15    5.20    3.80
  -4   6  15    2.80    3.40
   4   6 -15    4.00    3.10
   3  -6 -15   13.70    3.50
   3  -6 -15   -1.00    3.30
  -3   6  15   10.30    2.90
   3   6 -15    9.40    3.20
   2  -6 -15   15.80    4.40
   2  -6 -15    9.00    3.10
  -2   6  15    2.30    3.10
   2   6 -15    5.50    2.40
   1  -6 -15   -1.70    2.40
   1  -6 -15    2.70    2.80
   1   6 -15    4.90    2.70
  -1   6  15    3.90    3.20
  -1   6  15    0.70    2.20
   0  -6 -15    2.40    3.50
   0  -6 -15   -1.00    2.70
   0   6  15    3.30    2.40
   0   6  15    0.40    2.40
  -1  -6 -15   -4.70    3.30
  -1  -6 -15    1.40    2.80
   1   6  15   -0.60    3.10
   1   6  15    2.80    2.30
  -1   6 -15   -1.50    2.20
  -2  -6 -15   11.60    3.40
  -2  -6 -15   10.20    3.50
   2   6  15    6.60    2.70
   2   6  15    8.10    2.90
  -2   6 -15   13.30    3.10
  -3  -6 -15   12.50    3.80
  -3   6 -15    6.90    3.00
   3   6  15    7.50    2.70
   3   6  15    8.20    3.60
  -4  -6 -15    4.30    4.20
  -4   6 -15   -0.30    2.80
   4   6  15    2.80    3.20
   4   6  15   -3.00    3.10
  -5  -6 -15   -1.00    3.90
  -5   6 -15    2.10    2.90
   5   6  15   -2.20    3.10
   5   6  15   -1.00    2.30
  -6  -6 -15    9.30    4.60
  -6  -6 -15    6.60    3.40
  -6   6 -15   12.30    3.70
   6   6  15    8.50    3.80
   6   6  15   11.40    3.80
  -7  -6 -15    0.00    2.30
   8  -7 -15    5.10    4.80
   8   7 -15   10.50    3.20
   7  -7 -15    1.80    3.80
   7   7 -15   11.70    3.20
   6  -7 -15   40.40    5.10
   6  -7 -15   35.30    5.50
   6   7 -15   38.30    5.10
   5  -7 -15    9.20    3.80
   5  -7 -15    3.60    3.10
  -5   7  15    4.10    2.70
   5   7 -15    3.20    3.10
   4  -7 -15    6.90    3.00
   4  -7 -15    8.20    4.20
  -4   7  15    4.10    3.50
   4   7 -15    3.40    2.40
   3  -7 -15   -0.80    2.50
   3  -7 -15    1.90    3.60
   3   7 -15    4.50    2.90
  -3   7  15   -1.50    3.00
   2  -7 -15   60.79    5.80
   2  -7 -15   48.20    5.80
  -2   7  15   57.99    5.20
   1  -7 -15   32.70    5.40
   1  -7 -15   28.30    5.00
  -1   7  15   29.10    4.50
  -1   7  15   29.70    4.70
   0  -7 -15    5.70    4.10
   0  -7 -15    6.90    3.10
   0   7  15   -0.50    3.20
   0   7  15    2.80    3.30
  -1  -7 -15   19.80    4.20
  -1  -7 -15   23.20    5.10
   1   7  15   26.10    3.90
  -1   7 -15   16.60    3.30
   1   7  15   18.70    4.10
  -2  -7 -15    7.60    4.40
  -2  -7 -15    3.40    4.10
   2   7  15    7.40    3.60
   2   7  15   11.40    3.90
  -2   7 -15   10.20    3.20
  -3  -7 -15   -1.40    3.70
  -3   7 -15    3.60    2.80
   3   7  15    4.70    2.60
   3   7  15    2.80    3.50
  -4  -7 -15    2.40    3.10
   4   7  15    5.30    2.80
  -4   7 -15    2.50    3.00
   4   7  15    6.50    3.40
  -5  -7 -15    4.10    3.30
   5   7  15   -1.20    2.30
  -5   7 -15    0.50    3.20
   5   7  15    1.00    3.20
  -6   7 -15    4.60    3.90
   7  -8 -15   14.60    5.40
   7   8 -15   15.80    4.30
   6  -8 -15   17.80    4.80
   6   8 -15   17.30    4.10
   5  -8 -15   12.50    3.60
   5  -8 -15   10.50    3.10
   5   8 -15   10.90    3.60
  -5   8  15   15.20    3.60
   4  -8 -15    1.40    3.30
   4  -8 -15    1.60    2.80
  -4   8  15    2.40    2.50
   4   8 -15    0.90    2.90
   3  -8 -15   48.70    5.90
   3  -8 -15   32.50    5.20
  -3   8  15   45.60    5.30
   2  -8 -15    4.60    3.90
   2  -8 -15   -0.20    2.50
  -2   8  15    0.40    3.30
   1  -8 -15  124.79    7.60
   1  -8 -15  152.48    8.80
  -1   8  15  115.19    7.30
  -1   8  15  133.89    7.10
   0  -8 -15   68.19    6.80
   0  -8 -15   62.79    6.10
   0   8  15   58.39    5.30
   0   8  15   58.19    5.90
   0   8 -15   55.79    5.00
  -1  -8 -15    2.40    3.00
  -1  -8 -15    0.50    2.90
  -1   8 -15    4.20    2.20
   1   8  15   -2.80    2.10
   1   8  15    5.00    3.60
  -2  -8 -15   52.79    6.50
  -2  -8 -15   48.10    6.30
   2   8  15   54.69    5.40
  -2   8 -15   41.50    4.60
   2   8  15   48.30    5.30
  -3  -8 -15   -0.80    4.10
  -3  -8 -15   -0.70    3.00
  -3   8 -15   -5.60    2.50
   3   8  15    1.80    3.20
   3   8  15   -0.10    2.40
  -4  -8 -15    1.60    3.20
   4   8  15    2.80    2.60
   4   8  15    0.30    2.50
  -4   8 -15    1.70    3.00
  -5   8 -15   -2.00    3.40
   6   9 -15   12.10    3.90
   5  -9 -15   16.50    4.70
   5   9 -15   15.80    4.60
  -5   9  15   10.20    4.10
   4  -9 -15    3.80    4.00
   4  -9 -15    8.40    3.80
  -4   9  15    4.90    3.80
   3  -9 -15   22.10    4.20
   3  -9 -15   21.70    4.10
  -3   9  15   16.10    4.20
   2  -9 -15    1.70    2.90
   2  -9 -15    3.70    3.00
  -2   9  15    3.10    2.70
   1  -9 -15    4.00    2.90
   1  -9 -15   -2.50    2.50
  -1   9  15    0.40    2.30
  -1   9  15    1.50    2.50
   0  -9 -15    0.30    2.90
   0  -9 -15   -1.20    2.70
   0   9  15    0.80    2.40
   0   9 -15   -1.70    2.60
   0   9  15    4.40    2.70
  -1  -9 -15   12.90    4.50
  -1  -9 -15   -1.60    2.80
   1   9  15    5.10    2.80
  -1   9 -15    5.50    3.10
   1   9  15   11.30    3.90
  -2  -9 -15   17.00    4.10
  -2  -9 -15    4.00    3.30
   2   9  15   13.30    3.30
  -2   9 -15   10.50    2.80
   2   9  15   10.90    3.30
  -3  -9 -15    7.80    5.10
  -3  -9 -15    2.30    3.70
  -3   9 -15   -1.20    3.00
   3   9  15   -0.60    3.50
   3   9  15   -0.70    2.60
   3 -10 -15   39.70    5.70
   3 -10 -15   33.50    4.70
  -3  10  15   37.20    4.60
   2 -10 -15   20.90    4.70
   2 -10 -15   25.40    5.00
  -2  10  15   12.80    4.10
   1 -10 -15   -3.00    2.40
   1 -10 -15    0.60    3.80
  -1  10  15   -1.00    3.30
  -1  10  15    0.70    3.30
   0 -10 -15    5.10    4.20
   0 -10 -15    2.10    3.00
   0  10  15    0.00    2.50
   0  10 -15    0.70    2.20
   0  10  15   -0.30    3.30
  -1 -10 -15   -0.70    4.40
  -1 -10 -15   -6.50    3.90
   1  10  15    3.40    3.40
  -1  10 -15    2.30    2.90
   1  10  15    4.90    3.70
  10   0 -16    1.50    2.50
  10   0 -16    1.20    4.10
   9   0 -16    1.20    3.20
   9   0 -16    3.90    3.80
   8   0 -16    1.40    3.40
   8   0 -16    1.70    3.20
   7   0 -16   36.40    4.70
   7   0 -16   37.60    5.10
   6   0 -16   58.19    5.40
   6   0 -16   49.50    5.60
   5   0 -16   14.00    3.70
   5   0 -16   13.90    4.00
  -4   0  16    5.90    2.90
   4   0 -16    4.00    3.20
   4   0 -16    5.00    3.40
  -3   0  16   28.80    3.50
   3   0 -16   33.40    4.80
   3   0 -16   41.40    4.70
   2   0 -16   22.00    4.30
  -2   0  16   20.00    3.40
   2   0 -16   18.30    3.30
   1   0 -16   20.10    3.60
   1   0 -16   17.30    3.90
  -1   0  16   27.10    3.80
   0   0 -16   82.89    6.30
   0   0  16   79.19    5.30
   0   0 -16   90.09    5.80
   1   0  16    8.40    2.90
  -1   0 -16   14.00    3.70
  -1   0 -16   12.70    3.80
  -2   0 -16    5.10    2.70
  -2   0 -16    5.80    2.70
   2   0  16    3.10    2.70
  -3   0 -16   20.60    4.40
   3   0  16   18.30    3.10
   4   0  16  349.07   11.10
  -4   0 -16  326.07   13.00
  -4   0 -16  359.56   12.50
   5   0  16  100.09    6.20
  -5   0 -16   77.49    5.80
  -5   0 -16   89.39    6.00
   5   0  16   91.99    6.20
   6   0  16   14.70    3.50
  -6   0 -16   16.70    3.70
  -7   0 -16    7.70    2.90
   7   0  16    5.20    3.20
  10  -1 -16   13.90    3.40
  10  -1 -16   18.00    4.60
  10   1 -16   15.60    4.00
   9  -1 -16   -6.30    3.00
   9  -1 -16    3.00    2.60
   9   1 -16   -1.80    3.40
   9   1 -16   -0.10    2.20
   8  -1 -16   -3.70    3.20
   8  -1 -16   -2.00    3.20
   8   1 -16   -1.20    3.30
   8   1 -16    4.40    3.30
   7  -1 -16   20.60    3.70
   7  -1 -16   25.30    4.40
   7   1 -16   21.90    4.00
   7   1 -16   17.60    3.50
   6  -1 -16   24.30    4.00
   6  -1 -16   18.10    4.00
   6   1 -16   24.10    3.80
   6   1 -16   21.60    3.80
   5  -1 -16    9.50    3.60
   5  -1 -16    6.20    2.90
  -5   1  16    7.90    3.30
   5   1 -16    8.60    3.00
   5   1 -16    8.70    3.20
  -4  -1  16   39.10    4.20
   4  -1 -16   40.80    4.60
   4  -1 -16   34.90    4.70
   4   1 -16   43.70    4.60
  -4   1  16   51.49    4.80
   4   1 -16   38.50    4.50
   3  -1 -16    6.60    2.90
   3  -1 -16    6.30    2.80
  -3  -1  16   10.20    2.50
   3   1 -16    1.70    2.90
  -3   1  16    0.30    2.70
   3   1 -16    3.40    2.60
   2  -1 -16   30.40    4.40
   2  -1 -16   26.10    4.00
  -2  -1  16   25.80    3.50
  -2   1  16   22.20    3.70
   2   1 -16   25.10    3.40
   2   1 -16   27.50    4.40
  -1  -1  16   74.39    5.00
   1  -1 -16   76.29    6.10
   1  -1 -16   70.49    5.40
   1   1 -16   68.79    5.90
   1   1 -16   79.79    5.70
  -1   1  16   71.89    4.80
   0  -1  16    0.90    2.30
   0  -1 -16    5.00    3.40
   0  -1 -16    0.70    3.20
   0   1 -16   -2.90    2.80
   0   1 -16    1.40    2.30
   0   1  16    0.60    2.60
   1  -1  16   22.40    3.00
  -1  -1 -16   23.30    3.80
  -1  -1 -16   21.30    3.70
   1   1  16   30.70    3.50
  -1   1 -16   21.10    3.90
  -1   1 -16   27.10    3.90
  -2  -1 -16    7.10    3.70
   2  -1  16    4.60    2.60
  -2  -1 -16    5.70    3.80
   2   1  16    7.40    3.00
  -2   1 -16   10.60    3.40
  -2   1 -16    5.70    3.40
   3  -1  16   51.99    4.60
  -3  -1 -16   47.20    5.00
   3   1  16   43.10    4.60
  -3   1 -16   48.10    5.20
   3   1  16   42.50    4.40
   4  -1  16  108.59    6.20
  -4  -1 -16  109.59    7.50
   4   1  16  108.59    6.80
  -4   1 -16  105.09    6.00
   4   1  16  107.69    5.90
  -4   1 -16  101.69    6.20
  -5  -1 -16   41.90    5.50
   5  -1  16   48.40    5.50
   5   1  16   43.10    5.00
  -5   1 -16   47.00    4.80
   5   1  16   42.00    4.70
  -6  -1 -16   -0.40    3.00
  -6  -1 -16    5.00    3.70
  -6   1 -16   -1.40    2.80
   6   1  16    1.20    2.30
   6   1  16   -1.20    2.90
  -7  -1 -16   11.40    3.60
  -7   1 -16    5.70    2.60
   7   1  16   11.80    3.70
  10  -2 -16    6.90    3.90
   9  -2 -16    4.20    3.60
   9  -2 -16   -1.00    3.40
   9   2 -16   -2.10    3.30
   9   2 -16    2.50    2.70
   8  -2 -16   -0.10    2.40
   8  -2 -16    0.40    3.40
   8   2 -16    1.70    2.60
   8   2 -16   -1.90    2.00
   7  -2 -16   -3.80    2.20
   7  -2 -16   11.10    4.00
   7   2 -16    3.90    3.10
   7   2 -16    6.40    2.90
   6  -2 -16    0.30    2.40
   6  -2 -16    6.30    2.80
   6   2 -16    3.70    2.80
   6   2 -16    1.40    3.40
   5  -2 -16   32.00    4.90
   5  -2 -16   22.30    3.80
   5   2 -16   18.70    3.60
   5   2 -16   17.80    4.00
  -5   2  16   18.70    3.90
   4  -2 -16    2.70    2.60
   4  -2 -16    7.00    2.90
   4   2 -16    5.50    2.80
   4   2 -16    2.70    3.20
  -4   2  16    8.60    3.20
   3  -2 -16    1.00    2.50
   3  -2 -16   -1.40    3.30
   3   2 -16    2.00    2.00
   3   2 -16    3.00    2.50
  -3   2  16    5.80    3.10
   2  -2 -16    9.90    3.10
   2  -2 -16   12.20    3.20
   2   2 -16   14.50    3.10
  -2   2  16   14.60    3.00
   1  -2 -16    0.60    2.40
   1  -2 -16    4.50    3.50
  -1   2  16    4.00    2.90
   1   2 -16    3.80    3.20
   0  -2 -16   25.10    3.80
   0  -2 -16   27.80    4.10
   0   2 -16   23.30    4.10
   0   2  16   17.90    3.10
  -1  -2 -16    0.70    3.40
  -1  -2 -16    0.50    3.40
  -1   2 -16   -1.40    2.80
   1   2  16    2.80    2.20
  -2  -2 -16    7.30    3.10
  -2  -2 -16   12.00    4.10
   2   2  16   13.00    3.00
  -2   2 -16    8.60    3.40
   2   2  16   10.30    3.20
  -3  -2 -16   40.30    5.30
  -3   2 -16   34.40    4.50
   3   2  16   45.30    4.80
   3   2  16   39.00    4.80
  -4  -2 -16    3.60    3.70
   4   2  16   -0.30    2.80
  -4   2 -16    1.10    2.70
   4   2  16   -0.90    2.00
  -5  -2 -16   13.50    4.20
  -5  -2 -16    9.20    3.30
  -5   2 -16    6.00    2.40
   5   2  16   10.00    3.50
   5   2  16    8.60    3.40
  -6  -2 -16   -6.60    2.60
  -6  -2 -16    6.60    4.00
  -6   2 -16    0.30    2.90
   6   2  16   -3.40    2.80
   6   2  16   -0.70    2.20
  -7  -2 -16   -1.00    3.20
  -7  -2 -16   -0.10    3.80
  -7   2 -16   -1.40    2.20
   7   2  16   -2.70    2.10
   7   2  16   -5.00    2.80
   9  -3 -16    4.80    4.00
   9  -3 -16   -0.60    3.30
   9   3 -16    1.20    2.70
   8  -3 -16   -1.00    3.50
   8  -3 -16    1.00    3.40
   8   3 -16    4.70    3.70
   7  -3 -16    1.80    2.80
   7  -3 -16    2.50    2.60
   7   3 -16    2.00    3.40
   6  -3 -16    3.70    3.70
   6  -3 -16   -2.20    2.30
   6   3 -16   -0.60    2.40
   5  -3 -16    1.80    2.70
   5  -3 -16   -2.20    2.20
  -5   3  16   -2.30    2.90
   5   3 -16   -0.30    2.40
   4  -3 -16   52.69    5.60
   4  -3 -16   35.10    5.10
   4   3 -16   38.80    4.80
  -4   3  16   40.50    4.40
   3  -3 -16   55.89    5.90
   3  -3 -16   55.19    5.90
   3   3 -16   62.19    5.30
  -3   3  16   48.70    5.00
   2  -3 -16   13.80    4.10
   2  -3 -16    6.40    3.70
   2   3 -16    3.70    2.50
  -2   3  16   13.30    2.90
   1  -3 -16   30.80    4.80
   1  -3 -16   31.80    4.90
   1   3 -16   33.20    4.50
  -1   3  16   33.10    4.30
   0  -3 -16   19.50    3.70
   0  -3 -16   18.00    3.60
   0   3  16   20.50    3.20
   0   3 -16   13.40    2.90
  -1  -3 -16  105.39    7.40
  -1  -3 -16   88.79    7.10
   1   3  16   87.89    5.70
   1   3  16   91.49    5.50
  -1   3 -16   85.79    6.00
  -2  -3 -16   29.20    5.00
  -2  -3 -16   18.10    3.80
   2   3  16   34.60    4.20
  -2   3 -16   20.50    3.30
   2   3  16   24.70    3.60
  -3  -3 -16   17.30    4.50
   3   3  16   18.30    3.30
   3   3  16   24.50    4.30
  -3   3 -16   21.70    3.00
  -4  -3 -16   24.50    4.30
   4   3  16   22.90    4.10
  -4   3 -16   24.60    3.80
   4   3  16   22.40    3.80
  -5  -3 -16    2.50    2.90
   5   3  16    3.20    3.20
  -5   3 -16    2.60    2.30
   5   3  16   -2.50    2.10
  -6  -3 -16    1.30    3.90
  -6  -3 -16   10.90    3.60
   6   3  16    9.60    3.70
   6   3  16   11.30    3.70
  -6   3 -16    9.10    3.50
  -7  -3 -16    2.90    3.20
  -7  -3 -16    4.80    4.20
  -7   3 -16   -0.10    2.30
   7   3  16   -1.80    3.00
   7   3  16   -2.10    3.40
   9  -4 -16    1.60    2.60
   8  -4 -16    4.20    3.10
   8  -4 -16    5.40    3.60
   8   4 -16    2.90    2.90
   7  -4 -16   -0.40    3.20
   7  -4 -16   -2.00    3.70
   7   4 -16    0.20    3.20
   6  -4 -16    0.40    2.40
   6  -4 -16    7.40    4.00
   6   4 -16    3.80    3.40
   5  -4 -16   17.50    3.50
   5  -4 -16   20.10    3.90
  -5   4  16   28.80    4.00
   5   4 -16   21.70    3.70
   4  -4 -16   -1.20    3.10
   4  -4 -16    2.60    3.80
  -4   4  16    1.10    3.10
   4   4 -16   -5.40    2.80
   3  -4 -16    5.10    3.60
   3  -4 -16    5.70    3.10
  -3   4  16    7.40    2.80
   3   4 -16    5.20    2.50
   2  -4 -16    4.70    3.60
   2  -4 -16    3.60    3.90
   2   4 -16   -2.60    2.70
  -2   4  16    1.90    2.10
   1  -4 -16   51.59    5.80
   1  -4 -16   43.60    5.70
   1   4 -16   25.90    4.10
  -1   4  16   40.20    4.60
   0  -4 -16   67.39    6.10
   0  -4 -16   66.69    6.10
   0   4  16   83.69    5.40
   0   4 -16   73.79    5.60
  -1  -4 -16   10.80    3.40
  -1  -4 -16    6.00    3.80
   1   4  16    7.20    2.70
  -1   4 -16    5.40    3.00
   1   4  16    6.00    2.70
  -2  -4 -16   54.29    5.70
  -2  -4 -16   55.39    5.70
   2   4  16   47.00    4.90
   2   4  16   49.70    4.90
  -3  -4 -16   -0.20    3.90
  -3   4 -16    8.20    2.90
   3   4  16    3.10    3.40
   3   4  16    9.40    3.50
  -4  -4 -16   25.60    5.10
   4   4  16   22.10    4.20
  -4   4 -16   24.30    3.50
   4   4  16   21.40    4.30
  -5  -4 -16   16.20    4.70
  -5   4 -16   12.30    3.00
   5   4  16   13.40    3.90
   5   4  16   10.00    2.90
  -6  -4 -16    5.00    2.70
  -6  -4 -16   10.40    4.50
   6   4  16    8.50    3.70
   6   4  16    3.30    3.40
  -6   4 -16    2.90    3.00
  -7  -4 -16   -0.10    4.10
  -7  -4 -16   -5.30    2.90
   7   4  16    2.60    3.50
  -7   4 -16   -0.90    3.60
   9  -5 -16    5.20    3.70
   8  -5 -16   -2.10    3.80
   8  -5 -16    2.70    2.60
   8   5 -16    5.80    3.90
   7  -5 -16   -4.30    3.20
   7  -5 -16    6.00    4.20
   7   5 -16    4.40    2.80
   6  -5 -16   32.40    4.90
   6  -5 -16   27.80    4.60
   6   5 -16   29.60    4.70
  -6   5  16   29.80    4.30
   5  -5 -16    4.90    2.90
   5  -5 -16   10.40    4.20
  -5   5  16    1.10    2.50
   5   5 -16    1.50    2.40
   4  -5 -16    7.50    3.10
   4  -5 -16   10.30    4.40
   4   5 -16   12.30    3.60
  -4   5  16    9.90    3.70
   3  -5 -16    9.30    3.90
   3  -5 -16    7.00    3.30
   3   5 -16    5.20    2.50
  -3   5  16    9.50    2.90
   2  -5 -16    6.40    4.00
   2  -5 -16   16.80    4.30
  -2   5  16    4.40    2.60
   2   5 -16    8.40    3.40
   1  -5 -16    1.10    2.70
   1  -5 -16   -0.50    3.90
   1   5 -16    2.50    2.10
  -1   5  16    0.30    3.10
   0  -5 -16    9.20    3.30
   0  -5 -16   16.50    4.80
   0   5 -16    4.20    3.10
   0   5  16    2.70    2.60
   0   5  16   10.20    3.40
  -1  -5 -16   18.90    4.90
  -1  -5 -16   18.60    4.50
   1   5  16   16.70    4.20
   1   5  16   22.30    4.10
  -2  -5 -16    6.80    3.20
  -2  -5 -16   11.40    4.60
   2   5  16    2.40    2.50
   2   5  16    3.20    3.20
  -2   5 -16    4.00    3.20
  -3  -5 -16   -1.50    3.70
   3   5  16   -3.80    2.80
   3   5  16    3.00    3.40
  -3   5 -16    0.50    2.50
  -4  -5 -16    1.10    4.10
  -4   5 -16    4.30    2.30
   4   5  16    2.60    3.20
   4   5  16    1.10    2.40
  -5  -5 -16   -1.00    4.00
   5   5  16   -4.20    3.10
   5   5  16   -0.60    3.10
  -5   5 -16   -0.80    2.00
  -6  -5 -16   12.90    5.00
   6   5  16    3.90    3.70
  -6   5 -16    1.30    3.00
   8  -6 -16    3.60    3.60
   8   6 -16   -0.10    2.90
   7  -6 -16    1.50    2.60
   7  -6 -16   10.30    4.50
   7   6 -16   13.30    4.10
   6  -6 -16   -0.90    3.50
   6  -6 -16    9.20    3.60
   6   6 -16    2.60    3.30
  -6   6  16    0.10    2.40
   5  -6 -16   28.50    4.90
   5  -6 -16   29.50    4.60
  -5   6  16   27.70    4.10
   5   6 -16   24.80    3.90
   4  -6 -16   60.89    5.70
   4  -6 -16   63.99    6.60
   4   6 -16   55.39    5.60
  -4   6  16   67.19    6.20
   3  -6 -16   20.50    4.00
   3  -6 -16    6.40    4.20
  -3   6  16   12.60    3.80
   3   6 -16   13.40    3.60
   2  -6 -16   11.60    3.50
   2  -6 -16    9.60    3.40
  -2   6  16    9.00    2.80
   2   6 -16   13.20    3.00
   1  -6 -16   10.20    4.30
   1  -6 -16    8.40    3.30
  -1   6  16    1.50    2.40
   0  -6 -16   74.79    7.20
   0  -6 -16   76.29    7.00
   0   6  16   73.09    6.20
   0   6  16   67.59    6.20
  -1  -6 -16   19.70    4.90
  -1  -6 -16   19.10    4.20
   1   6  16   11.00    3.70
   1   6  16   12.90    3.30
  -2  -6 -16   37.70    5.80
  -2  -6 -16   54.49    6.40
  -2   6 -16   38.50    4.20
   2   6  16   34.90    5.00
   2   6  16   37.90    4.40
  -3  -6 -16   17.50    4.10
  -3  -6 -16   16.40    4.20
   3   6  16   25.20    4.00
  -3   6 -16   10.60    3.30
   3   6  16   18.30    3.40
  -4  -6 -16    0.90    3.10
   4   6  16   -2.10    3.20
  -4   6 -16    3.20    2.40
   4   6  16    3.20    2.80
  -5  -6 -16   11.00    4.00
   5   6  16   14.40    3.60
  -5   6 -16   12.10    3.00
   5   6  16   14.40    3.50
   7  -7 -16   -0.80    3.30
   7   7 -16   -0.20    3.50
   6  -7 -16    9.60    3.20
   6  -7 -16    8.70    4.40
   6   7 -16    7.20    2.80
   5  -7 -16   -3.80    3.20
   5  -7 -16    3.20    3.20
  -5   7  16    4.60    2.80
   5   7 -16    5.00    2.80
   4  -7 -16    4.40    3.80
   4  -7 -16    4.30    4.20
   4   7 -16    6.20    3.30
  -4   7  16    6.30    3.70
   3  -7 -16   99.89    7.90
   3  -7 -16   82.09    7.20
   3   7 -16   72.89    5.90
  -3   7  16   85.89    7.00
   2  -7 -16   -1.60    3.60
   2  -7 -16   -2.30    3.60
  -2   7  16    5.10    3.50
   1  -7 -16   -2.30    2.60
   1  -7 -16    0.30    3.80
  -1   7  16   -2.30    2.20
   0  -7 -16   18.70    4.10
   0  -7 -16    9.00    3.60
   0   7  16    7.70    3.00
   0   7  16   15.20    3.40
  -1  -7 -16   41.40    5.30
  -1  -7 -16   46.60    6.00
   1   7  16   27.80    4.20
   1   7  16   38.40    4.90
  -2  -7 -16    3.80    3.20
  -2  -7 -16   -2.80    4.00
   2   7  16    8.70    3.60
   2   7  16    5.70    2.90
  -2   7 -16    9.60    3.30
  -3  -7 -16    7.70    4.30
  -3  -7 -16   -0.70    4.10
  -3   7 -16    4.30    3.00
   3   7  16    5.90    3.60
   3   7  16   -2.60    3.30
  -4  -7 -16    4.40    4.50
   4   7  16    3.60    3.70
   4   7  16    3.70    4.30
  -4   7 -16    3.70    2.40
  -5   7 -16    2.30    2.80
   6   8 -16    0.10    2.40
   5  -8 -16   20.30    5.70
   5  -8 -16   13.80    4.30
  -5   8  16    9.90    4.10
   5   8 -16    5.40    2.60
   4  -8 -16   22.80    4.00
   4  -8 -16   19.60    4.20
   4   8 -16   19.50    5.00
  -4   8  16   16.90    3.70
   3  -8 -16    1.70    3.00
   3  -8 -16    1.50    2.70
  -3   8  16    0.60    2.60
   2  -8 -16    3.30    3.00
   2  -8 -16    3.00    4.00
  -2   8  16   -1.00    2.50
   1  -8 -16    7.00    4.30
   1  -8 -16   -1.70    2.70
  -1   8  16    7.90    3.10
  -1   8  16    7.00    3.70
   0  -8 -16    0.00    3.90
   0  -8 -16   11.30    4.50
   0   8  16   -1.10    3.40
   0   8  16   -1.20    3.10
  -1  -8 -16    3.20    3.20
  -1  -8 -16   -1.50    2.80
   1   8  16    1.90    2.50
   1   8  16   -2.50    2.40
  -2  -8 -16    0.10    2.90
  -2  -8 -16   -3.80    4.00
  -2   8 -16    0.90    3.00
   2   8  16    1.20    2.70
   2   8  16   -1.70    3.50
  -3   8 -16   -1.40    2.00
   4  -9 -16   26.50    4.30
   3  -9 -16    0.90    3.70
   2  -9 -16   22.90    5.80
   2  -9 -16   17.90    4.00
  -2   9  16   23.50    4.70
   1  -9 -16   55.69    7.50
   1  -9 -16   46.30    5.60
  -1   9  16   58.79    5.60
  -1   9  16   51.69    5.90
   0  -9 -16   -5.80    3.60
   0   9  16    2.20    2.70
   0   9  16    3.50    4.00
  -1   9 -16   29.30    3.80
   9   0 -17    3.00    3.50
   8   0 -17   -3.40    3.10
   8   0 -17   -3.60    3.30
   7   0 -17    1.50    2.40
   7   0 -17   -2.60    3.20
   6   0 -17   -0.40    3.20
   6   0 -17   -3.50    3.20
   5   0 -17    1.60    3.20
   5   0 -17    1.70    3.70
   4   0 -17   -1.50    2.40
  -4   0  17   -2.80    2.60
   4   0 -17   -1.00    3.10
  -3   0  17   -1.80    2.50
   3   0 -17   -3.20    2.10
   3   0 -17    0.60    3.10
   2   0 -17   -4.00    2.90
   2   0 -17   -1.80    2.30
  -2   0  17    6.70    2.90
   1   0 -17   -1.90    2.10
   1   0 -17    3.10    3.50
  -1   0  17    5.30    2.80
   0   0 -17    3.50    3.40
   0   0 -17   -0.40    2.40
   0   0  17    2.80    2.60
  -1   0 -17   -8.30    2.80
   1   0  17    0.80    2.70
  -1   0 -17    0.00    3.30
   2   0  17    0.80    2.70
  -2   0 -17   -1.20    2.40
  -2   0 -17   -2.90    3.10
   3   0  17    1.50    2.80
  -3   0 -17    2.90    3.30
  -3   0 -17   -4.60    3.20
  -4   0 -17    2.60    3.60
   4   0  17    6.70    3.10
   5   0  17    1.90    2.80
  -5   0 -17   -1.30    3.30
  -6   0 -17   -3.20    2.90
   6   0  17    1.90    3.10
   9  -1 -17   -4.40    3.20
   9   1 -17   -4.50    2.90
   8  -1 -17   68.19    6.30
   8  -1 -17   69.09    6.70
   8   1 -17   70.49    6.80
   7  -1 -17   49.60    5.70
   7  -1 -17   39.70    5.20
   7   1 -17   37.40    4.80
   7   1 -17   39.30    5.40
   6  -1 -17    7.00    3.00
   6  -1 -17    1.00    3.50
   6   1 -17    6.00    3.30
   6   1 -17   12.10    3.40
   5  -1 -17    3.90    3.60
   5  -1 -17   12.90    4.20
   5   1 -17    8.20    3.00
   5   1 -17   15.50    3.70
  -5   1  17    8.80    3.60
  -4  -1  17    6.70    2.90
   4  -1 -17   10.50    3.10
   4  -1 -17   13.10    4.20
  -4   1  17    7.30    2.60
   4   1 -17   14.40    3.40
   4   1 -17    5.70    3.10
  -3  -1  17   11.30    3.10
   3  -1 -17    0.30    3.50
   3  -1 -17    5.20    3.60
  -3   1  17    4.80    3.10
   3   1 -17   10.70    3.30
   3   1 -17   15.70    4.20
   2  -1 -17    0.30    2.50
  -2  -1  17   -1.90    2.50
   2  -1 -17    3.70    2.80
   2   1 -17    4.70    2.80
  -2   1  17    4.50    2.40
   2   1 -17    3.00    3.20
   1  -1 -17   10.60    3.90
  -1  -1  17   12.50    3.00
   1  -1 -17   10.40    3.30
   1   1 -17    8.30    2.90
   1   1 -17   14.80    3.70
  -1   1  17   17.70    3.60
   0  -1  17    2.40    2.90
   0  -1 -17    6.50    3.80
   0  -1 -17   -0.40    3.30
   0   1 -17    1.80    3.10
   0   1 -17    4.00    3.40
   0   1  17   -2.20    2.60
  -1  -1 -17    3.50    2.80
  -1  -1 -17    3.50    2.70
  -1   1 -17    0.20    2.40
   1   1  17    2.40    2.20
  -1   1 -17   -1.10    3.00
  -2  -1 -17   13.50    4.10
  -2  -1 -17    1.30    3.50
  -2   1 -17    8.30    3.60
   2   1  17    7.60    2.60
  -2   1 -17    8.10    3.60
  -3  -1 -17   27.40    4.20
  -3  -1 -17   30.70    4.50
   3   1  17   21.70    3.40
  -3   1 -17   22.90    4.40
  -3   1 -17   23.20    4.30
  -4  -1 -17    2.60    2.80
  -4   1 -17    7.30    3.50
   4   1  17    7.80    2.80
   4   1  17    6.40    3.20
  -5  -1 -17    0.70    2.70
   5   1  17    4.40    3.20
  -5   1 -17    2.40    2.80
   5   1  17    3.90    2.60
  -6  -1 -17   36.00    4.70
  -6  -1 -17   33.20    4.60
   6   1  17   33.80    4.60
  -6   1 -17   40.00    4.80
   6   1  17   32.60    4.70
   9  -2 -17   60.19    6.90
   8  -2 -17   -0.10    3.40
   8  -2 -17    0.80    3.40
   8   2 -17   -4.80    2.00
   7  -2 -17   44.00    5.50
   7  -2 -17   46.10    5.20
   7   2 -17   37.60    4.80
   6  -2 -17    8.70    3.20
   6  -2 -17    6.50    3.90
   6   2 -17   -0.20    3.50
   5  -2 -17   55.19    5.60
   5  -2 -17   64.39    6.10
   5   2 -17   52.09    5.70
  -5   2  17   61.09    5.30
   4  -2 -17   25.60    4.20
   4  -2 -17   27.60    4.80
  -4   2  17   29.60    4.40
   4   2 -17   18.30    3.60
   3  -2 -17   -3.40    2.30
   3  -2 -17    0.70    3.50
  -3   2  17    0.50    2.30
   3   2 -17   -0.60    2.20
   2  -2 -17   -0.20    3.40
   2  -2 -17    3.70    3.60
  -2   2  17   -3.50    2.70
   2   2 -17   -5.20    3.00
   1  -2 -17    4.00    3.60
   1  -2 -17    0.50    3.30
   1   2 -17   -0.90    2.30
  -1   2  17   -0.30    2.70
   0  -2 -17   -1.20    2.50
   0  -2 -17    2.20    2.70
   0   2  17    3.80    2.30
   0   2 -17    6.90    3.40
  -1  -2 -17   10.20    4.10
  -1  -2 -17    8.90    4.20
   1   2  17   14.30    3.00
  -1   2 -17    6.40    2.70
  -2  -2 -17    1.00    3.70
  -2  -2 -17   -3.10    2.50
  -2   2 -17    2.40    3.30
   2   2  17    3.20    2.30
  -3  -2 -17   15.70    3.80
  -3  -2 -17   13.70    3.60
   3   2  17   16.60    3.40
   3   2  17   20.80    3.50
  -3   2 -17   22.40    4.10
  -4  -2 -17   35.80    5.50
   4   2  17   30.90    4.50
   4   2  17   34.20    4.70
  -5  -2 -17   19.00    4.70
  -5   2 -17   16.90    3.70
   5   2  17   19.50    4.20
   5   2  17   25.00    4.20
  -6  -2 -17   71.29    7.00
  -6   2 -17   68.79    5.90
   6   2  17   77.29    5.80
   6   2  17   83.59    6.60
   8  -3 -17    0.80    4.00
   8  -3 -17   -2.90    3.30
   8   3 -17    0.00    2.60
   7  -3 -17    2.70    3.50
   7  -3 -17    6.00    3.10
   7   3 -17   -2.20    3.40
   6  -3 -17    1.70    2.80
   6  -3 -17    3.00    4.10
   6   3 -17   -0.40    2.50
   5  -3 -17   23.20    4.70
   5  -3 -17   27.30    4.30
   5   3 -17   20.50    3.70
  -5   3  17   19.80    4.30
   4  -3 -17   -0.20    2.40
   4  -3 -17    3.50    2.90
   4   3 -17   -4.00    3.10
  -4   3  17    1.70    2.30
   3  -3 -17   -1.60    2.30
   3  -3 -17    3.50    3.90
  -3   3  17   -3.10    2.90
   3   3 -17   -3.00    2.00
   2  -3 -17    2.50    3.60
   2  -3 -17    5.40    3.70
   2   3 -17   -0.10    3.20
  -2   3  17   -2.70    2.90
   1  -3 -17   -3.30    2.40
   1  -3 -17    1.00    3.60
  -1   3  17   -3.40    1.90
   1   3 -17   -3.60    2.00
   0  -3 -17    5.70    3.10
   0  -3 -17   12.90    4.30
   0   3 -17    6.70    3.30
   0   3  17    5.10    2.50
  -1  -3 -17   -1.70    3.60
  -1  -3 -17    8.20    3.90
   1   3  17   -0.70    2.10
  -1   3 -17   -4.10    1.80
  -2  -3 -17   -2.00    3.70
  -2  -3 -17    1.90    2.80
   2   3  17    4.50    2.60
  -2   3 -17   -3.50    3.00
   2   3  17    1.40    2.30
  -3  -3 -17    2.50    3.10
  -3  -3 -17    2.40    3.90
   3   3  17    4.00    2.50
   3   3  17    5.10    3.50
  -4  -3 -17   14.00    4.70
  -4   3 -17   19.40    4.40
   4   3  17   12.80    3.90
   4   3  17   15.40    4.00
  -5  -3 -17    5.60    4.30
   5   3  17    5.60    2.70
  -5   3 -17   -2.00    2.80
   5   3  17   -1.10    3.10
  -6  -3 -17    2.70    4.10
   6   3  17   -7.10    4.40
   6   3  17    5.80    3.50
  -6   3 -17   -0.10    3.00
   8  -4 -17    6.70    4.00
   7  -4 -17   32.30    5.40
   7  -4 -17   53.19    6.30
   7   4 -17   31.10    4.40
   6  -4 -17   11.80    4.40
   6  -4 -17    4.90    3.80
   6   4 -17   10.70    4.10
   5  -4 -17   38.00    5.00
   5  -4 -17   31.40    4.50
  -5   4  17   34.00    4.50
   5   4 -17   33.10    4.40
   4  -4 -17   42.70    5.80
   4  -4 -17   40.90    4.90
  -4   4  17   41.30    4.70
   4   4 -17   49.99    5.60
   3  -4 -17    1.20    2.60
   3  -4 -17    0.60    4.00
  -3   4  17    2.20    3.30
   3   4 -17   -2.40    2.10
   2  -4 -17    1.80    3.90
   2  -4 -17   -2.10    3.40
   2   4 -17   -4.50    2.80
  -2   4  17    1.70    3.00
   1  -4 -17   -4.60    2.50
   1  -4 -17   -2.00    3.60
  -1   4  17    3.70    2.50
   1   4 -17   -2.30    2.00
   0  -4 -17    0.00    2.80
   0  -4 -17    1.80    3.00
   0   4 -17   -0.30    2.90
   0   4  17    2.30    2.40
  -1  -4 -17    2.80    3.90
  -1  -4 -17   -0.80    2.90
   1   4  17    3.30    2.50
  -2  -4 -17    0.40    2.80
  -2  -4 -17    3.10    3.20
   2   4  17    3.80    2.70
   2   4  17    2.40    2.50
  -3  -4 -17   16.30    4.90
  -3  -4 -17   18.30    4.80
   3   4  17   14.70    4.10
   3   4  17   14.50    3.90
  -4  -4 -17    3.00    4.30
  -4   4 -17    9.50    3.30
   4   4  17    5.10    3.70
   4   4  17   10.30    3.60
  -5  -4 -17   32.10    5.70
   5   4  17   33.10    5.00
   5   4  17   29.50    4.70
  -5   4 -17   33.30    4.60
   7  -5 -17    3.60    3.70
   7  -5 -17    9.20    5.40
   7   5 -17    0.40    3.60
   6  -5 -17   11.90    4.20
   6  -5 -17   21.60    5.10
   6   5 -17   11.20    4.00
   5  -5 -17   40.30    5.50
   5  -5 -17   41.80    5.30
  -5   5  17   25.50    4.10
   5   5 -17   33.00    4.90
   4  -5 -17   13.80    4.70
   4  -5 -17    2.70    3.90
   4   5 -17   11.70    3.70
  -4   5  17    6.70    3.50
   3  -5 -17   53.39    6.10
   3  -5 -17   42.60    6.00
  -3   5  17   49.10    5.40
   3   5 -17   42.80    4.70
   2  -5 -17    3.70    3.70
   2  -5 -17   -0.10    3.80
   2   5 -17   -0.90    3.00
  -2   5  17    0.30    3.10
   1  -5 -17    1.10    2.80
   1  -5 -17   -2.90    2.70
  -1   5  17    0.00    2.30
   1   5 -17    0.40    2.80
   0  -5 -17    3.70    3.30
   0  -5 -17   -4.10    2.40
   0   5  17    0.80    2.40
  -1  -5 -17    5.10    3.30
  -1  -5 -17   -2.10    3.80
   1   5  17   -1.20    3.20
   1   5  17    2.30    2.50
  -2  -5 -17   23.80    5.40
  -2  -5 -17   14.10    3.80
   2   5  17   16.30    3.50
   2   5  17   14.20    4.00
  -3  -5 -17   -3.50    4.20
  -3  -5 -17   -0.60    2.90
   3   5  17   -1.50    2.30
   3   5  17   -0.90    3.10
  -4  -5 -17   17.10    4.20
  -4   5 -17   11.20    3.40
   4   5  17   18.10    3.70
   4   5  17    8.60    3.10
  -5   5 -17    9.60    3.50
   7  -6 -17   -1.90    2.50
   6  -6 -17   11.50    4.30
   6  -6 -17    0.60    2.60
   6   6 -17    5.50    2.70
   5  -6 -17   -0.30    3.00
   5  -6 -17    1.80    2.70
  -5   6  17    1.90    2.60
   5   6 -17    4.00    3.50
   4  -6 -17   11.00    4.20
   4  -6 -17   -3.30    3.80
  -4   6  17   -3.00    2.20
   4   6 -17    3.00    3.30
   3  -6 -17    0.30    3.60
   3  -6 -17   -1.90    4.20
   3   6 -17   -1.30    2.10
  -3   6  17   -0.60    3.20
   2  -6 -17    5.50    3.20
   2  -6 -17    4.50    4.40
   2   6 -17   -1.00    2.90
  -2   6  17   -1.00    3.20
   1  -6 -17   14.20    3.70
   1  -6 -17   10.90    4.60
  -1   6  17   12.60    3.90
   0  -6 -17   10.90    4.80
   0  -6 -17    8.10    4.30
   0   6  17   12.00    3.80
  -1  -6 -17    5.60    3.20
  -1  -6 -17    0.80    4.40
   1   6  17    4.10    2.70
   1   6  17    1.40    3.20
  -2  -6 -17   -2.70    4.00
  -2  -6 -17   -5.40    4.00
   2   6  17   -1.20    3.40
   2   6  17    2.30    3.20
  -3  -6 -17    5.60    3.80
  -3  -6 -17    0.40    4.10
   3   6  17   -1.00    3.40
  -3   6 -17   -2.00    3.00
   3   6  17    2.10    2.60
  -4   6 -17   -1.50    2.90
   5  -7 -17   13.90    4.50
   5   7 -17    6.40    3.60
   4  -7 -17   -0.60    2.60
   4  -7 -17   -1.50    3.00
   4   7 -17    0.90    3.20
  -4   7  17   -3.00    2.40
   3  -7 -17   -2.50    2.40
   3  -7 -17   -2.20    2.80
  -3   7  17   -3.70    2.30
   2  -7 -17   15.10    4.70
   2  -7 -17   16.70    4.90
  -2   7  17   15.20    3.50
   1  -7 -17   17.70    4.90
   1  -7 -17   27.80    5.50
  -1   7  17   24.00    3.90
   0  -7 -17    7.10    3.50
   0  -7 -17    5.70    3.50
   0   7  17    8.70    3.10
   0   7  17    9.30    3.30
  -1  -7 -17    5.80    3.40
  -1  -7 -17    6.40    4.40
   1   7  17   -1.00    2.40
   1   7  17    4.00    3.70
  -2  -7 -17    8.90    4.20
   2   7  17   13.70    4.10
  -3   7 -17    3.30    3.20
   4  -8 -17   29.90    4.60
   3  -8 -17   -3.80    2.50
   2  -8 -17   29.80    4.60
   1  -8 -17    2.30    3.10
   8   0 -18    6.40    3.80
   7   0 -18   -3.90    2.80
   7   0 -18   -6.70    3.10
   6   0 -18   63.49    6.00
   6   0 -18   57.19    6.20
   5   0 -18   94.19    6.60
   4   0 -18  196.18    8.50
  -4   0  18  175.78    8.40
   4   0 -18  195.88    9.10
   3   0 -18   21.70    4.20
   3   0 -18   16.40    4.50
  -3   0  18   22.30    4.00
  -2   0  18  161.28    7.70
   2   0 -18  154.98    8.00
   2   0 -18  146.89    8.20
   1   0 -18   29.90    4.30
   1   0 -18   23.20    4.30
  -1   0  18   19.80    3.30
   0   0 -18   12.00    4.10
   0   0  18   16.70    3.60
   0   0 -18   17.30    4.50
  -1   0 -18   54.49    5.90
   1   0  18   51.59    5.00
  -1   0 -18   49.60    5.80
  -2   0 -18   25.70    4.20
   2   0  18   28.00    4.10
  -2   0 -18   33.80    5.10
   3   0  18   36.60    4.60
  -3   0 -18   28.40    5.00
   4   0  18    7.30    3.30
  -4   0 -18   -0.30    3.50
   8  -1 -18    5.10    4.00
   8   1 -18   19.30    4.60
   7  -1 -18   40.90    5.80
   7  -1 -18   30.00    5.00
   7   1 -18   24.70    4.20
   7   1 -18   32.30    4.90
   6  -1 -18    4.50    4.00
   6  -1 -18    7.90    3.10
   6   1 -18    8.30    3.50
   6   1 -18    7.70    3.00
   5  -1 -18   10.50    4.10
   5  -1 -18   13.30    4.10
  -5   1  18    4.90    3.40
   5   1 -18   11.40    4.20
   5   1 -18    8.50    3.60
   4  -1 -18    0.20    2.70
   4  -1 -18   -1.90    3.40
  -4   1  18   -2.10    3.00
   4   1 -18    0.40    2.30
   4   1 -18    2.70    3.90
   3  -1 -18   35.20    4.60
   3  -1 -18   36.80    4.90
  -3   1  18   42.60    4.40
   3   1 -18   30.30    4.60
   3   1 -18   29.90    4.40
   2  -1 -18   26.50    5.10
   2  -1 -18   37.80    5.20
   2   1 -18   34.00    5.00
  -2   1  18   39.20    4.70
   1  -1 -18    1.70    3.50
   1  -1 -18    3.90    3.00
   1   1 -18   -0.50    4.80
  -1   1  18    8.50    3.30
   1   1 -18    7.70    3.80
   0  -1 -18    6.20    3.10
   0  -1 -18    6.60    3.10
   0   1  18    7.60    3.10
   0   1 -18   -0.70    3.40
  -1  -1 -18    3.20    2.80
  -1  -1 -18    0.80    2.60
  -1   1 -18   -1.00    2.50
   1   1  18    0.70    2.10
  -2  -1 -18   11.20    3.50
  -2  -1 -18   10.50    4.40
   2   1  18   10.30    2.80
  -2   1 -18   15.90    4.20
  -3  -1 -18   11.40    4.30
  -3  -1 -18    5.70    3.10
  -3   1 -18    3.40    3.50
   3   1  18    1.50    3.00
  -4  -1 -18   10.90    3.50
   4   1  18    7.80    3.40
  -5  -1 -18    4.70    4.00
   5   1  18    2.70    2.50
   7  -2 -18   13.50    4.30
   7  -2 -18   12.00    4.50
   7   2 -18   12.30    3.60
   6  -2 -18   78.89    7.10
   6  -2 -18   64.29    6.50
   6   2 -18   63.49    6.50
   5  -2 -18   44.80    5.20
   5  -2 -18   40.60    5.70
  -5   2  18   36.30    4.50
   5   2 -18   40.40    5.50
   4  -2 -18   11.40    4.30
   4  -2 -18   15.00    4.30
  -4   2  18   10.70    3.00
   4   2 -18   18.70    3.80
   3  -2 -18    2.40    3.70
   3  -2 -18   -2.80    2.50
   3   2 -18    2.00    3.60
  -3   2  18    2.20    3.20
   2  -2 -18   -5.70    2.40
   2  -2 -18    1.10    2.70
   2   2 -18   -0.60    2.40
  -2   2  18   -1.40    3.00
   1  -2 -18   -3.30    3.50
   1  -2 -18   -0.60    2.70
   1   2 -18   -1.20    3.20
  -1   2  18   -0.50    2.10
   0  -2 -18   15.40    3.70
   0  -2 -18   25.20    5.00
   0   2 -18   19.40    3.60
   0   2  18   21.30    3.90
  -1  -2 -18    3.70    4.00
  -1  -2 -18    1.90    3.80
  -1   2 -18   -1.10    3.20
   1   2  18   -3.60    2.60
  -2  -2 -18   -4.20    3.60
  -2  -2 -18    5.10    3.20
   2   2  18    1.00    2.30
  -2   2 -18    4.90    3.60
  -3  -2 -18    3.70    3.10
  -3  -2 -18    6.00    3.10
   3   2  18   -2.70    2.70
  -4  -2 -18    8.50    3.40
   4   2  18    8.20    3.60
   4   2  18    4.60    2.80
  -5  -2 -18    0.80    2.90
   5   2  18    7.90    2.80
   5   2  18    0.80    2.50
   7  -3 -18   26.00    4.50
   6  -3 -18   16.70    4.00
   6  -3 -18   21.10    4.90
   6   3 -18   19.80    3.90
   5  -3 -18   95.89    7.70
   5  -3 -18   86.19    7.40
  -5   3  18   76.19    6.70
   5   3 -18   92.09    7.30
   4  -3 -18   -0.40    3.70
   4  -3 -18    2.10    3.70
  -4   3  18    3.90    3.50
   4   3 -18    0.10    3.40
   3  -3 -18  119.49    7.40
   3  -3 -18  113.09    7.30
  -3   3  18  116.49    7.40
   3   3 -18  116.69    7.60
   2  -3 -18   18.90    4.10
   2  -3 -18   16.60    3.70
   2   3 -18   19.30    4.30
  -2   3  18   18.80    3.50
   1  -3 -18   40.80    5.80
   1  -3 -18   45.30    6.00
   1   3 -18   48.70    5.50
  -1   3  18   49.99    5.00
   0  -3 -18   77.59    7.20
   0  -3 -18   76.99    6.30
   0   3  18   86.39    6.50
   0   3 -18   74.69    5.60
  -1  -3 -18   11.90    4.40
  -1  -3 -18    6.00    4.30
  -1   3 -18   13.10    3.90
   1   3  18    6.50    3.50
  -2  -3 -18   19.50    5.00
  -2  -3 -18   19.30    4.10
   2   3  18   20.10    3.60
  -3  -3 -18    2.10    3.00
  -3  -3 -18   10.80    3.70
   3   3  18    1.90    3.20
   3   3  18    4.40    2.80
  -4  -3 -18    2.00    3.00
   4   3  18   -2.40    2.20
   4   3  18    1.20    3.30
   6  -4 -18   41.30    6.00
   6  -4 -18   13.80    4.50
   6   4 -18   28.10    5.20
   5  -4 -18   15.10    4.50
   5  -4 -18   16.40    5.00
  -5   4  18   16.10    4.20
   5   4 -18   21.70    3.90
   4  -4 -18   85.59    6.70
   4  -4 -18   79.79    6.40
  -4   4  18   79.59    6.80
   4   4 -18   87.39    7.10
   3  -4 -18    6.40    3.40
   3  -4 -18    5.50    3.10
   3   4 -18   10.00    3.00
  -3   4  18   12.70    3.30
   2  -4 -18   13.70    4.90
   2  -4 -18   23.40    4.20
  -2   4  18   21.20    3.80
   2   4 -18   28.90    4.60
   1  -4 -18   15.80    4.90
   1  -4 -18   27.50    5.30
   1   4 -18   26.10    4.40
  -1   4  18   22.90    3.80
   0  -4 -18    2.30    4.20
   0  -4 -18   -0.80    2.60
   0   4 -18   -3.40    2.00
   0   4  18   -1.80    3.10
  -1  -4 -18   69.69    7.10
  -1  -4 -18   53.29    6.70
   1   4  18   58.29    5.50
  -2  -4 -18    9.30    3.80
  -2  -4 -18    2.60    3.00
   2   4  18    4.50    2.70
   2   4  18   -1.70    2.30
  -3  -4 -18   25.80    4.60
  -3  -4 -18   28.60    5.90
   3   4  18   32.40    5.00
   3   4  18   29.40    4.40
   6   5 -18   -2.50    2.70
   5  -5 -18   33.60    6.70
   5  -5 -18   32.70    4.80
   5   5 -18   25.40    4.70
  -5   5  18   35.80    8.30
   4  -5 -18    5.70    3.30
   4  -5 -18   12.90    4.00
   4   5 -18    8.40    3.80
  -4   5  18   11.40    3.30
   3  -5 -18   39.80    5.40
   3  -5 -18   35.70    5.00
  -3   5  18   43.80    4.90
   3   5 -18   36.20    4.50
   2  -5 -18    4.30    4.10
   2  -5 -18    1.70    3.30
  -2   5  18    2.20    2.60
   2   5 -18    4.50    3.40
   1  -5 -18   -1.80    4.20
   1  -5 -18    1.90    4.00
   1   5 -18   -1.40    3.50
  -1   5  18    7.50    3.00
   0  -5 -18   -2.80    2.70
   0  -5 -18   -0.10    3.10
   0   5  18   -0.90    2.30
  -1  -5 -18   -0.80    4.00
  -1  -5 -18   -0.70    3.00
   1   5  18    1.80    2.40
  -2  -5 -18    4.70    4.50
  -2  -5 -18    2.30    4.50
   2   5  18   -3.20    2.90
   2   5  18   -5.80    3.30
   5   6 -18   13.60    4.10
   4  -6 -18   38.50    6.70
   4   6 -18   40.70    5.20
   3  -6 -18   -1.60    3.80
   3  -6 -18   -4.50    3.00
   3   6 -18   -1.40    2.10
  -3   6  18   -4.90    2.40
   2  -6 -18   21.70    4.50
   2  -6 -18   23.30    5.10
  -2   6  18   14.40    3.60
   1  -6 -18    8.30    3.60
   1  -6 -18    8.40    3.70
  -1   6  18    7.70    3.00
   0  -6 -18    2.10    4.60
   0  -6 -18   -1.10    3.10
   0   6  18   -1.90    2.20
   6   0 -19    1.60    2.60
   5   0 -19    2.10    3.60
   5   0 -19    4.00    3.10
   4   0 -19    6.70    4.20
   4   0 -19    6.20    3.70
  -4   0  19    3.00    3.30
  -3   0  19   -6.50    2.70
   3   0 -19   -0.90    3.30
   3   0 -19   -0.60    2.70
   2   0 -19   -1.60    3.30
  -2   0  19   -0.90    2.10
   2   0 -19    0.50    3.70
   1   0 -19    1.10    2.90
  -1   0  19    4.30    3.20
   1   0 -19   -6.60    3.20
   0   0  19    3.60    3.60
   0   0 -19    0.80    3.90
   0   0 -19    6.90    3.90
  -1   0 -19   -0.70    3.60
  -1   0 -19   -3.80    2.30
  -2   0 -19   -1.20    2.50
  -2   0 -19   -7.60    3.10
  -3   0 -19    1.90    4.00
  -3   0 -19   -1.70    3.60
   6  -1 -19   12.60    4.10
   5  -1 -19   -4.50    2.40
   5  -1 -19    3.60    3.00
  -5   1  19   -0.60    2.30
   5   1 -19    0.70    3.70
   4  -1 -19   19.70    4.70
   4  -1 -19   13.10    4.20
   4   1 -19   13.90    3.70
  -4   1  19   15.70    4.00
   3  -1 -19   -3.50    3.70
   3  -1 -19   -2.20    3.60
   3   1 -19    2.50    3.80
  -3   1  19   -0.90    3.10
   2  -1 -19   56.59    6.20
   2  -1 -19   66.39    6.30
  -2   1  19   64.19    5.80
   2   1 -19   61.79    5.90
   1  -1 -19   29.90    5.50
   1  -1 -19   36.10    4.70
  -1   1  19   35.30    4.60
   1   1 -19   40.20    5.50
   0  -1 -19   77.49    6.30
   0  -1 -19   74.29    6.40
   0   1 -19   66.39    6.10
   0   1  19   65.09    5.20
  -1  -1 -19   11.80    3.80
  -1  -1 -19   18.20    4.70
   1   1  19   11.20    3.00
  -1   1 -19    8.60    4.00
  -2  -1 -19   29.40    4.50
  -2  -1 -19   29.90    5.30
   2   1  19   31.10    4.50
  -2   1 -19   26.20    5.00
  -3  -1 -19   20.70    4.80
  -3  -1 -19   21.80    4.90
   3   1  19   21.80    4.30
  -3   1 -19   31.00    5.10
   6  -2 -19    1.90    4.10
   5  -2 -19   -3.80    2.90
   5  -2 -19   -0.50    3.80
  -5   2  19   -4.10    3.30
   5   2 -19    4.10    2.90
   4  -2 -19    5.70    3.20
   4  -2 -19    2.60    3.00
  -4   2  19   -0.80    3.30
   4   2 -19    7.10    4.10
   3  -2 -19   57.99    5.80
   3  -2 -19   52.59    6.40
   3   2 -19   59.59    5.90
  -3   2  19   53.59    5.20
   2  -2 -19    7.60    4.20
   2  -2 -19    1.50    3.10
  -2   2  19    3.20    2.70
   2   2 -19    2.00    3.70
   1  -2 -19  155.48    9.00
   1  -2 -19  147.49    9.10
  -1   2  19  144.09    8.00
   1   2 -19  137.59    7.70
   0  -2 -19   29.50    4.70
   0  -2 -19   40.50    5.70
   0   2 -19   41.90    5.50
   0   2  19   48.40    5.30
  -1  -2 -19   51.19    6.20
  -1  -2 -19   50.99    6.30
   1   2  19   49.20    5.40
  -1   2 -19   43.10    5.60
  -2  -2 -19   48.10    6.20
  -2  -2 -19   40.70    6.00
   2   2  19   49.30    5.00
  -2   2 -19   40.90    5.40
  -3  -2 -19    7.10    3.50
  -3  -2 -19   -2.10    4.00
   3   2  19    1.70    3.20
   5  -3 -19   -1.80    3.00
  -5   3  19    0.00    2.50
   5   3 -19   -5.60    4.00
   4  -3 -19    2.60    2.90
   4  -3 -19    2.90    4.20
  -4   3  19   -2.60    2.20
   4   3 -19    3.80    2.90
   3  -3 -19   -3.20    3.60
   3  -3 -19    3.60    4.10
  -3   3  19    2.20    3.50
   3   3 -19    7.90    4.00
   2  -3 -19    2.50    4.10
   2  -3 -19    1.20    3.10
   2   3 -19    6.10    2.90
  -2   3  19   -1.20    3.40
   1  -3 -19    4.00    4.10
   1  -3 -19    1.30    3.90
   1   3 -19    2.10    3.50
  -1   3  19    5.10    3.60
   0  -3 -19   11.60    4.70
   0  -3 -19    2.90    3.10
   0   3  19    3.90    3.40
   0   3 -19    4.40    3.70
  -1  -3 -19    6.90    4.40
  -1  -3 -19   -3.10    4.20
   1   3  19    1.60    3.30
  -2  -3 -19    1.20    4.20
  -2  -3 -19   -1.50    3.30
   2   3  19   -2.40    2.10
   4   4 -19    1.30    3.70
   3  -4 -19   14.80    5.00
   3   4 -19    5.30    3.80
  -3   4  19   10.00    4.10
   2  -4 -19    7.40    4.50
   2  -4 -19    0.60    3.20
   2   4 -19    1.00    2.40
  -2   4  19    9.20    4.00
   1  -4 -19   47.00    7.20
   1  -4 -19   60.49    6.80
  -1   4  19   41.20    5.40
   1   4 -19   48.60    5.50
   0  -4 -19    2.00    3.50
   0  -4 -19    1.10    4.40
   0   4  19    7.80    3.70
  -1  -4 -19   82.89    9.30
   1   4  19   91.09   10.90
   3   5 -19   -3.70    3.10
   2   5 -19   34.90    4.50
   3   0 -20    3.50    5.40
   1   0 -20    4.10    4.20
   0   0 -20   12.70    4.50
   3  -1 -20   14.70    3.70
  -3   1  20    9.10    3.70
   2  -1 -20    2.90    3.90
  -2   1  20    4.50    2.90
   2   1 -20    3.60    4.70
   1  -1 -20   21.30    4.90
  -1   1  20   24.00    3.80
   1   1 -20   16.10    3.80
   0  -1 -20   17.40    4.60
   0   1  20   18.40    3.50
   0   1 -20   16.40    4.50
   2  -2 -20    7.40    4.40
   2   2 -20    0.40    2.80
  -2   2  20   -0.20    3.40
   1  -2 -20   17.50    4.80
  -1   2  20    6.20    3.80
   1   2 -20    0.70    3.80

_computing_structure_solution     'SHELXT 2014/4 (Sheldrick, 2014)'
;
_shelx_hkl_checksum              33454
loop_
_space_group_symop_operation_xyz
'x, y, z'
'-x, y+1/2, -z+1/2'
'-x, -y, -z'
'x, -y-1/2, z-1/2'
loop_
_atom_site_label
_atom_site_type_symbol
_atom_site_fract_x
_atom_site_fract_y
_atom_site_fract_z
_atom_site_U_iso_or_equiv
_atom_site_adp_type
_atom_site_occupancy
_atom_site_site_symmetry_order
_atom_site_calc_flag
_atom_site_refinement_flags_posn
_atom_site_refinement_flags_adp
P1 P 0.31857(5) 0.40774(5) 0.68561(3) 0.01577(12) Uani 1 1 d . .
S1 S 0.27242(5) 0.08886(5) 0.50639(4) 0.02356(13) Uani 1 1 d . .
F1 F 0.24505(11) 0.41552(12) 0.48587(8) 0.0269(3) Uani 1 1 d . .
F2 F 0.17262(12) 0.61923(12) 0.70249(10) 0.0340(3) Uani 1 1 d . .
O1 O 0.34370(13) 0.15082(12) 0.67727(9) 0.0184(3) Uani 1 1 d . .
O2 O 0.55490(12) 0.50328(12) 0.60876(10) 0.0211(3) Uani 1 1 d . .
O3 O 0.31008(13) 0.39204(13) 0.78482(9) 0.0204(3) Uani 1 1 d . .
O4 O 0.08854(15) 0.31861(16) 0.76330(11) 0.0304(4) Uani 1 1 d . .
N1 N 0.17783(15) 0.04191(16) 0.66105(12) 0.0206(4) Uani 1 1 d . .
C1 C 0.54131(18) 0.38510(17) 0.61570(13) 0.0161(4) Uani 1 1 d . .
C2 C 0.46857(18) 0.58255(18) 0.62706(13) 0.0190(4) Uani 1 1 d . .
C3 C 0.17593(17) 0.36848(17) 0.62544(14) 0.0168(4) Uani 1 1 d . .
C4 C 0.64129(18) 0.32275(19) 0.59296(13) 0.0190(4) Uani 1 1 d . .
H1 H 0.7097 0.3625 0.5745 0.023 Uiso 1 1 calc R U
C5 C 0.43923(17) 0.32914(17) 0.64287(13) 0.0151(4) Uani 1 1 d . .
C6 C 0.44234(18) 0.20657(17) 0.64458(13) 0.0166(4) Uani 1 1 d . .
C7 C 0.08005(19) 0.32767(19) 0.67200(14) 0.0208(4) Uani 1 1 d . .
C8 C 0.35685(18) 0.55270(17) 0.65632(13) 0.0187(4) Uani 1 1 d . .
C9 C 0.64040(18) 0.20249(18) 0.59734(14) 0.0203(4) Uani 1 1 d . .
H2 H 0.7091 0.1599 0.5826 0.024 Uiso 1 1 calc R U
C10 C 0.26235(18) 0.09203(17) 0.61698(14) 0.0174(4) Uani 1 1 d . .
C11 C 0.54029(19) 0.14286(18) 0.62297(14) 0.0198(4) Uani 1 1 d . .
H3 H 0.5396 0.0602 0.6255 0.024 Uiso 1 1 calc R U
C12 C 0.2806(2) 0.64565(19) 0.67231(15) 0.0244(5) Uani 1 1 d . .
C13 C 0.15411(19) 0.37553(19) 0.53138(14) 0.0208(4) Uani 1 1 d . .
C14 C 0.5021(2) 0.69824(19) 0.61507(15) 0.0249(5) Uani 1 1 d . .
H4 H 0.5790 0.7166 0.5960 0.030 Uiso 1 1 calc R U
C15 C -0.04410(19) 0.3026(2) 0.53097(16) 0.0259(5) Uani 1 1 d . .
H5 H -0.1189 0.2795 0.4991 0.031 Uiso 1 1 calc R U
C16 C 0.04703(19) 0.3440(2) 0.48296(15) 0.0253(5) Uani 1 1 d . .
H6 H 0.0361 0.3504 0.4189 0.030 Uiso 1 1 calc R U
C17 C -0.02919(19) 0.2940(2) 0.62422(16) 0.0261(5) Uani 1 1 d . .
H7 H -0.0932 0.2651 0.6558 0.031 Uiso 1 1 calc R U
C18 C 0.1740(2) 0.0486(2) 0.75919(15) 0.0270(5) Uani 1 1 d . .
H8 H 0.2441 0.0928 0.7863 0.041 Uiso 1 1 calc R U
H9 H 0.1762 -0.0302 0.7846 0.041 Uiso 1 1 calc R U
H10 H 0.0993 0.0876 0.7723 0.041 Uiso 1 1 calc R U
C19 C 0.4216(2) 0.7854(2) 0.63149(16) 0.0314(6) Uani 1 1 d . .
H11 H 0.4436 0.8644 0.6230 0.038 Uiso 1 1 calc R U
C20 C 0.3096(2) 0.7606(2) 0.66008(16) 0.0305(5) Uani 1 1 d . .
H12 H 0.2545 0.8211 0.6709 0.037 Uiso 1 1 calc R U
C21 C 0.0744(2) -0.0155(2) 0.61071(16) 0.0301(5) Uani 1 1 d . .
H13 H 0.0102 0.0418 0.5951 0.045 Uiso 1 1 calc R U
H14 H 0.0440 -0.0770 0.6481 0.045 Uiso 1 1 calc R U
H15 H 0.0997 -0.0496 0.5552 0.045 Uiso 1 1 calc R U
H16 H 0.171(3) 0.344(3) 0.786(2) 0.054(9) Uiso 1 1 d . .
loop_
_atom_site_aniso_label
_atom_site_aniso_U_11
_atom_site_aniso_U_22
_atom_site_aniso_U_33
_atom_site_aniso_U_23
_atom_site_aniso_U_13
_atom_site_aniso_U_12
P1 0.0151(2) 0.0165(3) 0.0155(2) -0.00161(19) 0.00072(18) 0.00114(19)
S1 0.0279(3) 0.0231(3) 0.0194(3) -0.0025(2) 0.0013(2) -0.0033(2)
F1 0.0219(6) 0.0396(8) 0.0192(6) 0.0039(5) 0.0023(5) -0.0088(6)
F2 0.0249(7) 0.0307(8) 0.0462(9) -0.0103(6) 0.0030(6) 0.0091(6)
O1 0.0206(7) 0.0164(7) 0.0182(7) 0.0003(5) 0.0013(6) -0.0060(6)
O2 0.0179(7) 0.0132(7) 0.0325(8) 0.0027(6) 0.0039(6) -0.0031(6)
O3 0.0204(7) 0.0255(8) 0.0155(7) -0.0007(6) 0.0023(5) 0.0021(6)
O4 0.0247(8) 0.0462(11) 0.0216(8) -0.0014(7) 0.0088(7) -0.0033(8)
N1 0.0191(8) 0.0204(9) 0.0218(9) 0.0024(7) -0.0002(7) -0.0035(7)
C1 0.0166(9) 0.0136(9) 0.0176(9) 0.0015(7) -0.0016(7) -0.0023(7)
C2 0.0209(10) 0.0156(10) 0.0190(9) 0.0007(8) -0.0056(8) 0.0004(8)
C3 0.0128(9) 0.0154(9) 0.0220(10) -0.0029(8) 0.0018(7) 0.0018(7)
C4 0.0144(9) 0.0242(11) 0.0183(9) 0.0010(8) 0.0012(7) -0.0020(8)
C5 0.0137(9) 0.0149(9) 0.0165(9) 0.0000(7) 0.0004(7) 0.0012(7)
C6 0.0178(9) 0.0161(10) 0.0157(9) 0.0006(7) 0.0007(7) -0.0032(8)
C7 0.0184(10) 0.0210(10) 0.0237(10) -0.0027(8) 0.0052(8) 0.0033(8)
C8 0.0207(10) 0.0146(9) 0.0196(10) -0.0023(8) -0.0033(8) 0.0011(8)
C9 0.0157(9) 0.0224(11) 0.0226(10) -0.0027(8) 0.0009(8) 0.0041(8)
C10 0.0182(9) 0.0120(9) 0.0212(9) 0.0014(8) -0.0014(7) 0.0004(8)
C11 0.0236(10) 0.0131(9) 0.0221(10) -0.0012(8) -0.0007(8) 0.0031(8)
C12 0.0243(11) 0.0222(11) 0.0249(11) -0.0055(9) -0.0061(9) 0.0052(9)
C13 0.0191(10) 0.0217(11) 0.0218(10) 0.0011(8) 0.0041(8) -0.0004(8)
C14 0.0316(12) 0.0178(11) 0.0232(10) 0.0020(8) -0.0071(9) -0.0066(9)
C15 0.0155(10) 0.0295(12) 0.0315(12) -0.0062(9) -0.0031(9) 0.0009(9)
C16 0.0213(11) 0.0306(12) 0.0227(11) -0.0018(9) -0.0037(9) -0.0002(9)
C17 0.0152(10) 0.0299(12) 0.0342(12) -0.0046(10) 0.0084(9) -0.0008(9)
C18 0.0279(12) 0.0303(12) 0.0233(11) 0.0043(9) 0.0046(9) -0.0040(10)
C19 0.0471(15) 0.0143(10) 0.0290(12) 0.0001(9) -0.0145(11) -0.0034(10)
C20 0.0403(14) 0.0164(11) 0.0316(12) -0.0052(9) -0.0118(10) 0.0105(10)
C21 0.0226(11) 0.0342(13) 0.0320(12) 0.0027(10) -0.0038(9) -0.0095(10)
loop_
_atom_type_symbol
_atom_type_description
_atom_type_scat_dispersion_real
_atom_type_scat_dispersion_imag
_atom_type_scat_source
C C 0.0033 0.0016 'International Tables Vol C Tables 4.2.6.8 and 6.1.1.4'
H H 0.0000 0.0000 'International Tables Vol C Tables 4.2.6.8 and 6.1.1.4'
N N 0.0061 0.0033 'International Tables Vol C Tables 4.2.6.8 and 6.1.1.4'
O O 0.0106 0.0060 'International Tables Vol C Tables 4.2.6.8 and 6.1.1.4'
F F 0.0171 0.0103 'International Tables Vol C Tables 4.2.6.8 and 6.1.1.4'
P P 0.1023 0.0942 'International Tables Vol C Tables 4.2.6.8 and 6.1.1.4'
S S 0.1246 0.1234 'International Tables Vol C Tables 4.2.6.8 and 6.1.1.4'
loop_
_geom_angle_atom_site_label_1
_geom_angle_atom_site_label_2
_geom_angle_atom_site_label_3
_geom_angle
O3 P1 C8 113.16(9)
O3 P1 C5 114.49(9)
C8 P1 C5 100.30(10)
O3 P1 C3 108.58(9)
C8 P1 C3 109.47(9)
C5 P1 C3 110.60(9)
C10 O1 C6 118.81(15)
C2 O2 C1 123.95(16)
C7 O4 H16 107.0(18)
C10 N1 C21 120.03(18)
C10 N1 C18 124.17(18)
C21 N1 C18 115.56(18)
O2 C1 C4 113.23(17)
O2 C1 C5 125.15(18)
C4 C1 C5 121.62(18)
O2 C2 C14 113.94(19)
O2 C2 C8 124.07(18)
C14 C2 C8 122.0(2)
C13 C3 C7 116.67(18)
C13 C3 P1 122.54(15)
C7 C3 P1 120.79(16)
C9 C4 C1 119.53(19)
C9 C4 H1 120.2
C1 C4 H1 120.2
C1 C5 C6 116.46(18)
C1 C5 P1 122.04(15)
C6 C5 P1 121.12(15)
C11 C6 O1 120.25(18)
C11 C6 C5 123.08(19)
O1 C6 C5 116.45(17)
O4 C7 C17 117.12(19)
O4 C7 C3 122.64(19)
C17 C7 C3 120.2(2)
C12 C8 C2 115.96(19)
C12 C8 P1 120.51(17)
C2 C8 P1 123.09(15)
C4 C9 C11 120.94(19)
C4 C9 H2 119.5
C11 C9 H2 119.5
N1 C10 O1 109.87(17)
N1 C10 S1 126.96(16)
O1 C10 S1 123.17(15)
C6 C11 C9 118.36(19)
C6 C11 H3 120.8
C9 C11 H3 120.8
F2 C12 C20 119.0(2)
F2 C12 C8 117.2(2)
C20 C12 C8 123.8(2)
F1 C13 C16 118.57(19)
F1 C13 C3 117.30(18)
C16 C13 C3 124.1(2)
C19 C14 C2 118.8(2)
C19 C14 H4 120.6
C2 C14 H4 120.6
C16 C15 C17 121.6(2)
C16 C15 H5 119.2
C17 C15 H5 119.2
C13 C16 C15 117.4(2)
C13 C16 H6 121.3
C15 C16 H6 121.3
C15 C17 C7 119.9(2)
C15 C17 H7 120.1
C7 C17 H7 120.1
N1 C18 H8 109.5
N1 C18 H9 109.5
H8 C18 H9 109.5
N1 C18 H10 109.5
H8 C18 H10 109.5
H9 C18 H10 109.5
C14 C19 C20 121.5(2)
C14 C19 H11 119.2
C20 C19 H11 119.2
C12 C20 C19 117.9(2)
C12 C20 H12 121.0
C19 C20 H12 121.0
N1 C21 H13 109.5
N1 C21 H14 109.5
H13 C21 H14 109.5
N1 C21 H15 109.5
H13 C21 H15 109.5
H14 C21 H15 109.5
loop_
_geom_bond_atom_site_label_1
_geom_bond_atom_site_label_2
_geom_bond_distance
P1 O3 1.4973(15)
P1 C8 1.782(2)
P1 C5 1.785(2)
P1 C3 1.794(2)
S1 C10 1.658(2)
F1 C13 1.352(2)
F2 C12 1.356(3)
O1 C10 1.381(2)
O1 C6 1.398(2)
O2 C2 1.369(2)
O2 C1 1.370(2)
O4 C7 1.354(3)
O4 H16 0.98(3)
N1 C10 1.329(3)
N1 C21 1.461(3)
N1 C18 1.465(3)
C1 C4 1.391(3)
C1 C5 1.397(3)
C2 C14 1.396(3)
C2 C8 1.398(3)
C3 C13 1.396(3)
C3 C7 1.408(3)
C4 C9 1.382(3)
C4 H1 0.9500
C5 C6 1.408(3)
C6 C11 1.375(3)
C7 C17 1.395(3)
C8 C12 1.397(3)
C9 C11 1.391(3)
C9 H2 0.9500
C11 H3 0.9500
C12 C20 1.375(3)
C13 C16 1.373(3)
C14 C19 1.380(3)
C14 H4 0.9500
C15 C16 1.380(3)
C15 C17 1.382(3)
C15 H5 0.9500
C16 H6 0.9500
C17 H7 0.9500
C18 H8 0.9800
C18 H9 0.9800
C18 H10 0.9800
C19 C20 1.384(4)
C19 H11 0.9500
C20 H12 0.9500
C21 H13 0.9800
C21 H14 0.9800
C21 H15 0.9800
loop_
_geom_torsion_atom_site_label_1
_geom_torsion_atom_site_label_2
_geom_torsion_atom_site_label_3
_geom_torsion_atom_site_label_4
_geom_torsion
C2 O2 C1 C4 179.61(17)
C2 O2 C1 C5 -0.6(3)
C1 O2 C2 C14 -179.80(18)
C1 O2 C2 C8 1.0(3)
O3 P1 C3 C13 178.93(17)
C8 P1 C3 C13 54.9(2)
C5 P1 C3 C13 -54.6(2)
O3 P1 C3 C7 -1.59(19)
C8 P1 C3 C7 -125.58(17)
C5 P1 C3 C7 124.82(17)
O2 C1 C4 C9 179.67(18)
C5 C1 C4 C9 -0.1(3)
O2 C1 C5 C6 179.26(18)
C4 C1 C5 C6 -1.0(3)
O2 C1 C5 P1 -7.7(3)
C4 C1 C5 P1 172.04(15)
O3 P1 C5 C1 -109.26(17)
C8 P1 C5 C1 12.22(18)
C3 P1 C5 C1 127.69(16)
O3 P1 C5 C6 63.42(18)
C8 P1 C5 C6 -175.10(16)
C3 P1 C5 C6 -59.62(19)
C10 O1 C6 C11 -76.7(2)
C10 O1 C6 C5 108.5(2)
C1 C5 C6 C11 1.4(3)
P1 C5 C6 C11 -171.69(15)
C1 C5 C6 O1 176.02(16)
P1 C5 C6 O1 2.9(2)
C13 C3 C7 O4 -178.80(19)
P1 C3 C7 O4 1.7(3)
C13 C3 C7 C17 1.5(3)
P1 C3 C7 C17 -178.00(17)
O2 C2 C8 C12 179.51(18)
C14 C2 C8 C12 0.4(3)
O2 C2 C8 P1 7.1(3)
C14 C2 C8 P1 -172.05(16)
O3 P1 C8 C12 -61.70(19)
C5 P1 C8 C12 175.88(16)
C3 P1 C8 C12 59.55(19)
O3 P1 C8 C2 110.38(17)
C5 P1 C8 C2 -12.04(19)
C3 P1 C8 C2 -128.37(17)
C1 C4 C9 C11 0.9(3)
C21 N1 C10 O1 173.69(18)
C18 N1 C10 O1 -0.4(3)
C21 N1 C10 S1 -5.6(3)
C18 N1 C10 S1 -179.73(17)
C6 O1 C10 N1 177.94(17)
C6 O1 C10 S1 -2.7(2)
O1 C6 C11 C9 -175.12(17)
C5 C6 C11 C9 -0.7(3)
C4 C9 C11 C6 -0.5(3)
C2 C8 C12 F2 -178.73(17)
P1 C8 C12 F2 -6.1(3)
C2 C8 C12 C20 0.6(3)
P1 C8 C12 C20 173.21(18)
C7 C3 C13 F1 179.45(18)
P1 C3 C13 F1 -1.1(3)
C7 C3 C13 C16 -0.9(3)
P1 C3 C13 C16 178.61(18)
O2 C2 C14 C19 179.87(18)
C8 C2 C14 C19 -0.9(3)
F1 C13 C16 C15 179.53(19)
C3 C13 C16 C15 -0.1(3)
C17 C15 C16 C13 0.5(3)
C16 C15 C17 C7 0.1(3)
O4 C7 C17 C15 179.1(2)
C3 C7 C17 C15 -1.1(3)
C2 C14 C19 C20 0.5(3)
F2 C12 C20 C19 178.36(19)
C8 C12 C20 C19 -0.9(3)
C14 C19 C20 C12 0.4(3)
