#------------------------------------------------------------------------------
#$Date: 2016-05-04 19:07:20 +0300 (Wed, 04 May 2016) $
#$Revision: 182509 $
#$URL: svn://www.crystallography.net/cod/cif/1/54/29/1542985.cif $
#------------------------------------------------------------------------------
#
# This file is available in the Crystallography Open Database (COD),
# http://www.crystallography.net/
#
# All data on this site have been placed in the public domain by the
# contributors.
#
data_1542985
loop_
_publ_author_name
'Sun, Jia'
'Xie, Chuang'
'Zhang, Xia'
'Bao, Ying'
'Hou, Baohong'
'Wang, Zhao'
'Gong, Junbo'
'Hao, Hongxun'
'Wang, Yongli'
'Wang, Jingkang'
'Yin, Qiuxiang'
_publ_section_title
;
 Preparation and Dehydration Kinetics of Complex Sulfadiazine Calcium
 Hydrate with Both Channel-Type and Coordinated Water
;
_journal_issue                   4
_journal_name_full               'Organic Process Research &amp; Development'
_journal_page_first              780
_journal_paper_doi               10.1021/acs.oprd.6b00027
_journal_volume                  20
_journal_year                    2016
_chemical_absolute_configuration unk
_chemical_formula_sum            'C40 H68 Ca2 N16 O24 S4'
_chemical_formula_weight         1365.50
_space_group_crystal_system      monoclinic
_space_group_IT_number           4
_space_group_name_Hall           'P 2yb'
_space_group_name_H-M_alt        'P 1 21 1'
_symmetry_space_group_name_Hall  'P 2yb'
_symmetry_space_group_name_H-M   'P 1 21 1'
_atom_sites_solution_hydrogens   mixed
_audit_creation_method           SHELXL-2014/7
_cell_angle_alpha                90
_cell_angle_beta                 90.44(3)
_cell_angle_gamma                90
_cell_formula_units_Z            2
_cell_length_a                   13.850(3)
_cell_length_b                   15.604(3)
_cell_length_c                   14.083(3)
_cell_measurement_reflns_used    21647
_cell_measurement_temperature    293(2)
_cell_measurement_theta_max      27.48
_cell_measurement_theta_min      3.00
_cell_volume                     3043.5(11)
_computing_structure_refinement  'SHELXL-2014/7 (Sheldrick, 2014)'
_diffrn_ambient_temperature      293(2)
_diffrn_measured_fraction_theta_full 0.998
_diffrn_measured_fraction_theta_max 0.991
_diffrn_measurement_device_type  'rigaku saturn'
_diffrn_radiation_type           MoK\a
_diffrn_radiation_wavelength     0.71073
_diffrn_reflns_av_R_equivalents  0.0535
_diffrn_reflns_av_unetI/netI     0.0733
_diffrn_reflns_Laue_measured_fraction_full 0.998
_diffrn_reflns_Laue_measured_fraction_max 0.991
_diffrn_reflns_limit_h_max       17
_diffrn_reflns_limit_h_min       -17
_diffrn_reflns_limit_k_max       20
_diffrn_reflns_limit_k_min       -20
_diffrn_reflns_limit_l_max       18
_diffrn_reflns_limit_l_min       -17
_diffrn_reflns_number            29926
_diffrn_reflns_point_group_measured_fraction_full 0.998
_diffrn_reflns_point_group_measured_fraction_max 0.992
_diffrn_reflns_theta_full        25.242
_diffrn_reflns_theta_max         27.484
_diffrn_reflns_theta_min         2.997
_exptl_absorpt_coefficient_mu    0.414
_exptl_crystal_colour            colorless
_exptl_crystal_density_diffrn    1.490
_exptl_crystal_description       prism
_exptl_crystal_F_000             1432
_exptl_crystal_size_max          0.250
_exptl_crystal_size_mid          0.200
_exptl_crystal_size_min          0.150
_refine_diff_density_max         0.220
_refine_diff_density_min         -0.368
_refine_diff_density_rms         0.053
_refine_ls_abs_structure_details
;
 Refined as an inversion twin.
;
_refine_ls_abs_structure_Flack   0.32(4)
_refine_ls_extinction_method     none
_refine_ls_goodness_of_fit_ref   1.036
_refine_ls_hydrogen_treatment    mixed
_refine_ls_matrix_type           full
_refine_ls_number_parameters     806
_refine_ls_number_reflns         13668
_refine_ls_number_restraints     9
_refine_ls_restrained_S_all      1.036
_refine_ls_R_factor_all          0.0729
_refine_ls_R_factor_gt           0.0498
_refine_ls_shift/su_max          0.003
_refine_ls_shift/su_mean         0.000
_refine_ls_structure_factor_coef Fsqd
_refine_ls_weighting_details
'w=1/[\s^2^(Fo^2^)+(0.0417P)^2^+0.5451P] where P=(Fo^2^+2Fc^2^)/3'
_refine_ls_weighting_scheme      calc
_refine_ls_wR_factor_gt          0.1008
_refine_ls_wR_factor_ref         0.1104
_reflns_Friedel_coverage         0.931
_reflns_Friedel_fraction_full    0.999
_reflns_Friedel_fraction_max     0.993
_reflns_number_gt                10377
_reflns_number_total             13668
_reflns_threshold_expression     'I > 2\s(I)'
_cod_data_source_file            op6b00027_si_002.cif
_cod_data_source_block           b
_cod_depositor_comments          'Adding full bibliography for 1542985.cif.'
_cod_database_code               1542985
_shelx_shelxl_version_number     2014/7
_shelx_space_group_comment
;
The symmetry employed for this shelxl refinement is uniquely defined
by the following loop, which should always be used as a source of
symmetry information in preference to the above space-group names.
They are only intended as comments.
;
_shelx_estimated_absorpt_t_min   0.904
_shelx_estimated_absorpt_t_max   0.940
_shelx_res_file
;

    b.res created by SHELXL-2014/7


TITL B in P2(1)
CELL 0.71073  13.8501  15.6037  14.0834  90.000  90.441  90.000
ZERR    2.00   0.0028   0.0031   0.0028   0.000   0.030   0.000
LATT -1
SYMM -X, 0.5+Y, -Z
SFAC C  H  N  O  S  Ca
UNIT 80 136 32 48 8 4
L.S. 4
ACTA
BOND $H
FMAP 2
PLAN 20
HTAB O24 O21_$6
HTAB O24 O9_$5
HTAB O24 O2
HTAB O23 N4_$7
HTAB O23 O9_$2
HTAB O22 O23
HTAB O22 N6_$2
HTAB O21 N5_$4
HTAB O21 O20
HTAB O20 N16_$4
HTAB O20 O10_$4
HTAB O20 O19_$2
HTAB O19 O13
HTAB O19 O22
HTAB O18 O20_$6
HTAB O18 N12
HTAB C18 O11_$10
EQIV $10 -x+1, y-1/2, -z
HTAB C16 O22_$6
HTAB C13 O7_$9
EQIV $9 -x, y-1/2, -z
HTAB C6 O24
HTAB N13 O4
HTAB N13 O10_$4
HTAB N9 O13_$2
HTAB N9 O20
HTAB N5 O8_$1
HTAB N1 O9
HTAB N1 O2_$8
EQIV $8 -x, y-1/2, -z+1
HTAB O17 O19_$6
HTAB O16 O1_$6
HTAB O16 S1_$6
HTAB O16 O18_$6
HTAB O15 O8_$7
EQIV $7 x+1, y, z
HTAB O14 O2_$6
EQIV $6 -x+1, y-1/2, -z+1
HTAB O14 O12
HTAB O14 S3
HTAB O7 N6_$3
HTAB O7 S2_$3
HTAB O7 O24_$5
EQIV $5 -x, y+1/2, -z+1
HTAB O6 O12_$2
HTAB O6 S3_$2
HTAB O6 O23_$2
HTAB O5 O10_$4
EQIV $4 -x+1, y+1/2, -z
HTAB O5 N7_$3
EQIV $3 x, y+1, z
HTAB O4 O13_$2
EQIV $2 -x+1, y+1/2, -z+1
HTAB O4 O1
HTAB O4 S1
HTAB O3 N13
HTAB O3 N8_$1
HTAB O3 O8_$1
EQIV $1 -x, y+1/2, -z
dfix .9 .01 n1 h1a n1 h1b n5 h5c n5 h5d n9 h9a n9 h9b n13 h13a n13 h13b
size 0.15 0.20 0.25
twin
CONF
HTAB
FREE C27  Ca2
FREE C7   Ca1
WGHT    0.041700    0.545100
BASF   0.32150
FVAR       0.35740
CA1   6    0.123607    0.802147    0.262823    11.00000    0.03495    0.02927 =
         0.03468   -0.00010   -0.00431   -0.00021
CA2   6    0.614392    0.210885    0.255781    11.00000    0.02783    0.02642 =
         0.03372   -0.00041   -0.00100    0.00002
S1    5    0.128725    0.630357    0.470557    11.00000    0.03989    0.03177 =
         0.03568    0.00257   -0.00879    0.00161
S2    5   -0.005595    0.130986    0.104985    11.00000    0.03466    0.02905 =
         0.03264    0.00154    0.00178   -0.00016
S3    5    0.628627    0.381375    0.467532    11.00000    0.04018    0.03251 =
         0.03675   -0.00553   -0.00700   -0.00311
S4    5    0.561403    0.339727    0.083766    11.00000    0.03031    0.03106 =
         0.03500    0.00307   -0.00322   -0.00308
O1    4    0.232856    0.641692    0.458164    11.00000    0.03233    0.05095 =
         0.05614    0.01047   -0.01366   -0.00292
O2    4    0.097334    0.639201    0.568006    11.00000    0.05945    0.04430 =
         0.03162   -0.00117   -0.00660   -0.00182
O3    4    0.116265    0.679652    0.159273    11.00000    0.04939    0.04476 =
         0.04567   -0.01161    0.00243   -0.00650
AFIX   3
H3A   2    0.071177    0.655002    0.128422    11.00000   -1.50000
H3B   2    0.169903    0.672830    0.131312    11.00000   -1.50000
AFIX   0
O4    4    0.280563    0.749884    0.313834    11.00000    0.03880    0.05465 =
         0.05287    0.00812   -0.00788   -0.00036
AFIX   3
H4A   2    0.271133    0.709661    0.353403    11.00000   -1.50000
H4B   2    0.322020    0.785227    0.335256    11.00000   -1.50000
AFIX   0
O5    4    0.214262    0.860225    0.131927    11.00000    0.04591    0.06774 =
         0.06693    0.01609    0.00927    0.00495
AFIX   3
H5A   2    0.189668    0.894194    0.091219    11.00000   -1.50000
H5B   2    0.274002    0.852614    0.121414    11.00000   -1.50000
AFIX   0
O6    4    0.157071    0.902820    0.381534    11.00000    0.07389    0.04373 =
         0.04723   -0.01376   -0.02669    0.02012
AFIX   3
H6A   2    0.137691    0.954050    0.373815    11.00000   -1.50000
H6B   2    0.182387    0.895789    0.436145    11.00000   -1.50000
AFIX   0
O7    4    0.026525    0.917048    0.212637    11.00000    0.04419    0.03989 =
         0.05166    0.01101   -0.00191    0.00446
AFIX   3
H7A   2   -0.025748    0.933637    0.237976    11.00000   -1.50000
H7B   2    0.049816    0.955706    0.176992    11.00000   -1.50000
AFIX   0
O8    4   -0.096615    0.132701    0.052570    11.00000    0.03275    0.04010 =
         0.04210   -0.00049   -0.00097   -0.00194
O9    4   -0.016066    0.129023    0.207925    11.00000    0.05653    0.04317 =
         0.02751    0.00368    0.00645   -0.00065
O10   4    0.604020    0.342213   -0.010146    11.00000    0.03901    0.05057 =
         0.03769    0.00458    0.00679   -0.00136
O11   4    0.630467    0.344101    0.162002    11.00000    0.03424    0.03435 =
         0.04522    0.00505   -0.01177   -0.00672
O12   4    0.731705    0.370941    0.452538    11.00000    0.03614    0.05217 =
         0.05941   -0.01063   -0.01066   -0.00273
O13   4    0.600957    0.372944    0.566124    11.00000    0.06048    0.04045 =
         0.03655   -0.00191   -0.00437   -0.00512
O14   4    0.773668    0.260699    0.302151    11.00000    0.03369    0.06094 =
         0.06449   -0.00415   -0.00842   -0.00302
AFIX   3
H14A  2    0.777510    0.294167    0.349655    11.00000   -1.50000
H14B  2    0.822773    0.228041    0.298836    11.00000   -1.50000
AFIX   0
O15   4    0.716731    0.138208    0.145553    11.00000    0.04218    0.05617 =
         0.06559   -0.01576    0.01751   -0.00452
AFIX   3
H15A  2    0.773919    0.138384    0.124074    11.00000   -1.50000
H15B  2    0.706647    0.093066    0.177783    11.00000   -1.50000
AFIX   0
O16   4    0.655361    0.108511    0.373597    11.00000    0.05964    0.03947 =
         0.04952    0.00649   -0.01982   -0.00940
AFIX   3
H16A  2    0.641289    0.056170    0.364090    11.00000   -1.50000
H16B  2    0.695084    0.112891    0.419652    11.00000   -1.50000
AFIX   0
O17   4    0.520195    0.086235    0.212000    11.00000    0.05369    0.03531 =
         0.04693    0.00305   -0.00531   -0.00975
AFIX   3
H17A  2    0.476658    0.103598    0.173731    11.00000   -1.50000
H17B  2    0.497391    0.049442    0.250265    11.00000   -1.50000
AFIX   0
N1    3    0.019354    0.285710    0.333805    11.00000    0.09077    0.03672 =
         0.07872   -0.01637    0.01381   -0.01008
H1A   2    0.005901    0.242843    0.374425    11.00000   -1.50000
H1B   2    0.035906    0.270351    0.275094    11.00000   -1.50000
N2    3    0.080719    0.696140    0.398844    11.00000    0.03671    0.02985 =
         0.03948    0.00567   -0.01032    0.00120
N3    3   -0.041267    0.754302    0.314582    11.00000    0.03523    0.03242 =
         0.04397    0.01006   -0.01080   -0.00107
N4    3   -0.080406    0.657093    0.439719    11.00000    0.04078    0.04015 =
         0.04687    0.00607   -0.00087   -0.00132
N5    3    0.206336    0.454506    0.028048    11.00000    0.05939    0.03906 =
         0.06093    0.00420   -0.00074   -0.01322
H5C   2    0.242052    0.472250    0.077681    11.00000    0.07120
H5D   2    0.170161    0.499381    0.009783    11.00000    0.07840
N6    3    0.062110    0.052338    0.080017    11.00000    0.04291    0.02415 =
         0.03459    0.00414    0.00110    0.00180
N7    3    0.142878   -0.038014   -0.018096    11.00000    0.03508    0.03964 =
         0.05089   -0.00116    0.00519    0.00514
N8    3    0.048611    0.074180   -0.086783    11.00000    0.03830    0.03520 =
         0.03514    0.00166   -0.00041    0.00080
N9    3    0.523372    0.727984    0.334359    11.00000    0.09151    0.04712 =
         0.07627    0.01402    0.01719    0.00703
H9A   2    0.535212    0.742116    0.273941    11.00000    0.06193
H9B   2    0.479925    0.752445    0.372397    11.00000    0.04918
N10   3    0.578368    0.314337    0.399561    11.00000    0.03214    0.02857 =
         0.03911   -0.00685   -0.00195   -0.00312
N11   3    0.452534    0.247692    0.330417    11.00000    0.03321    0.03709 =
         0.03299   -0.00198   -0.00451   -0.00093
N12   3    0.417820    0.351173    0.450116    11.00000    0.03801    0.04908 =
         0.04329   -0.01156    0.00418    0.01077
N13   3    0.330504    0.658170    0.129527    11.00000    0.05999    0.04342 =
         0.06885    0.00083    0.00633    0.01221
H13A  2    0.344454    0.705687    0.096571    11.00000    0.09758
H13B  2    0.336819    0.679250    0.188677    11.00000    0.10188
N14   3    0.502634    0.255459    0.107126    11.00000    0.03339    0.02582 =
         0.04134    0.00207   -0.00574   -0.00325
N15   3    0.389956    0.152777    0.078441    11.00000    0.03280    0.04026 =
         0.05208   -0.00322    0.00049   -0.01202
N16   3    0.402630    0.270887   -0.029427    11.00000    0.04246    0.05213 =
         0.03924   -0.00301   -0.00950   -0.00404
C1    1    0.098037    0.526676    0.432000    11.00000    0.03868    0.03146 =
         0.03696    0.00262   -0.00480    0.00452
C2    1    0.112599    0.505174    0.338196    11.00000    0.05491    0.04114 =
         0.03888    0.00364    0.01191   -0.00174
AFIX  43
H2    2    0.140103    0.544647    0.296974    11.00000   -1.20000
AFIX   0
C3    1    0.086414    0.425321    0.305676    11.00000    0.06736    0.04425 =
         0.04322   -0.00431    0.00517    0.00510
AFIX  43
H3    2    0.096123    0.411343    0.242270    11.00000   -1.20000
AFIX   0
C4    1    0.045872    0.365514    0.365836    11.00000    0.04805    0.02986 =
         0.05496   -0.00190   -0.00233    0.00729
C5    1    0.032456    0.387937    0.459626    11.00000    0.09606    0.02906 =
         0.05720    0.00656    0.02535   -0.00242
AFIX  43
H5    2    0.005411    0.348512    0.501198    11.00000   -1.20000
AFIX   0
C6    1    0.058405    0.467448    0.492397    11.00000    0.09411    0.03737 =
         0.03953    0.00301    0.01173    0.00311
AFIX  43
H6    2    0.049121    0.481365    0.555884    11.00000   -1.20000
AFIX   0
C7    1   -0.017320    0.701151    0.387110    11.00000    0.03731    0.02678 =
         0.03171   -0.00234   -0.00696   -0.00532
C8    1   -0.134818    0.765709    0.297493    11.00000    0.04525    0.04859 =
         0.06232    0.01281   -0.02111   -0.00513
AFIX  43
H8    2   -0.153278    0.802762    0.248921    11.00000   -1.20000
AFIX   0
C9    1   -0.205458    0.725088    0.348533    11.00000    0.03707    0.07213 =
         0.08298    0.02003   -0.01322   -0.00556
AFIX  43
H9    2   -0.270715    0.735016    0.337025    11.00000   -1.20000
AFIX   0
C10   1   -0.174609    0.669226    0.417223    11.00000    0.03755    0.06539 =
         0.06811    0.01304    0.00649   -0.01255
AFIX  43
H10   2   -0.220722    0.637994    0.450143    11.00000   -1.20000
AFIX   0
C11   1    0.057616    0.226058    0.079142    11.00000    0.03062    0.02822 =
         0.03242    0.00003    0.00163    0.00116
C12   1    0.021361    0.286631    0.016566    11.00000    0.04315    0.03223 =
         0.04823    0.00054   -0.01087   -0.00035
AFIX  43
H12   2   -0.037162    0.276876   -0.014400    11.00000   -1.20000
AFIX   0
C13   1    0.071471    0.361223   -0.000067    11.00000    0.04981    0.03072 =
         0.04556    0.01105   -0.01325    0.00246
AFIX  43
H13   2    0.047274    0.400643   -0.043689    11.00000   -1.20000
AFIX   0
C14   1    0.156216    0.378275    0.046505    11.00000    0.03733    0.03158 =
         0.04327    0.00049    0.00528    0.00167
C15   1    0.194941    0.316909    0.107377    11.00000    0.02984    0.04211 =
         0.04613   -0.00159   -0.00237   -0.00324
AFIX  43
H15   2    0.253962    0.326725    0.137379    11.00000   -1.20000
AFIX   0
C16   1    0.145900    0.241657    0.123204    11.00000    0.03664    0.03689 =
         0.04099    0.00579   -0.00605    0.00401
AFIX  43
H16   2    0.172182    0.200756    0.163888    11.00000   -1.20000
AFIX   0
C17   1    0.083557    0.030779   -0.011370    11.00000    0.03091    0.02784 =
         0.04057   -0.00137    0.00083   -0.00673
C18   1    0.166425   -0.063443   -0.104332    11.00000    0.04261    0.04891 =
         0.06645   -0.01401    0.00736    0.00533
AFIX  43
H18   2    0.206248   -0.111048   -0.110744    11.00000   -1.20000
AFIX   0
C19   1    0.134280   -0.022175   -0.185331    11.00000    0.05345    0.07552 =
         0.04929   -0.01923    0.00928    0.00530
AFIX  43
H19   2    0.152022   -0.040320   -0.245629    11.00000   -1.20000
AFIX   0
C20   1    0.075606    0.046055   -0.172306    11.00000    0.04652    0.06399 =
         0.03473   -0.00399   -0.00039    0.00413
AFIX  43
H20   2    0.052798    0.074977   -0.225683    11.00000   -1.20000
AFIX   0
C21   1    0.597764    0.484738    0.429737    11.00000    0.03930    0.02994 =
         0.03784   -0.00491    0.00126   -0.00749
C22   1    0.551567    0.542059    0.488565    11.00000    0.07194    0.03485 =
         0.03840   -0.00036    0.01521   -0.00284
AFIX  43
H22   2    0.536826    0.526271    0.550458    11.00000   -1.20000
AFIX   0
C23   1    0.527186    0.622450    0.456165    11.00000    0.07454    0.03522 =
         0.05335   -0.00795    0.02021   -0.00397
AFIX  43
H23   2    0.496756    0.660742    0.496743    11.00000   -1.20000
AFIX   0
C24   1    0.547216    0.646973    0.364524    11.00000    0.04710    0.03330 =
         0.05724    0.00381    0.00246   -0.00374
C25   1    0.592396    0.588326    0.305078    11.00000    0.06558    0.04337 =
         0.04021    0.00390    0.00091   -0.01016
AFIX  43
H25   2    0.606028    0.603700    0.242805    11.00000   -1.20000
AFIX   0
C26   1    0.617106    0.508121    0.337093    11.00000    0.05090    0.03964 =
         0.04184   -0.00580    0.00744   -0.00456
AFIX  43
H26   2    0.646876    0.469476    0.296450    11.00000   -1.20000
AFIX   0
C27   1    0.479619    0.306599    0.395410    11.00000    0.03480    0.03064 =
         0.03426   -0.00003   -0.00372    0.00038
C28   1    0.358776    0.233351    0.319763    11.00000    0.03714    0.05064 =
         0.04501   -0.00730   -0.00765   -0.00599
AFIX  43
H28   2    0.338471    0.192427    0.275951    11.00000   -1.20000
AFIX   0
C29   1    0.290919    0.276508    0.370806    11.00000    0.03146    0.07384 =
         0.06219   -0.01135   -0.00151    0.00348
AFIX  43
H29   2    0.225223    0.266565    0.362229    11.00000   -1.20000
AFIX   0
C30   1    0.324582    0.335094    0.435173    11.00000    0.03736    0.06735 =
         0.06016   -0.01339    0.01054    0.00491
AFIX  43
H30   2    0.279704    0.365491    0.470590    11.00000   -1.20000
AFIX   0
C31   1    0.486543    0.430465    0.095720    11.00000    0.03133    0.03247 =
         0.03317    0.00352   -0.00611   -0.00472
C32   1    0.480678    0.490760    0.021983    11.00000    0.04652    0.03281 =
         0.03334    0.00283    0.00142   -0.00368
AFIX  43
H32   2    0.511756    0.480478   -0.035199    11.00000   -1.20000
AFIX   0
C33   1    0.429283    0.564548    0.034295    11.00000    0.04769    0.03114 =
         0.04203    0.00964    0.00080    0.00154
AFIX  43
H33   2    0.425373    0.603872   -0.015207    11.00000   -1.20000
AFIX   0
C34   1    0.382893    0.582147    0.118724    11.00000    0.03284    0.03381 =
         0.04952    0.00297   -0.00008   -0.00090
C35   1    0.387676    0.521692    0.191691    11.00000    0.04390    0.05763 =
         0.03477    0.00371    0.00836    0.00569
AFIX  43
H35   2    0.356086    0.531885    0.248619    11.00000   -1.20000
AFIX   0
C36   1    0.439160    0.446879    0.179515    11.00000    0.04157    0.04075 =
         0.03569    0.01128    0.00495   -0.00133
AFIX  43
H36   2    0.441949    0.406962    0.228497    11.00000   -1.20000
AFIX   0
C37   1    0.429714    0.227031    0.049247    11.00000    0.02957    0.03315 =
         0.03736   -0.00585    0.00021   -0.00174
C38   1    0.320626    0.119523    0.023469    11.00000    0.04034    0.05407 =
         0.05788   -0.01274    0.00746   -0.01611
AFIX  43
H38   2    0.292577    0.067801    0.041030    11.00000   -1.20000
AFIX   0
C39   1    0.289773    0.158554   -0.056978    11.00000    0.04526    0.08247 =
         0.04762   -0.01759   -0.00690   -0.02168
AFIX  43
H39   2    0.242099    0.133999   -0.095055    11.00000   -1.20000
AFIX   0
C40   1    0.331162    0.235756   -0.080703    11.00000    0.04562    0.07519 =
         0.05005   -0.00697   -0.01152   -0.00934
AFIX  43
H40   2    0.308653    0.264539   -0.134293    11.00000   -1.20000
AFIX   0
O18   4    0.390133    0.436736    0.633270    11.00000    0.11644    0.05151 =
         0.05137   -0.00872    0.00798    0.02290
AFIX   3
H18A  2    0.405877    0.420455    0.581866    11.00000   -1.50000
H18B  2    0.387804    0.398377    0.676048    11.00000   -1.50000
AFIX   0
O19   4    0.623657    0.454407    0.741611    11.00000    0.08202    0.09629 =
         0.06834   -0.02976    0.01599   -0.00328
AFIX   3
H19A  2    0.670684    0.486081    0.758478    11.00000   -1.50000
H19B  2    0.641775    0.417977    0.700569    11.00000   -1.50000
AFIX   0
O20   4    0.528901    0.864900    0.184617    11.00000    0.08810    0.07343 =
         0.04294   -0.00203   -0.00619    0.00600
AFIX   3
H20A  2    0.473751    0.885591    0.197491    11.00000   -1.50000
H20B  2    0.530481    0.848797    0.126987    11.00000   -1.50000
AFIX   0
O21   4    0.705388    0.956451    0.154015    11.00000    0.07542    0.08545 =
         0.06036   -0.01050    0.00414   -0.00580
AFIX   3
H21A  2    0.659201    0.928513    0.178581    11.00000   -1.50000
H21B  2    0.707831    0.943103    0.095561    11.00000   -1.50000
AFIX   0
O22   4    0.772682    0.558995    0.771875    11.00000    0.09150    0.09898 =
         0.09509   -0.01627   -0.00431   -0.00229
AFIX   3
H22A  2    0.810279    0.579627    0.814020    11.00000   -1.50000
H22B  2    0.792759    0.575657    0.718060    11.00000   -1.50000
AFIX   0
O23   4    0.897828    0.575917    0.626417    11.00000    0.07730    0.04983 =
         0.06535    0.01548   -0.01845   -0.02540
AFIX   3
H23A  2    0.943412    0.582272    0.666560    11.00000   -1.50000
H23B  2    0.906005    0.608038    0.578397    11.00000   -1.50000
AFIX   0
O24   4    0.143889    0.479773    0.715590    11.00000    0.06292    0.06078 =
         0.09333    0.00621   -0.00873   -0.00781
AFIX   3
H24A  2    0.133998    0.532359    0.703105    11.00000   -1.50000
H24B  2    0.189846    0.474727    0.755557    11.00000   -1.50000
AFIX   0
HKLF 4

REM  B in P2(1)
REM R1 =  0.0498 for   10377 Fo > 4sig(Fo)  and  0.0729 for all   13668 data
REM    806 parameters refined using      9 restraints

END

WGHT      0.0417      0.5459

REM Instructions for potential hydrogen bonds
HTAB O3 O8_$1
HTAB O3 N8_$1
HTAB O3 N13
HTAB O4 S1
HTAB O4 O1
HTAB O4 O13_$2
HTAB O5 N7_$3
HTAB O5 O10_$4
HTAB O6 O23_$2
HTAB O6 S3_$2
HTAB O6 O12_$2
HTAB O7 O24_$5
HTAB O7 S2_$3
HTAB O7 N6_$3
HTAB O14 S3
HTAB O14 O12
HTAB O14 O2_$6
HTAB O15 O8_$7
HTAB O16 O18_$6
HTAB O16 S1_$6
HTAB O16 O1_$6
HTAB O17 O19_$6
HTAB N1 O2_$8
HTAB N1 O9
HTAB N5 O8_$1
HTAB N9 O20
HTAB N9 O13_$2
HTAB N13 O10_$4
HTAB N13 O4
HTAB C6 O24
HTAB C13 O7_$9
HTAB C16 O22_$6
HTAB C18 O11_$10
HTAB O18 N12
HTAB O18 O20_$6
HTAB O19 O22
HTAB O19 O13
HTAB O20 O19_$2
HTAB O20 O10_$4
HTAB O20 N16_$4
HTAB O21 O20
HTAB O21 N5_$4
HTAB O22 N6_$2
HTAB O22 O23
HTAB O23 O9_$2
HTAB O23 N4_$7
HTAB O24 O2
HTAB O24 O9_$5
HTAB O24 O21_$6

REM Highest difference peak  0.220,  deepest hole -0.368,  1-sigma level  0.053
Q1    1   0.0638  0.0807  0.1973  11.00000  0.05    0.22
Q2    1   0.5377  0.2649  0.1748  11.00000  0.05    0.21
Q3    1   0.5596  0.3610 -0.0678  11.00000  0.05    0.20
Q4    1   0.1286  0.5680  0.4549  11.00000  0.05    0.20
Q5    1   0.5256  0.3880  0.0882  11.00000  0.05    0.20
Q6    1   0.6150  0.4403  0.4494  11.00000  0.05    0.20
Q7    1  -0.2180  0.8611  0.3207  11.00000  0.05    0.20
Q8    1   0.6445  0.3915  0.1632  11.00000  0.05    0.19
Q9    1   0.5216  0.1512  0.2253  11.00000  0.05    0.19
Q10   1   0.0427  0.8386  0.2422  11.00000  0.05    0.19
Q11   1   0.4385  0.1198  0.0779  11.00000  0.05    0.18
Q12   1   0.0575  0.2892  0.4932  11.00000  0.05    0.18
Q13   1   0.1187  0.8535  0.3531  11.00000  0.05    0.18
Q14   1   0.5775  0.3775  0.5204  11.00000  0.05    0.18
Q15   1  -0.0482  0.1303  0.1636  11.00000  0.05    0.18
Q16   1   0.6379  0.2895  0.1619  11.00000  0.05    0.18
Q17   1   0.6196  0.3116  0.3066  11.00000  0.05    0.18
Q18   1   0.0477  0.6790  0.3830  11.00000  0.05    0.18
Q19   1   0.7414  0.4818  0.4937  11.00000  0.05    0.18
Q20   1   0.6228  0.4205  0.5619  11.00000  0.05    0.18
;
_shelx_res_checksum              91305
_shelx_hkl_file
;
   0   0   3  187.61    4.12
   0   0   3  202.09    5.13
   0   0  -3  181.29    3.97
   0   0   4  127.10    3.83
   0   0   4  119.68    2.89
   0   0  -4  113.23    2.68
   0   0   5  150.67    7.29
   0   0   5  176.34    5.80
   0   0  -5  140.97    3.63
   0   0   6   53.14    2.20
   0   0   6   53.37    2.82
   0   0  -6   47.92    1.85
   0   0   7   38.50    2.20
   0   0   7   35.59    2.84
   0   0   8   -1.17    1.28
   0   0   8    2.56    1.51
   0   0   9  141.67    7.26
   0   0   9  138.12    6.21
   0   0  10   11.30    4.07
   0   0  10    9.48    2.26
   0   0  11  402.65   21.33
   0   0  11  418.98   19.60
   0   0  12    6.92    4.47
   0   0  12    9.31    4.63
   0   0  12    4.36    2.03
   0   0  13   14.13    3.78
   0   0  13   14.64    3.70
   0   0  13   13.82    2.72
   0   0  14  110.27    7.71
   0   0  14  172.41   16.15
   0   0  14  165.32   16.30
   0   0  15    3.69    3.73
   0   0  15    6.86    3.47
   0   0  15    2.12    2.53
   0   0  16    2.36    6.03
   0   0  16    6.20    6.36
   0   0  16    1.06    2.61
   0   0  17   18.02    4.39
   0   0  17   18.50    6.24
   0   0  17   28.61    6.25
   0   0  18   10.17    9.52
   0   0  18    7.26    9.58
   0   0  18   10.39    3.97
   0  -1   2  808.80   25.14
   0  -1   2  779.75   24.20
   0   1   2  812.21   24.61
   0   1  -2  786.13   24.38
   0   1  -2  820.00   24.24
   0  -1   3 3287.16  212.66
   0  -1   3 3035.15  195.07
   0   1   3 3084.66  186.01
   0   1  -3 2894.78  190.15
   0   1  -3 2892.43  182.28
   0  -1   4  276.18    7.24
   0  -1   4  266.10    7.19
   0   1   4  272.20    6.07
   0   1  -4  269.80    7.61
   0   1  -4  261.21    6.75
   0  -1   5  267.04    8.11
   0   1   5  277.64    6.91
   0  -1   5  289.09    8.34
   0   1   5  317.48   10.98
   0   1  -5  262.49    8.78
   0   1  -5  291.73    9.57
   0   1   6  612.31   19.91
   0   1   6  637.96   25.88
   0  -1   6  614.15   22.21
   0  -1   6  593.04   21.82
   0   1  -6  586.82   19.88
   0   1  -6  607.79   24.80
   0  -1   7 1630.42   93.61
   0  -1   7 1622.66   93.17
   0   1   7 1565.67   77.73
   0   1   7 1650.23  102.71
   0   1  -7 1487.82   75.14
   0   1   8  348.93   15.21
   0  -1   8  333.42   16.91
   0  -1   8  330.02   12.73
   0   1   8  339.83   14.57
   0   1  -8  307.36   10.77
   0  -1   9   34.78    3.05
   0  -1   9   36.96    3.12
   0   1   9   37.75    3.72
   0   1   9   39.38    2.52
   0   1  -9   28.92    2.44
   0   1  10    6.81    1.75
   0  -1  10    1.82    2.19
   0  -1  10    4.02    3.66
   0   1  10    7.93    1.87
   0   1  10    7.04    2.60
   0  -1  11   28.45    5.52
   0   1  11   20.93    3.07
   0  -1  11   31.21    3.78
   0   1  11   23.38    2.79
   0   1  11   30.19    4.09
   0  -1  12    7.10    2.75
   0  -1  12    7.81    3.19
   0   1  12    6.13    3.29
   0   1  12    5.25    3.69
   0   1  12   11.16    2.56
   0  -1  13   91.57    7.20
   0   1  13  102.41    8.21
   0   1  13   77.57    5.84
   0   1  13   91.30   10.53
   0  -1  13  101.15   12.41
   0   1  14   15.57    4.02
   0  -1  14   10.05    3.81
   0  -1  14   17.71    5.45
   0   1  14    6.77    2.75
   0  -1  14    7.67    2.57
   0   1  14    6.92    3.55
   0  -1  15    1.45    2.43
   0  -1  15    4.23    3.34
   0   1  15    9.23    3.98
   0  -1  15    4.07    5.99
   0   1  15    7.35    5.43
   0   1  15    2.52    2.71
   0  -1  16   -0.16    2.36
   0   1  16    2.66    3.32
   0   1  16    4.76    6.61
   0  -1  16   -1.13    5.66
   0  -1  16    3.67    3.88
   0   1  16   -0.41    2.61
   0  -1  17    2.54    4.46
   0  -1  17    4.76    2.84
   0   1  17    3.21    4.58
   0   1  17    2.22    3.97
   0  -1  17    0.05    3.85
   0   1  17   -0.89    3.05
   0  -1  18   11.82    3.86
   0   1  18    6.49    4.23
   0   1  18   20.40    5.69
   0  -1  18   17.60    6.31
   0  -1  18   11.41    9.03
   0   1  18    1.81   10.03
   0  -2   2  218.04    6.03
   0  -2   2  228.93    4.62
   0   2   2  229.48    5.52
   0  -2  -2  231.97    5.57
   0   2  -2  228.29    4.82
   0   2  -2  230.18    6.02
   0  -2   3 1178.17   49.24
   0   2   3 1148.71   45.92
   0  -2   3 1135.76   45.19
   0   2  -3 1099.94   44.87
   0   2  -3 1175.38   44.58
   0  -2   4  578.33   19.37
   0   2   4  542.33   16.95
   0  -2   4  535.18   15.31
   0   2  -4  553.48   16.78
   0   2  -4  530.31   16.66
   0   2   5  893.28   30.91
   0   2   5  866.54   33.61
   0  -2   5  914.29   36.62
   0  -2   5  950.78   38.36
   0   2  -5  905.57   39.47
   0   2  -5  875.84   33.51
   0   2   6  288.84    9.65
   0  -2   6  339.69   15.51
   0  -2   6  323.11   10.02
   0   2   6  342.93    9.00
   0   2  -6  310.71    9.95
   0   2  -6  304.04   10.92
   0  -2   7  273.09   10.65
   0   2   7  313.38   13.88
   0   2   7  243.06    8.72
   0   2   7  274.06   10.08
   0  -2   7  263.46    8.78
   0   2  -7  280.24   12.01
   0   2  -7  259.97   10.45
   0  -2   8   19.84    1.83
   0   2   8   15.04    3.13
   0   2   8   19.88    1.83
   0  -2   8   12.91    2.51
   0   2   8   15.73    1.52
   0   2  -8   17.46    2.67
   0   2  -8   14.66    1.80
   0   2   9    7.99    1.51
   0  -2   9    8.48    2.40
   0  -2   9    7.16    1.75
   0   2   9   10.38    4.54
   0   2   9    8.71    2.84
   0   2  -9    9.85    1.71
   0  -2  10   31.51    3.12
   0   2  10   34.38    2.74
   0   2  10   31.54    2.94
   0  -2  10   34.46    3.98
   0   2  10   39.25    4.66
   0   2 -10   37.16    4.44
   0  -2  11   80.29   10.23
   0   2  11   65.34    4.61
   0   2  11   85.98    7.01
   0  -2  11   69.78    4.98
   0   2  11   87.11    7.14
   0   2 -11   69.64    4.57
   0   2  12   51.64    4.30
   0   2  12   56.73    6.40
   0  -2  12   45.31    5.92
   0  -2  12   49.12    4.56
   0   2  12   50.30    4.22
   0   2  13    7.37    4.54
   0   2  13    7.21    2.82
   0  -2  13   13.19    3.72
   0   2  13   13.35    3.99
   0  -2  13    9.84    4.86
   0   2  14   48.02   11.79
   0   2  14   39.78    7.98
   0  -2  14   46.97    5.10
   0   2  14   41.12    4.67
   0  -2  14   37.13   10.13
   0   2  15   43.25    7.69
   0  -2  15   51.45    5.68
   0  -2  15   34.60    4.47
   0  -2  15   40.41    7.45
   0   2  15   41.50    5.16
   0   2  15   54.12    5.93
   0   2  16    2.24    3.09
   0   2  16    5.65    7.73
   0  -2  16    2.69    5.45
   0  -2  16    3.37    4.45
   0  -2  16    3.16    2.57
   0   2  16    5.64    3.50
   0  -2  17    3.52    4.08
   0  -2  17   14.99    5.68
   0  -2  17    6.09    3.14
   0   2  17    5.94    3.72
   0   2  17    8.64    5.77
   0   2  17   10.99    4.28
   0  -2  18    8.57    5.47
   0   2  18    8.82    5.60
   0  -2  18    0.00    3.09
   0   2  18    1.14    4.36
   0  -2  18    2.33    6.65
   0   2  18    9.67    5.94
   0   3   0    0.25    0.54
   0  -3   0   -0.72    0.92
   0   3   1   15.56    1.06
   0  -3   1   17.39    1.36
   0   3  -1   13.92    1.28
   0  -3  -1   13.77    1.05
   0   3  -1   15.85    0.86
   0  -3   2 1287.71   57.37
   0   3   2 1298.15   54.94
   0  -3   2 1255.40   48.44
   0  -3  -2 1274.15   53.35
   0   3  -2 1256.11   49.29
   0   3  -2 1225.47   53.05
   0   3   3 1531.40   71.06
   0  -3   3 1559.91   75.80
   0  -3   3 1515.58   67.60
   0   3  -3 1483.23   68.28
   0   3  -3 1412.78   66.38
   0  -3  -3 1542.58   70.59
   0  -3   4  424.98   14.67
   0   3   4  422.60   13.31
   0  -3   4  425.27   11.32
   0   3  -4  436.95   14.45
   0   3  -4  406.70   12.94
   0  -3   5   93.29    2.62
   0  -3   5   98.50    4.17
   0   3   5   93.36    3.41
   0   3  -5   90.85    3.08
   0   3  -5   80.65    3.23
   0   3   6  300.82   10.41
   0  -3   6  337.79   12.52
   0  -3   6  302.55    8.70
   0   3  -6  321.16   10.79
   0   3  -6  301.32   10.26
   0   3   7   60.15    3.20
   0  -3   7   64.48    2.56
   0   3   7   65.34    2.31
   0  -3   7   54.86    6.47
   0   3  -7   76.67    5.09
   0   3  -7   63.06    3.40
   0   3   8  238.68   12.95
   0   3   8  216.80    6.58
   0  -3   8  207.31    6.90
   0   3   8  182.07    7.72
   0  -3   8  209.50    9.64
   0   3  -8  201.27    7.84
   0   3  -8  185.41   12.65
   0  -3   9   21.35    3.36
   0   3   9   22.67    6.97
   0  -3   9   22.85    3.18
   0   3   9   23.72    1.86
   0   3   9   20.19    2.41
   0   3  -9   21.17    2.32
   0   3  -9   22.34    5.20
   0   3  10  229.49    8.69
   0  -3  10  203.47   12.24
   0  -3  10  238.18   13.06
   0   3  10  260.49   15.26
   0   3  10  195.39   13.78
   0   3 -10  246.70   13.98
   0   3  11   26.71    3.25
   0  -3  11   23.26    4.54
   0   3  11   28.69    5.17
   0  -3  11   21.17    4.58
   0   3  11   31.68    2.77
   0   3 -11   28.97    3.15
   0  -3  12  317.71   19.41
   0   3  12  269.88   14.85
   0   3  12  340.36   19.02
   0  -3  12  299.24   13.66
   0   3  12  316.59   32.27
   0   3 -12  301.59   14.60
   0   3  13   28.89    5.33
   0   3  13   13.41    3.43
   0  -3  13   19.15    3.02
   0   3  13   19.99    3.19
   0  -3  13   16.41    8.10
   0   3 -13   17.56    3.31
   0  -3  14   74.57    8.32
   0   3  14   62.18    5.49
   0   3  14   57.11    8.84
   0  -3  14   62.93    5.47
   0   3  14   35.26    9.14
   0   3  15   15.28    3.75
   0  -3  15   11.19    5.34
   0   3  15   17.21    3.83
   0   3  15    5.63    5.81
   0  -3  15    9.22    5.69
   0   3  16   -0.73    3.03
   0  -3  16   -3.61    2.61
   0  -3  16    0.53    7.15
   0   3  16    4.46    2.88
   0   3  16    2.73    4.31
   0  -3  16   -3.04    2.23
   0   3  17   23.03    5.45
   0  -3  17   15.67    4.08
   0   3  17   43.73    8.08
   0  -3  17   32.33    7.72
   0  -3  17   21.23    4.96
   0   3  17   31.50    8.27
   0   3  18   24.76    5.72
   0   3  18   27.48    9.29
   0  -3  18   32.16    8.95
   0  -4   0 1096.21   42.38
   0   4   0 1081.57   46.23
   0  -4   1  178.08    4.59
   0   4   1  192.18    7.15
   0   4  -1  200.88    5.00
   0  -4  -1  200.01    5.30
   0   4  -1  198.17    6.10
   0   4   2 3749.79  276.77
   0  -4   2 3649.85  257.64
   0  -4  -2 3771.85  283.59
   0   4  -2 3557.01  264.42
   0   4  -2 3721.18  263.29
   0  -4   3 4736.35  416.37
   0  -4   3 4626.02  374.76
   0   4   3 4675.03  400.63
   0   4  -3 4514.36  388.30
   0  -4  -3 4713.46  398.83
   0   4  -3 4627.47  378.76
   0  -4   4  152.68    6.00
   0   4   4  136.14    4.86
   0  -4   4  143.51    3.50
   0   4  -4  136.65    3.67
   0  -4  -4  147.65    4.79
   0   4  -4  141.87    4.94
   0   4   5  167.93    6.26
   0  -4   5  190.87    7.69
   0  -4   5  180.63    6.09
   0   4  -5  163.70    6.13
   0   4  -5  171.41    5.32
   0  -4   6  231.86   13.67
   0  -4   6  216.67    7.90
   0   4   6  207.99    7.84
   0   4  -6  224.33    7.41
   0   4  -6  207.50    7.67
   0   4   7   26.88    2.50
   0  -4   7   28.21    3.11
   0  -4   7   25.27    2.64
   0   4  -7   32.95    2.38
   0   4  -7   33.36    3.77
   0  -4   8   11.70    1.47
   0  -4   8    7.88    2.68
   0   4   8   10.84    2.05
   0   4   8   10.47    2.09
   0   4  -8   14.18    2.05
   0   4  -8   12.62    3.24
   0  -4   9   97.08    7.23
   0   4   9  106.03    3.91
   0   4   9   94.26    5.40
   0  -4   9  103.82    6.28
   0   4   9  109.74    9.44
   0   4  -9  101.49    5.14
   0   4  -9   87.21    5.77
   0  -4  10   72.33    3.64
   0   4  10   72.00    3.55
   0  -4  10   89.80   10.59
   0   4  10   72.80    4.94
   0   4  10   92.56    8.60
   0   4 -10   70.48    8.71
   0   4 -10   66.47    4.65
   0  -4  11  170.53    7.44
   0   4  11  149.24    9.30
   0  -4  11  199.04   13.27
   0   4  11  190.43    7.49
   0   4  11  201.43   14.69
   0   4 -11  160.48   11.47
   0   4 -11  178.80   13.74
   0   4  12  189.36   17.50
   0   4  12  224.97   10.22
   0  -4  12  224.10    9.54
   0   4  12  251.19   18.59
   0  -4  12  232.54   16.68
   0   4 -12  223.54   11.80
   0  -4  13   92.47    5.70
   0  -4  13  104.07   10.28
   0   4  13   99.86    9.28
   0   4  13  106.29   11.24
   0   4  13   73.08    7.15
   0   4 -13   88.48    6.72
   0   4  14    7.84    3.15
   0  -4  14   13.22    4.54
   0  -4  14    3.89    4.20
   0   4  14    6.76    4.40
   0   4  14    7.11    4.99
   0   4 -14    3.86    2.98
   0   4  15    4.79    7.75
   0  -4  15    6.92    4.37
   0  -4  15   -0.46    2.42
   0   4  15    3.62    2.58
   0   4  15   -0.01    2.94
   0   4  16   18.13    8.05
   0   4  16   25.33    4.72
   0  -4  16   18.02    3.60
   0  -4  16   24.94    7.22
   0   4  16   34.20    7.84
   0  -4  16   20.09    4.30
   0  -4  17   16.11    7.78
   0   4  17   20.94    4.71
   0  -4  17   13.31    7.31
   0   4  17   11.40    4.88
   0   4  17   30.23    7.55
   0  -4  17   15.48    5.81
   0  -5   0    1.80    0.77
   0   5   0    0.10    0.83
   0  -5   1  533.18   19.13
   0   5   1  563.40   18.73
   0   5  -1  543.97   17.20
   0   5  -1  543.06   18.77
   0  -5  -1  562.75   18.20
   0   5   2   92.72    3.44
   0  -5   2   94.77    2.74
   0   5  -2   97.64    2.86
   0  -5  -2  105.28    3.41
   0   5  -2   97.94    3.74
   0  -5   3 1464.31   65.03
   0   5   3 1447.40   71.26
   0   5  -3 1451.33   65.74
   0   5  -3 1424.51   77.36
   0  -5  -3 1475.08   71.03
   0  -5   4  349.97    9.67
   0  -5   4  362.17   14.80
   0   5   4  338.89   12.28
   0  -5  -4  359.45   15.48
   0   5  -4  354.47   15.90
   0   5  -4  327.54    9.92
   0  -5   5 1631.29   91.85
   0  -5   5 1569.41   72.82
   0   5   5 1501.56   89.42
   0   5  -5 1538.84   90.02
   0   5  -5 1507.59   74.01
   0  -5   6 1536.67   87.88
   0   5   6 1444.70   78.95
   0  -5   6 1465.03   73.05
   0   5  -6 1469.99   77.83
   0   5  -6 1487.67   74.10
   0  -5   7    6.23    2.28
   0   5   7    3.49    1.69
   0  -5   7    0.02    0.95
   0   5  -7    1.78    1.42
   0   5  -7    6.57    1.55
   0  -5   8   10.34    2.99
   0   5   8   10.17    2.21
   0  -5   8   10.42    1.39
   0   5  -8   10.59    2.06
   0   5  -8    6.75    3.30
   0   5   9  376.39   16.06
   0  -5   9  354.62   16.12
   0   5   9  327.29   15.93
   0  -5   9  386.59   20.48
   0   5  -9  348.03   15.97
   0   5  -9  387.79   21.62
   0   5  10  168.82    6.55
   0   5  10  216.14   15.90
   0  -5  10  177.59    6.81
   0   5  10  157.32    9.15
   0  -5  10  186.19   12.99
   0   5 -10  171.87    8.86
   0   5 -10  164.09    9.59
   0   5  11   35.06    4.21
   0   5  11   37.86    7.42
   0   5  11   37.59    2.77
   0  -5  11   35.23    2.80
   0  -5  11   50.33    6.11
   0   5 -11   21.39    4.60
   0   5 -11   40.99    3.99
   0   5  12    6.89    4.44
   0  -5  12    4.98    3.94
   0  -5  12    2.52    1.73
   0   5  12    6.87    1.84
   0   5  12    4.22    2.71
   0   5 -12    7.63    4.12
   0   5 -12   -0.19    3.34
   0   5  13   16.48    3.81
   0  -5  13   12.79    9.22
   0   5  13   18.14    2.77
   0  -5  13   12.04    2.57
   0   5  13   23.10    6.12
   0   5 -13   20.90    3.47
   0  -5  14   39.00    4.08
   0   5  14   51.08    4.55
   0   5  14   55.02    9.29
   0  -5  14   50.41    8.76
   0   5  14   34.58    9.39
   0   5 -14   48.91    5.37
   0   5  15   22.50    3.79
   0   5  15   36.54    7.54
   0  -5  15   38.86    7.14
   0  -5  15   14.15    3.43
   0   5  15   20.61    4.75
   0   5 -15   22.37    4.68
   0  -5  16    0.68    5.07
   0  -5  16    0.73    4.07
   0   5  16    5.19    4.62
   0   5  16   -1.54    3.36
   0   5  16    4.65    8.59
   0   5  17    8.15    4.61
   0   5  17   12.97    7.22
   0   6   0  262.15    8.19
   0  -6   0  256.00   10.15
   0   6   1   90.88    5.25
   0  -6   1   95.56    3.10
   0   6  -1   86.86    3.82
   0   6  -1   92.60    3.19
   0  -6  -1   91.36    3.49
   0  -6   2  890.34   33.85
   0   6   2  928.56   43.66
   0   6  -2  925.59   35.53
   0   6  -2  875.98   37.50
   0  -6  -2  921.05   37.95
   0  -6   3  776.97   27.80
   0   6   3  775.72   37.70
   0  -6  -3  804.22   32.21
   0   6  -3  782.38   28.88
   0   6  -3  754.17   31.62
   0   6   4    8.15    1.87
   0  -6   4   11.20    1.10
   0  -6  -4   11.05    1.76
   0   6  -4    8.03    1.32
   0   6  -4   10.50    1.96
   0   6   5  204.99    8.69
   0  -6   5  225.69   10.97
   0  -6   5  195.16    7.68
   0  -6  -5  222.86    8.40
   0   6  -5  194.46    8.27
   0   6  -5  202.13    6.72
   0   6   6   64.64    4.04
   0  -6   6   77.18    5.43
   0  -6   6   59.74    3.61
   0   6  -6   52.53    4.38
   0   6  -6   60.39    3.82
   0   6   7  309.37   13.45
   0  -6   7  291.83   11.88
   0  -6   7  342.30   16.65
   0   6  -7  276.93   14.41
   0   6  -7  289.26   12.13
   0   6   8   48.76    6.49
   0  -6   8   45.11    2.48
   0  -6   8   61.30    5.65
   0   6  -8   52.29    3.46
   0   6  -8   48.97    3.91
   0  -6   9   17.31    4.13
   0   6   9   13.18    4.62
   0  -6   9   12.81    1.74
   0   6  -9   15.76    2.69
   0   6  -9   17.32    2.70
   0  -6  10   56.29    3.47
   0   6  10   68.34    4.91
   0  -6  10   60.93    7.64
   0   6  10   63.77    8.46
   0   6 -10   63.80    4.97
   0   6 -10   63.68    5.05
   0  -6  11   56.76    7.51
   0  -6  11   42.71    4.98
   0   6  11   44.99    8.08
   0   6  11   48.03    3.16
   0   6  11   55.94    8.87
   0   6 -11   51.98    5.11
   0   6 -11   44.87    4.62
   0   6  12  100.75    8.69
   0   6  12  119.92    5.90
   0   6  12  149.44   14.86
   0  -6  12  127.99    8.65
   0  -6  12  121.85   12.64
   0   6 -12  106.44   14.04
   0   6 -12  115.32    8.09
   0  -6  13   42.84    8.07
   0   6  13   39.25    8.69
   0  -6  13   24.61    5.47
   0   6  13   42.33    5.45
   0   6  13   41.00    3.48
   0   6 -13   50.83    7.97
   0  -6  14    9.43    4.27
   0   6  14   19.98    4.25
   0   6  14   19.25    6.81
   0  -6  14   21.06    6.47
   0   6  14   14.55    2.92
   0   6 -14   12.56    3.88
   0  -6  15   16.39    7.68
   0   6  15   19.81    8.15
   0   6  15   19.34    3.54
   0   6  15   19.26    4.99
   0   6 -15   18.78    4.54
   0  -6  16    3.98    2.66
   0   6  16    7.60    6.53
   0   6  16    1.42    6.97
   0   6 -16   14.60    4.26
   0   6  17   -1.32    9.43
   0   6  17   -0.33    3.71
   0  -7   0    1.14    1.12
   0   7   0    0.40    1.18
   0   7   1  453.87   16.83
   0  -7   1  458.34   18.86
   0   7  -1  450.12   15.96
   0  -7  -1  467.09   16.54
   0   7  -1  453.99   17.34
   0   7   2  406.39   15.61
   0  -7   2  400.66   13.16
   0  -7  -2  423.86   15.23
   0   7  -2  404.92   17.36
   0   7  -2  407.69   15.87
   0   7   3  140.58    6.28
   0  -7   3  149.17    4.67
   0  -7  -3  145.42    5.92
   0   7  -3  130.60    4.81
   0   7  -3  148.05    6.17
   0  -7   4  224.53    6.93
   0   7   4  224.54   13.34
   0   7  -4  229.33    7.44
   0  -7  -4  245.39    9.48
   0   7  -4  228.21    9.61
   0  -7   5  644.96   22.52
   0   7   5  649.48   28.69
   0  -7  -5  662.67   27.88
   0   7  -5  597.73   26.57
   0   7  -5  622.48   23.88
   0   7   6   15.25    2.68
   0  -7   6   17.02    1.49
   0   7  -6   16.88    4.08
   0   7  -6   18.35    1.82
   0  -7   7   27.55    4.51
   0   7   7   27.94    3.39
   0  -7   7   26.83    1.80
   0   7  -7   23.04    2.40
   0   7  -7   28.23    3.17
   0  -7   8   74.80    5.14
   0  -7   8   99.82    8.11
   0   7   8   79.84    6.02
   0   7  -8   88.18    5.54
   0   7  -8   85.85    4.73
   0  -7   9  531.05   32.28
   0   7   9  483.91   25.05
   0  -7   9  478.81   18.21
   0   7  -9  464.17   22.48
   0   7  -9  470.28   29.24
   0  -7  10  169.74    9.63
   0  -7  10  185.14   14.18
   0   7  10  164.60   10.33
   0   7 -10  145.74    9.20
   0   7 -10  162.49    9.47
   0  -7  11  108.83   10.50
   0   7  11   88.66    4.37
   0  -7  11   87.49    4.49
   0   7  11   78.04    7.23
   0   7 -11   73.18    6.16
   0   7 -11   81.83   10.60
   0   7  12   15.99    3.44
   0   7  12    9.85    3.70
   0   7  12    8.98    6.57
   0  -7  12    9.84    2.06
   0  -7  12   11.14    5.50
   0   7 -12    9.28    6.17
   0   7 -12   17.57    5.53
   0   7  13   -3.35    8.94
   0  -7  13    9.67    5.05
   0   7  13    4.40    3.23
   0  -7  13    3.66    1.88
   0   7  13    4.18    3.38
   0   7 -13    4.13    3.78
   0   7 -13    6.06    3.02
   0  -7  14   20.45    2.97
   0   7  14   14.16    8.22
   0   7  14   29.12    8.17
   0   7  14   20.78    3.09
   0   7 -14   27.11    4.49
   0   7  15   10.07    2.66
   0  -7  15    4.29    2.24
   0   7  15    4.68    6.78
   0   7  15    2.94    6.76
   0   7 -15    4.09    3.65
   0   7  16   23.52    6.29
   0   7  16   41.72   17.05
   0   7 -16   29.09    5.80
   0   7  17    3.70    8.50
   0   7  17   13.98    5.29
   0   8   0  707.68   29.81
   0  -8   0  726.63   29.36
   0  -8   1  497.82   18.26
   0   8   1  511.64   25.57
   0   8  -1  475.16   19.78
   0  -8  -1  505.67   19.53
   0   8  -1  493.99   18.85
   0   8   2  724.84   38.78
   0  -8   2  757.81   29.56
   0   8  -2  710.69   31.80
   0   8  -2  730.48   29.66
   0  -8  -2  742.60   31.52
   0  -8   3   41.92    2.31
   0   8   3   42.64    3.36
   0   8  -3   37.24    3.25
   0  -8  -3   44.62    3.07
   0   8  -3   42.03    2.57
   0   8   4    1.49    1.80
   0  -8   4    3.35    1.14
   0  -8  -4   -1.55    1.64
   0   8  -4    4.43    1.28
   0   8  -4    0.70    1.82
   0   8   5  168.89    8.48
   0  -8   5  169.73    5.84
   0  -8  -5  176.27   11.71
   0   8  -5  171.35    9.41
   0   8  -5  170.67    8.06
   0   8   6  341.32   16.29
   0  -8   6  336.85   11.18
   0   8  -6  329.03   17.07
   0  -8  -6  343.28   15.34
   0   8  -6  319.62   15.10
   0  -8   7    6.47    2.19
   0   8   7    8.50    2.45
   0   8  -7    2.22    1.71
   0   8  -7    4.64    2.29
   0  -8   8  250.02    9.11
   0   8   8  259.17   14.15
   0   8  -8  251.90   11.34
   0   8  -8  256.18   12.64
   0  -8   9  323.07   12.45
   0   8   9  342.34   18.51
   0   8  -9  329.29   16.46
   0   8  -9  327.69   21.97
   0   8  10    3.71    3.02
   0  -8  10    4.26    1.58
   0   8 -10    5.38    2.58
   0   8 -10    7.64    2.58
   0  -8  11    9.77    2.90
   0   8  11    7.02    1.85
   0   8  11    8.18    3.45
   0   8 -11    4.00    4.96
   0   8 -11    9.41    4.78
   0   8  12  174.86   10.32
   0   8  12  140.36   11.40
   0  -8  12  149.31   10.07
   0   8  12   99.69   18.69
   0   8 -12  150.00   10.10
   0   8 -12  141.12   11.17
   0   8  13    1.74    5.98
   0  -8  13    3.24    1.78
   0   8  13   -0.09    1.84
   0   8  13    4.48    3.49
   0   8 -13    7.39    2.98
   0   8 -13   -0.15    3.31
   0   8  14    1.18    4.14
   0  -8  14    5.01    2.18
   0   8  14    4.42    6.95
   0   8  14    7.91    2.28
   0   8 -14    3.71    4.38
   0   8 -14   12.16    3.59
   0  -8  15   -1.49    1.69
   0   8  15   -0.07    3.52
   0   8  15    7.77    6.01
   0   8 -15    3.50    3.02
   0   8  16    5.55    4.79
   0   8  16    4.94    7.89
   0   8 -16   10.32    6.88
   0   9   0   -3.62    1.55
   0   9   0   -1.68    1.59
   0  -9   0    1.38    1.40
   0   9   1  225.60   10.03
   0  -9   1  232.58   12.00
   0   9  -1  203.96   13.38
   0   9  -1  229.67    9.24
   0  -9  -1  220.45    9.06
   0  -9   2  677.83   32.32
   0   9   2  664.73   30.44
   0   9  -2  671.23   28.23
   0  -9  -2  667.40   29.18
   0   9  -2  638.98   29.21
   0   9   3  151.95    7.81
   0  -9   3  148.74    5.74
   0  -9  -3  150.78    7.17
   0   9  -3  148.84    7.35
   0   9  -3  148.43    6.25
   0  -9   4   69.23    3.18
   0   9   4   64.00    4.79
   0   9  -4   54.58    3.47
   0   9  -4   53.94    4.50
   0  -9  -4   61.27    4.15
   0  -9   5   28.07    2.18
   0   9   5   33.38    3.58
   0  -9  -5   31.92    3.24
   0   9  -5   32.89    5.57
   0   9  -5   23.04    2.60
   0  -9   6    5.05    1.52
   0   9   6    7.05    2.70
   0   9  -6    6.94    2.01
   0   9  -6    7.92    2.56
   0  -9  -6   11.75    2.41
   0   9   7  188.95   16.31
   0  -9   7  172.88    6.58
   0   9  -7  170.47   10.04
   0   9  -7  179.40   11.47
   0   9   8  100.32    8.32
   0  -9   8  105.91    4.63
   0   9  -8  110.49    6.29
   0   9  -8  121.76   11.80
   0   9   9   42.81    5.86
   0  -9   9   59.40    4.90
   0   9  -9   48.00    5.20
   0   9  -9   55.86    7.40
   0  -9  10    3.45    1.50
   0   9  10    2.80    3.08
   0   9 -10    2.95    2.57
   0   9 -10    0.71    2.50
   0   9  11   16.24    4.19
   0  -9  11   12.30    2.15
   0   9 -11    8.98    6.10
   0   9 -11   18.44    3.56
   0   9  12   28.26    5.90
   0  -9  12   35.11    3.16
   0   9  12   38.00    3.11
   0   9 -12   39.17    5.49
   0   9 -12   43.76    5.23
   0  -9  13    3.49    3.61
   0   9  13    4.24    7.64
   0   9  13    8.24    2.16
   0   9  13   10.98    4.23
   0   9 -13    8.38    3.94
   0   9 -13    5.43    5.94
   0  -9  14    2.95    3.38
   0   9  14   -0.22   12.06
   0   9  14    2.84    3.38
   0   9  14   -0.81    4.04
   0   9 -14    1.49    6.74
   0   9 -14    7.19    3.42
   0   9  15    5.23    7.46
   0   9  15    6.05    7.42
   0   9 -15    3.69    3.90
   0   9  16    3.44    4.70
   0   9  16   -3.50    7.69
   0   9 -16    6.86    4.09
   0  10   0  509.56   22.97
   0  10   0  536.89   23.92
   0 -10   0  548.05   23.02
   0 -10   1  333.10   14.17
   0  10   1  376.91   16.66
   0 -10  -1  373.85   15.39
   0  10  -1  335.88   15.50
   0  10  -1  366.86   15.55
   0 -10   2  383.12   15.46
   0  10   2  397.89   24.87
   0 -10  -2  398.74   17.33
   0  10  -2  377.04   23.80
   0  10  -2  415.34   22.59
   0  10   3   87.83    5.82
   0 -10   3   76.05    4.27
   0  10  -3   82.13    5.49
   0  10  -3   89.00    4.86
   0 -10  -3   80.66    5.24
   0 -10   4  135.16    5.71
   0  10   4  124.70    8.09
   0  10  -4  124.74    6.33
   0  10  -4  133.53    7.84
   0 -10  -4  143.72   11.00
   0  10   5  169.98   10.89
   0 -10   5  187.80    7.42
   0  10  -5  202.72   12.53
   0 -10  -5  184.59    9.91
   0  10  -5  196.45   15.83
   0  10   6  208.96   12.64
   0 -10   6  208.76    8.21
   0  10  -6  192.24   11.12
   0  10  -6  201.83    9.60
   0 -10  -6  214.26   11.64
   0  10   7   72.28    6.42
   0 -10   7   57.39    3.57
   0  10  -7   67.02    4.68
   0  10  -7   62.51    5.68
   0  10   8  112.81    9.14
   0 -10   8  111.04    5.10
   0  10  -8  118.57    6.73
   0  10  -8  110.00    8.35
   0 -10   9   58.77    3.65
   0  10   9   54.40    7.12
   0  10  -9   68.82    5.92
   0  10  -9   71.13    5.42
   0  10  10   22.77    5.23
   0 -10  10   22.48    4.22
   0  10 -10   34.74    6.97
   0  10 -10   26.95    6.55
   0 -10  11   10.31    2.21
   0  10  11   10.33    4.33
   0  10 -11   14.40    3.60
   0  10 -11   15.09    3.67
   0  10  12   20.68    5.12
   0  10  12   28.07    2.83
   0 -10  12   14.24    2.71
   0  10 -12   21.07    4.70
   0  10 -12   25.33    4.63
   0  10  13   17.54    5.13
   0  10  13   11.91    9.53
   0  10  13   14.53    4.17
   0 -10  13   11.47    2.62
   0  10 -13   11.99    7.51
   0  10 -13   19.81    4.43
   0  10  14   20.09    9.91
   0  10  14   22.16    5.53
   0 -10  14    5.92    2.77
   0  10 -14   26.34    4.68
   0  10 -14   11.48    4.97
   0  10  15   24.55   12.58
   0  10  15   28.79    7.66
   0  10 -15   37.79    6.52
   0  11   0   -2.12    1.85
   0 -11   0    1.64    1.72
   0  11   0    2.72    3.17
   0  11   1   77.38    4.99
   0 -11   1   78.93    4.77
   0  11   1   69.54    5.59
   0 -11  -1   75.52    5.13
   0  11  -1   71.85    5.37
   0  11  -1   80.07    8.14
   0 -11   2  265.95   15.63
   0  11   2  267.82   13.61
   0 -11  -2  260.51   12.56
   0  11  -2  237.08   12.19
   0  11  -2  256.18   17.05
   0 -11   3   47.17    3.61
   0  11   3   58.44    5.00
   0 -11  -3   50.49    4.58
   0  11  -3   53.63    4.29
   0  11  -3   50.68    4.83
   0 -11   4   67.20    4.15
   0  11   4   78.59    6.38
   0  11  -4   67.06    4.90
   0  11  -4   76.43    5.76
   0 -11  -4   66.31    5.39
   0 -11   5   27.79    2.86
   0  11   5   35.38    4.70
   0  11  -5   21.24    6.85
   0  11  -5   28.12    3.32
   0 -11  -5   34.24    3.89
   0 -11   6   21.18    2.45
   0  11   6   27.90    4.59
   0  11  -6   25.16    3.82
   0 -11  -6   24.25    3.86
   0  11  -6   19.08    3.13
   0  11   7  184.28   12.41
   0 -11   7  148.85    7.07
   0  11  -7  175.95    9.50
   0  11  -7  165.56   10.54
   0 -11   8   36.47    3.04
   0  11   8   38.30    5.88
   0  11  -8   35.43    4.18
   0  11  -8   32.93    4.88
   0 -11   9  202.58    8.96
   0  11   9  188.13   15.21
   0  11  -9  190.07   13.00
   0  11  -9  210.23   11.69
   0  11  10   85.97    9.21
   0 -11  10   74.51    7.66
   0  11 -10   86.71    7.45
   0  11 -10   80.05    7.65
   0  11  11   39.23    6.25
   0 -11  11   43.75    3.60
   0  11 -11   36.13    5.73
   0  11 -11   36.19    5.67
   0  11  12    2.10    3.76
   0 -11  12    3.17    2.09
   0  11 -12    1.56    5.51
   0  11 -12   -0.38    5.46
   0 -11  13    1.40    2.01
   0  11  13   -2.32    3.95
   0  11 -13    2.77    3.32
   0  11 -13    0.42    3.25
   0  11  14    7.27    8.20
   0  11  14   -0.09    4.51
   0  11 -14    6.28    3.75
   0  11 -14   -2.76    6.33
   0  11  15   -3.57   14.52
   0  11  15    4.68    4.86
   0  11 -15    1.65    4.05
   0  12   0  357.89   18.41
   0 -12   0  405.93   18.96
   0  12   0  398.80   19.95
   0 -12   1   98.21    6.23
   0  12   1   97.86    7.45
   0  12   1  100.22    6.33
   0  12  -1   90.31    6.82
   0 -12  -1   93.64    6.43
   0  12  -1  101.30    7.01
   0 -12   2   88.92    5.54
   0  12   2   87.87    7.10
   0  12   2   89.48    5.73
   0  12  -2   85.50    6.42
   0  12  -2   75.49    6.09
   0 -12  -2   96.09   10.03
   0 -12   3   89.21    8.86
   0  12   3   94.30    8.00
   0  12  -3   89.61    7.17
   0 -12  -3  105.63    6.91
   0  12  -3  102.90    6.71
   0 -12   4  379.58   16.82
   0  12   4  382.85   22.32
   0  12  -4  368.84   18.64
   0  12  -4  361.43   20.18
   0 -12  -4  389.35   19.55
   0 -12   5   66.95    4.58
   0  12   5   74.25    7.21
   0 -12  -5   68.96    6.18
   0  12  -5   68.25    9.53
   0  12  -5   67.39    5.51
   0  12   6  117.91   10.35
   0 -12   6  116.26    6.18
   0  12  -6  128.30   11.28
   0  12  -6  113.44    8.57
   0 -12  -6  112.23    8.66
   0  12   7   20.13    5.04
   0 -12   7   22.74    4.34
   0  12  -7   17.69    4.09
   0  12  -7   20.51    3.59
   0  12   8   94.30    9.44
   0 -12   8   84.33    5.22
   0  12  -8   81.65    8.14
   0  12  -8   98.25    6.92
   0 -12   9   33.87    3.39
   0  12   9   34.88    6.01
   0  12  -9   23.31    5.26
   0  12  -9   40.80    4.87
   0  12  10   63.91    8.60
   0 -12  10   72.63    7.79
   0  12 -10   74.15    7.12
   0  12 -10   72.03    7.62
   0  12  11   43.23   11.26
   0 -12  11   36.38    3.74
   0  12 -11   35.61    5.96
   0  12 -11   36.03    5.94
   0  12  12   -2.81    6.62
   0 -12  12    2.47    2.22
   0  12 -12    3.88    3.49
   0  12 -12    2.34    3.54
   0  12  13    5.21    8.46
   0 -12  13    7.01    2.74
   0  12 -13    7.28    7.28
   0  12 -13   16.40    4.48
   0  12  14   46.26    9.50
   0  12  14   53.37   17.03
   0  12 -14   52.78   12.84
   0 -13   0    3.60    3.67
   0  13   0    0.92    2.29
   0  13   0    0.12    2.50
   0  13   1   99.69   11.66
   0  13   1  125.41    8.86
   0 -13   1  105.10    7.35
   0  13  -1  129.32    8.46
   0 -13  -1  116.49    7.76
   0  13  -1   86.09   12.02
   0 -13   2   44.43    6.68
   0  13   2   43.95    4.51
   0  13   2   49.78    5.52
   0  13  -2   38.02    4.77
   0  13  -2   39.04    4.86
   0 -13  -2   36.94    4.76
   0 -13   3   33.05    3.32
   0  13   3   12.62    3.37
   0  13   3   25.03    4.57
   0  13  -3   16.24    6.56
   0 -13  -3   20.61    3.87
   0  13  -3   17.81    3.79
   0  13   4  133.28   10.82
   0 -13   4  137.02   11.47
   0  13  -4  137.98    8.99
   0 -13  -4  131.63    9.40
   0  13  -4  124.02    9.75
   0 -13   5    8.81    2.37
   0  13   5    6.29    3.93
   0  13  -5    2.63    3.02
   0 -13  -5   10.88    3.36
   0  13  -5   12.60    3.27
   0  13   6   13.48    4.50
   0 -13   6    8.75    4.33
   0  13  -6   14.59    3.72
   0  13  -6   13.46    3.31
   0 -13  -6   18.09    3.97
   0  13   7  103.69   15.75
   0 -13   7   90.59    5.82
   0  13  -7   86.67    7.97
   0  13  -7   89.69    7.38
   0  13   8    5.02    3.74
   0 -13   8    1.51    2.08
   0  13  -8    4.15    3.24
   0  13  -8    2.71    2.82
   0  13   9   25.44    5.61
   0 -13   9    5.99    5.14
   0  13  -9   21.94    6.99
   0  13  -9   25.65    4.62
   0  13  10    9.45    4.87
   0 -13  10    6.43    2.67
   0  13 -10   17.46    4.10
   0  13 -10    8.93    3.99
   0 -13  11   65.88    5.56
   0  13  11   53.35    9.47
   0  13 -11   72.00    8.14
   0  13 -11   68.87    8.17
   0  13  12   50.19    8.56
   0 -13  12   43.89    4.87
   0  13 -12   58.73    7.32
   0  13 -12   36.60   12.23
   0  13  13    0.29    4.49
   0  13 -13    1.12    3.66
   0  13 -14    8.13    5.16
   0 -14   0  127.78    8.44
   0  14   0  118.86    8.47
   0  14   0  119.23    9.51
   0 -14   1   53.72    4.97
   0  14   1   45.51    6.03
   0  14   1   50.78    4.96
   0 -14  -1   53.55    5.30
   0  14  -1   36.33    5.13
   0  14  -1   41.77    5.80
   0  14   2   31.86    5.64
   0 -14   2   33.50    4.25
   0  14   2   28.49    7.23
   0  14  -2   41.11    5.04
   0  14  -2   41.09    4.83
   0 -14  -2   32.52    4.87
   0  14   3    4.42    6.54
   0 -14   3   10.26    2.81
   0  14   3   11.91    2.91
   0  14  -3    5.33    3.50
   0 -14  -3   12.39    3.54
   0  14  -3    5.33    3.45
   0  14   4   -4.51    2.22
   0 -14   4   -1.96    2.23
   0  14   4    5.97    3.36
   0  14  -4   -2.35    2.69
   0  14  -4   -2.01    2.90
   0 -14  -4    0.64    2.84
   0  14   5    5.48    3.70
   0 -14   5    0.42    3.76
   0  14  -5    1.38    2.99
   0 -14  -5   -4.48    5.21
   0  14  -5    7.15    3.00
   0 -14   6   46.51    4.25
   0  14   6   43.97    6.69
   0  14  -6   34.34    5.85
   0 -14  -6   42.73    6.07
   0  14  -6   33.85    5.46
   0  14   7   17.67    5.18
   0 -14   7   15.75    3.04
   0  14  -7   17.07    6.44
   0  14  -7   11.77    4.34
   0  14   8   16.69    5.42
   0 -14   8   17.19    5.11
   0  14  -8   12.98    4.49
   0  14  -8   14.95    4.13
   0  14   9    8.52    4.85
   0 -14   9    4.21    2.74
   0  14  -9    9.52    4.00
   0  14  -9    9.16    3.96
   0  14  10   41.84   13.71
   0 -14  10   49.27    5.01
   0  14 -10   43.97   11.43
   0  14 -10   47.04    7.03
   0  14  11   11.39    9.10
   0 -14  11    8.87    3.31
   0  14 -11   13.22    5.20
   0  14 -11   14.35    4.72
   0 -14  12    0.71    2.72
   0  14  12    1.49    4.74
   0  14 -12    4.27    4.43
   0  14 -12    9.08    4.10
   0  14  13   15.72    7.44
   0  14 -13   26.18    6.59
   0 -15   0    1.56    2.64
   0  15   0    2.64    2.56
   0  15   0   -2.42    3.19
   0  15   1   58.45    7.03
   0  15   1   49.98    5.86
   0 -15   1   52.40    5.84
   0  15  -1   53.89    5.96
   0  15  -1   44.93   11.06
   0 -15  -1   63.01    6.16
   0  15   2   82.83    6.92
   0 -15   2   81.23    7.01
   0  15   2   82.18   14.27
   0  15  -2   69.50   11.91
   0 -15  -2   79.27    7.77
   0  15  -2   91.21    8.19
   0  15   3   79.76    8.72
   0 -15   3   83.24    6.51
   0  15   3   56.43   10.29
   0  15  -3   72.47    7.57
   0 -15  -3   75.30   11.92
   0  15  -3   63.98    7.54
   0  15   4   -1.45    5.80
   0 -15   4   -7.74    4.14
   0  15   4    3.99    2.53
   0  15  -4    1.44    3.02
   0 -15  -4    2.01    3.12
   0  15  -4    2.03    3.09
   0 -15   5   15.15    3.70
   0  15   5   11.35    3.48
   0  15   5   28.82    5.38
   0  15  -5   17.19    4.58
   0  15  -5   24.69    4.53
   0 -15  -5   14.94    7.73
   0  15   6    7.78    4.71
   0 -15   6    9.04    3.13
   0  15   6    8.93    3.07
   0  15  -6   10.52    4.09
   0 -15  -6   11.60    4.25
   0  15  -6   11.27    4.08
   0 -15   7   81.62    9.90
   0  15   7   73.26   15.19
   0  15  -7   68.34    7.75
   0  15  -7   58.49    8.01
   0 -15   8    4.78    3.33
   0  15   8   12.96    5.32
   0  15  -8   13.97    6.56
   0  15  -8   13.84    4.34
   0 -15   9    0.61    2.82
   0  15   9    8.94    4.68
   0  15  -9    7.34    3.74
   0  15  -9    1.05    4.04
   0 -15  10    4.14    3.14
   0  15  10    8.26    5.17
   0  15 -10    4.22    4.31
   0  15 -10    8.64    4.47
   0 -15  11   79.31    7.46
   0  15  11   83.07   12.53
   0  15 -11   76.05   18.01
   0  15 -11   78.04    9.89
   0  15  12   29.00    8.76
   0  15 -12   35.19    7.70
   0  16   0   59.86    8.46
   0  16   0   67.31    6.83
   0 -16   0   79.85   11.39
   0 -16   1   35.21    5.19
   0  16   1   35.51    4.88
   0  16   1   35.75    6.41
   0 -16  -1   27.11    5.39
   0  16  -1   31.89    5.32
   0  16  -1   30.71    6.07
   0  16   2   31.02    5.68
   0 -16   2   19.19    4.48
   0  16   2   19.42    4.47
   0  16  -2   24.79    4.88
   0  16  -2   27.28    8.58
   0 -16  -2   24.67    5.10
   0  16   3   25.74    5.64
   0  16   3   19.41    4.19
   0 -16   3   16.92    4.19
   0 -16  -3   18.38    4.98
   0  16  -3   19.75    4.86
   0  16  -3   24.16    5.11
   0  16   4    2.32    3.38
   0  16   4    5.76    4.80
   0 -16   4   12.88    3.45
   0  16  -4   12.39    3.75
   0  16  -4   17.56    4.19
   0 -16  -4   -0.74    4.07
   0  16   5    9.52    3.95
   0  16   5   21.52    9.53
   0 -16   5   16.74    6.61
   0  16  -5   22.70    4.73
   0 -16  -5   29.08    5.05
   0  16  -5   12.69    5.06
   0 -16   6   -3.36    2.74
   0  16   6    3.17    4.02
   0  16   6   -3.65    2.73
   0 -16  -6    6.54    3.55
   0  16  -6   10.96    5.57
   0  16  -6    6.15    3.61
   0  16   7   -2.64    4.41
   0 -16   7   -4.81    2.98
   0  16   7   -0.91    2.77
   0  16  -7   -1.25    3.71
   0  16  -7   -3.24    3.73
   0 -16   8    4.43    3.01
   0  16   8   -1.06    4.74
   0  16   8    3.56    2.77
   0  16  -8    3.03    3.94
   0  16  -8   -0.11    6.40
   0 -16   9    5.08    3.32
   0  16   9   12.45    8.86
   0  16   9    2.88    3.14
   0  16  -9    7.56    4.68
   0  16  -9    9.22    4.33
   0 -16  10   -1.86    5.24
   0  16  10   -0.39    4.71
   0  16 -10    8.01    4.21
   0  16 -10    4.26    4.79
   0  16  11    0.01    4.95
   0 -16  11    0.18    4.70
   0  16 -11   -1.44    4.17
   0  16 -11   -0.85    4.68
   0  17   0    0.61    4.10
   0 -17   0    4.75    3.37
   0  17   0    2.29    3.20
   0  17   1   32.34    6.92
   0  17   1   24.02    5.15
   0 -17   1   37.00    5.49
   0 -17  -1   33.71    5.95
   0  17  -1   27.92    5.41
   0  17  -1   27.13    6.41
   0  17   2    2.34    3.01
   0 -17   2    1.83    3.17
   0  17   2    0.23    4.06
   0  17  -2    2.92    3.48
   0 -17  -2    1.85    5.66
   0  17  -2    2.05    3.86
   0  17   3   26.94    7.06
   0 -17   3   31.96    5.40
   0  17   3   33.11    5.25
   0  17  -3   24.13    6.25
   0  17  -3   36.73   10.61
   0 -17  -3   35.13    5.88
   0  17   4    6.79    3.80
   0  17   4   20.79    5.43
   0 -17   4    5.23    3.90
   0  17  -4    9.51    4.74
   0  17  -4   11.71    4.27
   0 -17  -4   15.00    7.56
   0  17   5   79.39   10.95
   0  17   5   77.71    7.70
   0 -17   5   76.58    7.95
   0  17  -5   70.60    9.69
   0 -17  -5   87.80    9.88
   0  17  -5   69.08    8.90
   0  17   6    7.47    9.87
   0 -17   6   15.03    4.19
   0  17   6    8.39    3.93
   0 -17  -6   13.36    5.35
   0  17  -6   14.73    5.29
   0  17  -6   13.74    4.68
   0 -17   7   -0.05    5.76
   0  17   7    2.70    5.25
   0  17   7    3.39    5.57
   0  17  -7   13.49    4.27
   0  17  -7    2.14    4.62
   0 -17   8    0.18    5.96
   0  17   8    9.29    4.94
   0  17   8    8.16    5.82
   0  17  -8    4.28    7.47
   0  17  -8    3.22    8.29
   0  17   9   23.31    8.16
   0 -17   9   20.77    5.40
   0  17   9   24.30    7.58
   0  17  -9   32.69   12.00
   0  17  -9   36.09    6.99
   0  18   0   27.18    7.67
   0  18   0   33.45    6.24
   0 -18   0   40.53    6.69
   0  18   1   31.71    7.83
   0  18   1   36.56    5.89
   0 -18   1   42.76    6.46
   0  18  -1   32.40    6.40
   0  18  -1   31.80    7.43
   0 -18  -1   23.00   11.01
   0 -18   2   20.01    5.17
   0  18   2   22.48    4.68
   0  18  -2   16.39    6.03
   0  18  -2   11.57    5.50
   0 -18  -2   19.97    5.47
   0 -18   3    1.91    3.45
   0  18   3    3.11    4.42
   0  18   3   -2.53    3.20
   0 -18  -3   -7.21    3.75
   0  18  -3   -1.98    3.68
   0  18  -3   -1.50    4.12
   0 -18   4    7.72    3.99
   0  18   4    5.03    6.24
   0  18   4    7.63    5.34
   0  18  -4    3.69    8.11
   0  18  -4   10.07    4.35
   0 -18  -4    4.51    4.62
   0 -18   5    2.49    5.57
   0  18   5    1.81    3.31
   0  18   5    7.16    4.88
   0  18  -5   -2.17    7.08
   0  18  -5    2.11    3.91
   0 -18  -5   -1.48    4.13
   0 -18   6    3.50    4.23
   0  18   6    8.43    3.83
   0  18   6    2.78    5.80
   0  18  -6    9.94    4.52
   0  18  -6    7.71    4.88
   0  18   7    5.93    4.66
   0 -18   7   16.01    4.86
   0  18   7   26.34    6.42
   0  18  -7   15.36    5.82
   0  18  -7   23.48    6.07
   0  18   8    6.31    3.97
   0  18   8    4.75    9.28
   0 -18   8    4.71    4.27
   0  18  -8   14.93    5.03
   0  18  -8   11.56    9.34
   0  19   0    1.80    3.84
   0 -19   0    2.59    4.09
   0  19   0    3.99    4.84
   0 -19   1   14.11    5.68
   0  19   1   13.66    5.19
   0  19   1   16.96    6.85
   0  19  -1   19.69    5.48
   0  19  -1   18.83   10.80
   0 -19  -1   22.09    5.79
   0 -19   2   20.05    5.48
   0  19   2   19.17    8.32
   0  19   2   25.63    7.33
   0 -19  -2   13.83    6.15
   0  19  -2   19.75    9.21
   0  19  -2   15.33    6.68
   0  19   3    9.35    4.09
   0 -19   3   -2.69    7.20
   0  19   3    9.90    9.38
   0  19  -3    9.00    5.55
   0  19  -3    6.83    4.67
   0 -19   4    6.23    3.99
   0  19   4   -3.38    3.90
   0  19   4    8.76    5.53
   0 -19  -4    1.26    4.63
   0  19  -4    1.18    4.46
   0  19  -4   12.21    5.00
   0  19   5   28.95    5.97
   0  19   5   24.70    8.67
   0 -19   5   26.46    6.48
   0 -19  -5   31.69    7.36
   0  19  -5   21.78   12.90
   0  19  -5   24.37    6.53
   0  19   6    1.95    3.90
   0 -19   6    8.90    4.40
   0  19   6   -4.19    6.28
   0  19  -6   24.38    8.45
   0  19  -6    7.15    4.78
   0  20   0   10.84    5.04
   0  20   0    5.00    6.32
   0 -20   0   11.11    5.28
   0  20   1   -1.09    3.72
   0  20   1   -9.15    5.52
   0 -20  -1    1.56    4.17
   0  20  -1    3.37    6.18
   0  20  -1    1.80    4.87
   0  20   2   62.40    9.12
   0 -20   2   76.50    9.73
   0  20   2   68.06   14.31
   0  20  -2   73.93    9.76
   0  20  -2   31.21   19.44
  -1   0  18   11.32    3.82
  -1   0  18   -0.94    8.58
  -1   0  18    0.03    5.27
  -1   0  17   -1.36    4.24
  -1   0  17   -0.74    4.06
  -1   0  17   -1.51    2.96
  -1   0  16   -0.67    2.62
  -1   0  16   -5.28    6.08
  -1   0  16    4.96    5.79
  -1   0  15    5.83    3.08
  -1   0  15    9.27    4.31
  -1   0  15    9.88    3.97
  -1   0  14    3.35    2.27
  -1   0  14   -1.87    2.90
  -1   0  14   -0.33    3.07
  -1   0  13    1.76    2.69
  -1   0  13    5.00    3.09
  -1   0  12    7.82    3.02
  -1   0  12   18.56    3.63
  -1   0  11   33.51    5.83
  -1   0  11   31.54    7.11
  -1   0  10  215.18   11.60
  -1   0  10  219.97    9.84
   1   0  -9   72.49    3.10
  -1   0   9   79.26    4.27
  -1   0   9   71.65    5.13
   1   0  -8   -0.11    0.89
  -1   0   8   -1.60    2.59
  -1   0   8    0.91    1.26
   1   0  -7   -1.20    0.81
  -1   0   7   -0.54    1.83
  -1   0   7    0.28    1.53
   1   0  -6   12.28    2.16
   1   0  -6    9.20    0.93
  -1   0   6    9.11    1.76
  -1   0   6    9.00    1.81
   1   0  -5    5.46    1.49
   1   0  -5    0.25    0.98
  -1   0   5    1.24    1.18
  -1   0   5    0.82    1.21
  -1   0   4    4.62    1.14
  -1   0   4    3.19    0.69
   1   0  -3   76.87    2.95
   1   0  -3   73.01    2.25
  -1   0   3   75.15    2.78
  -1   0   3   73.17    1.76
   1   0  -2    9.54    0.41
   1   0  -2    8.28    0.84
  -1   0   2   11.61    0.92
  -1   0   2    9.79    0.43
   1   0   2   14.63    0.38
  -1   0  -2   12.08    0.53
   1   0   3   -1.90    0.67
   1   0   3   -0.41    0.38
   1   0   4    0.63    0.44
   1   0   4    0.56    0.70
   1   0   4   -0.20    0.82
   1   0   5   64.57    2.30
   1   0   5   65.01    2.53
   1   0   6   10.49    1.31
   1   0   6   10.01    2.40
   1   0   7   84.83    3.88
   1   0   7   75.46    3.48
   1   0   8   36.62    2.03
   1   0   8   42.42    2.67
   1   0   8   43.48    2.93
   1   0   9   36.00    2.25
   1   0   9   43.47    3.12
   1   0   9   50.73    5.25
   1   0  10    2.79    2.16
   1   0  10    8.64    2.22
   1   0  10    6.66    2.42
   1   0  11   62.02    6.59
   1   0  11   38.90    2.97
   1   0  11   43.40    4.38
   1   0  12   21.73    3.79
   1   0  12   24.49    3.69
   1   0  12   24.02    2.58
   1   0  13   -0.98    3.03
   1   0  13   -3.96    2.77
   1   0  13   -2.06    4.28
   1   0  14   22.94    3.67
   1   0  14   56.05    5.17
   1   0  14   32.96    8.46
   1   0  15    1.84    2.24
   1   0  15    4.76    3.15
   1   0  15   -2.82    3.39
   1   0  16    5.13    6.44
   1   0  16    7.17    3.75
   1   0  16   -0.13    2.56
   1   0  17    7.67    4.13
   1   0  17   -1.15    4.37
   1   0  17    2.70    2.85
   1   0  18   15.57   10.04
   1   0  18   35.32   10.70
   1   0  18   13.91    4.18
  -1  -1  18    3.84    8.44
  -1   1  18   10.79    5.78
  -1  -1  18    1.35    5.97
  -1   1  18    5.03    4.92
  -1   1  18    6.02    3.83
  -1   1  17    4.38    4.25
  -1   1  17    7.31    5.12
  -1  -1  17    1.55    4.77
  -1   1  17    3.89    3.45
  -1  -1  17    5.11    4.38
  -1  -1  17    3.78    3.19
  -1   1  16   37.33    6.36
  -1  -1  16   48.98    7.28
  -1  -1  16   43.57    4.98
  -1  -1  16   31.77   10.76
  -1   1  16   23.85    5.21
  -1   1  16   37.42    7.73
  -1  -1  15   39.78    6.69
  -1  -1  15   32.78   11.19
  -1   1  15   57.95    7.62
  -1   1  15   43.53    5.17
  -1  -1  15   27.11    4.78
  -1   1  15   59.88    6.08
  -1  -1  14    8.81    3.73
  -1   1  14    9.46    3.45
  -1   1  14   10.31    3.08
  -1   1  14   15.43    4.45
  -1  -1  14   13.08    4.00
  -1   1  13   38.78    4.65
  -1  -1  13   64.61    8.46
  -1   1  13   46.40    5.94
  -1  -1  13   44.58    5.51
  -1   1  13   32.29    4.22
  -1   1  12   92.29    9.58
  -1   1  12   88.49    8.00
  -1  -1  12  109.13   11.10
  -1  -1  12   80.21    6.96
   1   1 -11  128.49    6.07
  -1  -1  11  139.12    8.62
  -1   1  11  139.55    7.16
  -1  -1  11  138.64    8.33
  -1   1  11  143.86   15.05
   1   1 -10   68.35    5.54
  -1   1  10   77.62    6.22
  -1  -1  10   66.44    4.98
  -1   1  10   67.32    5.86
  -1  -1  10   65.89    8.04
   1   1  -9  154.27    5.81
  -1   1   9  165.39    6.25
  -1   1   9  156.07   13.45
  -1  -1   9  179.06    8.27
  -1  -1   9  177.43    7.89
   1   1  -8  100.85    7.06
   1   1  -8  105.05    3.93
  -1  -1   8  110.34    7.38
  -1   1   8  114.50    4.12
  -1  -1   8  101.60    5.53
  -1   1   8  108.39    6.35
   1   1  -7  837.60   51.01
   1   1  -7  878.22   34.83
  -1  -1   7  913.10   41.31
  -1   1   7  926.94   35.80
  -1  -1   7  938.96   45.65
  -1   1   7  923.21   44.44
   1   1  -6   62.09    3.93
   1   1  -6   64.13    3.55
  -1   1   6   68.18    4.16
  -1  -1   6   68.88    3.30
  -1  -1   6   66.31    2.91
  -1   1   6   68.61    2.18
   1   1  -5  511.76   19.49
   1   1  -5  498.29   15.38
  -1  -1   5  539.86   18.32
  -1  -1   5  519.10   16.83
  -1   1   5  528.03   20.49
  -1   1   5  524.24   16.06
   1  -1  -4  714.39   20.31
   1   1  -4  705.27   23.19
   1   1  -4  715.84   30.64
  -1  -1   4  836.35   29.99
  -1   1   4  698.61   20.23
  -1   1   4  784.26   30.16
  -1  -1   4  737.36   26.27
   1  -1  -3  491.96   11.11
   1   1  -3  515.15   14.83
   1   1  -3  516.41   16.32
  -1   1   3  485.09   12.21
  -1  -1   3  523.58   18.65
  -1  -1   3  514.80   18.77
  -1   1   3  523.32   18.24
   1   1  -2   96.83    3.64
   1   1  -2   99.76    2.28
  -1   1   2   95.14    1.21
  -1  -1   2  103.67    2.49
  -1   1   2  110.46    5.00
   1   1   2 1001.99   33.33
   1  -1   2  960.00   28.12
   1  -1   2 1012.18   35.18
  -1  -1  -2 1017.24   33.68
  -1   1  -2  991.54   34.40
   1  -1   3 1384.91   56.78
   1  -1   3 1444.27   68.22
   1   1   3 1468.34   61.20
  -1  -1  -3 1507.55   62.26
  -1   1  -3 1393.98   60.81
   1  -1   4  165.99    4.59
   1  -1   4  168.40    3.70
   1   1   4  157.70    3.79
  -1   1  -4  164.49    4.31
   1   1   5  133.17    3.65
   1  -1   5  132.20    3.52
   1   1   5  125.33    3.36
   1  -1   5  137.07    4.20
  -1   1  -5  126.82    3.75
   1   1   6  453.04   14.40
   1  -1   6  501.40   21.14
   1   1   6  482.07   18.54
   1  -1   6  486.89   15.72
  -1   1  -6  471.87   15.65
   1  -1   7  152.07    6.90
   1   1   7  123.78    4.27
   1   1   7  142.27    4.93
   1  -1   7  151.68    5.79
   1   1   7  162.02    6.98
  -1   1  -7  142.63    4.99
   1  -1   8  252.63    8.87
   1   1   8  240.44    8.49
   1  -1   8  246.33    9.67
   1   1   8  258.46   11.16
   1   1   8  219.81    7.60
   1  -1   9   12.31    2.05
   1   1   9   11.99    1.92
   1   1   9   11.79    1.67
   1   1   9   17.71    2.64
   1  -1   9   12.66    2.37
   1   1  10  365.34   15.30
   1  -1  10  443.80   18.53
   1  -1  10  456.29   20.35
   1   1  10  431.79   27.83
   1   1  10  436.06   23.59
   1   1  11   51.22    4.23
   1   1  11   46.92    5.36
   1  -1  11   55.97    5.03
   1  -1  11   47.98    3.01
   1  -1  11   43.50    4.15
   1   1  11   53.27    5.08
   1   1  12   66.20    4.48
   1  -1  12   69.38    8.24
   1  -1  12   79.03    6.40
   1   1  12   75.92    6.45
   1   1  12   74.91    5.66
   1  -1  12   58.31    6.16
   1  -1  13   95.31    5.61
   1  -1  13  116.21    7.57
   1   1  13  123.82   13.88
   1   1  13   89.77    6.31
   1   1  13  124.99    7.97
   1  -1  13  151.03   13.82
   1  -1  14   33.83    3.80
   1   1  14   49.39    5.46
   1  -1  14   39.37    8.31
   1  -1  14   53.34    6.25
   1   1  14   27.18    6.74
   1   1  14   48.19    5.82
   1   1  15   22.59    7.81
   1   1  15   16.91    6.94
   1  -1  15   23.64    7.99
   1   1  15    6.98    3.31
   1  -1  15   19.75    2.98
   1  -1  15   14.99    4.03
   1  -1  16   16.93    6.52
   1   1  16   29.50    4.52
   1  -1  16   23.35    6.76
   1  -1  16   36.00    8.99
   1   1  16   42.65    6.87
   1   1  16   45.50    6.38
   1   1  17   11.34    3.75
   1   1  17    5.93    8.56
   1  -1  17   16.72    5.57
   1  -1  17   12.46    4.66
   1   1  17   16.29    5.47
   1  -1  17    8.42    3.39
   1   1  18    8.48    4.03
   1  -1  18    9.44    8.36
   1   1  18   15.10   10.22
   1  -1  18   11.04    5.93
   1  -1  18   17.24    6.29
   1   1  18   14.92    5.76
  -1  -2  18    5.37    3.95
  -1  -2  18    5.67    8.73
  -1   2  18   22.55    7.11
  -1   2  18   15.15    4.51
  -1   2  17    4.28    8.92
  -1   2  17    3.78    3.45
  -1  -2  17    1.42    3.89
  -1   2  17    2.77    6.39
  -1  -2  17    4.47    3.05
  -1  -2  16   14.58    3.98
  -1   2  16   15.33    4.40
  -1  -2  16   23.26    6.22
  -1   2  16   21.88    6.56
  -1   2  16   19.68    4.70
  -1  -2  16   24.55    7.90
  -1  -2  15    2.54    3.22
  -1   2  15    3.85    4.55
  -1   2  15    1.58    4.09
  -1  -2  15    2.51    3.87
  -1   2  15   -0.56    2.65
  -1   2  14    4.39    2.65
  -1   2  14    3.53    2.62
  -1  -2  14    3.64    2.91
  -1   2  14   -0.60    4.03
  -1  -2  14   10.69    6.11
  -1  -2  13   98.08    7.18
  -1   2  13   92.98    6.61
  -1   2  13   91.42    9.95
  -1  -2  13   94.55    8.78
  -1   2  13   81.42   10.38
   1   2 -12   24.44    2.90
  -1   2  12   18.69    3.09
  -1   2  12   29.34    4.99
  -1  -2  12   19.19    3.62
  -1  -2  12   21.58    4.40
  -1   2  12   25.59    3.39
   1   2 -11  318.08   13.34
  -1   2  11  331.29   13.54
  -1  -2  11  351.35   16.89
  -1   2  11  281.40   14.64
  -1   2  11  342.45   20.45
  -1  -2  11  343.76   18.64
   1   2 -10    4.69    3.10
   1   2 -10    3.24    2.64
  -1   2  10    4.05    2.86
  -1  -2  10    3.59    2.12
  -1  -2  10    7.01    4.05
  -1   2  10    4.23    2.50
   1   2  -9   46.26    3.03
   1   2  -9   49.01    5.20
  -1  -2   9   52.96    3.58
  -1  -2   9   60.65    6.55
  -1   2   9   58.21    5.27
  -1   2   9   51.11    2.73
   1   2  -8  820.86   42.66
   1   2  -8  849.20   35.44
  -1  -2   8  849.18   39.59
  -1  -2   8  875.74   39.26
  -1   2   8  862.60   37.71
  -1   2   8  927.55   48.12
   1   2  -7  343.62   14.74
   1   2  -7  338.67   11.36
  -1   2   7  357.27   16.62
  -1  -2   7  359.64   17.99
  -1   2   7  346.94   10.01
  -1  -2   7  342.35   12.54
   1   2  -6  668.03   28.70
   1   2  -6  657.83   24.35
  -1  -2   6  719.54   28.40
  -1   2   6  702.45   21.93
  -1   2   6  730.22   33.39
  -1  -2   6  722.67   27.55
   1   2  -5  110.27    6.33
   1   2  -5  119.60    3.71
  -1   2   5  116.01    2.33
  -1  -2   5  109.91    3.81
  -1  -2   5  121.79    4.43
  -1   2   5  131.58    6.09
   1   2  -4 1310.09   59.89
   1   2  -4 1322.04   62.11
  -1  -2   4 1311.00   57.08
  -1  -2   4 1402.94   63.57
  -1   2   4 1335.15   49.45
   1   2  -3  801.48   28.33
   1   2  -3  764.88   26.85
  -1  -2   3  789.84   26.78
   1   2  -2 1596.73   80.86
   1   2  -2 2013.07   95.77
  -1  -2   2 2020.26   95.39
   1   2  -1  318.71    7.32
  -1   2   1  326.36    7.36
  -1  -2   1  316.04    7.13
  -1   2   1  288.99    6.12
   1   2   0 1221.04   44.06
   1  -2   0  966.38   35.57
   1  -2   0 1241.74   44.64
  -1   2   0 1272.00   44.14
  -1   2   0 1218.45   42.64
  -1  -2   0 1192.09   42.99
   1   2   1  241.74    5.49
   1  -2   1  252.12    5.82
   1  -2   1  246.02    4.25
  -1   2  -1  252.85    4.37
  -1  -2  -1  243.66    5.45
  -1   2  -1  237.29    5.42
   1   2   2  651.54   19.65
   1  -2   2  651.58   21.04
   1  -2   2  642.29   15.43
  -1  -2  -2  665.52   19.98
  -1   2  -2  631.42   19.69
  -1   2  -2  646.77   16.48
   1  -2   3 1629.92   78.82
   1   2   3 1577.02   73.30
   1  -2   3 1580.36   65.70
  -1  -2  -3 1643.83   75.55
  -1   2  -3 1633.70   69.75
  -1   2  -3 1689.21   83.68
   1  -2   4  251.22    5.10
   1  -2   4  262.74    7.91
   1   2   4  253.60    6.90
  -1   2  -4  257.99    5.87
  -1  -2  -4  258.49    6.82
  -1   2  -4  248.90    7.07
   1   2   5  372.82   13.87
   1  -2   5  383.58   11.37
   1  -2   5  386.89   12.94
  -1   2  -5  371.21   10.64
  -1   2  -5  372.39   11.49
   1   2   6  212.34    6.79
   1  -2   6  223.58    8.32
   1   2   6  228.98    6.63
   1  -2   6  211.89    5.75
  -1   2  -6  212.23    7.11
  -1   2  -6  227.78    7.19
   1   2   7  224.31    7.68
   1   2   7  229.04    7.18
   1  -2   7  236.87    9.33
   1  -2   7  241.50    9.21
  -1   2  -7  225.79    7.83
   1   2   8    5.04    1.32
   1   2   8    5.58    1.38
   1  -2   8    3.23    1.21
   1  -2   8    4.44    1.89
   1   2   8    8.25    2.43
  -1   2  -8    5.70    1.49
   1   2   9   27.69    3.61
   1  -2   9   24.45    3.26
   1   2   9   24.02    2.27
   1  -2   9   39.01    3.55
   1   2   9   25.50    2.27
  -1   2  -9   21.73    2.38
   1  -2  10  196.56   11.39
   1   2  10  212.65   12.34
   1   2  10  180.10    8.10
   1   2  10  211.11   12.07
   1  -2  10  200.67   10.69
  -1   2 -10  201.26    8.77
   1   2  11   13.24    3.78
   1   2  11   13.59    2.37
   1  -2  11   14.39    2.35
   1   2  11   11.52    2.44
   1  -2  11   15.53    3.42
   1  -2  12  131.06    7.17
   1   2  12  125.79    9.85
   1   2  12  131.36    7.64
   1   2  12   97.71   10.33
   1  -2  12  147.44   10.15
   1  -2  13    5.59    3.53
   1  -2  13    2.75    1.81
   1  -2  13    7.39    3.84
   1   2  13    8.45    2.37
   1   2  13    4.42    5.76
   1   2  13    3.80    2.69
   1  -2  14   30.64    4.09
   1  -2  14   42.15    9.71
   1  -2  14   26.10    3.09
   1   2  14   36.65    5.87
   1   2  14   29.23    3.96
   1   2  14   39.46    4.61
   1  -2  15   37.21    6.09
   1   2  15   28.36    6.11
   1   2  15   20.24    4.08
   1  -2  15   26.96    3.37
   1   2  15   27.26    4.95
   1  -2  15   23.75    4.32
   1   2  16   21.35    4.53
   1  -2  16   27.26    6.82
   1   2  16   33.17    7.06
   1   2  16   36.22    9.21
   1  -2  16   28.33    3.70
   1  -2  16   24.58    7.54
   1   2  17   17.13    5.34
   1  -2  17   13.07    6.40
   1  -2  17   11.98    4.28
   1   2  17   24.93    6.42
   1  -2  17    5.19    5.52
   1   2  17   18.04    4.23
   1   2  18   10.16   11.38
   1   2  18   16.90    5.70
   1   2  18   13.39    7.18
   1  -2  18    9.87    6.87
  -1   3  18   25.79    8.21
  -1  -3  18    7.37    6.77
  -1   3  18   16.65    5.02
  -1  -3  18    5.36    8.39
  -1   3  17   -1.59    5.06
  -1   3  17    2.43    3.42
  -1  -3  17    3.38    3.41
  -1  -3  17   -0.58    2.73
  -1   3  17    1.29    5.38
  -1  -3  16    8.94    4.00
  -1   3  16   17.81    6.03
  -1  -3  16    2.60    5.67
  -1   3  16    6.28    4.01
  -1   3  16   15.66    3.81
  -1   3  15   24.14    4.75
  -1   3  15   37.09   11.48
  -1  -3  15   28.87    4.78
  -1  -3  15   33.25    6.74
  -1   3  15   24.95    4.40
   1   3 -14   18.43    3.42
  -1   3  14   14.91    5.85
  -1   3  14    7.87    6.09
  -1  -3  14   13.74    5.13
  -1   3  14   22.07    5.42
  -1  -3  14   16.58    3.54
   1   3 -13   15.45    2.92
  -1  -3  13   12.21    4.54
  -1   3  13    4.06    7.90
  -1   3  13    7.91    3.29
  -1  -3  13   11.25    2.98
  -1   3  13   17.24    2.84
   1   3 -12   17.42    2.90
  -1   3  12   13.26    2.50
  -1  -3  12   27.11    7.25
  -1   3  12   16.84    3.22
  -1  -3  12   15.49    3.00
  -1   3  12   26.48    4.93
   1   3 -11   13.10    3.96
   1   3 -11    9.02    2.23
  -1   3  11   12.60    2.57
  -1   3  11    8.08    6.67
  -1  -3  11   10.12    3.50
  -1  -3  11    3.25    3.74
  -1   3  11    8.10    3.00
   1   3 -10   20.92    2.62
   1   3 -10   24.94    6.43
  -1  -3  10   18.86    4.27
  -1   3  10   19.52    2.04
  -1  -3  10   27.87    3.93
  -1   3  10   32.48    4.55
  -1   3  10   27.37    2.95
   1   3  -9  109.22   11.40
   1   3  -9  109.02    5.15
  -1   3   9  124.32    8.79
  -1   3   9  119.07    4.10
  -1  -3   9  126.53    7.31
  -1   3   9  106.45    5.89
  -1  -3   9  117.84    7.81
   1   3  -8   81.29    3.84
   1   3  -8   73.01    7.49
  -1   3   8   79.85    2.66
  -1  -3   8   84.57    5.17
  -1   3   8   91.86    6.53
  -1  -3   8   72.07    3.76
  -1   3   8   79.40    4.23
   1   3  -7  288.36   10.42
   1   3  -7  298.93   12.24
  -1   3   7  304.90    7.99
  -1   3   7  281.12   10.82
  -1  -3   7  304.99   10.20
  -1  -3   7  304.27   12.84
  -1   3   7  337.60   17.04
   1   3  -6   24.18    2.04
   1   3  -6   26.54    2.35
  -1   3   6   32.78    1.58
  -1  -3   6   37.28    4.25
  -1   3   6   20.69    2.11
  -1  -3   6   29.50    2.85
   1   3  -5   39.29    2.20
   1   3  -5   41.59    2.35
  -1   3   5   40.38    2.24
  -1  -3   5   41.35    1.91
  -1  -3   5   50.43    2.90
   1   3  -4   39.18    1.95
   1   3  -4   33.39    2.81
  -1   3   4   27.70    1.84
  -1  -3   4   38.13    2.29
  -1  -3   4   38.61    2.57
   1   3  -3  266.35    7.43
   1   3  -3  279.78    8.35
  -1   3   3  274.87    9.97
  -1  -3   3  282.92    7.44
   1   3  -2  274.38    7.58
  -1  -3   2  262.41    6.97
  -1   3   2  253.84    7.50
   1   3  -1  335.10    9.02
   1  -3  -1  342.08   10.88
  -1   3   1  350.27    8.23
  -1  -3   1  340.49    8.95
  -1   3   1  349.26    9.08
   1  -3   0  303.80    7.98
   1  -3   0  297.15    7.14
   1   3   0  298.93    7.78
  -1   3   0  301.39    7.12
  -1   3   0  298.48    9.41
  -1  -3   0  296.12    7.59
   1  -3   1 1391.25   60.82
   1   3   1 1368.62   58.86
   1  -3   1 1395.05   54.72
  -1  -3  -1 1402.78   59.49
  -1   3  -1 1337.00   57.75
  -1   3  -1 1382.34   54.67
   1  -3   2 1997.21   96.79
   1   3   2 2015.02  106.75
   1  -3   2 2111.16  114.91
  -1  -3  -2 2033.11  106.75
  -1   3  -2 2029.35   95.83
  -1   3  -2 1943.02  103.76
   1   3   3  697.52   23.92
   1  -3   3  695.32   25.47
   1  -3   3  696.64   20.39
  -1   3  -3  723.60   21.78
  -1  -3  -3  727.83   24.22
  -1   3  -3  662.03   23.24
   1  -3   4 1163.62   41.80
   1   3   4 1174.51   50.20
   1  -3   4 1180.40   52.85
  -1  -3  -4 1203.63   49.87
  -1   3  -4 1170.17   43.84
  -1   3  -4 1121.11   48.01
   1  -3   5    8.59    0.65
   1   3   5    6.92    2.09
   1  -3   5    6.79    1.61
  -1   3  -5    7.93    1.35
  -1   3  -5   10.28    2.12
  -1  -3  -5    9.14    1.21
   1   3   6  170.76    5.91
   1  -3   6  165.18    3.96
   1  -3   6  166.59    6.97
  -1   3  -6  153.84    6.52
  -1   3  -6  166.22    5.96
   1  -3   7  188.14    6.63
   1   3   7  187.95    6.92
   1  -3   7  190.80    8.37
  -1   3  -7  180.97    6.91
  -1   3  -7  186.08    6.35
   1   3   8  265.51   10.40
   1   3   8  293.83   12.48
   1  -3   8  288.63   12.81
   1  -3   8  268.14    8.18
  -1   3  -8  256.55   10.18
  -1   3  -8  286.37   11.15
   1   3   9  139.38    7.96
   1  -3   9  139.61    4.79
   1  -3   9  153.72   12.00
   1   3   9  124.18    5.99
   1   3   9  148.14    9.87
  -1   3  -9  126.54    6.01
   1   3  10   17.25    4.35
   1   3  10   19.13    2.44
   1  -3  10   17.80    3.62
   1   3  10   19.46    3.57
   1  -3  10   12.34    2.81
  -1   3 -10   15.52    2.43
   1   3  11   23.09    2.92
   1   3  11   22.67    4.75
   1   3  11   23.06    4.27
   1  -3  11   17.90    4.39
   1  -3  11   20.25    3.67
  -1   3 -11   20.24    3.09
   1   3  12  113.68    7.49
   1   3  12  150.70   11.63
   1  -3  12  125.24   10.74
   1   3  12  129.99    7.30
   1  -3  12  133.13    6.41
   1   3  13    3.62    2.29
   1  -3  13    0.91    1.84
   1   3  13   -3.73    5.94
   1   3  13    3.41    2.31
   1  -3  13    0.88    3.39
   1  -3  14   13.60    2.91
   1   3  14   13.30    3.67
   1  -3  14   18.50    2.53
   1  -3  14   20.33    5.27
   1   3  14   15.39    5.50
   1   3  14   15.24    5.54
   1  -3  15   67.11    5.17
   1   3  15   93.08   12.07
   1   3  15   73.35    7.06
   1   3  15  115.65   11.02
   1  -3  15   99.37   10.32
   1  -3  15   87.79    9.39
   1  -3  16   -0.30    4.31
   1  -3  16    0.39    3.23
   1  -3  16    2.59    2.36
   1   3  16   -4.14    7.26
   1   3  16    0.36    2.68
   1   3  16   -2.29    2.99
   1  -3  17    7.60    6.24
   1   3  17    9.29    7.06
   1  -3  17   12.76    3.23
   1  -3  17   15.71    7.00
   1   3  17   27.70    6.81
   1   3  17   18.25    5.14
   1   3  18   18.68    4.91
   1   3  18   26.25    8.07
   1  -3  18   15.30   13.28
   1   3  18   12.46    9.69
  -1  -4  17    3.42    3.76
  -1   4  17    6.08    5.89
  -1   4  17    3.21    4.00
  -1  -4  16   17.80    4.33
  -1   4  16   16.89    6.26
  -1   4  16    7.76    4.73
  -1   4  16   32.65   11.84
   1   4 -15    2.67    2.73
  -1   4  15   -0.73    2.37
  -1  -4  15    1.45    4.18
  -1  -4  15   -5.11    4.23
  -1   4  15    4.99    2.90
  -1   4  15   -2.58    4.62
   1   4 -14   53.16    5.35
  -1   4  14   60.43    9.08
  -1   4  14   50.26    5.95
  -1   4  14   38.81    4.66
  -1  -4  14   50.57    5.11
  -1  -4  14   60.99    8.31
   1   4 -13   58.40    5.31
  -1  -4  13   64.96    5.05
  -1   4  13   63.45    4.44
  -1   4  13   58.49    6.10
  -1   4  13   68.82    9.12
  -1  -4  13   73.28    8.78
   1   4 -12  200.75   10.59
   1   4 -12  192.51   15.36
  -1   4  12  218.76   17.21
  -1  -4  12  183.34    9.39
  -1  -4  12  217.68   15.68
  -1   4  12  169.81   16.89
  -1   4  12  206.94   12.67
   1   4 -11    9.06    3.88
   1   4 -11   13.39    2.72
  -1  -4  11   19.01    2.40
  -1   4  11   13.43    3.13
  -1  -4  11   23.63    4.43
  -1   4  11    9.43    4.78
  -1   4  11   10.15    3.00
   1   4 -10  128.75    8.76
   1   4 -10  126.95    6.56
  -1  -4  10  115.35    5.91
  -1   4  10  130.86    6.69
  -1   4  10  136.28   11.26
  -1   4  10  117.05    7.07
  -1  -4  10  142.87    9.48
   1   4  -9  125.67    6.12
   1   4  -9  129.59    7.80
  -1  -4   9  133.43    5.63
  -1  -4   9  149.18    8.91
  -1   4   9  123.08    6.69
  -1   4   9  164.25   17.73
  -1   4   9  134.46    5.89
   1   4  -8  138.04    7.19
   1   4  -8  138.25    6.12
  -1  -4   8  155.63    8.49
  -1   4   8  139.19    6.53
  -1   4   8  160.70   10.95
  -1  -4   8  134.87    7.98
  -1   4   8  143.38    5.45
   1   4  -7  160.56    7.08
   1   4  -7  161.61    6.53
  -1   4   7  151.91    6.46
  -1   4   7  161.42    3.96
  -1  -4   7  161.03    5.69
  -1  -4   7  169.63    8.55
   1   4  -6  214.89   10.85
   1   4  -6  207.66    7.76
  -1  -4   6  199.31    6.41
  -1   4   6  192.79    7.63
  -1  -4   6  225.82    9.71
   1   4  -5   32.28    3.36
   1   4  -5   30.06    2.33
  -1   4   5   30.49    2.18
  -1  -4   5   29.69    1.73
   1   4  -4   38.97    2.38
   1   4  -4   41.21    3.03
  -1   4   4   42.05    2.27
  -1  -4   4   40.65    1.80
   1   4  -3  218.50    7.19
   1   4  -3  223.67    6.42
  -1   4   3  218.68    6.82
  -1  -4   3  227.59    6.06
   1   4  -2  730.67   25.40
   1  -4  -2  760.85   26.38
  -1  -4   2  724.44   24.46
  -1   4   2  757.13   26.89
   1   4  -1  674.91   22.22
   1  -4  -1  669.07   24.96
  -1  -4   1  663.47   21.41
  -1   4   1  659.00   20.70
  -1   4   1  692.35   22.83
   1  -4   0  140.23    3.58
   1   4   0  137.66    4.00
  -1   4   0  139.86    3.87
  -1  -4   0  143.82    3.86
  -1   4   0  137.22    3.48
   1  -4   1   62.89    1.69
   1   4   1   62.03    2.29
  -1   4  -1   58.43    1.65
  -1  -4  -1   65.18    2.30
  -1   4  -1   63.26    2.42
   1  -4   2  341.39    8.07
   1   4   2  355.04   10.47
   1  -4   2  351.60   14.90
  -1   4  -2  332.66   10.10
  -1   4  -2  343.49    8.16
  -1  -4  -2  337.92    9.91
   1  -4   3  376.13   13.20
   1   4   3  387.65   11.94
   1  -4   3  372.11    8.78
  -1   4  -3  373.37    9.04
  -1   4  -3  353.58   11.52
  -1  -4  -3  381.72   11.60
   1  -4   4   89.99    2.58
   1   4   4   91.52    3.49
   1  -4   4   88.31    4.29
  -1   4  -4   84.32    2.07
  -1  -4  -4   88.26    3.25
  -1   4  -4   87.75    3.47
   1  -4   5  765.55   24.05
   1  -4   5  800.42   34.73
   1   4   5  760.99   30.65
  -1  -4  -5  791.39   30.50
  -1   4  -5  741.50   29.64
  -1   4  -5  756.40   25.61
   1   4   6    4.86    1.51
   1  -4   6    5.07    2.01
   1  -4   6    6.98    1.19
  -1   4  -6    6.08    1.02
  -1   4  -6    5.12    1.55
   1   4   7  164.93    6.96
   1  -4   7  186.36    8.70
   1  -4   7  171.52    5.96
  -1   4  -7  170.04    5.74
  -1   4  -7  157.87    6.64
   1  -4   8   61.72    5.16
   1   4   8   63.66    5.96
   1  -4   8   64.25    3.42
  -1   4  -8   69.12    5.84
  -1   4  -8   60.84    5.09
   1   4   9   73.70    4.62
   1  -4   9   81.83    3.05
   1  -4   9   86.72    6.57
   1   4   9   88.55    5.79
  -1   4  -9   81.44    4.68
  -1   4  -9   71.88    4.86
   1   4  10  219.32   12.47
   1  -4  10  233.51   14.01
   1   4  10  195.83   10.00
   1  -4  10  228.01    7.57
   1   4  10  173.02   15.49
  -1   4 -10  212.19   10.07
   1  -4  11  248.11   12.78
   1  -4  11  282.82   17.30
   1   4  11  267.05   15.64
   1   4  11  299.29   20.47
   1   4  11  222.39   17.77
  -1   4 -11  241.11   12.59
   1   4  12   18.35    5.22
   1  -4  12   18.96    4.61
   1  -4  12   11.81    3.50
   1   4  12   15.26    4.30
   1   4  12   22.58    5.24
  -1   4 -12   16.08    3.23
   1  -4  13   96.50    9.62
   1  -4  13   85.81    4.98
   1   4  13   86.87   10.66
   1   4  13   76.86    6.71
   1   4  13   83.97    5.93
  -1   4 -13   86.99    6.83
   1   4  14   28.49    4.29
   1   4  14   41.42    7.59
   1   4  14   21.84    4.69
   1  -4  14   58.70   11.30
   1  -4  14   37.97    3.44
   1   4  15   23.82    7.03
   1   4  15   19.82    4.49
   1  -4  15   20.51    3.49
   1  -4  15   22.29    2.99
   1  -4  15   28.63    6.79
   1   4  15   28.74    4.38
   1   4  16    3.26    5.73
   1   4  16   11.35    3.49
   1   4  16    3.04    5.37
   1  -4  16    1.10    4.52
   1  -4  16    9.14    5.52
   1  -4  16    3.99    2.31
   1   4  17    2.69    5.69
   1   4  17    1.80    3.17
   1  -4  17   -0.48    8.59
   1   4  17   -2.19    5.30
  -1   5  17    7.97   10.84
  -1  -5  17    5.27    3.55
  -1   5  17   -0.88    7.00
   1   5 -16   56.63    7.33
  -1  -5  16   61.81    6.78
  -1   5  16   44.84    8.00
  -1   5  16   81.55   12.12
   1   5 -15   20.01    4.16
  -1  -5  15    9.14    3.55
  -1   5  15   11.29    5.22
  -1   5  15   25.95    7.19
  -1   5  15   17.93    4.46
   1   5 -14   10.73    3.28
  -1  -5  14    8.47    2.92
  -1   5  14    9.72    3.86
  -1   5  14   21.20    5.85
  -1   5  14    8.79    4.31
   1   5 -13   20.60    3.52
   1   5 -13   16.63    5.46
  -1   5  13   33.79    6.42
  -1  -5  13   13.86    4.68
  -1   5  13   13.04    3.93
  -1  -5  13    4.69    5.76
  -1   5  13   17.69    4.08
   1   5 -12   32.09    9.99
   1   5 -12   45.16    4.47
  -1  -5  12   45.85    5.93
  -1   5  12   45.47    3.17
  -1   5  12   47.50   12.86
  -1   5  12   42.82    5.15
  -1  -5  12   47.94    7.27
   1   5 -11   13.47    6.22
   1   5 -11   10.00    2.96
  -1  -5  11   17.51    4.70
  -1   5  11   14.11    5.27
  -1   5  11   16.19    2.88
  -1   5  11    9.03    3.26
  -1  -5  11   19.43    3.72
   1   5 -10   72.55    6.38
   1   5 -10   75.31    5.07
  -1  -5  10   67.06    7.46
  -1  -5  10   71.95    4.19
  -1   5  10   63.94    5.47
  -1   5  10  100.63    9.85
  -1   5  10   81.08    4.66
   1   5  -9   70.62    7.25
   1   5  -9   75.41    5.75
  -1   5   9   82.47    2.85
  -1  -5   9   92.44    7.18
  -1  -5   9   76.53    4.05
  -1   5   9   94.91    9.50
  -1   5   9   76.67    5.31
   1   5  -8   29.67    3.03
   1   5  -8   38.57    3.32
  -1   5   8   36.36    2.39
  -1  -5   8   40.47    3.86
  -1  -5   8   38.65    4.54
  -1   5   8   37.67    3.33
   1   5  -7   17.45    3.67
   1   5  -7   16.79    2.21
  -1  -5   7   18.52    3.22
  -1  -5   7   16.13    1.74
  -1   5   7   20.11    2.46
   1   5  -6  309.15   11.22
   1   5  -6  307.24   11.62
  -1   5   6  280.65   11.60
  -1  -5   6  295.61    9.42
   1   5  -5  107.51    4.17
   1   5  -5  104.37    4.92
  -1   5   5  105.81    4.85
  -1  -5   5  109.14    5.32
   1   5  -4  198.07    6.52
   1   5  -4  198.31    7.31
  -1   5   4  185.38   10.04
  -1  -5   4  194.81    5.75
   1   5  -3 1090.24   50.02
   1   5  -3 1138.81   48.88
   1  -5  -3 1186.21   51.83
  -1   5   3 1142.48   51.10
  -1  -5   3 1140.93   47.23
   1   5  -2  247.63    7.36
   1  -5  -2  264.80    7.77
  -1  -5   2  249.94    6.93
  -1   5   2  250.20    7.97
   1  -5  -1  157.71    4.53
   1   5  -1  151.43    4.61
  -1  -5   1  154.73    4.38
  -1   5   1  153.09    4.29
  -1   5   1  156.27    4.73
   1   5   0 1702.68   86.10
   1  -5   0 1703.03   83.23
  -1  -5   0 1703.67   84.74
  -1   5   0 1712.77   85.41
  -1   5   0 1767.29   91.63
   1   5   1   33.32    1.81
   1  -5   1   29.69    1.32
  -1   5  -1   29.72    1.36
  -1  -5  -1   28.55    1.62
  -1   5  -1   25.67    2.84
   1  -5   2   71.17    1.98
   1  -5   2   72.51    3.67
   1   5   2   65.47    2.90
  -1   5  -2   71.32    4.59
  -1  -5  -2   70.75    2.76
  -1   5  -2   71.54    2.04
   1   5   3   23.19    3.22
   1  -5   3   36.07    2.59
   1  -5   3   26.64    1.74
  -1  -5  -3   30.91    1.95
  -1   5  -3   30.01    2.08
  -1   5  -3   31.05    1.18
   1  -5   4   77.11    4.38
   1   5   4   72.86    3.55
   1  -5   4   73.84    2.71
  -1   5  -4   75.58    3.60
  -1  -5  -4   75.16    3.43
  -1   5  -4   78.95    3.21
   1   5   5    1.42    1.30
   1  -5   5   -2.89    1.70
   1  -5   5   -0.29    0.57
  -1  -5  -5    0.19    1.18
  -1   5  -5    1.07    0.71
  -1   5  -5    1.41    1.31
   1   5   6   59.07    3.38
   1  -5   6   49.07    1.69
   1  -5   6   60.27    4.31
  -1   5  -6   51.15    3.33
  -1   5  -6   51.97    5.12
  -1  -5  -6   55.47    3.10
   1  -5   7   20.80    3.22
   1  -5   7   19.55    1.20
   1   5   7   20.97    2.48
  -1   5  -7   21.29    1.73
  -1   5  -7   22.80    2.31
   1   5   8   15.21    2.54
   1  -5   8   17.59    3.32
   1  -5   8   16.37    1.23
  -1   5  -8   20.38    2.40
  -1   5  -8   20.92    3.21
   1  -5   9  105.52    3.65
   1  -5   9  121.43    8.36
   1   5   9  106.96    6.29
  -1   5  -9  100.13    9.13
  -1   5  -9  105.31    5.38
   1   5  10  288.20   14.99
   1  -5  10  272.76    9.12
   1  -5  10  315.98   18.09
   1   5  10  259.79   13.26
  -1   5 -10  265.43   18.40
  -1   5 -10  267.36   13.06
   1   5  11   10.57    2.08
   1  -5  11   12.62    4.12
   1   5  11    8.60    2.78
   1   5  11   13.49    4.98
   1  -5  11    5.93    2.59
  -1   5 -11   10.16    4.28
   1   5  12  113.99    6.25
   1  -5  12  107.03    7.42
   1   5  12   90.00    7.50
   1  -5  12  136.84   16.66
   1   5  12  116.74   12.94
  -1   5 -12  105.41    7.21
   1  -5  13  112.62   11.01
   1  -5  13   85.83    7.25
   1   5  13   89.17    6.16
   1   5  13   76.83    7.53
   1   5  13  117.92   11.93
  -1   5 -13   99.38    7.44
   1   5  14    2.56    5.18
   1   5  14    7.01    3.07
   1   5  14    8.05    4.37
   1  -5  14    1.21    3.05
   1  -5  14    6.01    4.80
  -1   5 -14    5.26    3.09
   1   5  15   88.30   19.04
   1  -5  15   67.78    4.71
   1   5  15   89.31   10.04
   1  -5  15   78.15   11.07
   1   5  15   45.42   11.09
   1  -5  15   53.67    4.40
   1  -5  16    0.53    2.06
   1  -5  16    0.38    3.06
   1   5  16    1.66    2.92
   1   5  16    3.82    5.05
   1  -5  16    6.98    8.44
   1   5  16    0.32    3.21
   1   5  17    6.43    4.13
   1   5  17    8.34    7.15
   1   5  17    6.89    3.91
   1  -5  17   10.86    6.84
  -1  -6  17    1.31    4.66
  -1   6  17    0.12    5.68
  -1   6  17   -0.58    3.80
   1   6 -16    6.53    3.87
  -1   6  16    4.18    6.51
  -1  -6  16    3.36    3.15
  -1   6  16    2.98    4.17
   1   6 -15    2.22    2.78
  -1  -6  15   -0.97    2.25
  -1   6  15    0.82    3.27
  -1   6  15   -0.29    5.01
  -1   6  15   -0.27    1.95
   1   6 -14  122.33   13.62
  -1   6  14   93.95    9.80
  -1   6  14  129.98   15.45
  -1  -6  14  106.51    7.13
  -1   6  14  104.52    6.01
   1   6 -13   23.01   11.19
   1   6 -13   38.86    4.67
  -1  -6  13   33.12    3.72
  -1   6  13   44.88    8.62
  -1   6  13   39.33    3.14
  -1   6  13   23.48    5.33
   1   6 -12   12.78    7.29
   1   6 -12   17.26    3.28
  -1   6  12   17.28    2.05
  -1  -6  12   15.30    2.56
  -1   6  12    7.09    3.74
  -1   6  12   11.51    6.14
   1   6 -11   15.83    4.83
   1   6 -11    9.19    6.00
  -1  -6  11   16.82    2.30
  -1   6  11   10.06    9.98
  -1   6  11   11.82    2.73
  -1   6  11   10.10    3.52
   1   6 -10  234.23   13.70
   1   6 -10  235.64   11.98
  -1  -6  10  241.95    9.93
  -1   6  10  240.48    7.83
  -1   6  10  226.01   19.15
  -1   6  10  278.80   21.56
   1   6  -9  427.58   19.52
   1   6  -9  398.95   20.21
  -1   6   9  374.34   26.21
  -1  -6   9  436.25   22.19
  -1   6   9  434.95   13.63
   1   6  -8  154.46    7.64
   1   6  -8  150.29    7.77
  -1  -6   8  149.88    6.06
  -1   6   8  144.76   11.75
   1   6  -7   28.99    4.78
   1   6  -7   27.07    2.75
  -1   6   7   28.00    3.11
  -1  -6   7   29.92    3.21
   1   6  -6  167.17    7.58
   1   6  -6  189.53   10.44
  -1  -6   6  186.73    6.15
  -1   6   6  178.28    8.14
   1   6  -5    9.03    1.90
   1   6  -5    6.12    1.48
  -1   6   5    8.22    1.90
  -1  -6   5    5.53    1.24
   1   6  -4  944.74   40.33
   1   6  -4  921.73   42.30
  -1  -6   4  986.79   39.44
  -1   6   4  945.23   49.74
   1   6  -3  812.87   32.38
   1   6  -3  801.16   34.89
   1  -6  -3  850.01   34.65
  -1  -6   3  827.88   35.39
  -1   6   3  842.95   35.68
   1   6  -2  206.98    6.62
   1  -6  -2  217.24    7.06
  -1  -6   2  207.73    6.31
  -1   6   2  204.68    7.28
   1   6  -1  140.36    4.61
   1  -6  -1  134.36    4.44
  -1  -6   1  129.88    4.19
  -1   6   1  128.98    4.20
  -1   6   1  133.95    4.66
   1  -6   0  608.26   24.50
   1   6   0  638.49   23.06
  -1   6   0  651.20   22.85
  -1   6   0  602.44   21.58
  -1  -6   0  631.51   22.39
   1  -6   1   38.53    1.76
   1   6   1   45.19    2.30
  -1   6  -1   40.46    1.87
  -1  -6  -1   40.05    2.17
  -1   6  -1   38.11    2.29
   1   6   2   87.08    3.71
   1  -6   2   80.35    2.57
  -1   6  -2   81.69    2.70
  -1  -6  -2   87.55    3.54
  -1   6  -2   88.82    3.69
   1  -6   3    2.50    1.36
   1   6   3    1.48    1.46
   1  -6   3    5.18    1.95
  -1   6  -3    5.28    1.45
  -1  -6  -3    5.66    2.31
  -1   6  -3    5.06    1.45
   1  -6   4 1155.39   58.64
   1  -6   4 1103.89   43.99
   1   6   4 1123.97   53.28
  -1  -6  -4 1168.08   53.49
  -1   6  -4 1073.89   50.66
  -1   6  -4 1080.61   44.26
   1  -6   5 1622.63   93.89
   1  -6   5 1471.65   71.69
   1   6   5 1500.01   81.88
  -1  -6  -5 1566.91   82.70
  -1   6  -5 1459.50   80.03
  -1   6  -5 1522.73   72.70
   1  -6   6  310.40   14.66
   1  -6   6  269.00    7.35
   1   6   6  274.99   11.57
  -1   6  -6  270.74   11.08
  -1   6  -6  263.61   10.93
  -1  -6  -6  269.92   10.86
   1  -6   7   20.77    1.30
   1   6   7   21.99    2.81
   1  -6   7   26.42    3.79
  -1   6  -7   26.87    2.64
  -1   6  -7   21.06    1.83
   1  -6   8  120.01    8.88
   1   6   8  126.27    6.82
   1  -6   8  109.66    3.64
  -1   6  -8  128.98    5.17
  -1   6  -8  117.04    6.18
   1   6   9   28.48    5.65
   1  -6   9   24.68    2.64
   1  -6   9   26.67    4.84
  -1   6  -9   27.20    3.21
  -1   6  -9   26.95    2.69
   1   6  10   48.60    7.83
   1  -6  10   63.22    7.44
   1  -6  10   54.64    2.68
  -1   6 -10   69.89    7.75
  -1   6 -10   54.68    4.22
   1   6  11   20.05    6.48
   1  -6  11   30.73    3.49
   1  -6  11   27.68    5.98
   1   6  11   32.00    2.84
  -1   6 -11   13.25    6.23
  -1   6 -11   24.88    3.77
   1   6  12   22.06    6.94
   1   6  12   35.57    3.17
   1   6  12   43.34    7.64
   1  -6  12   22.49    6.42
   1  -6  12   23.64    2.40
  -1   6 -12   31.69    4.01
   1  -6  13  284.80   12.56
   1   6  13  332.14   15.65
   1   6  13  387.26   46.26
   1  -6  13  346.61   26.60
   1   6  13  298.86   18.37
  -1   6 -13  311.74   18.36
   1   6  14   19.59    3.18
   1  -6  14   11.91    2.12
   1   6  14   16.55    4.10
   1   6  14   16.77    6.96
   1  -6  14   18.12    6.28
  -1   6 -14   12.38    4.05
   1  -6  15   19.00    6.49
   1  -6  15    7.13    2.14
   1   6  15    8.51    3.22
   1   6  15   18.09    6.74
   1   6  15    7.65    4.07
  -1   6 -15   14.17    3.94
   1  -6  16   22.75    7.14
   1   6  16   10.05   12.20
   1   6  16   10.64    3.73
   1   6  16    5.82    4.43
   1   6  17    2.78    6.03
   1   6  17   -4.53    6.17
   1  -6  17   -2.51    6.06
   1   7 -17   -0.52    3.76
  -1   7  17    0.43    3.97
  -1   7  17   -1.31   10.31
   1   7 -16    2.79    3.63
  -1   7  16    2.86    4.10
  -1  -7  16    2.97    4.49
  -1   7  16   -0.81    6.45
   1   7 -15    3.84    3.13
  -1   7  15    2.24    3.86
  -1  -7  15    1.24    2.43
  -1   7  15    5.24    6.36
   1   7 -14    8.08    3.31
   1   7 -14   11.24    4.93
  -1   7  14   12.64    6.13
  -1   7  14    6.53    3.20
  -1  -7  14    1.33    2.45
  -1   7  14    5.25    3.91
   1   7 -13   17.66    5.56
   1   7 -13   24.33    7.07
  -1  -7  13   25.74    3.17
  -1   7  13   21.01    7.97
  -1   7  13   24.35    3.96
  -1   7  13   23.80    7.99
   1   7 -12    5.36    2.51
   1   7 -12   -2.33    3.23
  -1  -7  12    5.20    1.82
  -1   7  12   -1.48    2.99
  -1   7  12    0.50    1.36
  -1   7  12    1.82    7.83
   1   7 -11   54.76    4.95
   1   7 -11   49.79    9.73
  -1   7  11   49.28    6.03
  -1   7  11   88.08   10.53
  -1   7  11   47.03    4.30
  -1  -7  11   61.20    5.95
   1   7 -10   15.89    5.22
   1   7 -10   17.06    4.77
  -1   7  10   10.53    1.46
  -1   7  10    4.07    3.38
  -1  -7  10   15.78    2.08
   1   7  -9   15.99    3.08
   1   7  -9   25.70    3.24
  -1  -7   9   15.90    2.18
  -1   7   9   12.65    3.41
   1   7  -8   33.06    3.80
   1   7  -8   45.56    3.74
  -1  -7   8   32.97    4.27
  -1   7   8   43.13    4.22
   1   7  -7  154.36    7.49
   1   7  -7  164.89    8.06
  -1  -7   7  165.42    6.14
  -1   7   7  159.37    8.69
   1   7  -6    4.93    2.55
   1   7  -6    4.52    1.89
  -1  -7   6    1.77    1.19
  -1   7   6   -2.66    3.12
   1   7  -5   15.86    3.58
   1   7  -5    9.33    1.78
  -1   7   5    5.24    2.22
  -1  -7   5   10.51    1.40
   1   7  -4   85.57    3.87
   1   7  -4   81.69    4.62
   1  -7  -4   91.03    4.27
  -1   7   4   78.94    4.58
  -1  -7   4   81.49    3.37
   1  -7  -3   14.28    1.93
   1   7  -3   12.49    1.72
   1   7  -3   19.91    2.26
  -1  -7   3   15.35    1.58
  -1   7   3   11.52    2.11
   1   7  -2  133.87    6.28
   1   7  -2  145.49    5.43
   1  -7  -2  143.15    5.58
  -1  -7   2  139.02    5.00
  -1   7   2  150.79    5.86
   1   7  -1   41.79    2.56
   1  -7  -1   37.03    3.82
  -1   7   1   39.45    2.63
  -1  -7   1   43.44    2.36
  -1   7   1   39.90    2.31
   1   7   0   46.45    2.91
   1  -7   0   54.92    4.01
  -1   7   0   52.12    2.86
  -1  -7   0   58.27    2.81
  -1   7   0   50.12    2.72
   1  -7   1 1146.31   54.23
   1   7   1 1116.71   58.72
  -1   7  -1 1126.05   49.42
  -1  -7  -1 1122.34   50.88
  -1   7  -1 1059.72   48.78
   1   7   2  185.72   10.54
   1  -7   2  184.96    5.64
  -1   7  -2  186.51    5.88
  -1   7  -2  180.47    7.34
  -1  -7  -2  196.82    9.97
   1   7   3  408.68   20.47
   1  -7   3  399.69   12.17
  -1   7  -3  394.15   12.44
  -1   7  -3  372.50   14.61
  -1  -7  -3  413.52   19.75
   1   7   4   28.21    2.86
   1  -7   4   32.57    3.75
   1  -7   4   26.99    1.51
  -1   7  -4   30.40    2.64
  -1   7  -4   31.01    2.62
  -1  -7  -4   27.59    2.51
   1  -7   5  181.41   10.14
   1   7   5  158.72    7.71
   1  -7   5  157.09    4.60
  -1   7  -5  170.07    5.40
  -1   7  -5  150.89    7.24
  -1  -7  -5  175.48   10.30
   1   7   6   24.28    3.03
   1  -7   6   32.62    6.64
   1  -7   6   23.89    1.48
  -1   7  -6   27.91    1.77
  -1   7  -6   28.68    2.85
  -1  -7  -6   29.07    4.32
   1   7   7   62.10    6.99
   1  -7   7   56.42    2.15
   1  -7   7   65.90    6.04
  -1   7  -7   51.21    4.46
  -1  -7  -7   56.08    4.13
  -1   7  -7   53.89    4.14
   1   7   8  168.79    8.82
   1  -7   8  166.89   11.52
   1  -7   8  145.30    4.69
  -1   7  -8  148.76    9.09
  -1   7  -8  147.14    8.00
   1  -7   9   83.29    3.26
   1  -7   9  101.77    8.67
   1   7   9   89.58    6.62
  -1   7  -9   79.50    4.68
  -1   7  -9   98.23    9.36
   1   7  10   11.96    3.37
   1  -7  10   12.27    2.48
   1  -7  10   20.07    4.97
  -1   7 -10   12.89    3.06
  -1   7 -10   16.90    2.63
   1  -7  11   75.23    8.24
   1   7  11   60.84    3.99
   1  -7  11   53.05    3.01
   1   7  11   51.48    5.74
  -1   7 -11   56.54    7.54
  -1   7 -11   53.12    5.07
   1   7  12  137.69    7.04
   1   7  12  118.28    9.80
   1  -7  12  132.07    5.68
   1  -7  12  174.70   22.85
  -1   7 -12  119.98    9.02
  -1   7 -12  133.17    9.07
   1  -7  13    9.10    2.09
   1   7  13   18.01    2.83
   1  -7  13   17.16    6.29
   1   7  13   18.37    7.39
   1   7  13   24.54    4.13
  -1   7 -13   17.41    3.79
   1  -7  14    6.79    2.05
   1   7  14   11.32    6.41
   1   7  14    6.11    3.90
   1  -7  14   12.46    6.25
   1   7  14    8.52    4.50
  -1   7 -14   12.70    3.64
   1  -7  15    2.21    5.87
   1  -7  15    2.89    1.69
   1   7  15    5.52    4.56
   1   7  15    3.37    3.86
   1   7  15    4.11    6.59
  -1   7 -15   15.50    3.73
   1   7  16    5.38    7.03
   1   7  16    8.46    7.11
   1   7  16    1.06    5.17
   1  -7  16   -2.26    6.92
  -1   7 -16   11.23    4.12
   1   7  17    2.63    4.57
   1   7  17   13.22    7.36
   1   8 -16   12.31    4.84
  -1  -8  16    6.74    5.16
  -1   8  16   17.59   14.56
  -1   8  16   12.26    8.82
   1   8 -15    3.63    4.51
   1   8 -15   -1.20    3.10
  -1   8  15   -2.55    3.70
  -1  -8  15   -0.68    3.48
  -1   8  15    2.40    6.02
   1   8 -14    5.03    3.98
   1   8 -14    2.96    3.05
  -1  -8  14   -0.14    3.46
  -1   8  14    6.13    3.73
  -1   8  14    2.15    6.17
  -1   8  14    0.65    1.66
   1   8 -13    5.90    4.27
   1   8 -13    9.35    3.34
  -1  -8  13    6.46    3.80
  -1   8  13    1.26    3.92
  -1   8  13   10.22    6.50
  -1   8  13    7.68    1.79
   1   8 -12   50.55    6.22
   1   8 -12   51.14    8.56
  -1   8  12   50.05   10.92
  -1  -8  12   46.15    5.92
  -1   8  12   31.49    6.20
  -1   8  12   40.76    2.74
   1   8 -11   -1.16    2.86
   1   8 -11   -2.50    2.38
  -1   8  11   -3.77    5.13
  -1   8  11    3.88    1.99
  -1  -8  11    2.57    1.64
  -1   8  11    1.42    2.90
   1   8 -10  193.81   11.12
   1   8 -10  194.23   17.96
  -1   8  10  183.08   12.51
  -1  -8  10  195.87    8.40
  -1   8  10  197.39    6.81
   1   8  -9   49.75    4.96
   1   8  -9   54.35    8.06
  -1   8   9   43.50    5.57
  -1  -8   9   52.98    3.35
   1   8  -8   54.83    5.14
   1   8  -8   57.11    4.80
  -1   8   8   60.59    5.59
  -1  -8   8   64.69    3.54
   1   8  -7    5.40    2.33
   1   8  -7    5.03    2.02
  -1   8   7    3.07    2.52
  -1  -8   7    7.19    2.46
   1   8  -6   49.99    3.57
   1   8  -6   50.80    4.44
  -1  -8   6   47.31    2.88
  -1   8   6   57.18    4.54
   1   8  -5   73.79    7.85
   1   8  -5   78.94    4.11
  -1   8   5   80.35    5.19
  -1  -8   5   76.37    3.47
   1   8  -4   54.94    4.07
   1  -8  -4   64.69    3.90
  -1  -8   4   60.90    3.05
  -1   8   4   62.53    4.27
   1   8  -3   54.40    3.66
   1   8  -3   47.95    2.98
   1  -8  -3   48.54    3.17
  -1   8   3   40.21    3.52
  -1  -8   3   47.69    2.67
   1  -8  -2   97.43    4.78
   1   8  -2  100.99    5.49
   1   8  -2  106.24    6.99
  -1  -8   2  105.74    4.35
  -1   8   2  105.02    5.21
   1   8  -1  358.95   13.50
   1  -8  -1  344.71   16.97
  -1  -8   1  350.54   12.78
  -1   8   1  366.11   13.89
  -1   8   1  342.37   12.52
   1  -8   0 1271.06   66.44
   1   8   0 1232.76   61.34
  -1   8   0 1216.24   59.61
  -1  -8   0 1223.57   59.13
  -1   8   0 1206.39   58.70
   1   8   1  276.97   10.97
   1  -8   1  272.19    9.35
  -1   8  -1  274.57    9.73
  -1  -8  -1  272.67   10.29
  -1   8  -1  251.69   10.19
   1  -8   2  103.03    3.86
   1   8   2  101.25    5.21
  -1   8  -2   96.76    4.99
  -1   8  -2  100.37    4.01
  -1  -8  -2   91.82    4.70
   1  -8   3  175.79    5.70
   1   8   3  180.50    7.96
  -1   8  -3  172.23    7.80
  -1  -8  -3  165.03    7.46
  -1   8  -3  185.44    6.05
   1  -8   4  107.85    3.78
   1   8   4  111.36    6.02
  -1   8  -4  110.58    5.53
  -1   8  -4  114.44    4.16
  -1  -8  -4  112.08    8.34
   1  -8   5    4.75    1.02
   1  -8   5    3.70    2.74
   1   8   5    0.04    1.98
  -1   8  -5    4.90    1.77
  -1   8  -5   -0.63    1.22
  -1  -8  -5    2.52    2.90
   1  -8   6   87.64    3.11
   1   8   6   78.21    5.73
   1  -8   6   80.39    7.73
  -1   8  -6   73.70    5.32
  -1  -8  -6   77.57    5.08
  -1   8  -6   85.25    3.72
   1  -8   7  198.31   14.18
   1   8   7  190.45   10.72
   1  -8   7  195.84    6.18
  -1   8  -7  190.57    7.21
  -1  -8  -7  211.41   10.01
  -1   8  -7  181.30    9.93
   1  -8   8   50.54    2.33
   1  -8   8   51.63    6.91
   1   8   8   46.03    4.92
  -1   8  -8   42.45    3.35
  -1   8  -8   49.96    7.27
   1  -8   9   26.40    5.36
   1   8   9   14.09    3.68
   1  -8   9   16.57    1.62
  -1   8  -9   15.42    2.56
  -1   8  -9   25.98    3.22
   1   8  10   15.86    7.00
   1  -8  10   22.95    2.00
   1  -8  10   33.91    6.10
  -1   8 -10   30.42    3.24
  -1   8 -10   23.04    3.78
   1   8  11   54.02    9.79
   1  -8  11   65.47    9.31
   1  -8  11   53.88    3.07
  -1   8 -11   59.21    5.63
  -1   8 -11   56.21    7.55
   1  -8  12    7.98    3.03
   1   8  12   12.31    6.57
   1   8  12   13.03    4.26
   1  -8  12   24.30    6.17
  -1   8 -12   16.62    3.51
  -1   8 -12   11.67    3.31
   1  -8  13   22.97    6.50
   1   8  13   12.63    2.71
   1  -8  13    7.74    3.28
   1   8  13   18.46    7.45
   1   8  13   18.70    6.74
  -1   8 -13   11.46    3.77
  -1   8 -13    7.27    3.85
   1   8  14    4.44    2.31
   1   8  14   -4.33    3.50
   1  -8  14    1.51    1.67
   1   8  14    2.41    6.36
   1  -8  14    3.60    5.56
  -1   8 -14    4.88    3.24
   1   8  15    0.28    3.62
   1   8  15    1.97    2.46
   1   8  15    0.48    6.23
   1  -8  15   -0.60    5.93
  -1   8 -15    4.29    5.60
   1   8  16   -0.73    3.66
   1   8  16   -1.30   10.00
  -1   8 -16    0.38    3.45
   1   9 -16   -3.44    3.82
  -1   9  16    2.10    7.41
  -1   9  16   -1.91    4.67
   1   9 -15    5.04    5.72
   1   9 -15   15.24    4.09
  -1   9  15   -3.32   13.30
  -1   9  15    3.22    4.99
  -1  -9  15    5.97    2.52
   1   9 -14   13.07    5.37
   1   9 -14   17.12    6.98
  -1   9  14    8.89    5.09
  -1   9  14   18.09    8.53
  -1  -9  14    9.13    4.77
   1   9 -13   21.06    4.49
   1   9 -13   18.23    8.97
  -1  -9  13   19.52    3.02
  -1   9  13   17.39    8.81
  -1   9  13   18.51    2.17
  -1   9  13   24.37    9.83
   1   9 -12   20.96    4.84
   1   9 -12   16.01    4.00
  -1   9  12   20.44    3.23
  -1  -9  12   17.12    2.78
  -1   9  12   28.72    8.69
  -1   9  12   20.87    7.84
   1   9 -11   29.91    4.50
   1   9 -11   19.71    3.95
  -1   9  11   22.71    3.15
  -1  -9  11   17.32    2.67
  -1   9  11   22.68    4.83
   1   9 -10   11.89    3.55
   1   9 -10    6.64    3.26
  -1   9  10   14.08    3.85
  -1  -9  10   14.21    2.19
   1   9  -9   58.74    5.55
   1   9  -9   60.69    8.39
  -1   9   9   60.76    6.34
  -1  -9   9   58.22    5.83
   1   9  -8   38.32    4.36
   1   9  -8   38.69    4.02
  -1   9   8   40.81    7.93
  -1  -9   8   35.69    2.89
   1   9  -7  222.86   12.11
   1   9  -7  222.15   16.04
  -1   9   7  212.77   13.04
  -1  -9   7  228.50   12.47
   1   9  -6  553.20   28.34
   1   9  -6  562.73   25.36
  -1   9   6  561.24   29.19
  -1  -9   6  549.66   22.14
   1  -9  -5    5.49    2.36
   1   9  -5    7.98    3.98
   1   9  -5    6.92    3.32
  -1   9   5    5.40    2.53
  -1  -9   5    8.65    1.66
   1  -9  -4  121.79    6.09
   1   9  -4  100.58    6.29
   1   9  -4  110.03    5.64
  -1  -9   4  113.28    4.81
  -1   9   4  106.22    6.39
   1   9  -3  213.48   10.28
   1  -9  -3  221.04    9.71
   1   9  -3  217.62    9.25
  -1  -9   3  230.79   11.71
  -1   9   3  219.08   10.35
   1   9  -2  267.21   12.34
   1  -9  -2  272.85   11.42
   1   9  -2  292.21   11.66
  -1   9   2  282.51   12.46
  -1  -9   2  294.37   10.94
  -1   9   2  263.28   10.06
   1  -9  -1   79.24    6.55
   1   9  -1   85.16    4.67
  -1   9   1   80.17    4.60
  -1  -9   1   83.06    4.16
  -1   9   1   78.15    6.20
   1   9   0   19.19    2.65
   1  -9   0   22.23    2.27
  -1   9   0   24.25    2.50
  -1  -9   0   24.30    2.42
  -1   9   0   19.11    2.43
   1   9   1  715.22   33.50
   1  -9   1  770.77   31.51
  -1  -9  -1  717.17   31.94
  -1   9  -1  733.32   31.36
  -1   9  -1  704.32   30.95
   1   9   2   20.27    3.05
   1  -9   2   21.41    2.09
  -1  -9  -2   35.13    2.71
  -1   9  -2   24.58    2.28
  -1   9  -2   32.17    2.78
   1  -9   3   89.96    3.90
   1   9   3   98.56    5.88
  -1   9  -3   98.79    5.62
  -1  -9  -3   99.48    5.41
  -1   9  -3   93.61    4.17
   1   9   4   68.95    4.99
   1  -9   4   70.12    4.78
  -1   9  -4   66.96    4.57
  -1  -9  -4   71.33    7.16
  -1   9  -4   72.89    5.25
   1   9   5  127.17    7.37
   1  -9   5  110.41    4.30
  -1   9  -5  112.14    7.00
  -1   9  -5  119.78    9.97
  -1  -9  -5  114.60    6.63
   1   9   6   48.60    4.61
   1  -9   6   39.32    2.34
  -1   9  -6   44.10    2.84
  -1   9  -6   43.71    4.17
  -1  -9  -6   44.17    4.08
   1   9   7  329.69   25.91
   1  -9   7  349.93   12.05
  -1   9  -7  344.71   13.32
  -1   9  -7  336.57   16.98
  -1  -9  -7  351.85   17.55
   1   9   8  154.08   10.36
   1  -9   8  161.96    8.08
   1  -9   8  160.55   14.49
  -1   9  -8  148.52    7.22
  -1   9  -8  155.41    9.37
   1  -9   9   71.44    8.01
   1  -9   9   47.37    2.64
   1   9   9   47.80    5.75
  -1   9  -9   44.87    3.88
  -1   9  -9   43.54    4.87
   1  -9  10   19.33    5.82
   1  -9  10   13.25    3.00
   1   9  10   17.17    4.13
  -1   9 -10   15.99    5.64
  -1   9 -10   15.90    2.90
   1   9  11    7.17    3.41
   1  -9  11    6.61    5.14
   1  -9  11    2.05    1.56
  -1   9 -11    6.26    4.09
  -1   9 -11   13.56    2.98
   1  -9  12   74.12    4.17
   1   9  12   80.76    5.47
   1   9  12   73.35    8.16
   1  -9  12   72.37   11.81
  -1   9 -12   78.56    6.53
  -1   9 -12   78.42   11.54
   1   9  13    8.46    4.30
   1   9  13   14.61    2.59
   1  -9  13    3.15    2.00
  -1   9 -13    9.23    5.52
  -1   9 -13   16.16    3.74
   1   9  14    6.16    4.89
   1   9  14   11.39    3.06
   1   9  14   20.37    9.11
  -1   9 -14   18.37    4.33
   1   9  15    4.83   11.77
   1   9  15    6.57    4.27
  -1   9 -15    1.34    3.79
   1   9  16   11.63    5.73
   1   9  16   11.42    9.78
  -1   9 -16   18.05    5.33
   1  10 -15    7.02    5.04
   1  10 -15   10.85    4.08
  -1  10  15   11.95    8.14
  -1  10  15    3.19    4.97
  -1 -10  15    1.41    2.43
   1  10 -14    4.27    4.36
   1  10 -14    5.11    3.45
  -1 -10  14   -1.49    2.33
  -1  10  14    8.61    6.95
  -1  10  14    3.16    4.14
   1  10 -13   -1.59    3.17
   1  10 -13    1.59    3.78
  -1  10  13   -0.24    3.65
  -1 -10  13    2.78    2.05
  -1  10  13    8.06    6.66
   1  10 -12   92.30    9.27
   1  10 -12   75.03    8.03
  -1  10  12   92.53    6.25
  -1 -10  12   82.19    5.56
  -1  10  12   78.02    9.07
  -1  10  12   39.44   15.71
   1  10 -11   37.06    4.71
   1  10 -11   21.81    8.30
  -1 -10  11   25.24    3.25
  -1  10  11   23.98    5.64
   1  10 -10   13.26    3.82
   1  10 -10   19.90    3.67
  -1 -10  10   12.49    3.96
  -1  10  10   12.27    4.30
   1  10  -9   88.50    6.68
   1  10  -9   64.49    6.53
  -1  10   9   72.64    7.80
  -1 -10   9   77.83    4.52
   1  10  -8   92.39   11.26
   1  10  -8   91.14    9.96
  -1 -10   8   82.01    4.73
  -1  10   8   98.09    8.10
   1  10  -7  202.80   10.71
   1  10  -7  198.95   11.72
  -1  10   7  193.40   13.12
  -1 -10   7  203.60   12.61
   1  10  -6  163.00   10.63
   1  10  -6  189.92   14.04
  -1  10   6  187.34   17.08
  -1 -10   6  174.02    7.54
   1  10  -5   97.92    5.86
   1  10  -5  105.90   10.67
   1 -10  -5   97.52    6.45
  -1 -10   5   94.49    4.89
  -1  10   5   84.83    6.91
   1  10  -4   13.56    3.04
   1  10  -4   17.72    2.63
   1 -10  -4   20.87    4.53
  -1  10   4   15.50    3.07
  -1 -10   4   13.16    3.52
   1  10  -3  212.72   11.01
   1 -10  -3  226.65   10.41
   1  10  -3  216.86   14.64
  -1 -10   3  217.93    8.94
  -1  10   3  213.95   11.28
   1  10  -2    1.88    2.03
   1  10  -2    2.09    1.81
   1 -10  -2   -0.52    1.76
  -1  10   2    2.69    3.28
  -1 -10   2    2.90    1.58
  -1  10   2    0.52    1.55
   1  10  -1   30.44    3.00
   1  10  -1   19.48    3.04
   1 -10  -1   23.75    4.24
  -1 -10   1   25.30    2.55
  -1  10   1   15.87    2.46
  -1  10   1   25.67    2.98
   1  10   0   31.04    3.41
   1 -10   0   32.55    2.87
  -1  10   0   30.94    3.17
  -1  10   0   34.99    4.75
  -1 -10   0   39.40    4.80
   1  10   1   29.50    3.23
   1 -10   1   26.71    2.59
  -1 -10  -1   26.59    2.90
  -1  10  -1   26.00    2.81
  -1  10  -1   22.22    2.87
   1 -10   2  133.93    8.63
   1  10   2  146.26   11.97
  -1 -10  -2  140.39    7.20
  -1  10  -2  145.29    9.79
  -1  10  -2  138.43    7.20
   1 -10   3  185.12    7.22
   1  10   3  184.03    9.85
  -1 -10  -3  193.83    9.21
  -1  10  -3  176.32    9.25
  -1  10  -3  175.30    7.81
   1 -10   4  137.16    5.61
   1  10   4  126.70    8.31
  -1 -10  -4  139.22    7.75
  -1  10  -4  132.15    7.54
  -1  10  -4  145.71    6.23
   1  10   5   98.12    7.82
   1 -10   5  119.94    7.39
  -1  10  -5  138.32   11.34
  -1  10  -5  120.77    5.52
  -1 -10  -5  120.71    7.42
   1 -10   6   60.10    3.13
   1  10   6   51.36    6.04
  -1  10  -6   54.91    3.78
  -1  10  -6   56.14    5.27
  -1 -10  -6   64.82    5.11
   1  10   7   76.14    7.42
   1 -10   7   85.65    3.93
  -1  10  -7   91.76    7.74
  -1 -10  -7   80.54    6.55
  -1  10  -7   83.35    9.82
   1 -10   8   19.44    3.57
   1  10   8   34.28    4.70
  -1  10  -8   27.32    4.01
  -1  10  -8   23.24    4.51
   1 -10   9   88.18    4.26
   1  10   9   73.44   13.04
  -1  10  -9   82.26    5.62
  -1  10  -9   86.19    6.87
   1 -10  10    7.96    1.97
   1  10  10    8.05    6.83
  -1  10 -10   20.04    3.53
  -1  10 -10   16.08    3.02
   1  10  11   71.74    7.87
   1 -10  11   64.10    6.22
  -1  10 -11   76.19    9.82
  -1  10 -11   75.85    7.01
   1 -10  12   34.31    3.21
   1  10  12   35.99    6.49
  -1  10 -12   39.77    4.91
  -1  10 -12   40.79    5.63
   1  10  13   11.85    4.43
   1  10  13   14.99    4.54
   1 -10  13    4.43    2.08
  -1  10 -13    9.30    5.82
  -1  10 -13   14.52    3.91
   1  10  14    3.25    7.01
   1  10  14   -1.58    2.22
   1  10  14    0.94    6.36
  -1  10 -14   -0.71    3.27
   1  10  15    8.50    8.18
   1  10  15    2.19    8.96
  -1  10 -15    6.68    4.28
   1  11 -15   19.23    5.72
  -1  11  15   10.85    7.45
  -1  11  15   32.93   11.28
   1  11 -14    0.81    6.75
   1  11 -14    0.05    3.28
  -1 -11  14   -0.84    2.20
  -1  11  14    1.82    7.41
  -1  11  14    4.36    6.55
   1  11 -13    8.75    6.87
   1  11 -13    2.33    5.81
  -1 -11  13    1.14    2.37
  -1  11  13    6.94    7.44
  -1  11  13    6.18    6.69
   1  11 -12   -2.53    3.05
   1  11 -12    2.73    3.37
  -1 -11  12   -0.99    2.03
  -1  11  12    1.62    1.35
  -1  11  12    6.20    5.84
   1  11 -11   21.66    4.03
   1  11 -11   14.88    4.39
  -1  11  11   10.21    4.53
  -1 -11  11    7.71    2.67
   1  11 -10    4.35    3.26
   1  11 -10    6.52    5.52
  -1  11  10    8.79    6.57
  -1 -11  10    6.20    3.59
   1  11  -9  350.54   19.84
   1  11  -9  326.44   19.88
  -1  11   9  326.67   32.57
  -1 -11   9  342.44   15.36
   1  11  -8  128.57    8.53
   1  11  -8   94.50   14.43
  -1 -11   8  122.40    6.34
  -1  11   8  127.51   10.82
   1  11  -7   53.85    7.93
   1  11  -7   49.66    5.48
  -1  11   7   59.74    6.58
  -1 -11   7   52.13    6.11
   1  11  -6  131.09    8.13
   1  11  -6  109.98    9.48
  -1  11   6  154.76   10.62
  -1 -11   6  148.21    6.86
   1  11  -5    4.60    4.68
   1  11  -5    5.93    2.52
   1 -11  -5    8.69    2.65
  -1 -11   5    4.67    3.30
  -1  11   5    4.79    5.01
   1  11  -4  103.13    6.53
   1 -11  -4  112.02   10.37
   1  11  -4   87.00    7.12
  -1  11   4  109.11    7.75
  -1 -11   4   96.93    5.54
   1 -11  -3   77.70    5.30
   1  11  -3   72.20    6.03
   1  11  -3   75.07    8.52
  -1  11   3   78.00    6.11
  -1  11   3   77.31    4.57
  -1 -11   3   75.25    4.75
   1 -11  -2  293.24   13.47
   1  11  -2  275.43   14.15
   1  11  -2  287.72   13.64
  -1 -11   2  268.11   17.39
  -1  11   2  298.62   14.63
  -1  11   2  245.55   16.24
   1  11  -1  273.17   13.79
   1  11  -1  275.54   13.39
   1 -11  -1  278.39   12.49
  -1 -11   1  281.92   12.46
  -1  11   1  246.95   11.89
  -1  11   1  273.28   13.41
   1 -11   0  209.89    9.61
   1  11   0  208.61   10.96
  -1  11   0  196.72    9.52
  -1 -11   0  212.35   10.06
  -1  11   0  215.49   15.04
   1  11   1  140.82   12.96
   1 -11   1  142.59   10.53
  -1  11  -1  151.71    7.56
  -1  11  -1  141.82   11.38
  -1 -11  -1  148.88   11.90
   1 -11   2  396.23   16.89
   1  11   2  412.56   21.07
  -1 -11  -2  423.26   19.63
  -1  11  -2  388.47   19.03
  -1  11  -2  425.99   18.65
   1  11   3   92.30    7.05
   1 -11   3   97.38    4.91
  -1  11  -3   94.06    6.59
  -1 -11  -3   94.26    6.26
  -1  11  -3   90.59    5.56
   1  11   4   19.56    3.91
   1 -11   4   18.60    3.85
  -1 -11  -4   15.21    3.38
  -1  11  -4   19.13    3.32
  -1  11  -4   22.82    2.66
   1  11   5  121.30    8.49
   1 -11   5  107.72    5.07
  -1 -11  -5  102.44    7.42
  -1  11  -5  112.84    7.54
  -1  11  -5  107.80    5.99
   1 -11   6   71.24    5.84
   1  11   6   55.06    6.83
  -1 -11  -6   67.90    5.74
  -1  11  -6   61.90    5.73
  -1  11  -6   75.45    7.06
   1  11   7   60.95   11.27
   1 -11   7   60.57    3.58
  -1 -11  -7   57.56    5.97
  -1  11  -7   63.84    9.51
  -1  11  -7   65.18    4.74
   1 -11   8  238.11   13.35
   1  11   8  252.10   16.66
  -1  11  -8  250.97   11.90
  -1  11  -8  217.64   13.82
   1 -11   9  150.30    6.75
   1  11   9  152.99   12.82
  -1  11  -9  160.59   13.14
  -1  11  -9  172.08   16.53
   1 -11  10   81.44    4.43
   1  11  10   77.88    9.00
  -1  11 -10   72.45    6.37
  -1  11 -10   78.49    7.52
   1  11  11   42.39    6.15
   1 -11  11   22.06    4.70
  -1  11 -11   40.89    8.37
  -1  11 -11   31.64    4.61
   1 -11  12    2.33    2.95
   1  11  12    0.11    3.71
  -1  11 -12    4.15    3.28
  -1  11 -12    1.95    4.71
   1  11  13    1.56    3.92
   1  11  13    2.65    2.21
  -1  11 -13   -2.58    3.24
  -1  11 -13    0.24    2.88
   1  11  14   26.99    7.84
  -1  11 -14   41.63    6.67
   1  11  15    7.69    8.02
   1  11  15   -4.28    4.47
  -1  11 -15   -0.21    3.69
   1  12 -14    0.10    4.62
   1  12 -14    6.51    3.93
  -1 -12  14    1.42    2.27
  -1  12  14    3.84    8.82
  -1  12  14    6.75    4.95
   1  12 -13   -0.15    4.11
   1  12 -13   -1.81    3.54
  -1  12  13   -6.50    7.06
  -1 -12  13   -0.99    2.37
  -1  12  13    3.61    3.95
   1  12 -12    5.10    3.96
   1  12 -12   -1.53    3.39
  -1 -12  12    0.74    2.30
  -1  12  12    7.50    4.00
   1  12 -11   84.86    8.84
   1  12 -11   72.79    8.28
  -1  12  11   83.21    9.30
  -1 -12  11   77.91    5.89
   1  12 -10   25.92    4.49
   1  12 -10   10.80    4.63
  -1 -12  10   16.10    4.94
  -1  12  10   18.22    5.15
   1  12  -9    3.74    3.11
   1  12  -9    3.31    3.14
  -1  12   9    4.94    3.54
  -1 -12   9    0.48    2.03
   1  12  -8    9.65    6.01
   1  12  -8    9.97    5.45
  -1 -12   8    8.77    2.45
  -1  12   8   15.93    4.44
   1  12  -7   42.92    5.51
   1  12  -7   47.94    4.98
  -1  12   7   38.00    6.58
  -1 -12   7   46.37    3.82
   1  12  -6   39.54    4.50
   1  12  -6   36.40    5.29
  -1  12   6   34.83    5.85
  -1 -12   6   42.20    3.60
   1  12  -5   18.42    3.99
   1  12  -5   25.54    3.74
   1 -12  -5   23.48    3.85
  -1 -12   5   20.53    3.03
  -1  12   5   21.18    4.54
   1 -12  -4   42.50    7.71
   1  12  -4   52.65    5.21
   1  12  -4   62.98    7.86
  -1  12   4   46.04    3.67
  -1 -12   4   37.47    3.99
  -1  12   4   43.47    5.70
   1  12  -3  131.29   12.81
   1  12  -3  122.11   13.88
   1 -12  -3  141.63    8.56
  -1 -12   3  125.82   10.95
  -1  12   3  126.58    7.03
  -1  12   3  135.91    9.58
   1 -12  -2   80.37    5.66
   1  12  -2   72.01    6.16
   1  12  -2   68.14    5.85
  -1 -12   2   70.26    5.13
  -1  12   2   65.17    4.94
  -1  12   2   83.17   10.04
   1  12  -1  174.37   10.64
   1 -12  -1  186.97    9.75
   1  12  -1  158.53   15.42
  -1 -12   1  189.68    9.74
  -1  12   1  161.00    8.92
  -1  12   1  179.85   10.60
   1  12   0  282.60   21.83
   1  12   0  262.45   14.68
   1 -12   0  276.93   13.81
  -1  12   0  273.41   13.25
  -1  12   0  295.26   14.98
  -1 -12   0  272.78   14.03
   1  12   1  249.49   14.41
   1 -12   1  264.47   12.21
  -1  12  -1  236.03   12.58
  -1 -12  -1  256.08   13.19
  -1  12  -1  237.21   12.89
   1 -12   2   96.33    5.59
   1  12   2   98.71    7.63
  -1  12  -2   90.87    6.63
  -1  12  -2   89.74    6.29
  -1 -12  -2   80.86   10.61
   1 -12   3   78.54    7.94
   1  12   3   79.33   11.47
  -1 -12  -3   79.61    6.43
  -1  12  -3   85.72    5.72
  -1  12  -3   78.22    6.59
   1  12   4   90.01    8.21
   1 -12   4   94.81    5.32
  -1  12  -4   99.45    6.07
  -1  12  -4   78.50    6.83
  -1 -12  -4   93.55    6.95
   1  12   5  126.34   15.73
   1 -12   5  123.08    9.43
  -1 -12  -5  127.72   13.69
  -1  12  -5  128.81    7.38
  -1  12  -5  124.72    8.63
   1  12   6   31.55    5.59
   1 -12   6   30.90    2.95
  -1  12  -6   35.32    4.51
  -1  12  -6   33.60    3.61
  -1 -12  -6   33.34    4.82
   1  12   7   14.51    4.55
   1 -12   7   12.89    2.28
  -1 -12  -7   13.86    3.87
  -1  12  -7   15.46    3.09
  -1  12  -7   18.59    3.78
   1 -12   8    0.51    1.70
   1  12   8   -3.01    3.31
  -1  12  -8    3.67    2.73
  -1  12  -8    3.23    2.20
   1  12   9   51.31   12.36
   1 -12   9   62.76    4.19
  -1  12  -9   63.21   11.00
  -1  12  -9   56.81    5.55
   1 -12  10   70.41    4.65
   1  12  10   58.84    8.93
  -1  12 -10   74.71   10.33
  -1  12 -10   79.90    7.48
   1 -12  11   11.64    4.78
   1  12  11   26.81    5.63
  -1  12 -11   19.74    4.24
  -1  12 -11   24.72    7.92
   1  12  12    1.72    3.85
   1 -12  12    1.59    3.13
  -1  12 -12   -2.05    3.37
  -1  12 -12    3.50    2.94
   1  12  13    9.44    5.14
  -1  12 -13    2.42    7.20
   1  12  14    0.56    4.94
  -1  12 -14    1.96    3.83
   1  13 -13   18.83    4.93
   1  13 -13   11.69    9.37
  -1 -13  13    8.90    3.57
  -1  13  13   10.97    5.78
  -1  13  13    8.59   10.51
   1  13 -12   16.51    4.41
   1  13 -12    8.56    5.09
  -1  13  12   14.22    5.11
  -1 -13  12    1.02    3.15
   1  13 -11    7.92    3.97
   1  13 -11    3.96    4.33
  -1  13  11    1.80    4.43
  -1 -13  11    5.64    2.77
   1  13 -10   -0.09    3.34
   1  13 -10   -0.03    3.11
  -1  13  10   12.72    5.82
  -1 -13  10   -2.66    2.25
   1  13  -9   35.72    9.63
   1  13  -9   38.36    5.95
  -1  13   9   36.56   10.94
  -1 -13   9   29.81    6.54
   1  13  -8    7.11    3.49
   1  13  -8    5.49    5.85
  -1 -13   8    7.78    2.51
  -1  13   8    4.28    4.26
   1  13  -7   48.31    5.92
   1  13  -7   42.33    5.67
  -1  13   7   49.08    7.35
  -1 -13   7   45.37    4.26
   1  13  -6    3.12    3.12
   1  13  -6    4.12    2.73
  -1  13   6    0.41    1.90
  -1  13   6    8.31    3.53
  -1 -13   6    1.16    3.55
   1  13  -5  108.99   12.80
   1  13  -5  111.65    8.50
   1 -13  -5   99.04    8.49
  -1  13   5   94.23    5.93
  -1  13   5   99.90   15.38
  -1 -13   5  110.58    6.81
   1  13  -4  234.61   19.81
   1  13  -4  205.66   13.65
   1 -13  -4  221.24   13.29
  -1 -13   4  230.58   16.66
  -1  13   4  193.83   10.18
  -1  13   4  236.20   15.11
   1  13  -3   87.46   10.86
   1 -13  -3   80.54    6.64
   1  13  -3   72.65    7.04
  -1 -13   3   89.73    5.78
  -1  13   3   75.87    5.27
  -1  13   3   64.22    7.59
   1  13  -2   17.96    3.82
   1  13  -2   14.16    6.19
   1 -13  -2   13.24    5.64
  -1  13   2   17.46    3.10
  -1  13   2   22.41    4.09
  -1 -13   2   12.37    5.19
   1 -13  -1   10.60    3.07
   1  13  -1   16.77    3.59
   1  13  -1    3.08    5.61
  -1  13   1   16.51    5.89
  -1  13   1   16.65    2.81
  -1 -13   1    9.44    3.10
   1  13   0   40.49    5.05
   1 -13   0   32.95    6.59
   1  13   0   39.64    4.71
  -1  13   0   30.81    4.05
  -1 -13   0   35.59    4.21
  -1  13   0   35.06    4.72
   1  13   1  174.19   11.90
   1 -13   1  196.02   10.30
  -1 -13  -1  183.79   11.14
  -1  13  -1  183.37   10.89
  -1  13  -1  150.88   15.44
   1 -13   2   13.85    4.82
   1  13   2   10.01    6.70
  -1 -13  -2   15.37    3.49
  -1  13  -2   16.22    3.47
  -1  13  -2   19.28    3.40
   1 -13   3  389.44   19.02
   1  13   3  389.25   24.19
  -1  13  -3  397.30   30.84
  -1 -13  -3  423.03   22.72
  -1  13  -3  406.59   20.85
   1  13   4   65.90    6.78
   1 -13   4   47.65    6.75
  -1  13  -4   47.96    5.56
  -1 -13  -4   45.92    5.72
  -1  13  -4   55.84    5.09
   1 -13   5   34.34    3.49
   1  13   5   47.75    6.00
  -1  13  -5   37.92    4.27
  -1  13  -5   37.85    8.09
  -1 -13  -5   33.54    5.06
   1 -13   6   85.52    5.41
   1  13   6   84.76   14.52
  -1 -13  -6   91.07    7.85
  -1  13  -6   70.63    7.61
  -1  13  -6   92.35    6.36
   1  13   7   33.77    6.39
   1 -13   7   35.65    3.41
  -1  13  -7   30.42    6.74
  -1  13  -7   32.81    5.20
  -1 -13  -7   36.72    5.55
   1 -13   8   43.80    3.86
   1  13   8   46.71    7.03
  -1  13  -8   45.67    5.18
  -1  13  -8   47.07    5.91
   1  13   9   70.22    8.56
   1 -13   9   67.80    4.89
  -1  13  -9   76.26   10.06
  -1  13  -9   64.89    7.43
   1 -13  10  110.82   10.07
   1  13  10  100.66   11.51
  -1  13 -10   99.76    8.90
  -1  13 -10   97.92    9.60
   1 -13  11    3.74    3.83
   1  13  11    6.08    4.45
  -1  13 -11    4.09    3.71
  -1  13 -11    3.23    5.79
   1  13  12    9.55    5.90
  -1  13 -12   14.70    4.38
  -1  13 -12   23.64    5.20
   1  13  13   -1.39    7.84
  -1  13 -13    3.80    4.07
   1  14 -13   -3.17    4.25
   1  14 -13    4.56    4.75
  -1  14  13    7.63    5.05
  -1 -14  13    0.74    2.90
   1  14 -12   87.73   12.41
   1  14 -12   82.84   10.07
  -1 -14  12   87.19    7.65
  -1  14  12   75.95   12.23
   1  14 -11   12.88    8.35
   1  14 -11    7.21    4.44
  -1 -14  11    7.48    3.28
  -1  14  11    7.08    5.23
   1  14 -10   24.88    5.70
   1  14 -10   22.31    5.19
  -1  14  10   34.92    6.47
  -1 -14  10   15.84    3.98
  -1  14  10   17.24    3.10
   1  14  -9   19.24    4.86
   1  14  -9   19.74    5.12
  -1  14   9   23.63    5.75
  -1  14   9   15.32    3.01
  -1 -14   9   12.12    3.61
   1  14  -8   78.19   12.73
   1  14  -8   74.52    7.74
  -1 -14   8   75.10    9.86
  -1  14   8   74.96    9.68
  -1  14   8   66.98    5.18
   1  14  -7    5.15    3.17
   1  14  -7   -1.65    3.29
  -1  14   7    1.14    2.11
  -1 -14   7    4.23    2.44
  -1  14   7    2.26    3.76
   1  14  -6   12.38    6.84
   1  14  -6   11.06    3.93
  -1  14   6   18.79    4.59
  -1  14   6    8.83    2.82
  -1 -14   6   14.96    3.19
   1 -14  -5    6.18    3.30
   1  14  -5    2.41    5.31
   1  14  -5   -0.91    3.42
  -1  14   5    3.53    3.77
  -1  14   5    6.29    3.60
  -1 -14   5    4.10    4.18
   1 -14  -4  154.89   10.82
   1  14  -4  153.51   16.65
   1  14  -4  137.55   16.67
  -1  14   4  147.53   12.16
  -1  14   4  126.61    7.93
  -1 -14   4  146.94    8.83
   1 -14  -3    9.48    3.43
   1  14  -3   13.20    3.58
   1  14  -3   13.57    6.00
  -1 -14   3   10.64    4.86
  -1  14   3    8.47    2.69
  -1  14   3    6.90    4.00
   1  14  -2   63.95    6.79
   1 -14  -2   63.81    6.14
   1  14  -2   66.36    6.66
  -1 -14   2   64.22    5.75
  -1  14   2   53.68    7.30
  -1  14   2   59.06    8.40
   1  14  -1  181.01   11.84
   1 -14  -1  170.99   10.44
   1  14  -1  143.29   10.87
  -1  14   1  147.02    9.55
  -1  14   1  168.14   11.92
  -1 -14   1  160.87   15.39
   1  14   0   40.34    5.17
   1 -14   0   36.30    4.74
   1  14   0   50.10    5.92
  -1  14   0   40.65    4.64
  -1  14   0   42.14    5.49
  -1 -14   0   37.70    4.99
   1  14   1    1.51    2.72
   1 -14   1    5.67    2.42
   1  14   1    1.69    3.09
  -1  14  -1    1.58    2.56
  -1 -14  -1   -3.89    4.43
  -1  14  -1    0.34    4.62
   1  14   2   52.80    7.10
   1 -14   2   65.35    5.32
  -1 -14  -2   65.56    6.19
  -1  14  -2   57.93    6.00
  -1  14  -2   47.86    5.86
   1 -14   3  119.01    7.63
   1  14   3  108.95   10.27
  -1  14  -3  104.92    8.43
  -1  14  -3  116.99    8.39
  -1 -14  -3  120.83    9.05
   1 -14   4   11.20    2.62
   1  14   4    9.14    4.28
  -1  14  -4    8.32    5.20
  -1  14  -4   11.00    3.39
  -1 -14  -4    2.53    3.67
   1  14   5    4.20    4.20
   1 -14   5    9.01    3.95
  -1 -14  -5    2.61    3.49
  -1  14  -5    8.30    3.07
   1 -14   6   11.07    2.85
   1  14   6   19.59    4.68
  -1  14  -6   13.54    3.62
  -1 -14  -6   12.47    4.31
  -1  14  -6   14.56    4.05
   1  14   7  132.10   12.50
   1 -14   7  132.11    7.75
  -1 -14  -7  123.53   11.09
  -1  14  -7  121.86   16.13
  -1  14  -7  122.38    9.08
   1  14   8   17.94    8.28
   1 -14   8   11.90    2.82
  -1  14  -8    8.52    3.99
  -1  14  -8    9.35    6.09
   1  14   9    6.55    4.59
   1 -14   9    8.01    4.11
  -1  14  -9    3.05    3.99
  -1  14  -9    8.98    3.53
   1 -14  10   55.24    5.43
   1  14  10   73.36    9.35
  -1  14 -10   61.41   12.32
  -1  14 -10   68.47    7.85
   1 -14  11   71.44    5.65
   1  14  11   63.49    9.86
  -1  14 -11   62.26    8.63
  -1  14 -11   59.65    8.05
   1  14  12   -4.74    4.41
  -1  14 -12    5.95    3.80
   1  14  13    2.62    5.49
  -1  14 -13    7.27    4.95
   1  15 -12   22.02    6.10
   1  15 -12   32.17   11.92
  -1  15  12   30.47    7.03
  -1 -15  12    3.95    4.36
   1  15 -11    9.79    5.20
   1  15 -11    1.49    4.47
  -1 -15  11    7.04    3.38
  -1  15  11    3.11    5.02
   1  15 -10   14.57    5.54
   1  15 -10   26.01    6.29
  -1 -15  10   16.14    4.30
  -1  15  10   22.34    6.66
   1  15  -9    3.10    4.36
   1  15  -9    7.84    4.03
  -1 -15   9    2.81    3.13
  -1  15   9    4.93    4.26
  -1  15   9   11.59    8.16
   1  15  -8   14.55    4.79
   1  15  -8    6.78    4.59
  -1 -15   8   15.31    3.71
  -1  15   8   15.29    5.30
  -1  15   8   19.23    5.75
   1  15  -7   22.83    5.27
   1  15  -7   23.50    5.57
  -1  15   7   18.23    5.86
  -1  15   7   35.09    6.36
   1  15  -6    8.68    4.00
   1  15  -6   10.16    6.80
  -1 -15   6    4.28    3.23
  -1  15   6    8.99    2.83
  -1  15   6   21.25    4.67
   1  15  -5   60.35   12.17
   1  15  -5   62.88    7.65
   1 -15  -5   65.30    7.44
  -1 -15   5   65.54    5.91
  -1  15   5   51.28    5.18
  -1  15   5   58.60   12.94
   1  15  -4    2.13    4.98
   1  15  -4   -1.97    3.03
   1 -15  -4   -3.97    2.94
  -1  15   4    0.53    3.43
  -1 -15   4    2.51    3.91
  -1  15   4    2.24    2.13
   1  15  -3    7.64    4.00
   1 -15  -3   12.33    3.87
   1  15  -3   14.28    4.12
  -1 -15   3   12.85    3.40
  -1  15   3    5.86    4.71
  -1  15   3   11.28    4.52
   1  15  -2  130.53    9.72
   1  15  -2  114.10   10.60
   1 -15  -2  125.13    9.63
  -1  15   2  105.94    8.44
  -1 -15   2  122.65    8.99
  -1  15   2  141.75   11.33
   1  15  -1   48.81    5.27
   1 -15  -1   31.95    8.25
   1  15  -1   36.30    5.89
  -1  15   1   49.55    6.01
  -1 -15   1   25.72    4.94
  -1  15   1   26.79    4.52
   1 -15   0   26.99    4.17
   1  15   0   15.19    4.43
   1  15   0   22.98    5.14
  -1 -15   0   18.86    4.46
  -1  15   0   24.90    6.54
  -1  15   0   27.58    4.90
   1  15   1   68.48    7.97
   1  15   1   67.21    6.83
   1 -15   1   63.89    9.85
  -1 -15  -1   67.49    6.97
  -1  15  -1   64.53    6.54
  -1  15  -1   70.41    7.36
   1  15   2   12.19    4.01
   1  15   2   18.95    4.93
   1 -15   2   12.69    3.60
  -1 -15  -2   19.09    4.31
  -1  15  -2   25.00    4.18
  -1  15  -2   14.55    4.05
   1 -15   3    9.71    3.20
   1  15   3   14.84    7.25
   1  15   3    2.92    3.42
  -1 -15  -3   13.53    3.88
  -1  15  -3   10.15    3.50
  -1  15  -3   12.29    5.95
   1  15   4    1.80    3.40
   1 -15   4   -0.50    3.92
  -1  15  -4    2.68    4.64
  -1  15  -4    2.86    2.81
  -1 -15  -4   -3.22    2.99
   1  15   5   98.27   10.38
   1 -15   5   83.83    7.01
  -1 -15  -5   87.71    8.94
  -1  15  -5   97.19    8.38
  -1  15  -5   92.81    8.50
   1  15   6    8.71    4.43
   1 -15   6    8.38    2.80
  -1  15  -6    5.30    3.56
  -1  15  -6    0.50    3.56
  -1 -15  -6    2.49    6.34
   1 -15   7    9.07    5.03
   1  15   7    9.90    5.23
  -1 -15  -7   15.89    4.55
  -1  15  -7    9.96    3.85
  -1  15  -7    4.60    7.00
   1  15   8   19.75    6.39
   1 -15   8   18.17    3.71
  -1  15  -8   24.01    4.97
  -1  15  -8   16.34    7.71
   1  15   9    0.36    4.81
   1 -15   9    0.43    2.75
  -1  15  -9    6.68    3.84
  -1  15  -9   12.01    3.92
   1 -15  10    3.64    3.21
   1  15  10   19.03    9.14
  -1  15 -10   13.74    4.86
  -1  15 -10   15.81    4.56
   1  15  11   28.28   10.97
  -1  15 -11   13.96    5.33
  -1  15 -11   11.69    5.46
   1  15  12   32.10    8.82
  -1  15 -12   33.48    7.68
   1  16 -11    1.69    4.92
   1  16 -11   -1.25    4.26
  -1 -16  11    0.88    4.93
  -1  16  11   -1.87    4.34
   1  16 -10   -3.21    4.78
   1  16 -10    3.59    3.78
  -1 -16  10    0.49    4.89
  -1  16  10   -0.02    4.22
   1  16  -9    0.21    4.09
   1  16  -9    3.98    4.01
  -1  16   9    1.23    2.44
  -1 -16   9   -0.47    3.02
  -1  16   9    5.87    4.81
   1  16  -8   32.49    5.93
   1  16  -8   19.05    5.89
  -1  16   8   35.13    6.91
  -1 -16   8   19.47    4.63
  -1  16   8   18.11    3.96
   1  16  -7    8.77    8.20
   1  16  -7   13.39    4.52
  -1  16   7    8.60    3.12
  -1  16   7   11.03    5.45
  -1 -16   7   10.88    3.67
   1  16  -6   52.80    7.47
   1  16  -6   46.43   12.70
  -1  16   6   59.44   14.17
  -1  16   6   54.57    5.41
  -1 -16   6   47.90    9.74
   1  16  -5   13.14    5.02
   1  16  -5   10.72    8.49
   1 -16  -5   16.56    5.03
  -1  16   5   15.17    5.70
  -1 -16   5   18.54    4.03
  -1  16   5   14.97    6.12
   1  16  -4   74.31    8.59
   1  16  -4   58.61    8.29
   1 -16  -4   71.74    8.24
  -1  16   4   67.88    6.12
  -1  16   4   55.95    9.04
  -1 -16   4   74.63    7.00
   1  16  -3   39.69   10.86
   1  16  -3   52.38    7.20
   1 -16  -3   44.10   10.58
  -1  16   3   46.74    5.38
  -1  16   3   50.91    7.49
  -1 -16   3   52.04    9.48
   1  16  -2   29.97    5.76
   1 -16  -2   48.54    5.71
   1  16  -2   35.99    6.53
  -1  16   2   33.63    6.82
  -1  16   2   34.44    4.96
  -1 -16   2   39.47    5.41
   1  16  -1  172.70   14.35
   1 -16  -1  186.64   12.65
   1  16  -1  154.91   19.31
  -1 -16   1  164.65   12.42
  -1  16   1  166.89   14.35
  -1  16   1  155.35   17.63
   1  16   0   44.04   12.17
   1 -16   0   52.82    6.18
   1  16   0   51.42    6.57
  -1  16   0   54.89   11.60
  -1  16   0   47.98    5.89
  -1 -16   0   52.32    6.40
   1  16   1   -0.90    3.78
   1 -16   1    5.26    3.01
   1  16   1    8.14    3.26
  -1 -16  -1    0.68    3.43
  -1  16  -1   -3.60    3.14
  -1  16  -1   10.60    3.63
   1 -16   2  139.97   15.60
   1  16   2  139.04   12.74
   1  16   2  130.91   10.56
  -1  16  -2  129.60   16.02
  -1  16  -2  136.88   11.76
  -1 -16  -2  141.35   11.60
   1  16   3   12.46    5.47
   1  16   3   16.92    4.42
   1 -16   3   17.99    4.06
  -1 -16  -3   22.80    4.80
  -1  16  -3   14.29    4.35
  -1  16  -3   21.27    4.76
   1  16   4    8.33    3.80
   1  16   4   14.53    8.24
   1 -16   4   10.64    3.53
  -1  16  -4   11.04    4.17
  -1  16  -4    9.56    3.99
  -1 -16  -4   13.72    7.10
   1  16   5   85.07   10.77
   1 -16   5   98.36   11.58
  -1  16  -5   80.07    8.56
  -1  16  -5   85.95    9.12
  -1 -16  -5   75.87    9.34
   1 -16   6   14.80    4.32
   1  16   6   26.26    6.38
  -1  16  -6   18.82    5.45
  -1 -16  -6   19.58    5.63
  -1  16  -6   33.91    5.32
   1  16   7    8.91    8.48
   1 -16   7    5.09    3.36
  -1 -16  -7    9.26    4.70
  -1  16  -7    8.02    4.24
  -1  16  -7   12.50    6.73
   1 -16   8    2.31    2.58
   1  16   8    2.74    4.33
  -1  16  -8   -0.13    3.40
  -1  16  -8   -4.62    3.37
   1  16   9   20.11    6.62
   1 -16   9   12.81    4.10
  -1  16  -9   19.48    5.85
  -1  16  -9   18.22    8.69
   1  16  10    4.47    5.65
   1 -16  10    1.57    3.24
  -1  16 -10    6.16    4.40
  -1  16 -10   11.52    4.98
   1  16  11   39.01    9.69
  -1  16 -11   41.47    8.22
   1  17  -9   12.61    5.72
   1  17  -9   11.94    5.45
  -1  17   9    5.58    5.90
  -1 -17   9   10.89    4.28
   1  17  -8   21.81    5.46
   1  17  -8   16.57    5.96
  -1  17   8   11.92    3.79
  -1  17   8   10.78    9.74
  -1 -17   8    9.46    7.43
   1  17  -7   -0.76    6.14
   1  17  -7    4.44    6.85
  -1  17   7   -0.56    4.41
  -1 -17   7    2.31    3.08
  -1  17   7   -1.14    2.61
   1  17  -6    4.02    4.48
   1  17  -6    4.39    4.08
  -1  17   6    3.30    2.96
  -1  17   6   -4.79    4.75
  -1 -17   6    5.67    3.33
   1  17  -5   24.19    9.27
   1  17  -5   22.68    6.40
  -1 -17   5   14.52    4.89
  -1  17   5   39.66    6.71
  -1  17   5   20.28    4.42
   1 -17  -4   15.46    5.09
   1  17  -4   26.39    5.11
   1  17  -4    7.08    5.54
  -1  17   4   12.59    3.94
  -1 -17   4    6.22    7.80
  -1  17   4   19.77    5.76
   1 -17  -3   22.12    4.89
   1  17  -3    9.04    5.39
   1  17  -3   21.39    4.97
  -1 -17   3   13.76    4.41
  -1  17   3   18.77    5.60
  -1  17   3   11.69    4.05
   1 -17  -2   65.30    8.17
   1  17  -2   66.44    8.23
   1  17  -2   61.69    9.00
  -1 -17   2   57.13    7.42
  -1  17   2   77.20    9.36
  -1  17   2   56.28   10.95
   1  17  -1   25.24   10.44
   1  17  -1   24.65    5.64
   1 -17  -1   35.22    5.63
  -1 -17   1   25.24    5.29
  -1  17   1   26.07    6.53
  -1  17   1   24.85    5.03
   1 -17   0   22.68    8.31
   1  17   0   29.64    8.35
   1  17   0   29.07    6.37
  -1  17   0   21.22    4.83
  -1 -17   0   27.64    5.63
  -1  17   0   23.45    6.15
   1  17   1   26.26    6.20
   1 -17   1   17.05    4.95
   1  17   1   30.92    5.27
  -1  17  -1   21.26    8.23
  -1  17  -1   31.44    9.63
  -1 -17  -1   22.82    8.83
   1  17   2    3.68    3.82
   1  17   2    3.27    4.74
   1 -17   2    9.56    3.69
  -1 -17  -2    8.38    4.10
  -1  17  -2    9.12    4.23
  -1  17  -2    4.60    3.68
   1  17   3   31.42    9.16
   1 -17   3   23.86    8.76
   1  17   3   41.64    7.28
  -1  17  -3   24.55    6.32
  -1 -17  -3   36.53    6.31
  -1  17  -3   34.98    5.87
   1 -17   4    4.48    3.43
   1  17   4    5.08    3.62
   1  17   4    6.51    4.64
  -1 -17  -4    5.41    4.16
  -1  17  -4    5.71    4.17
   1 -17   5    1.12    2.91
   1  17   5    0.30    7.17
   1  17   5   -2.10    3.08
  -1 -17  -5   -1.51    3.72
  -1  17  -5   -3.20    3.37
  -1  17  -5    0.54    3.67
   1 -17   6   11.53    3.64
   1  17   6    5.66    5.38
   1  17   6    3.10    3.84
  -1 -17  -6    9.91    4.67
  -1  17  -6   -0.54    4.63
  -1  17  -6   10.65    4.29
   1  17   7   12.56    5.19
   1 -17   7    5.74    5.67
   1  17   7    1.95    3.60
  -1 -17  -7    3.55    4.65
  -1  17  -7    6.42    4.52
  -1  17  -7    2.23    4.01
   1  17   8   -0.67    4.61
   1 -17   8    4.68    4.85
  -1  17  -8    3.89    4.03
  -1  17  -8   -4.77    3.67
   1 -17   9    4.45    6.25
   1  17   9    6.72    9.18
  -1  17  -9   10.83    8.42
  -1  17  -9   10.00    8.51
   1  18  -8   35.47    7.90
   1  18  -8   38.88    7.81
  -1  18   8   20.93    8.09
  -1 -18   8   29.33    6.39
   1  18  -7    8.29    5.18
   1  18  -7   10.97    4.71
  -1  18   7    3.65    6.11
  -1 -18   7   10.32    4.15
  -1  18   7   -0.99    3.50
   1  18  -6   27.08    7.49
   1  18  -6   33.17    6.58
  -1  18   6   25.58    5.07
  -1 -18   6   15.70    9.19
  -1  18   6   31.79   13.26
   1  18  -5   10.25    4.35
   1  18  -5    5.23    5.07
  -1 -18   5    1.81    3.80
  -1  18   5    7.04    5.24
  -1  18   5    2.24    3.40
   1  18  -4    4.74    4.25
   1 -18  -4    0.25    3.93
   1  18  -4    3.11    3.86
  -1  18   4   -3.49    4.41
  -1 -18   4   -1.39    3.39
  -1  18   4    2.63    4.96
   1  18  -3   18.45    6.16
   1 -18  -3   18.85    5.76
   1  18  -3   20.57    5.73
  -1  18   3   13.61   10.20
  -1  18   3   13.93    4.46
  -1 -18   3   19.85    5.04
   1 -18  -2    1.38    7.76
   1  18  -2    5.82    4.80
   1  18  -2   15.49    8.52
  -1  18   2    8.82    3.93
  -1 -18   2   12.96    4.49
  -1  18   2   11.98    5.56
   1  18  -1   18.98    6.46
   1 -18  -1   18.41    5.44
   1  18  -1   17.90    5.49
  -1 -18   1   22.84    5.52
  -1  18   1   11.70   10.62
  -1  18   1   21.19    4.88
   1  18   0  136.75   12.99
   1 -18   0  137.46   13.22
   1  18   0  168.10   15.86
  -1  18   0  131.68   15.04
  -1  18   0  139.10   19.29
  -1 -18   0  159.28   13.82
   1  18   1   38.59   10.49
   1 -18   1   35.25   10.58
  -1  18  -1   38.03    6.12
  -1 -18  -1   38.22    7.02
  -1  18  -1   35.89    7.49
   1  18   2   38.13    6.41
   1  18   2   35.42    8.02
   1 -18   2   37.30    6.29
  -1  18  -2   36.41    6.26
  -1 -18  -2   37.07    7.09
  -1  18  -2   26.50   11.99
   1  18   3    2.01    3.55
   1  18   3   16.23    4.66
   1 -18   3   -0.38    3.50
  -1  18  -3    4.06    3.71
  -1 -18  -3   -3.48    4.01
  -1  18  -3    0.46    4.12
   1 -18   4   13.39    5.43
   1  18   4   30.21    7.73
   1  18   4   25.95    5.55
  -1 -18  -4   27.95    6.48
  -1  18  -4   20.33    6.60
  -1  18  -4   42.56    5.90
   1  18   5   53.26    8.87
   1 -18   5   26.30   10.23
   1  18   5   26.65   10.53
  -1  18  -5   26.13    7.01
  -1 -18  -5   55.11   12.35
  -1  18  -5   41.54    6.88
   1  18   6    4.39    3.74
   1  18   6    3.57    8.21
   1 -18   6    4.66    3.61
  -1 -18  -6    2.40    4.63
  -1  18  -6   -2.12    6.77
  -1  18  -6    1.26    4.50
   1  18   7    4.92    5.35
   1  18   7    4.37    4.02
   1 -18   7    1.58    3.88
  -1 -18  -7   10.59    5.62
  -1  18  -7    7.02    5.24
  -1  18  -7   11.07    4.41
   1 -18   8   53.99    7.22
   1  18   8   53.60    7.24
   1  18   8   47.38    9.63
  -1  18  -8   36.26    8.34
  -1  18  -8   47.28   10.49
   1  19  -6    6.48    5.98
   1  19  -6    5.82    5.28
  -1  19   6    6.78    4.00
  -1 -19   6    9.28    4.77
  -1  19   6    4.78    6.54
   1  19  -5    8.37    4.62
   1  19  -5    2.19    5.53
  -1 -19   5    2.90    4.17
  -1  19   5    2.60    3.73
  -1  19   5    9.73    5.95
   1  19  -4   -0.74    3.67
   1  19  -4    2.19    4.45
  -1 -19   4   -1.51    5.79
  -1  19   4    0.47    3.21
  -1  19   4   -5.07    7.37
   1  19  -3   20.00    8.17
   1  19  -3   40.35    7.59
   1 -19  -3   40.58    7.60
  -1 -19   3   33.18    6.74
  -1  19   3   24.22    6.40
  -1  19   3   43.56    8.66
   1 -19  -2   12.05    5.04
   1  19  -2    1.69    5.78
   1  19  -2    3.67    5.12
  -1  19   2    8.91    9.80
  -1  19   2   12.28    4.19
  -1 -19   2   10.25    4.85
   1  19  -1   12.89    6.90
   1  19  -1   24.22    9.35
   1 -19  -1   13.24    9.31
  -1 -19   1   14.77    5.63
  -1  19   1   21.97    6.68
  -1  19   1   14.98    8.33
   1 -19   0    1.70    4.23
   1  19   0    4.05    4.16
  -1 -19   0    5.69    4.44
  -1  19   0    2.54    3.72
  -1  19   0    3.70    8.20
   1  19   1   25.07    5.91
   1  19   1   30.59    7.63
   1 -19   1   30.09    5.87
  -1 -19  -1   28.57    6.53
  -1  19  -1   11.62    5.68
  -1  19  -1   17.63    7.05
   1  19   2   27.02    7.69
   1  19   2   24.09    5.98
  -1  19  -2   32.12    7.38
  -1  19  -2   23.10    6.08
   1 -19   3    0.20    3.85
   1  19   3   -4.01    6.35
   1  19   3    8.66    5.16
  -1  19  -3    1.90    6.49
  -1 -19  -3    4.94    4.29
  -1  19  -3    3.92    7.72
   1  19   4    3.84    4.03
   1 -19   4   10.68    4.02
  -1  19  -4   -0.35    4.89
  -1  19  -4    4.05    4.36
  -1 -19  -4    0.33    4.78
   1  19   5    7.38    4.25
   1 -19   5    6.84    4.22
   1  19   5   -0.22    5.81
  -1 -19  -5    5.04    4.98
  -1  19  -5    9.43    4.59
  -1  19  -5   -4.72    4.37
   1  19   6   -0.73    5.09
   1 -19   6    2.95    3.46
   1  19   6   -5.74    3.53
  -1  19  -6    0.54    5.88
  -1 -19  -6    3.87    4.33
  -1  19  -6    0.33    4.07
   1  20  -2    8.21    6.01
   1 -20  -2    4.07    5.27
   1  20  -2    6.34    5.08
  -1  20   2    7.57    6.91
  -1  20   2    4.74    4.08
   1  20  -1    4.43    4.37
   1  20  -1    3.01    5.18
   1 -20  -1   10.82    4.38
  -1 -20   1   -5.14    4.34
  -1  20   1   -1.04    3.63
  -1  20   1   -2.40    5.80
   1  20   0    6.75    6.08
   1  20   0    7.04    4.89
  -1 -20   0    6.91    5.11
  -1  20   0   10.02    4.38
  -1  20   0   -1.05    5.87
   1  20   1   19.11    5.35
   1  20   1   10.11    7.71
   1 -20   1   11.57    5.32
  -1  20  -1    7.66    5.08
   1  20   2    3.00    3.91
   1  20   2   -1.17    6.11
   1 -20   2    2.99    4.00
  -1 -20  -2   -1.66    4.51
  -1  20  -2    3.64    6.40
  -1  20  -2    0.10    4.88
  -2   0  18   10.94    5.33
  -2   0  18   -0.30    3.71
  -2   0  17    6.34    6.14
  -2   0  17    6.69    5.30
  -2   0  16    0.65    3.89
  -2   0  16   -1.44    2.84
  -2   0  15    0.52    6.31
  -2   0  15    1.64    3.34
  -2   0  14   39.38    6.94
  -2   0  14   44.95    5.78
  -2   0  13   28.63    4.85
  -2   0  13   41.19    5.57
  -2   0  12   -1.32    4.05
  -2   0  12   -3.23    3.10
  -2   0  11   53.56    4.55
  -2   0  11   52.02    5.69
   2   0 -10   63.13    2.96
  -2   0  10   72.63    5.67
  -2   0  10   58.63    4.38
   2   0  -9 1157.75   51.84
  -2   0   9 1220.71   81.50
  -2   0   9 1231.04   60.64
   2   0  -8  233.22   14.57
   2   0  -8  247.87    9.52
  -2   0   8  259.24    9.29
  -2   0   8  272.02   12.48
   2   0  -7 1512.55   95.36
   2   0  -7 1521.26   75.26
  -2   0   7 1574.36   89.54
  -2   0   7 1523.68   76.12
   2   0  -6  172.13    4.29
   2   0  -6  167.43    8.46
  -2   0   6  180.11    7.21
  -2   0   6  171.08    7.22
   2   0  -5   46.93    1.41
   2   0  -5   47.96    5.08
  -2   0   5   48.69    1.70
  -2   0   5   52.35    2.91
   2   0  -4   23.58    1.41
   2   0  -4   24.11    2.15
  -2   0   4   25.49    1.95
   2   0  -3  317.51    7.27
   2   0  -3  318.22   11.44
  -2   0   3  332.01   14.22
  -2   0   2   31.50    1.83
   2   0  -1 2109.84  109.09
  -2   0   1 2047.68  110.03
   2   0   1  875.08   26.14
  -2   0  -1  889.66   26.31
   2   0   2 1004.63   31.61
  -2   0  -2 1008.86   32.71
   2   0   3   44.99    1.41
  -2   0  -3   52.38    1.37
   2   0   4  112.13    3.44
   2   0   4  112.76    2.18
   2   0   5  157.29    4.98
   2   0   5  158.61    3.51
   2   0   6   57.41    2.65
   2   0   6   46.66    2.59
   2   0   6   50.63    2.49
   2   0   7   57.56    2.91
   2   0   7   62.75    4.78
   2   0   7   56.16    2.11
   2   0   8   24.21    2.17
   2   0   8   16.49    1.41
   2   0   8   28.26    2.28
   2   0   9  338.28   13.59
   2   0   9  356.08   14.20
   2   0   9  310.85   10.59
   2   0  10 1708.52   99.94
   2   0  10 1999.33  136.15
   2   0  10 1935.50  121.81
   2   0  11  106.40    7.00
   2   0  11   88.95    6.78
   2   0  11  104.30    6.28
   2   0  12  206.74    9.27
   2   0  12  245.92   12.06
   2   0  12  248.23   19.61
   2   0  13  132.82    8.17
   2   0  13  113.29    8.89
   2   0  13  102.83    5.92
   2   0  14    2.48    4.62
   2   0  14   -1.23    1.83
   2   0  14   -0.10    2.60
   2   0  15    8.37    2.59
   2   0  15    9.95    4.06
   2   0  15    1.38    5.84
   2   0  16   37.83    5.70
   2   0  16   33.89   10.94
   2   0  16   25.70    4.03
   2   0  17   23.78    6.08
   2   0  17    1.34    5.67
   2   0  17   19.11    5.03
   2   0  18   20.39    6.92
  -2  -1  18   -3.89    5.96
  -2   1  18   12.87    6.35
  -2   1  18    4.45    5.84
  -2   1  17   -0.75    3.32
  -2   1  17    2.35    7.82
  -2  -1  17    1.54    4.25
  -2  -1  17    3.19    3.15
  -2   1  16   23.54    7.83
  -2   1  16   31.55    6.85
  -2  -1  16   19.47    6.02
  -2  -1  15   10.37    4.20
  -2   1  15    0.61    7.51
  -2   1  15    2.88    3.64
  -2   1  15    8.31    3.28
  -2  -1  14    7.81    4.14
  -2   1  14   16.59    4.93
  -2   1  14   12.93    3.58
  -2  -1  14   10.64    4.23
  -2   1  13   -0.93    3.16
  -2  -1  13   -6.74    2.66
  -2  -1  13    6.29    2.75
  -2   1  13   -0.78    3.72
   2   1 -12   26.45    2.87
  -2   1  12   34.70    3.62
  -2   1  12   31.32    5.32
  -2  -1  12   23.67    7.51
  -2  -1  12   28.05    4.39
   2   1 -11   12.48    3.15
  -2  -1  11   15.50    3.38
  -2   1  11    8.08    3.70
  -2   1  11   14.10    2.50
  -2  -1  11   15.27    3.15
   2   1 -10   22.39    2.01
  -2   1  10   17.22    3.96
  -2  -1  10   18.09    3.35
  -2   1  10   14.04    6.09
  -2  -1  10   19.31    3.14
   2   1  -9  160.57   12.19
   2   1  -9  168.08    6.04
  -2  -1   9  189.13   11.84
  -2   1   9  185.79    9.49
  -2  -1   9  183.01    9.32
  -2   1   9  180.26   10.50
   2   1  -8  932.46   39.12
   2   1  -8  888.85   51.47
  -2  -1   8  972.29   48.35
  -2   1   8 1008.25   53.31
  -2   1   8  969.76   40.05
  -2  -1   8 1017.34   46.26
   2  -1  -7  202.09    5.13
   2   1  -7  208.61   15.10
   2   1  -7  199.13    6.24
  -2   1   7  224.10    8.14
  -2   1   7  224.14   10.25
  -2  -1   7  230.29    8.01
  -2  -1   7  220.53    9.13
   2  -1  -6   45.47    1.27
   2   1  -6   40.72    3.73
   2   1  -6   48.23    2.98
  -2   1   6   45.64    3.68
  -2  -1   6   42.53    3.05
  -2   1   6   50.38    2.51
  -2  -1   6   52.60    2.50
   2  -1  -5  227.60   10.48
   2  -1  -5  214.69    4.35
   2   1  -5  218.74    5.93
   2   1  -5  227.10    8.93
  -2   1   5  244.91    9.28
  -2  -1   5  232.41    8.33
  -2   1   5  245.20    6.32
   2  -1  -4  894.89   40.50
   2  -1  -4  835.04   24.50
   2   1  -4  809.53   38.85
   2   1  -4  845.24   29.54
  -2   1   4  880.03   36.37
  -2  -1   4  901.77   40.01
   2  -1  -3  384.77    8.03
   2  -1  -3  474.51   17.19
   2   1  -3  503.93   16.06
  -2  -1   3  520.53   15.91
  -2   1   3  515.97   16.82
   2   1  -2 1748.12   87.45
   2  -1  -2 1730.89   91.32
  -2   1   2 1813.77   92.67
  -2  -1   2 1777.73   94.41
   2  -1  -1 1454.71   64.90
   2   1  -1 1433.44   61.43
  -2   1   1 1467.17   64.68
  -2  -1   1 1396.06   63.04
   2  -1   0  238.39    5.30
   2   1   0  236.01    5.26
  -2   1   0  224.35    6.19
  -2  -1   0  241.91    6.42
   2   1   1  997.33   33.85
   2  -1   1 1023.64   32.66
   2  -1   1 1030.36   35.96
  -2  -1  -1  990.25   33.58
  -2   1  -1 1022.09   32.18
   2  -1   2  515.18   10.47
   2  -1   2  502.80   14.61
   2   1   2  485.20   12.76
  -2  -1  -2  498.37   12.77
   2   1   3  421.43   12.68
   2  -1   3  445.75    8.65
   2  -1   3  453.64   13.59
  -2  -1  -3  462.85   11.69
   2  -1   4 1098.70   36.74
   2  -1   4 1128.28   46.70
   2  -1   4 1150.58   42.60
   2   1   4 1068.02   43.04
  -2  -1  -4 1133.94   42.33
   2   1   5 1407.41   62.23
   2  -1   5 1441.24   64.59
   2  -1   5 1443.49   68.71
   2  -1   5 1411.30   58.54
   2  -1   6   38.80    1.21
   2   1   6   49.67    2.29
   2  -1   6   42.15    1.71
   2   1   6   45.15    2.76
   2  -1   6   39.41    2.56
   2  -1   7   69.88    3.31
   2   1   7   57.41    2.85
   2  -1   7   48.87    1.64
   2   1   7   51.42    2.30
   2  -1   7   55.24    3.48
   2  -1   8   61.95    2.11
   2   1   8   64.80    2.83
   2   1   8   67.60    4.41
   2  -1   8   69.79    3.01
   2   1   8   58.91    3.48
   2  -1   8   59.82    3.93
   2  -1   9  102.47    3.50
   2   1   9  115.99    6.27
   2  -1   9  109.06    4.66
   2   1   9  131.70    5.74
   2   1   9  103.39    4.27
   2  -1   9  110.69    6.24
   2  -1  10   65.65    5.41
   2   1  10   63.19    3.61
   2  -1  10   64.86    4.39
   2   1  10   75.17    5.49
   2   1  10   73.16    4.76
   2  -1  10   79.30    3.98
   2   1  11   46.87    4.48
   2  -1  11   45.81    2.83
   2   1  11   50.27    3.40
   2  -1  11   51.80    5.31
   2   1  11   59.02    7.60
   2  -1  11   66.64    3.96
   2   1  12   21.18    4.00
   2   1  12   19.40    2.76
   2   1  12   24.94    3.89
   2  -1  12   33.56    4.37
   2  -1  12   24.14    2.34
   2  -1  12   31.52    3.27
   2  -1  13  109.11   14.48
   2   1  13   99.34    9.31
   2   1  13  103.65    8.14
   2  -1  13  120.33    7.17
   2   1  13  123.30    8.74
   2  -1  13   87.44    8.13
   2   1  14   11.89    3.00
   2   1  14   17.06    4.23
   2  -1  14   14.43    2.58
   2  -1  14   15.40    4.57
   2  -1  14   25.95    3.50
   2   1  14   17.80    4.16
   2  -1  15   13.44    8.02
   2  -1  15   12.43    3.52
   2  -1  15   12.67    2.65
   2   1  15   10.29    4.32
   2   1  15    6.92    6.99
   2   1  15   12.93    3.05
   2  -1  16   27.54    7.21
   2  -1  16   14.49    5.95
   2  -1  16   18.78    3.24
   2   1  16   10.50    5.52
   2   1  16   21.30    5.93
   2   1  16   17.38    5.29
   2  -1  17   17.03    3.55
   2  -1  17   14.80   11.25
   2   1  17   15.18    4.04
   2   1  17   31.46    6.29
   2   1  17   24.92    6.05
   2  -1  17   19.58    4.75
   2   1  18    8.82    5.34
   2   1  18    7.44    5.26
   2   1  18    2.03    3.42
   2  -1  18   18.42    5.83
  -2   2  18   34.58    7.69
  -2  -2  18   13.88    4.31
  -2  -2  18    3.95    9.34
  -2   2  18    3.72    4.92
  -2   2  17    8.13    6.59
  -2   2  17   -3.22    5.66
  -2  -2  17   10.91    4.56
  -2   2  16    5.21    3.71
  -2   2  16    6.77    5.53
  -2  -2  16    8.88    4.28
  -2   2  16    6.08    3.66
  -2  -2  15   16.01    4.60
  -2   2  15   10.03    3.92
  -2   2  15   10.98    6.44
  -2   2  15   22.31    5.82
  -2   2  14   41.16    5.48
  -2  -2  14   37.41    6.09
  -2   2  14   48.91    8.19
  -2   2  14   62.70    7.88
   2   2 -13  125.09    7.24
  -2   2  13  109.02    8.61
  -2   2  13  126.05   11.73
  -2   2  13  133.23    7.80
  -2  -2  13  133.04    9.41
   2   2 -12  146.24    7.52
  -2   2  12  165.20   20.47
  -2   2  12  170.45    8.26
  -2  -2  12  172.13   15.75
  -2  -2  12  163.03   11.38
   2   2 -11   10.30    4.72
   2   2 -11   12.04    2.22
  -2  -2  11   12.93    5.29
  -2   2  11   15.67    4.01
  -2  -2  11   17.43    3.51
  -2   2  11   11.26    2.14
   2   2 -10  146.03    9.46
   2   2 -10  160.02   12.73
  -2  -2  10  170.96    9.19
  -2   2  10  165.87    6.33
  -2   2  10  152.87   16.66
  -2  -2  10  168.10    9.37
   2   2  -9  150.69    6.01
   2   2  -9  146.14   10.37
  -2  -2   9  156.99    7.97
  -2   2   9  174.27   10.44
  -2   2   9  169.32    7.97
  -2  -2   9  173.53    8.34
   2   2  -8  280.48   15.67
   2   2  -8  299.29   10.77
  -2   2   8  337.81   16.74
  -2  -2   8  340.35   14.02
  -2  -2   8  332.83   13.72
  -2   2   8  340.53   12.58
   2   2  -7  314.21   14.57
   2   2  -7  318.39   13.60
  -2   2   7  362.92   16.69
  -2   2   7  340.97    8.95
  -2  -2   7  287.75   12.31
  -2  -2   7  350.97   17.96
   2   2  -6  164.37    5.51
   2   2  -6  159.16    7.66
  -2   2   6  193.73    8.92
  -2   2   6  175.09    4.78
  -2  -2   6  172.72    6.56
   2   2  -5  865.43   37.63
   2   2  -5  842.43   32.56
  -2  -2   5  899.45   36.72
  -2   2   5  877.27   26.64
  -2   2   5  880.03   48.54
   2   2  -4  436.27   13.49
   2   2  -4  438.03   15.29
  -2   2   4  479.16   18.23
  -2  -2   4  459.50   14.46
  -2   2   4  425.76    8.44
   2   2  -3  703.25   25.37
  -2   2   3  688.33   27.60
  -2  -2   3  683.33   23.74
   2   2  -2 3126.02  225.41
  -2   2   2 3431.71  247.89
  -2  -2   2 3212.40  228.18
   2  -2  -1  512.68   11.94
   2   2  -1  513.92   15.61
  -2   2   1  523.95   12.03
  -2   2   1  536.11   17.97
  -2  -2   1  486.78   14.74
   2   2   0   58.19    1.86
   2  -2   0   60.33    2.07
  -2   2   0   51.37    1.31
  -2  -2   0   54.18    1.83
  -2   2   0   58.47    1.96
   2  -2   1  303.91    7.63
   2   2   1  306.01    7.80
  -2   2  -1  302.04    9.27
  -2   2  -1  313.68    7.00
  -2  -2  -1  293.45    9.09
   2  -2   2 2961.42  184.76
   2   2   2 2969.42  182.87
  -2   2  -2 2577.99  138.53
  -2  -2  -2 3114.33  190.24
  -2   2  -2 2990.07  184.57
   2  -2   3 1481.15   72.69
   2   2   3 1408.23   61.87
  -2   2  -3 1418.73   63.65
  -2  -2  -3 1510.05   65.26
   2  -2   4    6.05    0.36
   2   2   4    5.91    0.88
   2  -2   4   10.03    1.23
  -2   2  -4    7.32    1.05
  -2  -2  -4    8.03    0.86
   2  -2   5  236.68    7.99
   2  -2   5  239.44    5.39
   2   2   5  229.88    6.61
  -2  -2  -5  224.71    8.07
  -2   2  -5  234.46    7.24
   2   2   6   39.31    2.99
   2  -2   6   37.91    4.14
   2  -2   6   33.21    1.77
  -2   2  -6   38.31    2.29
   2   2   7  437.06   15.51
   2   2   7  421.64   14.62
   2  -2   7  423.05   12.36
   2  -2   7  440.85   17.60
  -2   2  -7  434.43   16.00
   2  -2   8   94.53    3.18
   2   2   8  100.06    4.29
   2  -2   8   98.97    5.36
   2   2   8   94.75    4.03
  -2   2  -8   92.97    4.46
   2  -2   9  135.57   10.97
   2   2   9  139.85    8.23
   2   2   9  127.42    5.88
   2  -2   9  136.55    4.55
   2   2   9  119.29    7.42
   2  -2   9  112.25    3.56
   2  -2  10   68.68    5.25
   2  -2  10   57.05    3.92
   2  -2  10   77.36    5.67
   2   2  10   56.77    5.79
   2   2  10   71.83    6.83
   2   2  10   70.75    9.17
   2   2  11   14.53    4.83
   2  -2  11    4.30    1.70
   2  -2  11    5.52    1.30
   2  -2  11    4.77    2.89
   2   2  11    7.34    2.26
   2   2  11    2.98    3.04
   2   2  12   46.92    4.56
   2   2  12   36.09    3.89
   2  -2  12   43.88    4.30
   2  -2  12   55.98    5.97
   2  -2  12   56.56    3.66
   2   2  12   55.04    5.87
   2   2  13   86.08    5.97
   2   2  13  103.31    7.27
   2  -2  13   87.25    9.26
   2  -2  13   80.49    4.57
   2   2  13  111.97    8.68
   2  -2  13   99.02    8.83
   2   2  14    8.05    2.92
   2   2  14   18.00    3.59
   2  -2  14   10.52    3.55
   2  -2  14    9.93    4.75
   2  -2  14    9.77    2.74
   2   2  14   15.78    4.18
   2  -2  15   22.81    5.96
   2  -2  15   21.77    3.63
   2   2  15   19.54    4.70
   2   2  15   21.82    5.95
   2  -2  15   17.79    2.83
   2   2  15   19.82    5.47
   2   2  16   18.46    4.24
   2   2  16   48.01    5.72
   2  -2  16   20.23    5.47
   2  -2  16   18.16    4.13
   2   2  16   29.19    6.55
   2  -2  16   37.84   11.30
   2  -2  17    4.16    5.61
   2   2  17    2.99    3.42
   2   2  17   10.93    4.55
   2   2  17   13.29    5.34
   2   2  18    2.64    5.22
   2   2  18    1.84    5.40
   2  -2  18    6.50    9.06
   2   2  18    5.17    4.68
  -2  -3  17   10.37    4.93
  -2   3  17   24.83    6.97
  -2   3  17    7.96    4.87
  -2   3  16   92.18   21.83
  -2  -3  16  103.60    9.72
  -2   3  16   84.52    8.19
  -2   3  16   88.21   15.06
  -2   3  15    4.20    2.93
  -2   3  15    5.14    5.14
  -2   3  15    5.17    3.45
  -2  -3  15    8.05    3.57
   2   3 -14   11.40    3.09
  -2  -3  14   13.61    3.64
  -2   3  14   13.76    3.00
  -2   3  14   10.47    3.70
  -2   3  14   16.45    8.54
   2   3 -13  175.48    9.40
  -2   3  13  170.86    8.94
  -2   3  13  190.76   15.58
  -2   3  13  135.04   10.94
  -2  -3  13  184.35   10.88
   2   3 -12   13.98    5.32
   2   3 -12   14.16    2.63
  -2   3  12   17.18    3.32
  -2   3  12   10.96    2.27
  -2   3  12   23.22    4.82
  -2  -3  12   14.48    3.11
   2   3 -11   56.86   11.21
   2   3 -11   60.87    6.52
  -2  -3  11   48.62    4.69
  -2   3  11   49.01    5.06
  -2   3  11   59.87    7.34
  -2   3  11   62.95    3.28
   2   3 -10  150.23    7.05
   2   3 -10  160.90   11.60
  -2   3  10  168.51    5.77
  -2   3  10  158.06   11.76
  -2  -3  10  152.07    7.93
   2   3  -9    8.07    3.04
   2   3  -9    9.06    1.77
  -2  -3   9    3.69    2.07
  -2   3   9    6.64    3.45
  -2   3   9    8.96    1.20
   2   3  -8  277.46   14.27
   2   3  -8  275.33   10.60
  -2   3   8  301.03    7.89
  -2  -3   8  274.75   11.37
  -2   3   8  299.83   16.56
   2   3  -7   60.96    4.38
   2   3  -7   60.66    3.15
  -2   3   7   68.22    5.63
  -2  -3   7   58.67    3.44
  -2   3   7   63.09    2.33
   2   3  -6  203.71   12.65
   2   3  -6  208.11   10.06
  -2   3   6  223.15   11.40
  -2   3   6  225.70    4.47
  -2  -3   6  213.92   10.39
   2   3  -5  680.69   26.47
   2   3  -5  718.90   29.82
  -2   3   5  760.50   20.59
  -2   3   5  819.55   38.51
  -2  -3   5  701.17   26.81
   2   3  -4  357.60   15.43
   2   3  -4  341.27   11.15
  -2   3   4  394.41   16.28
  -2  -3   4  362.66   11.32
   2   3  -3  285.51    8.59
  -2  -3   3  289.84    8.10
  -2   3   3  259.33    4.11
   2   3  -2 3554.87  276.93
  -2   3   2 3883.34  257.49
  -2  -3   2 3780.76  278.28
   2   3  -1 1934.92  101.83
   2  -3  -1 1980.91   94.79
  -2  -3   1 1908.95   99.15
  -2   3   1 1918.45   97.43
  -2   3   1 1951.26   91.18
   2  -3   0  887.68   30.97
   2   3   0  903.60   33.17
  -2   3   0  898.43   30.19
  -2   3   0  859.77   28.96
  -2  -3   0  878.38   31.95
   2  -3   1  687.55   22.96
  -2   3  -1  676.41   21.89
  -2  -3  -1  667.47   22.72
  -2   3  -1  707.10   20.08
   2  -3   2  612.03   15.21
   2  -3   2  617.11   20.85
   2   3   2  585.99   22.41
  -2   3  -2  610.93   15.21
  -2   3  -2  603.36   19.50
  -2  -3  -2  632.83   20.08
   2   3   3  101.93    3.20
   2  -3   3  102.15    1.62
   2  -3   3  108.79    3.71
  -2   3  -3  103.21    3.33
  -2   3  -3  105.54    1.79
  -2  -3  -3  108.02    3.07
   2  -3   4    5.55    0.35
   2  -3   4    4.78    1.29
   2   3   4    4.64    1.07
  -2   3  -4    6.05    1.13
  -2  -3  -4    7.76    0.99
  -2   3  -4    6.56    0.52
   2  -3   5   46.03    4.57
   2  -3   5   42.00    1.09
   2   3   5   40.28    2.15
  -2   3  -5   42.71    1.58
  -2   3  -5   40.21    2.41
  -2  -3  -5   47.60    2.01
   2  -3   6  574.88   17.34
   2   3   6  610.75   22.95
   2  -3   6  620.36   25.88
  -2  -3  -6  665.43   23.29
  -2   3  -6  636.51   28.66
   2  -3   7  450.29   19.58
   2  -3   7  454.60   12.11
   2   3   7  449.59   16.67
  -2   3  -7  444.60   17.07
   2   3   8   65.60    3.67
   2  -3   8   77.23    4.98
   2  -3   8   72.40    3.13
  -2   3  -8   65.19    3.73
   2   3   9   40.24    4.28
   2  -3   9   33.49    6.30
   2   3   9   32.47    2.81
   2  -3   9   30.64    1.56
  -2   3  -9   32.31    2.98
   2  -3  10   55.07    5.39
   2   3  10   53.72    3.73
   2   3  10   49.30    5.99
   2  -3  10   52.72    2.37
   2   3  10   46.08    6.10
  -2   3 -10   47.31    4.08
   2   3  11   35.01    3.37
   2  -3  11   30.57    5.03
   2  -3  11   34.94    2.23
   2  -3  11   33.83    2.04
   2   3  11   34.65    5.68
   2   3  11   49.64    9.55
   2  -3  12   68.71    3.75
   2  -3  12   68.11    7.32
   2   3  12   69.34    5.41
   2   3  12   81.01    7.85
   2   3  12   61.43    4.89
   2  -3  12   66.65    5.01
   2   3  13  157.60   12.53
   2   3  13  149.34    9.03
   2  -3  13  122.99    5.68
   2  -3  13  167.06   12.76
   2   3  13  126.82    8.30
   2  -3  13  154.75    6.88
   2  -3  14    3.49    1.74
   2   3  14    3.96    4.29
   2   3  14   12.70    3.98
   2   3  14    4.42    2.98
   2  -3  14    4.96    3.26
   2  -3  14    9.35    4.28
   2  -3  15    0.32    1.89
   2  -3  15    0.46    6.29
   2  -3  15    1.79    2.62
   2   3  15   -1.04    2.40
   2   3  15    8.49    6.52
   2   3  15   -2.44    4.62
   2   3  16   17.49    5.21
   2  -3  16    4.20    2.19
   2  -3  16    9.34    5.25
   2   3  16    3.09    3.27
   2  -3  16    4.26    2.51
   2   3  16   12.44    3.88
   2   3  17   28.45    9.19
   2   3  17   37.75    6.98
   2  -3  17   39.14    9.30
   2   3  17   44.74    8.78
  -2   4  17    4.13    5.66
  -2   4  17    2.03    3.86
  -2  -4  17    0.43    3.78
  -2   4  16   15.30    5.95
  -2  -4  16    6.46    4.00
  -2   4  16    1.73    4.10
   2   4 -15   18.75    3.94
  -2  -4  15   14.17    7.18
  -2   4  15   14.52    3.38
  -2   4  15   25.99    6.89
  -2   4  15   14.83    4.78
   2   4 -14   17.44    3.30
  -2   4  14   21.73    5.89
  -2   4  14    5.27    3.99
  -2   4  14   12.85    2.74
  -2  -4  14   13.19    3.50
   2   4 -13   16.98    3.21
   2   4 -13   15.07    5.91
  -2   4  13   16.75    5.80
  -2  -4  13   18.34    3.32
  -2   4  13   13.40    3.78
  -2   4  13   12.94    3.98
   2   4 -12  185.89   14.88
   2   4 -12  186.32   23.49
  -2   4  12  159.54   11.47
  -2  -4  12  180.62   10.01
  -2   4  12  234.85   17.07
  -2   4  12  207.13    8.18
   2   4 -11  461.08   42.79
   2   4 -11  457.53   21.87
  -2   4  11  517.27   18.62
  -2   4  11  396.99   31.65
  -2   4  11  532.86   34.51
  -2  -4  11  472.61   22.58
   2   4 -10   49.62    5.67
   2   4 -10   35.87    3.58
  -2  -4  10   49.68    3.68
  -2   4  10   43.33    3.29
  -2   4  10   38.79    4.19
  -2   4  10   53.26    6.61
   2   4  -9  170.15   10.57
   2   4  -9  159.75    7.66
  -2   4   9  211.57    6.69
  -2   4   9  149.43    8.55
  -2  -4   9  173.36    7.77
  -2   4   9  180.99   13.26
   2   4  -8  184.23   13.96
   2   4  -8  177.03    7.40
  -2   4   8  157.84    8.03
  -2   4   8  184.33    5.50
  -2   4   8  200.99   12.20
  -2  -4   8  177.40   10.36
   2   4  -7  117.25    6.64
   2   4  -7  125.16    5.56
  -2  -4   7  121.91    5.30
  -2   4   7  157.66   10.12
  -2   4   7  121.75    5.94
  -2   4   7  139.72    3.49
   2   4  -6  100.55    5.09
   2   4  -6  101.10    4.63
  -2   4   6  104.54    2.23
  -2  -4   6  100.09    6.34
  -2   4   6   93.59    4.70
  -2   4   6  110.07    7.94
   2   4  -5  230.43    8.33
   2   4  -5  232.27   12.49
  -2  -4   5  254.60    8.14
  -2   4   5  223.80    8.30
   2   4  -4   91.44    6.04
   2   4  -4   98.58    3.85
  -2   4   4   91.34    3.73
  -2  -4   4   90.98    3.44
   2   4  -3  225.14    7.43
  -2  -4   3  234.20    6.97
  -2   4   3  218.28    6.95
  -2   4   3  238.28    5.04
   2   4  -2 1153.73   50.22
  -2  -4   2 1173.81   48.95
  -2   4   2 1172.13   49.85
  -2   4   2 1189.98   43.52
   2   4  -1  953.39   37.99
   2  -4  -1 1009.28   36.60
  -2   4   1  973.21   34.37
  -2  -4   1  976.22   41.47
  -2   4   1  983.05   41.06
   2  -4   0  341.23    9.68
   2  -4   0  349.83    9.00
   2   4   0  332.39   10.12
  -2   4   0  328.70    8.85
  -2   4   0  340.11    8.95
  -2  -4   0  325.96   11.57
   2  -4   1  181.91    5.58
   2  -4   1  183.62    3.95
   2   4   1  169.15    5.13
  -2   4  -1  176.92    3.96
  -2   4  -1  174.07    4.80
  -2  -4  -1  175.44    5.01
   2   4   2  200.55    8.27
   2  -4   2  209.13    4.27
   2  -4   2  212.54    6.83
  -2   4  -2  196.15    8.03
  -2   4  -2  202.88    5.02
  -2  -4  -2  211.53    6.08
   2  -4   3   71.84    1.33
   2  -4   3   70.50    3.33
   2   4   3   71.52    2.81
  -2   4  -3   73.05    1.81
  -2   4  -3   70.42    2.77
  -2  -4  -3   74.08    2.69
   2  -4   4   99.36    1.72
   2  -4   4  119.09    4.76
   2   4   4  107.14    3.96
  -2   4  -4  107.47    2.50
  -2   4  -4  103.24    3.95
  -2  -4  -4  113.39    3.81
   2   4   5  291.83   10.08
   2  -4   5  288.33   11.82
   2  -4   5  282.54    6.38
  -2   4  -5  300.24   10.33
  -2   4  -5  292.83    7.60
  -2  -4  -5  312.40    9.96
   2  -4   6   84.80    4.75
   2   4   6   83.36    3.70
   2  -4   6   76.66    1.58
  -2   4  -6   79.25    2.13
  -2   4  -6   77.37    3.83
  -2  -4  -6   89.64    5.32
   2  -4   7  883.77   42.49
   2  -4   7  863.30   28.49
   2   4   7  851.46   38.03
  -2   4  -7  818.96   30.48
  -2   4  -7  819.79   36.33
   2  -4   8   15.61    0.93
   2  -4   8    8.60    2.96
   2   4   8   12.90    2.16
  -2   4  -8   14.59    3.58
   2   4   9   20.46    2.67
   2  -4   9   27.65    3.72
   2  -4   9   20.65    1.29
  -2   4  -9   20.29    2.66
   2   4  10  712.49   32.50
   2   4  10  662.27   32.09
   2  -4  10  686.71   29.11
   2  -4  10  757.67   53.34
  -2   4 -10  743.50   42.91
   2   4  11  106.39    9.36
   2   4  11  134.79   10.92
   2   4  11   95.93    6.32
   2  -4  11  116.91    9.57
   2  -4  11   93.70    3.77
  -2   4 -11  113.04    6.82
   2  -4  12   77.17    3.59
   2  -4  12   92.42    8.69
   2   4  12   78.70    5.75
   2  -4  12   69.30    3.34
   2   4  12  101.20    9.86
   2   4  12  101.65    8.85
   2   4  13    6.13    4.64
   2  -4  13   12.06    2.65
   2  -4  13   10.33    4.64
   2  -4  13    9.30    1.75
   2   4  13    9.71    2.86
   2   4  13    6.76    2.88
   2   4  14   12.10    3.00
   2  -4  14    3.81    3.20
   2   4  14    5.10    2.94
   2  -4  14    1.01    4.73
   2  -4  14    7.08    1.70
   2   4  14    8.23    4.91
   2   4  15   10.76    5.17
   2  -4  15    6.37    2.08
   2  -4  15    6.50    1.88
   2   4  15    1.23    3.19
   2   4  15    8.69    3.39
   2  -4  15   13.53    5.13
   2   4  16    7.60    5.70
   2  -4  16    1.42    5.60
   2   4  16   12.46    5.74
   2   4  16    5.49    3.81
   2   4  17   -0.82    6.51
   2   4  17    2.27    5.60
   2   4  17    5.28    3.40
   2  -4  17    1.22    5.86
  -2  -5  17   -0.32    3.73
  -2   5  17    2.97    4.24
  -2   5  17    9.64    6.23
   2   5 -16    9.41    3.84
  -2   5  16    7.58    7.46
  -2   5  16    8.46    7.05
  -2  -5  16    8.30    3.94
   2   5 -15   45.46    5.74
  -2   5  15   51.11    9.98
  -2   5  15   39.34    6.70
  -2   5  15   54.14    6.99
  -2  -5  15   28.44    9.54
   2   5 -14   70.16   11.70
   2   5 -14   82.37   10.81
  -2   5  14   76.65    4.79
  -2   5  14   78.18   11.90
  -2   5  14   62.29    7.93
  -2  -5  14   84.83   10.87
   2   5 -13   -0.56    2.40
   2   5 -13    3.89    7.15
  -2  -5  13    4.60    2.44
  -2   5  13    0.53    3.00
  -2   5  13    1.78    1.57
  -2   5  13    8.50    4.50
   2   5 -12   10.12    4.36
   2   5 -12    9.31    2.64
  -2   5  12   11.99    5.11
  -2  -5  12   10.82    2.58
  -2   5  12    6.07    1.63
  -2   5  12    8.55    3.21
   2   5 -11  181.88    9.62
   2   5 -11  176.86   13.38
  -2   5  11  168.51   10.98
  -2   5  11  177.86    8.22
  -2   5  11  197.84   16.38
  -2  -5  11  174.09    9.17
   2   5 -10   47.77    6.28
   2   5 -10   36.90    5.42
  -2  -5  10   45.91    5.92
  -2   5  10   43.85    7.25
  -2   5  10   37.26    4.37
  -2   5  10   42.84    3.00
   2   5  -9   73.34    5.74
   2   5  -9   60.96    6.60
  -2   5   9   62.35    4.82
  -2   5   9   62.83    1.94
  -2   5   9   72.64    7.85
  -2  -5   9   57.81    3.96
   2   5  -8   32.43    3.11
   2   5  -8   35.32    6.19
  -2   5   8   37.41    1.72
  -2   5   8   28.79    3.39
  -2   5   8   53.25    5.99
  -2  -5   8   38.95    2.88
   2   5  -7  140.90    7.31
   2   5  -7  136.61    6.38
  -2  -5   7  148.98    8.48
  -2   5   7  155.65    3.65
  -2   5   7  121.99    6.62
   2   5  -6   80.37    4.56
   2   5  -6   90.76    4.44
  -2  -5   6   79.43    3.74
  -2   5   6   76.97    4.40
   2   5  -5   26.37    3.65
   2   5  -5   25.73    2.23
  -2   5   5   22.70    2.35
  -2  -5   5   16.85    1.86
   2   5  -4 1289.56   69.83
   2   5  -4 1299.98   64.47
  -2  -5   4 1313.47   60.44
  -2   5   4 1300.82   63.79
   2   5  -3  134.76    4.78
  -2   5   3  123.84    2.69
  -2  -5   3  124.88    4.27
  -2   5   3  130.29    6.88
   2   5  -2   35.11    2.13
  -2  -5   2   37.23    1.95
  -2   5   2   35.07    1.26
  -2   5   2   41.14    2.10
   2  -5  -1   88.17    2.92
   2   5  -1   78.10    3.26
  -2   5   1   93.66    3.09
  -2   5   1   89.90    2.56
  -2  -5   1   85.31    2.98
   2   5   0   80.58    4.50
   2  -5   0   72.13    2.36
   2  -5   0   76.06    3.01
  -2   5   0   76.69    2.48
  -2   5   0   75.18    2.52
  -2  -5   0   63.10    4.08
   2  -5   1  188.25    8.83
   2   5   1  192.75    6.19
   2  -5   1  189.26    4.75
  -2  -5  -1  191.93    5.78
  -2   5  -1  190.18    4.84
  -2   5  -1  173.62    5.43
   2   5   2  239.92   10.29
   2  -5   2  247.96    5.87
   2  -5   2  253.51    8.78
  -2   5  -2  229.33    9.73
  -2   5  -2  244.92    5.85
  -2  -5  -2  232.77    7.53
   2   5   3  229.47    7.84
   2  -5   3  226.48    5.09
   2  -5   3  251.09    9.12
  -2  -5  -3  227.13    7.53
  -2   5  -3  222.17    6.12
  -2   5  -3  220.34    7.54
   2  -5   4 3199.43  233.69
   2  -5   4 3004.63  186.06
   2   5   4 3019.20  226.06
  -2   5  -4 3042.98  194.18
  -2  -5  -4 3005.47  221.04
  -2   5  -4 2902.82  205.05
   2  -5   5  475.39   20.90
   2  -5   5  454.35   11.48
   2   5   5  460.96   18.03
  -2   5  -5  456.63   12.11
  -2  -5  -5  489.75   17.58
  -2   5  -5  452.14   17.40
   2   5   6  348.18   13.29
   2  -5   6  359.09   15.87
   2  -5   6  329.18    7.60
  -2   5  -6  319.50   12.47
  -2  -5  -6  344.90   12.48
  -2   5  -6  317.81   10.32
   2  -5   7  115.96    7.01
   2   5   7  112.03    5.36
   2  -5   7  104.99    2.44
  -2   5  -7  102.69    4.50
  -2  -5  -7  103.29    4.98
  -2   5  -7  110.93    5.27
   2  -5   8   49.68    4.99
   2   5   8   43.34    5.68
   2  -5   8   41.96    1.43
  -2   5  -8   45.05    3.28
  -2   5  -8   48.68    3.46
   2   5   9   33.58    3.13
   2  -5   9   20.61    1.27
   2  -5   9   27.62    4.41
  -2   5  -9   27.69    2.24
  -2   5  -9   33.05    2.96
   2   5  10  266.33   11.45
   2  -5  10  288.42   17.34
   2  -5  10  252.31    7.59
   2   5  10  251.17   13.10
  -2   5 -10  251.78   12.76
   2  -5  11   50.60    6.38
   2   5  11   49.50    3.67
   2   5  11   33.31    4.32
   2  -5  11   40.02    3.32
  -2   5 -11   39.38    4.23
   2  -5  12    8.04    4.57
   2   5  12   11.62    3.10
   2  -5  12   11.66    2.46
   2   5  12   14.20    5.55
   2   5  12    6.92    2.69
  -2   5 -12   17.78    3.08
   2   5  13   21.19    3.64
   2   5  13   22.55    3.85
   2  -5  13   22.68    3.25
   2  -5  13   20.61    1.98
   2  -5  13   28.99    6.02
   2   5  13   22.14   11.59
  -2   5 -13   26.51    4.24
   2   5  14   40.81    5.14
   2   5  14   43.46    7.78
   2   5  14   51.33    8.51
   2  -5  14   64.78    7.92
   2  -5  14   35.31    2.58
   2  -5  14   27.50    4.26
   2  -5  15   37.23   12.12
   2  -5  15   18.15    3.83
   2   5  15   30.69    7.13
   2   5  15   40.07    7.66
   2   5  15   13.61    7.35
   2  -5  16   -2.63    5.80
   2   5  16    2.72    3.32
   2   5  16    5.28    3.41
   2   5  16    9.15    5.75
   2  -5  17    1.77    6.90
   2   5  17   13.29   12.02
   2   5  17    9.47    3.99
   2   6 -17    5.40    4.15
  -2   6  17    5.86    7.11
  -2   6  17    5.72    4.63
  -2  -6  17    1.58    3.89
   2   6 -16    3.75    3.66
  -2   6  16    1.52    4.33
  -2  -6  16    5.24    3.34
  -2   6  16    2.31    6.51
   2   6 -15    4.03    3.15
  -2   6  15   -2.79    5.98
  -2   6  15   -0.34    3.89
  -2  -6  15    5.63    3.05
   2   6 -14   11.35    3.42
   2   6 -14   14.12    5.88
  -2   6  14   14.18    6.29
  -2   6  14    5.91    3.14
  -2   6  14    7.26    6.84
  -2  -6  14    9.57    5.20
   2   6 -13   96.76    7.22
   2   6 -13   79.43   10.59
  -2   6  13  102.78   13.28
  -2   6  13   69.18    8.38
  -2  -6  13   91.05    9.83
  -2   6  13   90.53    6.12
   2   6 -12    3.37    3.64
   2   6 -12    1.29    3.39
  -2   6  12    3.16    2.80
  -2  -6  12    1.99    3.22
  -2   6  12   -0.75    4.23
  -2   6  12   -1.20    1.87
   2   6 -11    9.85    3.98
   2   6 -11   13.50    2.80
  -2   6  11    9.47    5.48
  -2  -6  11   14.09    2.48
  -2   6  11    8.14    2.06
  -2   6  11    9.78    3.46
   2   6 -10   43.98    4.23
   2   6 -10   46.40    5.43
  -2   6  10   54.02   11.91
  -2  -6  10   40.15    3.58
  -2   6  10   38.80    1.67
  -2   6  10   47.33    4.78
   2   6  -9  165.97    9.04
   2   6  -9  183.61   10.86
  -2  -6   9  183.97    8.08
  -2   6   9  181.10   16.67
  -2   6   9  154.04    9.84
  -2   6   9  185.14    5.67
   2   6  -8    9.75    4.22
   2   6  -8   11.36    2.37
  -2   6   8    9.19    1.10
  -2   6   8   10.30    4.05
  -2   6   8    4.27    4.45
   2   6  -7    8.18    2.28
   2   6  -7   13.43    3.57
  -2  -6   7    6.56    1.68
  -2   6   7   10.88    2.25
   2   6  -6   85.81    4.84
   2   6  -6   84.87    7.61
  -2  -6   6   90.82    3.93
  -2   6   6   91.95    5.19
   2   6  -5  122.64    5.41
   2   6  -5  131.63    9.12
  -2   6   5  121.02    5.97
  -2  -6   5  127.02    4.83
   2   6  -4  106.75    6.88
   2   6  -4   96.84    4.97
  -2  -6   4  101.36    3.92
  -2   6   4   81.98    4.59
   2   6  -3   76.82    3.62
  -2   6   3   79.40    3.68
  -2   6   3   68.20    2.14
  -2  -6   3   75.21    3.18
   2   6  -2  507.86   18.21
  -2   6   2  501.38   18.47
  -2   6   2  495.14   15.07
  -2  -6   2  498.21   17.18
   2   6  -1  252.38    8.58
   2  -6  -1  240.86    7.79
  -2   6   1  251.89    8.21
  -2  -6   1  240.65    7.90
  -2   6   1  246.04    7.10
   2   6   0   68.42    3.18
   2  -6   0   62.77    2.51
  -2  -6   0   71.59    3.01
  -2   6   0   69.06    4.05
   2   6   1  239.23    8.45
   2  -6   1  268.13    9.78
   2  -6   1  248.07    6.98
  -2  -6  -1  252.59    8.27
  -2   6  -1  254.89    7.33
  -2   6  -1  237.94    7.80
   2   6   2   55.01    3.09
   2  -6   2   55.62    3.60
   2  -6   2   57.20    2.99
  -2   6  -2   50.98    2.82
  -2  -6  -2   54.98    2.91
  -2   6  -2   58.44    2.02
   2  -6   3  233.52   10.11
   2   6   3  231.31    8.80
   2  -6   3  231.94    5.97
  -2   6  -3  219.88   11.35
  -2   6  -3  234.19    6.09
  -2  -6  -3  234.38    8.35
   2  -6   4  123.48    3.11
   2   6   4  126.92    5.76
   2  -6   4  143.55    7.02
  -2   6  -4  128.65    3.21
  -2   6  -4  139.79    5.56
  -2  -6  -4  137.59    5.51
   2  -6   5  261.87   12.19
   2   6   5  231.72    9.79
   2  -6   5  238.32    6.93
  -2   6  -5  240.09    7.70
  -2   6  -5  232.50    9.13
  -2  -6  -5  245.27   12.78
   2  -6   6   66.52    1.75
   2  -6   6   70.13    5.36
   2   6   6   61.14    4.21
  -2  -6  -6   69.26    3.79
  -2   6  -6   66.13    2.15
  -2   6  -6   68.25    3.99
   2  -6   7   54.25    2.31
   2  -6   7   68.19    8.47
   2   6   7   57.20    3.92
  -2   6  -7   51.49    3.75
  -2   6  -7   53.79    2.21
  -2  -6  -7   53.99    3.63
   2  -6   8   10.86    0.88
   2   6   8   12.16    2.48
   2  -6   8   13.48    3.32
  -2   6  -8   14.53    2.34
  -2   6  -8    7.84    1.41
   2   6   9   35.43    3.95
   2  -6   9   36.51    1.58
   2  -6   9   40.36    5.45
  -2   6  -9   35.41    3.82
  -2   6  -9   33.34    3.65
   2  -6  10   14.66    1.88
   2   6  10   13.62    3.15
   2  -6  10   25.43    4.67
  -2   6 -10   13.08    2.24
  -2   6 -10   12.54    2.92
   2   6  11  124.51    6.78
   2   6  11  112.30   12.08
   2  -6  11  113.18    3.92
   2  -6  11  119.89   11.47
  -2   6 -11  122.36    7.67
   2  -6  12   41.56    7.21
   2   6  12   34.54    7.29
   2   6  12   44.55    3.81
   2  -6  12   28.16    3.17
  -2   6 -12   36.82    4.48
   2  -6  13   21.58    5.96
   2  -6  13   15.08    2.92
   2   6  13   20.92    3.40
   2   6  13   21.00    7.21
   2   6  13   19.82    3.90
  -2   6 -13   12.18    4.12
   2   6  14   14.56    3.57
   2  -6  14    5.94    5.70
   2  -6  14    7.76    1.57
   2   6  14   10.02    3.05
   2  -6  14    4.78    2.69
   2   6  14   11.12    5.99
  -2   6 -14    5.45    3.66
   2   6  15   16.47    4.36
   2   6  15   11.41    7.55
   2  -6  15   19.55    7.16
   2   6  15   14.73    3.83
   2   6  16    3.16    5.87
   2   6  16   -0.16    3.41
   2  -6  16    8.98    5.82
   2   6  17    6.21    3.90
   2   6  17   -1.00    7.05
   2   7 -17   24.88    9.64
  -2   7  17   21.79    6.57
  -2   7  17   30.36   10.04
  -2  -7  17   12.58    4.94
   2   7 -16   12.73    4.76
  -2  -7  16   13.38    4.14
  -2   7  16   19.63    8.72
  -2   7  16   13.23    9.19
   2   7 -15   10.30    3.83
   2   7 -15    8.58    6.01
  -2   7  15    4.58    6.87
  -2   7  15    3.47    4.50
  -2  -7  15    3.76    3.20
   2   7 -14   23.39    6.54
   2   7 -14   13.28    6.17
  -2   7  14   11.97    8.12
  -2   7  14   17.58    5.06
  -2  -7  14   15.05    3.41
   2   7 -13   15.49    3.66
   2   7 -13   19.32    5.44
  -2   7  13   18.13    7.12
  -2   7  13   13.89    2.62
  -2  -7  13   11.15    3.07
  -2   7  13   15.23    4.49
   2   7 -12   76.35    8.32
   2   7 -12   75.72    6.17
  -2   7  12   81.69   11.84
  -2   7  12   70.00    7.44
  -2  -7  12   76.29    5.18
  -2   7  12   65.07    2.74
   2   7 -11  270.99   14.93
   2   7 -11  248.44   18.11
  -2   7  11  287.36   10.56
  -2  -7  11  284.32   12.98
  -2   7  11  242.91   24.57
  -2   7  11  291.61   25.27
   2   7 -10  155.04    9.04
   2   7 -10  161.72   11.29
  -2   7  10  162.03    5.71
  -2   7  10  150.29   10.60
  -2  -7  10  172.76    7.92
  -2   7  10  181.51   17.74
   2   7  -9   53.11    4.90
   2   7  -9   62.28    5.72
  -2   7   9   36.04    9.19
  -2  -7   9   71.98    6.29
  -2   7   9   45.69    5.35
  -2   7   9   57.78    2.55
   2   7  -8  120.18    7.07
   2   7  -8  118.69   11.94
  -2  -7   8  125.83    5.73
  -2   7   8  110.42    7.36
   2   7  -7   59.03    4.28
   2   7  -7   62.30    4.46
  -2  -7   7   48.23    3.35
  -2   7   7   56.64    4.65
   2   7  -6  260.20   11.68
   2   7  -6  263.18   11.90
  -2  -7   6  287.07   10.16
  -2   7   6  252.46   17.65
   2   7  -5    3.20    1.64
   2   7  -5    4.25    1.87
  -2   7   5   -0.08    1.85
  -2  -7   5    2.30    1.36
   2   7  -4   38.12    5.02
   2   7  -4   29.37    2.68
  -2   7   4   30.80    1.51
  -2  -7   4   35.88    2.37
  -2   7   4   30.83    2.95
   2   7  -3  153.38    6.06
  -2   7   3  144.52    6.38
  -2  -7   3  144.52    7.72
  -2   7   3  140.53    4.12
   2   7  -2  142.81    5.91
   2  -7  -2  138.04    5.56
  -2  -7   2  143.09    5.40
  -2   7   2  140.57    4.36
  -2   7   2  143.13    5.97
   2  -7  -1  211.14    7.22
   2   7  -1  204.20    7.83
  -2  -7   1  204.77    7.39
  -2   7   1  207.63    9.09
  -2   7   1  206.20    7.60
   2   7   0 3265.90  244.66
   2  -7   0 3321.88  249.31
  -2  -7   0 3225.40  238.58
  -2   7   0 3273.46  239.41
  -2   7   0 3297.25  239.48
   2   7   1   94.24    4.76
   2  -7   1  102.60    5.18
  -2  -7  -1  103.37    4.45
  -2   7  -1   97.90    4.17
  -2   7  -1   96.00    3.61
   2  -7   2   38.72    3.32
   2   7   2   33.13    2.69
   2  -7   2   31.02    2.66
  -2   7  -2   34.27    2.80
  -2  -7  -2   27.96    2.54
  -2   7  -2   31.10    3.96
   2  -7   3   30.10    2.38
   2  -7   3   28.45    3.44
   2   7   3   28.44    2.72
  -2   7  -3   27.15    2.60
  -2  -7  -3   28.38    2.59
  -2   7  -3   31.60    1.61
   2  -7   4  223.04   10.74
   2   7   4  187.88    8.41
   2  -7   4  194.65    6.83
  -2   7  -4  195.56    5.33
  -2   7  -4  188.14    7.67
  -2  -7  -4  197.72    7.93
   2  -7   5   38.23    4.44
   2   7   5   43.05    5.31
   2  -7   5   38.56    1.57
  -2  -7  -5   44.39    4.82
  -2   7  -5   37.33    3.05
  -2   7  -5   39.11    1.79
   2  -7   6   62.71    8.48
   2  -7   6   53.52    1.81
   2   7   6   58.55    4.10
  -2   7  -6   51.33    2.04
  -2   7  -6   53.01    3.82
  -2  -7  -6   56.05    5.78
   2  -7   7   53.83    1.87
   2  -7   7   53.61    5.74
   2   7   7   55.86    4.44
  -2   7  -7   58.23    2.51
  -2   7  -7   54.93    4.17
  -2  -7  -7   61.38    3.95
   2  -7   8  130.26    3.56
   2  -7   8  143.55   10.24
   2   7   8  115.36    7.75
  -2  -7  -8  149.14    7.41
  -2   7  -8  136.75    7.46
  -2   7  -8  128.28    6.96
   2  -7   9    6.42    3.81
   2   7   9    3.32    2.72
   2  -7   9    7.26    0.94
  -2   7  -9    6.32    2.47
  -2   7  -9    6.80    2.62
   2  -7  10  129.42   17.41
   2  -7  10  115.06    5.11
   2   7  10  128.40    8.25
  -2   7 -10  106.32    7.67
  -2   7 -10   97.73    7.31
   2   7  11   92.86    7.20
   2  -7  11  109.76   17.42
   2  -7  11   93.29    3.38
  -2   7 -11   90.52    6.81
  -2   7 -11   81.65    5.38
   2   7  12    7.33    2.70
   2  -7  12    7.94    2.22
   2  -7  12   14.51    5.37
   2   7  12   13.38    3.47
  -2   7 -12   15.24    3.23
   2  -7  13   15.29    3.01
   2   7  13   22.29    4.53
   2  -7  13   29.44    7.07
   2   7  13    2.72    7.89
   2   7  13   32.01    5.77
  -2   7 -13   28.18    4.28
   2   7  14    3.55    4.38
   2  -7  14   18.40    5.47
   2  -7  14    2.15    1.30
   2   7  14    1.62    3.34
   2   7  14    8.71    6.19
  -2   7 -14    5.23    3.35
   2  -7  15   46.00   10.09
   2   7  15   40.90   10.65
   2   7  15   41.02    8.31
   2   7  15   28.62    6.30
  -2   7 -15   39.03    6.36
   2   7  16    7.12    6.34
   2  -7  16    0.72    6.35
   2   7  16   -0.67    6.25
   2  -7  17   -2.79    7.00
   2   8 -16    1.14    6.85
   2   8 -16    1.96    6.25
  -2  -8  16    4.13    3.16
  -2   8  16    3.15    4.85
  -2   8  16    9.15    7.32
   2   8 -15    6.13    3.66
   2   8 -15    2.90    9.78
  -2   8  15    9.73    7.41
  -2   8  15    5.73    4.57
  -2  -8  15    3.35    2.98
   2   8 -14   11.78   10.15
   2   8 -14   12.93    4.10
  -2   8  14    2.84    8.34
  -2  -8  14   14.90    3.34
  -2   8  14   19.16    8.30
   2   8 -13   21.68   11.13
   2   8 -13   39.81    7.60
  -2   8  13   43.92    9.39
  -2   8  13   20.51    5.54
  -2   8  13   27.92    1.65
  -2  -8  13   24.08    3.73
   2   8 -12    8.27    3.49
   2   8 -12    3.59    7.74
  -2   8  12   13.92    6.83
  -2   8  12   14.10    1.29
  -2   8  12   16.87    4.30
  -2  -8  12    6.10    2.75
   2   8 -11  100.64   14.16
   2   8 -11   97.70    7.33
  -2   8  11   89.36    4.16
  -2  -8  11  104.02    5.96
  -2   8  11   93.16    8.95
  -2   8  11  126.03   14.81
   2   8 -10    7.58    2.82
   2   8 -10    5.44    3.27
  -2   8  10    6.37    0.87
  -2  -8  10    7.01    2.11
  -2   8  10    0.59    3.33
  -2   8  10    0.77    5.79
   2   8  -9  439.72   23.53
   2   8  -9  399.36   20.46
  -2   8   9  412.17   12.07
  -2  -8   9  423.75   17.69
  -2   8   9  390.20   22.49
   2   8  -8  154.52    9.43
   2   8  -8  162.06    9.82
  -2   8   8  164.05   10.54
  -2  -8   8  168.48    7.50
   2   8  -7  284.00   14.80
   2   8  -7  314.01   20.00
  -2   8   7  284.43   15.26
  -2  -8   7  309.19   16.29
   2   8  -6   37.04    3.45
   2   8  -6   34.53    3.78
  -2  -8   6   34.69    2.74
  -2   8   6   44.30    4.00
   2   8  -5   23.44    2.93
   2   8  -5   28.02    5.20
  -2   8   5   18.60    3.14
  -2  -8   5   31.55    2.34
   2   8  -4  102.85    5.26
   2   8  -4   91.73    8.89
  -2   8   4   98.50    3.44
  -2  -8   4  108.20    4.63
  -2   8   4   97.16    5.70
   2   8  -3  196.16    8.52
   2   8  -3  189.01    9.11
   2  -8  -3  213.69    8.34
  -2   8   3  185.68    6.10
  -2   8   3  191.31   12.78
  -2  -8   3  218.40   10.74
   2   8  -2  110.80    8.08
   2  -8  -2  116.20    5.02
  -2  -8   2  114.00    7.09
  -2   8   2  110.43    5.49
  -2   8   2  104.62    3.99
   2  -8  -1   76.63    3.67
   2   8  -1   72.53    4.25
  -2   8   1   68.89    3.32
  -2   8   1   82.59    4.00
  -2  -8   1   73.68    5.81
   2  -8   0    5.76    1.41
   2   8   0    3.58    1.80
  -2   8   0    3.14    1.52
  -2  -8   0    2.06    2.61
  -2   8   0    5.76    1.50
   2   8   1  562.98   23.66
   2  -8   1  592.82   25.48
  -2   8  -1  570.49   21.41
  -2   8  -1  537.54   21.31
   2   8   2   87.78    5.06
   2  -8   2   93.40    3.50
  -2   8  -2   82.37    4.48
  -2   8  -2   93.64    3.64
  -2  -8  -2   87.63    6.92
   2   8   3  318.30   13.49
   2  -8   3  308.22    9.82
   2  -8   3  351.90   16.56
  -2  -8  -3  304.43   16.93
  -2   8  -3  302.77   12.07
  -2   8  -3  313.71   10.12
   2   8   4  109.09    9.46
   2  -8   4  114.44    3.72
   2  -8   4  133.96    8.08
  -2   8  -4  119.43    3.93
  -2  -8  -4  107.16    8.77
  -2   8  -4  107.27    5.86
   2  -8   5    0.34    0.88
   2  -8   5   -0.51    2.53
   2   8   5   -1.27    1.91
  -2   8  -5    2.58    1.76
  -2   8  -5    3.86    1.00
  -2  -8  -5    4.66    2.86
   2  -8   6   58.95    6.63
   2   8   6   63.85    7.97
   2  -8   6   61.03    2.32
  -2   8  -6   65.60    7.29
  -2  -8  -6   59.53    4.45
  -2   8  -6   77.16    2.98
   2  -8   7  188.01    5.40
   2   8   7  188.21   10.61
   2  -8   7  219.58   13.89
  -2   8  -7  193.01    8.65
  -2   8  -7  186.79    9.67
  -2  -8  -7  195.52    9.70
   2  -8   8  214.70   15.40
   2   8   8  192.85   11.45
   2  -8   8  193.47    7.51
  -2  -8  -8  214.58   10.84
  -2   8  -8  192.51   15.77
  -2   8  -8  190.18    7.28
   2  -8   9    3.90    1.03
   2  -8   9    2.09    4.11
   2   8   9    6.77    2.89
  -2   8  -9   12.30    2.57
  -2   8  -9    5.46    1.60
   2  -8  10   17.25    1.40
   2  -8  10   22.27    5.56
   2   8  10   22.72    6.16
  -2   8 -10    9.38    2.25
  -2   8 -10   21.18    5.55
   2   8  11   83.30    6.95
   2  -8  11   66.64    4.39
   2  -8  11   83.70   10.28
  -2   8 -11   64.94    6.13
  -2   8 -11   63.65    4.47
   2   8  12   13.43    2.80
   2  -8  12   12.24    5.75
   2   8  12   11.22    3.66
   2  -8  12    6.31    2.31
  -2   8 -12    8.23    2.57
  -2   8 -12   16.62    5.69
   2   8  13   67.28    5.22
   2  -8  13   70.49   16.17
   2   8  13   57.17   10.99
   2  -8  13   48.58    2.89
  -2   8 -13   52.23    6.46
   2   8  14    3.24    2.68
   2   8  14    0.52    6.70
   2   8  14    6.71    5.77
   2  -8  14    4.34    5.85
  -2   8 -14   -0.04    5.58
   2   8  15    9.64    3.67
   2   8  15   14.67   14.39
   2   8  15   10.54    7.80
   2  -8  15   22.03    7.88
  -2   8 -15   13.05    4.70
   2   8  16   10.20    7.80
   2   8  16    4.20    4.67
   2  -8  16   11.45    7.69
   2   9 -16   19.16    5.27
   2   9 -16    9.27    7.85
  -2   9  16    8.22    6.27
  -2  -9  16   12.87    3.84
  -2   9  16   -2.77   15.54
   2   9 -15    0.39    5.52
   2   9 -15    3.93    4.89
  -2   9  15    0.58    4.22
  -2  -9  15   -0.91    2.57
  -2   9  15   10.65    6.70
   2   9 -14    0.23    4.78
   2   9 -14    1.04    3.35
  -2  -9  14    3.70    2.65
  -2   9  14    1.21   11.30
  -2   9  14    4.66    4.14
   2   9 -13    2.15    3.92
   2   9 -13   -0.53    2.87
  -2  -9  13    1.20    2.16
  -2   9  13   -0.13    3.38
  -2   9  13    1.48    5.63
   2   9 -12   34.67    5.33
   2   9 -12   53.42    6.93
  -2   9  12   45.45    6.35
  -2   9  12   39.10   11.25
  -2   9  12   37.87    2.72
  -2  -9  12   38.67    4.15
   2   9 -11    9.48    3.19
   2   9 -11   10.25    3.94
  -2   9  11   14.60    6.77
  -2  -9  11    8.36    2.39
  -2   9  11    7.22    1.05
  -2   9  11   10.88    3.94
   2   9 -10   63.08   10.26
   2   9 -10   57.99    5.72
  -2   9  10   53.27    3.14
  -2  -9  10   55.50    6.56
  -2   9  10   51.63    6.49
   2   9  -9   11.92    3.43
   2   9  -9   11.93    5.28
  -2  -9   9   12.97    2.33
  -2   9   9   11.47    3.75
   2   9  -8  351.70   19.08
   2   9  -8  322.62   17.52
  -2   9   8  342.92   20.84
  -2  -9   8  364.63   15.40
   2   9  -7  212.09   12.65
   2   9  -7  235.01   12.09
  -2  -9   7  225.48    9.73
  -2   9   7  219.05   13.59
   2   9  -6   84.18    6.01
   2   9  -6   76.10    8.76
  -2   9   6   78.55    6.38
  -2  -9   6   83.44    4.56
   2   9  -5    4.10    3.38
   2   9  -5    1.38    1.72
  -2   9   5   -0.31    0.96
  -2   9   5   -3.37    2.00
  -2  -9   5    1.42    1.40
   2   9  -4   14.84    2.49
   2   9  -4   15.58    2.73
  -2   9   4   16.38    2.66
  -2   9   4    7.95    2.46
  -2  -9   4    9.59    1.97
   2  -9  -3   61.35    4.04
   2   9  -3   56.72    6.46
   2   9  -3   58.87    4.65
  -2   9   3   54.81    4.41
  -2  -9   3   63.83    5.40
  -2   9   3   53.74    2.93
   2   9  -2 1010.79   49.79
   2  -9  -2 1005.58   55.93
  -2  -9   2  983.27   46.69
  -2   9   2  985.06   43.39
  -2   9   2  998.20   50.24
   2   9  -1   77.00    4.74
   2  -9  -1   75.79    4.17
  -2  -9   1   77.89    4.36
  -2   9   1   76.22    3.76
  -2   9   1   81.68    4.59
   2  -9   0   53.29    3.25
   2   9   0   52.43    4.10
  -2  -9   0   56.38    3.60
  -2   9   0   57.01    3.45
  -2   9   0   54.05    3.50
   2  -9   1  453.71   21.44
   2   9   1  469.09   20.28
  -2  -9  -1  453.89   18.98
  -2   9  -1  468.70   24.58
  -2   9  -1  461.52   18.04
   2   9   2   29.60    3.36
   2  -9   2   34.05    2.26
  -2   9  -2   29.06    2.87
  -2   9  -2   34.84    2.46
  -2  -9  -2   29.76    3.03
   2  -9   3  144.24    5.07
   2   9   3  146.53   11.34
  -2   9  -3  130.58    9.96
  -2  -9  -3  141.22    7.09
  -2   9  -3  136.22    5.37
   2  -9   4   63.55    2.87
   2  -9   4   65.68    6.61
   2   9   4   70.60    4.94
  -2  -9  -4   63.24    4.57
  -2   9  -4   65.32    4.43
  -2   9  -4   66.64    3.11
   2   9   5   32.43    3.68
   2  -9   5   30.66    3.05
   2  -9   5   41.10    5.22
  -2   9  -5   30.07    3.31
  -2  -9  -5   32.06    5.50
  -2   9  -5   29.67    2.13
   2  -9   6   93.56    8.32
   2   9   6   72.71    6.16
   2  -9   6   79.22    3.05
  -2  -9  -6   87.83    5.65
  -2   9  -6   70.23    5.45
  -2   9  -6   81.58    3.73
   2   9   7   18.87    5.39
   2  -9   7   11.69    1.42
   2  -9   7   17.27    4.81
  -2   9  -7   16.59    3.00
  -2  -9  -7   13.19    2.87
  -2   9  -7   13.46    1.71
   2   9   8   50.49    5.86
   2  -9   8   54.71    3.90
   2  -9   8   72.18    8.16
  -2  -9  -8   57.46    5.03
  -2   9  -8   51.17    5.01
  -2   9  -8   52.68    5.04
   2   9   9  226.10   15.01
   2  -9   9  245.53   20.06
   2  -9   9  240.24    7.76
  -2   9  -9  221.47    9.66
  -2   9  -9  231.67   13.04
   2   9  10   13.55    3.81
   2  -9  10    7.50    5.30
   2  -9  10   10.50    2.32
  -2   9 -10   10.48    2.23
  -2   9 -10    9.91    3.19
   2   9  11   29.36    4.82
   2  -9  11   32.54    7.17
   2  -9  11   19.71    1.82
  -2   9 -11   17.55    4.69
  -2   9 -11   25.43    4.19
   2   9  12   63.55    7.14
   2  -9  12   54.58    3.04
   2  -9  12   64.99   10.47
  -2   9 -12   65.94    6.46
  -2   9 -12   54.20    6.93
   2   9  13    0.94    3.47
   2  -9  13    0.90    1.22
   2   9  13    2.98    2.38
   2  -9  13    2.64    5.05
  -2   9 -13    1.33    3.06
   2   9  14    6.76    4.75
   2   9  14   11.31    5.34
   2  -9  14   13.15    7.10
   2   9  14    2.79    8.64
  -2   9 -14   13.71    4.25
   2   9  15   -0.26    4.16
   2   9  15    0.87    7.68
   2  -9  15   13.62    6.77
  -2   9 -15    3.76    3.88
   2   9  16    8.43    7.72
   2  -9  16    2.38    7.80
   2   9  16    2.05    4.73
  -2   9 -16    6.55    4.47
   2  10 -15    1.41    8.54
   2  10 -15    5.42    3.58
  -2  10  15  -10.62    7.18
  -2  10  15   -0.76    4.53
  -2 -10  15    0.98    2.50
   2  10 -14    6.66   10.28
   2  10 -14   14.13    4.58
  -2 -10  14   11.51    3.43
  -2  10  14   11.17    8.87
  -2  10  14   19.06    8.95
   2  10 -13   24.44   12.16
   2  10 -13   25.41    5.80
  -2  10  13   45.13    6.93
  -2  10  13   27.85   11.06
  -2 -10  13   42.20    4.54
   2  10 -12    1.47    5.03
   2  10 -12    0.70    3.74
  -2 -10  12    4.27    2.20
  -2  10  12    1.06    3.58
  -2  10  12    2.30    6.34
  -2  10  12    0.92    1.35
   2  10 -11  120.90    9.63
   2  10 -11  132.01   11.33
  -2  10  11  152.41   19.82
  -2  10  11  113.98   11.08
  -2 -10  11  129.98    7.43
  -2  10  11  127.09    4.03
   2  10 -10    0.49    2.58
   2  10 -10    0.21    2.86
  -2 -10  10   -0.11    2.96
  -2  10  10   -1.98    3.05
   2  10  -9    9.35    5.59
   2  10  -9    9.20    3.59
  -2  10   9    9.90    4.08
  -2 -10   9   11.15    2.38
   2  10  -8   69.82    9.73
   2  10  -8   53.73    5.68
  -2  10   8   56.61    6.76
  -2 -10   8   59.72    4.23
   2  10  -7  132.84   10.06
   2  10  -7  168.32    9.43
  -2 -10   7  158.22    7.71
  -2  10   7  144.74   17.12
   2  10  -6  234.44   12.24
   2  10  -6  211.65   12.40
  -2  10   6  214.76    7.68
  -2 -10   6  223.96    9.98
  -2  10   6  218.03   13.53
   2  10  -5  301.95   16.17
   2  10  -5  333.36   15.45
  -2  10   5  302.55   10.96
  -2  10   5  314.42   16.70
  -2 -10   5  328.07   13.81
   2  10  -4   32.50    4.25
   2  10  -4   39.59    6.00
  -2 -10   4   32.22    4.95
  -2  10   4   36.81    2.41
  -2  10   4   37.10    4.12
   2  10  -3   80.09    5.95
   2 -10  -3   84.93    5.18
   2  10  -3   82.65    5.33
  -2 -10   3   81.57    4.65
  -2  10   3   77.15    3.95
  -2  10   3   73.75    5.57
   2  10  -2  382.95   17.56
   2 -10  -2  377.78   21.73
  -2  10   2  360.71   14.17
  -2  10   2  394.24   24.09
  -2 -10   2  377.60   16.12
   2 -10  -1  377.71   16.21
   2  10  -1  391.53   17.87
  -2  10   1  403.43   17.71
  -2 -10   1  392.21   16.79
  -2  10   1  364.96   14.88
   2 -10   0   94.11    4.69
   2  10   0   79.12    5.70
  -2  10   0   91.59    5.17
  -2  10   0   84.88    4.80
   2  10   1  555.88   26.63
   2 -10   1  566.20   28.71
  -2 -10  -1  568.88   25.57
  -2  10  -1  583.17   25.01
  -2  10  -1  570.54   31.87
   2 -10   2  144.73    5.92
   2  10   2  140.18   11.89
  -2  10  -2  129.25    6.87
  -2  10  -2  135.77    9.14
  -2 -10  -2  138.78    7.27
   2  10   3   46.16    4.83
   2 -10   3   51.24    3.10
  -2  10  -3   59.49    6.63
  -2  10  -3   48.19    3.33
  -2 -10  -3   60.78    4.38
   2 -10   4   42.45    2.65
   2  10   4   40.98    4.42
  -2  10  -4   34.25    3.87
  -2 -10  -4   42.97    4.09
  -2  10  -4   42.44    4.51
   2  10   5  106.11    7.77
   2 -10   5  108.71    4.34
  -2 -10  -5  106.47   10.57
  -2  10  -5  101.49    6.96
  -2  10  -5  105.38   10.60
   2  10   6   39.21    4.75
   2 -10   6   38.18    3.75
  -2  10  -6   38.38    4.51
  -2 -10  -6   32.22    4.32
  -2  10  -6   39.28    4.00
   2 -10   7  149.86    5.54
   2 -10   7  169.03   14.64
   2  10   7  137.25   10.43
  -2  10  -7  137.22   13.60
  -2 -10  -7  146.86    9.19
  -2  10  -7  153.76    9.72
   2  10   8   21.45    4.35
   2 -10   8   28.18    6.42
   2 -10   8   18.74    2.99
  -2  10  -8   17.05    3.73
  -2 -10  -8   24.76    3.78
  -2  10  -8   18.26    4.01
   2  10   9   38.47    5.90
   2 -10   9   41.25    8.37
   2 -10   9   39.33    2.61
  -2  10  -9   48.17    5.56
  -2  10  -9   62.52    8.08
   2 -10  10   49.56    8.69
   2  10  10   47.11    6.55
   2 -10  10   41.35    2.73
  -2  10 -10   49.01    5.41
  -2  10 -10   46.74    6.05
   2 -10  11   15.16    5.55
   2  10  11    7.18    3.96
   2 -10  11    3.60    2.56
  -2  10 -11    7.33    3.75
  -2  10 -11    9.85    5.48
   2 -10  12   52.63    3.27
   2 -10  12   65.35   11.36
   2  10  12   69.51    7.79
  -2  10 -12   59.67    6.78
  -2  10 -12   55.35    7.22
   2  10  13    3.93    2.78
   2  10  13    4.42    4.19
   2 -10  13    6.86    6.11
  -2  10 -13    6.30    6.03
   2 -10  14   12.49    6.47
   2  10  14    3.12    2.82
   2  10  14    1.62    4.37
  -2  10 -14    4.00    3.81
   2  10  15   39.39    8.42
   2  10  15   45.82   14.78
  -2  10 -15   45.07   11.85
   2  11 -15    2.82    3.62
   2  11 -15   -3.75    4.99
  -2  11  15    3.03   12.38
  -2  11  15   -6.14    4.92
  -2 -11  15    0.11    2.45
   2  11 -14   -1.87    4.63
   2  11 -14    0.31    5.61
  -2  11  14    1.22    4.16
  -2  11  14    8.54    6.98
  -2 -11  14    0.33    2.60
   2  11 -13   10.01    3.57
   2  11 -13    0.53    4.76
  -2 -11  13    2.37    2.75
  -2  11  13    1.39    7.70
  -2  11  13    0.53    4.29
   2  11 -12   10.10    4.16
   2  11 -12   13.14    5.18
  -2 -11  12   12.11    3.17
  -2  11  12   11.87    4.97
  -2  11  12   18.46    8.78
   2  11 -11   10.40    4.86
   2  11 -11   20.48    3.93
  -2  11  11   10.49    2.09
  -2  11  11    8.21    1.79
  -2 -11  11   11.35    4.71
  -2  11  11   15.45    4.49
   2  11 -10   64.40    5.61
   2  11 -10   80.34   10.13
  -2  11  10   50.97    6.29
  -2  11  10   26.48    2.36
  -2 -11  10   61.71    6.38
   2  11  -9   17.58    3.64
   2  11  -9   13.97    3.78
  -2  11   9   17.09    4.47
  -2 -11   9   11.43    2.60
  -2  11   9    8.27    1.62
   2  11  -8    9.90    3.16
   2  11  -8   12.50    3.19
  -2 -11   8    4.85    2.24
  -2  11   8    4.03    1.52
  -2  11   8   12.36    3.84
   2  11  -7   54.06    5.77
   2  11  -7   55.74    5.32
  -2 -11   7   47.98    4.24
  -2  11   7   53.98    6.58
  -2  11   7   50.86    3.06
   2  11  -6    1.77    2.45
   2  11  -6    1.76    2.56
  -2  11   6    1.93    2.86
  -2  11   6    0.48    2.30
  -2 -11   6    1.28    1.90
   2  11  -5   10.09    5.25
   2  11  -5   16.57    3.53
  -2  11   5   14.39    2.02
  -2  11   5   17.84    3.81
  -2 -11   5   17.56    2.66
   2  11  -4  235.93   12.23
   2  11  -4  222.15   13.10
  -2  11   4  209.64    8.84
  -2 -11   4  229.15   10.71
  -2  11   4  236.81   13.39
   2 -11  -3  105.07    6.50
   2  11  -3  102.04    6.75
   2  11  -3   85.66    7.43
  -2  11   3  109.37   11.30
  -2  11   3   91.71    7.41
  -2 -11   3  111.41    5.97
   2  11  -2   76.31    5.98
   2 -11  -2   85.25    5.36
   2  11  -2   83.36    6.41
  -2  11   2   72.01    4.41
  -2  11   2   84.69    6.15
  -2 -11   2   91.84    8.15
   2  11  -1  141.94    8.26
   2 -11  -1  149.95    7.32
  -2  11   1  113.23   10.10
  -2  11   1  140.14    7.97
  -2 -11   1  135.60    7.50
   2 -11   0   68.82    4.55
   2  11   0   65.80    5.56
  -2 -11   0   64.92    4.87
  -2  11   0   67.71    4.67
  -2  11   0   66.26    5.01
   2  11   1  251.18   19.30
   2 -11   1  240.18   10.78
  -2  11  -1  258.55   17.02
  -2  11  -1  251.21   11.56
  -2 -11  -1  243.41   12.35
   2  11   2   92.15    6.84
   2 -11   2  103.78    5.04
  -2 -11  -2   96.50    6.37
  -2  11  -2   95.00    5.42
  -2  11  -2   75.28    5.85
   2 -11   3  209.31    8.69
   2  11   3  197.33   12.47
  -2  11  -3  199.69   10.54
  -2  11  -3  210.12    9.32
  -2 -11  -3  205.60   11.07
   2 -11   4   13.32    2.14
   2  11   4   20.47    5.96
  -2  11  -4   13.93    3.77
  -2 -11  -4   17.64    3.16
  -2  11  -4   11.83    3.05
   2  11   5  101.45    8.33
   2 -11   5  102.34    7.38
  -2  11  -5  105.06    7.22
  -2 -11  -5  106.38    7.44
  -2  11  -5  106.71    5.37
   2  11   6    1.85    3.13
   2 -11   6    3.95    1.55
  -2 -11  -6   -0.16    2.72
  -2  11  -6    3.43    2.54
  -2  11  -6    5.51    1.80
   2  11   7    9.59    3.33
   2 -11   7    1.66    2.50
  -2  11  -7    6.21    2.02
  -2 -11  -7    3.97    2.76
  -2  11  -7    1.11    2.75
   2  11   8    1.18    3.31
   2 -11   8    1.84    1.55
  -2 -11  -8    5.96    2.81
  -2  11  -8    8.73    2.76
  -2  11  -8    3.39    1.84
   2 -11   9   30.74    2.53
   2  11   9   30.56    5.55
  -2  11  -9   25.26    4.68
  -2  11  -9   32.09    3.38
   2 -11  10    0.19    2.23
   2  11  10    4.74    3.28
  -2  11 -10    1.06    1.99
  -2  11 -10   -2.69    2.69
   2  11  11    6.03    6.20
   2 -11  11    1.73    2.71
  -2  11 -11    5.16    3.81
  -2  11 -11    5.12    3.30
   2  11  12   26.15    8.40
   2 -11  12    5.65    2.71
  -2  11 -12   13.50    5.01
  -2  11 -12   36.61    4.61
   2  11  13    0.33    7.12
  -2  11 -13    4.98    3.78
   2  11  14    8.91    8.55
  -2  11 -14    8.54    4.50
   2  11  15   19.04   10.93
   2  11  15   12.83    6.00
  -2  11 -15   11.59    5.64
   2  12 -14   26.77    9.63
   2  12 -14   21.14    7.66
  -2  12  14   35.21   11.41
  -2 -12  14   15.15    4.47
  -2  12  14   30.13   11.64
   2  12 -13    0.95    3.68
  -2 -12  13    3.08    2.81
  -2  12  13    4.49    4.57
  -2  12  13    5.82    8.04
   2  12 -12    2.31    4.39
   2  12 -12    3.72    3.62
  -2 -12  12    3.10    2.69
  -2  12  12    2.06    4.18
  -2  12  12    3.94    7.61
   2  12 -11    3.63    3.54
   2  12 -11    2.23    4.13
  -2 -12  11    5.95    2.69
  -2  12  11    3.30    4.13
   2  12 -10   16.39    4.65
   2  12 -10   12.48    5.15
  -2  12  10   20.37    5.17
  -2  12  10   17.76    3.33
  -2 -12  10   14.56    5.52
   2  12  -9  102.64    9.53
   2  12  -9   97.95    8.59
  -2  12   9   85.12    9.84
  -2 -12   9   88.41    6.29
  -2  12   9   92.93    7.06
   2  12  -8    7.92    3.75
   2  12  -8   18.11    4.03
  -2  12   8    9.79    3.26
  -2 -12   8   10.83    2.70
  -2  12   8   20.31    7.28
   2  12  -7   20.61    4.47
   2  12  -7   13.04    6.56
  -2 -12   7   16.56    5.09
  -2  12   7   23.88    3.86
  -2  12   7   26.02    5.11
   2  12  -6  167.37   10.73
   2  12  -6  166.55   18.33
  -2  12   6  174.36   13.00
  -2  12   6  175.02    7.55
  -2 -12   6  185.36    9.64
   2  12  -5  213.50   13.15
   2  12  -5  214.46   13.32
  -2 -12   5  233.24   15.96
  -2  12   5  214.94   14.60
  -2  12   5  207.19    9.14
   2  12  -4   51.40    5.84
   2  12  -4   65.25    5.60
  -2 -12   4   56.01    4.63
  -2  12   4   46.87    5.93
  -2  12   4   53.08    6.19
   2 -12  -3   20.63    3.73
   2  12  -3   21.27    4.23
   2  12  -3   26.70    4.03
  -2  12   3   24.97    4.28
  -2 -12   3   17.06    5.44
  -2  12   3   28.68    2.82
   2  12  -2   18.22    4.05
   2  12  -2   19.48    3.75
   2 -12  -2   19.11    5.39
  -2 -12   2   17.55    3.31
  -2  12   2   22.15    3.83
  -2  12   2   23.26    2.78
   2 -12  -1    1.00    2.24
   2  12  -1    3.00    2.69
  -2  12   1    6.35    2.60
  -2  12   1    6.63    2.14
  -2 -12   1    4.85    2.33
   2  12   0    6.14    2.84
   2 -12   0    4.85    2.24
  -2  12   0    8.57    2.25
  -2  12   0    3.06    2.52
  -2 -12   0   -1.40    2.45
   2  12   1   96.70    7.75
   2 -12   1  101.08    5.84
  -2 -12  -1   99.91    6.92
  -2  12  -1   98.35    6.49
  -2  12  -1   89.45    9.50
   2  12   2   56.23    6.11
   2 -12   2   53.43    6.74
  -2 -12  -2   61.94    5.31
  -2  12  -2   61.37    5.00
  -2  12  -2   58.15    4.68
   2 -12   3   42.41    3.48
   2  12   3   47.01    5.45
  -2  12  -3   33.83    4.49
  -2  12  -3   34.13    3.89
  -2 -12  -3   42.20    4.59
   2 -12   4    8.62    3.34
   2  12   4    7.53    3.66
  -2  12  -4    6.49    2.99
  -2  12  -4   11.99    2.38
  -2 -12  -4    5.88    3.09
   2  12   5  284.15   17.96
   2 -12   5  269.84   11.61
  -2  12  -5  269.05   15.58
  -2 -12  -5  273.02   16.16
  -2  12  -5  295.04   13.08
   2  12   6  122.02   10.59
   2 -12   6  121.27    8.63
  -2  12  -6  112.57    8.62
  -2  12  -6  120.64    6.70
  -2 -12  -6  115.15   13.85
   2 -12   7   13.53    2.15
   2  12   7   17.90    4.28
  -2 -12  -7    9.23    3.73
  -2  12  -7   13.37    4.31
  -2  12  -7    8.73    3.52
   2  12   8   25.23    5.75
   2 -12   8   26.81    2.83
  -2  12  -8   28.72    4.45
  -2  12  -8   29.21    3.27
  -2 -12  -8   22.82    4.87
   2  12   9  160.25   13.77
   2 -12   9  159.86    7.85
  -2  12  -9  158.16   12.02
  -2  12  -9  182.38    9.64
   2 -12  10   70.55    7.16
   2  12  10   75.27    8.89
  -2  12 -10   74.55    5.99
  -2  12 -10   79.49    7.69
   2  12  11   18.52    4.84
   2 -12  11    7.06    3.59
  -2  12 -11   12.00    4.21
  -2  12 -11   10.17    2.97
   2  12  12    9.85    4.70
  -2  12 -12   -0.15    6.59
   2  12  13   49.77    9.17
  -2  12 -13   57.45    7.79
   2  12  14    7.29    5.42
  -2  12 -14    6.88    7.71
   2  13 -13    3.56    4.67
   2  13 -13   -2.60    3.49
  -2  13  13   11.25    7.57
  -2 -13  13    1.18    2.76
  -2  13  13   -3.19    4.53
   2  13 -12   12.36    4.22
   2  13 -12   11.93    5.22
  -2 -13  12    1.37    3.18
  -2  13  12    8.25    5.05
  -2  13  12   -5.70    8.90
   2  13 -11   18.94    5.70
   2  13 -11   20.41    4.77
  -2 -13  11    8.28    3.73
  -2  13  11   18.11    5.49
   2  13 -10    8.07    4.50
   2  13 -10   12.27    5.14
  -2 -13  10    5.59    5.47
  -2  13  10   18.62    5.19
  -2  13  10   12.15    2.58
   2  13  -9   -3.70    5.58
   2  13  -9    2.79    6.27
  -2  13   9    2.10    1.74
  -2 -13   9    4.50    2.52
  -2  13   9    2.17    3.87
   2  13  -8   27.41    4.65
   2  13  -8   18.48    4.70
  -2  13   8   29.59    5.45
  -2  13   8   18.20    2.65
  -2 -13   8   19.59    3.58
   2  13  -7   18.11    3.90
   2  13  -7   10.06    4.09
  -2 -13   7    7.86    3.03
  -2  13   7   12.92    4.66
  -2  13   7   11.47    2.31
   2  13  -6   15.09    4.03
   2  13  -6   13.81    4.34
  -2 -13   6   19.64    3.16
  -2  13   6   24.63    7.71
  -2  13   6   12.80    2.49
   2  13  -5   14.92    3.89
   2  13  -5   17.90    3.85
  -2 -13   5   12.00    3.05
  -2  13   5    8.15    3.76
  -2  13   5   14.69    4.35
   2  13  -4   49.63    5.49
   2  13  -4   36.60    9.09
  -2  13   4   35.08    3.48
  -2 -13   4   39.83    4.25
  -2  13   4   39.30    5.87
   2  13  -3   73.70    7.21
   2 -13  -3   84.92    6.53
   2  13  -3   76.51    7.07
  -2  13   3   71.62    4.85
  -2 -13   3   67.10    5.84
  -2  13   3   70.87    7.33
   2  13  -2  384.79   22.87
   2 -13  -2  413.32   29.03
   2  13  -2  405.70   23.04
  -2  13   2  374.83   25.10
  -2 -13   2  389.17   20.07
  -2  13   2  406.50   23.40
   2 -13  -1   87.70    6.24
   2  13  -1   73.45    7.37
   2  13  -1   76.16    7.40
  -2  13   1   89.13    7.28
  -2  13   1   85.05    5.96
  -2 -13   1   84.72    6.55
   2  13   0   11.68    6.22
   2 -13   0   14.43    4.85
  -2  13   0   15.74    3.05
  -2  13   0   14.24    3.47
  -2 -13   0   12.81    3.27
   2 -13   1   83.04    6.03
   2  13   1   79.87    8.02
  -2 -13  -1   87.90    6.73
  -2  13  -1   83.03   10.48
  -2  13  -1   85.48    6.12
   2 -13   2   40.64    3.90
   2  13   2   39.63    5.60
  -2 -13  -2   41.53    4.93
  -2  13  -2   32.69    4.34
  -2  13  -2   44.67    7.13
   2 -13   3  196.20    9.69
   2  13   3  201.35   13.99
  -2  13  -3  187.95   17.04
  -2  13  -3  204.37   15.95
  -2 -13  -3  188.15   12.19
   2  13   4   91.81    9.12
   2 -13   4   91.22    5.61
  -2 -13  -4   90.83    7.71
  -2  13  -4   87.45    6.29
  -2  13  -4   86.23    7.22
   2  13   5    3.87    3.61
   2 -13   5   -0.45    3.20
  -2 -13  -5    2.34    3.02
  -2  13  -5    3.49    2.34
  -2  13  -5    5.97    2.82
   2 -13   6   27.56    3.11
   2  13   6   28.62    5.74
  -2 -13  -6   26.99    7.86
  -2  13  -6   29.69    5.98
  -2  13  -6   25.50    4.54
   2  13   7    5.88    3.94
   2 -13   7    1.49    1.99
  -2  13  -7    5.27    2.36
  -2 -13  -7    2.94    3.24
  -2  13  -7    3.57    3.09
   2 -13   8    6.26    4.18
   2  13   8   18.28    4.96
  -2 -13  -8   16.19    4.45
  -2  13  -8   13.38    3.31
  -2  13  -8   22.96    4.11
   2  13   9   27.96    9.20
   2 -13   9   17.31    4.60
  -2  13  -9   21.81    4.77
  -2  13  -9   22.62    6.20
   2 -13  10    6.68    2.29
   2  13  10   11.25    7.51
  -2  13 -10    9.74    6.36
  -2  13 -10    6.74    3.07
   2  13  11   -0.04    4.00
   2 -13  11    0.57    1.45
  -2  13 -11    4.50    2.58
  -2  13 -11   -0.59    3.38
   2  13  12  165.69   16.07
  -2  13 -12  135.08   21.47
   2  13  13   -0.22    4.62
  -2  13 -13   -2.38    3.91
   2  14 -13    3.62    5.93
   2  14 -13   10.70    4.71
  -2 -14  13    2.62    3.42
  -2  14  13    2.80    5.56
  -2  14  13    1.14    9.67
   2  14 -12    3.70    4.26
   2  14 -12   10.94    5.37
  -2 -14  12    2.84    3.26
  -2  14  12   -0.53    5.13
   2  14 -11   11.47    4.03
   2  14 -11    2.92    8.32
  -2  14  11    0.47    4.87
  -2 -14  11    2.65    3.19
   2  14 -10   11.84    8.45
   2  14 -10    8.74    4.46
  -2  14  10    7.29    5.31
  -2 -14  10    9.71    3.40
   2  14  -9   19.13    5.62
   2  14  -9   23.70    8.45
  -2  14   9   20.59    9.85
  -2  14   9   18.91    5.67
  -2 -14   9   18.06    6.37
   2  14  -8    2.55    3.48
   2  14  -8    3.58    3.55
  -2  14   8    0.60    3.20
  -2  14   8    1.83    6.80
  -2 -14   8    4.44    2.67
   2  14  -7   14.28    4.32
   2  14  -7   16.50    4.38
  -2 -14   7    9.20    3.31
  -2  14   7    8.92    4.87
  -2  14   7    8.13    3.92
   2  14  -6   16.38    4.62
   2  14  -6   12.60    4.45
  -2 -14   6   20.13    3.58
  -2  14   6   17.05    2.79
  -2  14   6   18.20    5.21
   2  14  -5   38.12    6.20
   2  14  -5   48.93    6.37
  -2  14   5   37.59    4.10
  -2  14   5   70.86    7.24
  -2 -14   5   50.77    4.99
   2  14  -4   35.90    5.74
   2  14  -4   48.47    5.74
  -2 -14   4   42.78    4.63
  -2  14   4   37.13    3.82
  -2  14   4   25.94    6.15
   2  14  -3   55.80    6.33
   2  14  -3   58.37    6.20
   2 -14  -3   42.32    5.71
  -2  14   3   45.00    6.81
  -2 -14   3   50.07    5.21
  -2  14   3   40.45    6.61
   2  14  -2  113.03    9.63
   2  14  -2  104.14    9.08
   2 -14  -2  119.30    8.40
  -2 -14   2  106.27    7.90
  -2  14   2  123.28    9.44
  -2  14   2   92.28    6.97
   2 -14  -1  163.78   10.30
   2  14  -1  130.53   18.07
   2  14  -1  150.97   11.72
  -2 -14   1  161.88   10.25
  -2  14   1  147.01    9.41
  -2  14   1  180.27   11.82
   2  14   0   73.47    7.88
   2 -14   0   89.47    6.63
   2  14   0   86.43    8.38
  -2  14   0   80.51    7.77
  -2  14   0   91.89    6.75
  -2 -14   0   83.55    7.20
   2  14   1   71.74    7.55
   2 -14   1   66.16    5.66
  -2  14  -1   62.51    5.70
  -2  14  -1   56.73    6.29
  -2 -14  -1   72.45    6.52
   2  14   2   12.41    6.89
   2 -14   2   16.95    2.96
  -2 -14  -2    8.55    3.69
  -2  14  -2    7.69    3.24
  -2  14  -2    9.44    3.38
   2  14   3  342.12   22.98
   2 -14   3  349.04   23.39
  -2  14  -3  322.45   25.79
  -2 -14  -3  344.58   20.77
  -2  14  -3  325.35   18.01
   2 -14   4   34.39    3.77
   2  14   4   28.20    9.90
  -2  14  -4   32.16    4.73
  -2  14  -4   31.39    4.37
  -2 -14  -4   22.38    8.34
   2  14   5   18.92    4.93
   2 -14   5   10.66    2.79
  -2 -14  -5   11.41    4.23
  -2  14  -5   11.85    3.37
  -2  14  -5   14.68    3.77
   2  14   6   25.19    5.38
   2 -14   6   14.14    5.26
  -2  14  -6   25.63    4.45
  -2  14  -6   19.37    6.33
  -2 -14  -6   18.82    4.88
   2 -14   7    2.16    2.04
   2  14   7    1.62    3.71
  -2  14  -7   -1.21    2.96
  -2  14  -7    1.38    2.43
  -2 -14  -7   -0.79    3.21
   2  14   8   18.43    5.11
   2 -14   8   10.22    2.79
  -2 -14  -8   19.74    4.63
  -2  14  -8   11.70    4.21
  -2  14  -8    7.01    6.05
   2  14   9   38.91    7.27
   2 -14   9   37.67    4.13
  -2  14  -9   30.62    5.00
  -2  14  -9   47.51    6.05
   2 -14  10    5.34    2.73
   2  14  10   14.41    5.14
  -2  14 -10   11.90    3.72
  -2  14 -10   14.73    7.02
   2  14  11   15.88    6.85
  -2  14 -11   28.82    5.68
   2  14  12    5.74    5.49
  -2  14 -12    8.93    4.64
   2  14  13    7.64    7.60
  -2  14 -13   28.16    6.48
   2  15 -12   17.21   11.74
   2  15 -12   22.96    6.04
  -2 -15  12    5.14    4.38
  -2  15  12   16.76    6.85
   2  15 -11    1.52    5.07
   2  15 -11    3.52    4.07
  -2  15  11   -1.01    4.64
  -2 -15  11    3.55    3.21
   2  15 -10   -1.55    3.94
   2  15 -10   -4.08    4.81
  -2  15  10   -1.57    4.64
  -2 -15  10   -2.26    3.06
   2  15  -9   16.40    8.28
   2  15  -9   14.20    5.66
  -2 -15   9   14.82    4.14
  -2  15   9   18.31    6.24
   2  15  -8   82.24    9.31
   2  15  -8   79.10    9.23
  -2 -15   8   92.78   11.46
  -2  15   8   73.45   10.68
  -2  15   8   71.65    5.58
   2  15  -7    6.23    4.11
   2  15  -7    6.27    6.36
  -2 -15   7    5.80    3.17
  -2  15   7    5.31    4.65
  -2  15   7    5.91    2.40
   2  15  -6    2.02    3.91
   2  15  -6    2.23    3.95
  -2  15   6    8.11    2.36
  -2 -15   6    1.12    3.10
  -2  15   6    5.66    6.90
   2  15  -5   63.79    7.63
   2  15  -5   38.06   11.54
  -2 -15   5   57.16    5.92
  -2  15   5   61.16    7.88
  -2  15   5   51.93    4.91
   2  15  -4    1.30    4.08
   2  15  -4    9.66    3.97
  -2  15   4    5.89    4.37
  -2 -15   4   13.82    3.14
  -2  15   4    2.08    4.38
   2  15  -3    4.93    3.27
   2  15  -3    2.21    5.33
   2 -15  -3    1.67    2.93
  -2  15   3   -0.57    2.25
  -2  15   3    3.30    3.49
  -2 -15   3   -0.86    2.66
   2  15  -2  237.50   17.01
   2  15  -2  248.15   17.82
   2 -15  -2  254.14   16.13
  -2  15   2  257.02   18.19
  -2 -15   2  237.35   15.42
  -2  15   2  243.47   13.93
   2 -15  -1   47.48    5.25
   2  15  -1   39.68    9.99
   2  15  -1   40.68    6.56
  -2  15   1   37.40    4.95
  -2  15   1   34.56    6.30
  -2 -15   1   44.44    5.54
   2  15   0   12.82    4.13
   2 -15   0   10.68    3.26
   2  15   0    5.88    3.93
  -2  15   0   12.80    6.44
  -2 -15   0    6.80    3.61
  -2  15   0    8.60    5.05
   2  15   1   71.20    8.11
   2  15   1   33.38    6.84
   2 -15   1   67.88    9.37
  -2  15  -1   61.38    6.00
  -2  15  -1   76.88    6.96
  -2 -15  -1   67.68    6.87
   2 -15   2   90.96    7.09
   2  15   2   92.35    9.51
  -2  15  -2   77.23    7.21
  -2 -15  -2   81.43    8.18
  -2  15  -2   77.43    7.87
   2  15   3    8.60    4.76
   2 -15   3   13.94    3.24
  -2 -15  -3    9.28    4.08
  -2  15  -3   12.36    3.71
  -2  15  -3   11.67    3.47
   2  15   4   23.02    5.11
   2 -15   4   16.32    5.48
  -2  15  -4   20.95    4.14
  -2 -15  -4   19.81    4.69
  -2  15  -4    9.72    4.21
   2  15   5   31.41    6.56
   2 -15   5   39.12    4.11
  -2  15  -5   25.47    5.01
  -2 -15  -5   33.14    5.71
  -2  15  -5   22.32    5.26
   2 -15   6  115.60    7.78
   2  15   6  113.63   12.18
  -2 -15  -6  103.59   10.87
  -2  15  -6  109.07    9.73
  -2  15  -6  120.26   15.29
   2 -15   7   17.89    3.60
   2  15   7   18.26    6.22
  -2  15  -7   18.62    4.50
  -2  15  -7   26.85    4.93
  -2 -15  -7   30.51    5.45
   2  15   8   43.81   12.46
   2 -15   8   24.31    6.94
  -2 -15  -8   38.64    6.83
  -2  15  -8   47.82    6.10
  -2  15  -8   30.42    5.76
   2  15   9   38.63    7.64
   2 -15   9   13.18    7.13
  -2  15  -9   27.98    6.26
  -2  15  -9   48.92    5.62
   2 -15  10    2.63    3.30
   2  15  10   -0.41    4.86
  -2  15 -10   11.21    6.37
  -2  15 -10    4.00    5.69
   2  15  11   13.90    5.70
  -2  15 -11    1.74    4.53
   2  15  12   56.35   12.29
  -2  15 -12   83.65   10.69
   2  16 -11    6.85    5.40
  -2 -16  11    7.37    4.08
   2  16 -10   -0.12    4.14
   2  16 -10   -0.69    4.27
  -2  16  10    0.72    4.14
  -2 -16  10    0.50    3.02
   2  16  -9   37.95    6.72
   2  16  -9   22.44    7.05
  -2 -16   9   21.33    5.40
  -2  16   9   39.78   12.89
   2  16  -8   -7.80    3.78
   2  16  -8    3.57    3.83
  -2  16   8   -1.83    4.76
  -2 -16   8    0.80    3.01
  -2  16   8   -1.75    7.13
   2  16  -7   17.82    5.83
   2  16  -7   23.37    5.33
  -2 -16   7   15.79    4.31
  -2  16   7   13.43    6.20
  -2  16   7   10.14    5.63
   2  16  -6   28.27    6.96
   2  16  -6   38.73    7.18
  -2 -16   6   47.00    5.53
  -2  16   6   26.02    7.26
  -2  16   6   39.17    7.72
   2  16  -5    4.48    4.01
   2  16  -5    3.89    3.81
  -2  16   5    2.66    2.54
  -2  16   5   -0.69    4.14
  -2 -16   5    1.12    3.10
   2  16  -4  132.15   11.98
   2  16  -4  109.25   11.35
  -2  16   4  112.73    8.65
  -2 -16   4  109.93    9.31
  -2  16   4  123.29   12.01
   2 -16  -3   11.34    3.91
   2  16  -3    6.77    4.35
   2  16  -3    5.86    4.04
  -2  16   3    5.86    3.10
  -2  16   3    3.26    4.40
  -2 -16   3    8.68    3.47
   2  16  -2   28.54    5.81
   2  16  -2   25.69   10.14
   2 -16  -2   19.10    5.23
  -2 -16   2   38.24    5.07
  -2  16   2   30.96    4.60
  -2  16   2   24.77    6.09
   2  16  -1   -4.68    3.90
   2  16  -1   -2.12    3.44
   2 -16  -1   -2.56    5.48
  -2 -16   1    1.70    5.16
  -2  16   1   -5.07    4.38
  -2  16   1   -0.36    3.66
   2 -16   0   -0.75    2.73
   2  16   0    3.58    3.38
   2  16   0    4.47    3.12
  -2  16   0   -1.92    3.23
  -2 -16   0   -1.93    3.02
  -2  16   0    0.24    2.52
   2 -16   1   -3.70    2.77
   2  16   1    2.45    6.02
   2  16   1   -0.07    3.31
  -2  16  -1   -3.69    2.74
  -2  16  -1   -3.96    5.57
  -2 -16  -1    9.56    5.32
   2 -16   2   19.59    6.26
   2  16   2   10.42    5.04
   2  16   2   14.46    4.42
  -2  16  -2    9.07    6.35
  -2 -16  -2   16.38    4.52
  -2  16  -2    8.24    7.16
   2  16   3   21.59    9.49
   2 -16   3   23.47    4.11
  -2 -16  -3   22.27    8.24
  -2  16  -3   13.49    4.76
  -2  16  -3   18.94    4.32
   2  16   4    4.10    4.43
   2 -16   4    3.51    3.05
  -2  16  -4    5.30    3.58
  -2 -16  -4    3.05    3.98
  -2  16  -4   11.25    3.57
   2  16   5    5.64    4.89
   2 -16   5    7.11    3.27
  -2 -16  -5    6.34    7.10
  -2  16  -5    5.96    6.41
  -2  16  -5   13.59    6.33
   2 -16   6    7.07    6.19
   2  16   6   14.64    5.92
  -2 -16  -6   30.24    5.04
  -2  16  -6    5.89    4.50
  -2  16  -6   13.35    7.74
   2 -16   7   23.76    4.84
   2  16   7   26.18    7.51
  -2  16  -7   27.45    6.04
  -2  16  -7   48.35    5.93
  -2 -16  -7   33.21   10.83
   2  16   8   22.79    7.23
   2 -16   8   12.37    4.31
  -2 -16  -8   26.24    6.33
  -2  16  -8   26.87    5.52
  -2  16  -8   33.68    5.50
   2  16   9   30.28    7.35
   2 -16   9   13.74    3.33
  -2  16  -9   30.73    5.67
  -2  16  -9   26.95    5.75
   2  16  10   17.76   10.78
  -2  16 -10    9.22    8.50
   2  17  -9    0.46    4.60
   2  17  -9   -0.61    4.31
  -2 -17   9    3.73    5.83
  -2  17   9    2.96    4.57
   2  17  -8   12.66    5.37
   2  17  -8    7.36    5.23
  -2 -17   8    6.47    4.45
  -2  17   8   16.04    5.60
   2  17  -7   12.16    4.43
   2  17  -7    5.18    5.11
  -2 -17   7    8.20    3.69
  -2  17   7    1.12    5.29
  -2  17   7    0.00    3.02
   2  17  -6   12.00    5.35
   2  17  -6   13.06    5.52
  -2  17   6   13.13    9.49
  -2  17   6   10.25    3.64
  -2 -17   6    7.33    4.21
   2  17  -5   25.89    7.54
   2  17  -5   34.14    7.10
  -2  17   5   34.27    5.15
  -2 -17   5   30.92    9.52
  -2  17   5   46.10    7.81
   2  17  -4   79.05   10.61
   2  17  -4   99.16   15.78
  -2  17   4   77.17    7.62
  -2  17   4   77.34   10.86
  -2 -17   4   88.95    8.55
   2  17  -3    8.19    7.69
   2  17  -3    8.07    4.30
  -2 -17   3    3.85    3.84
  -2  17   3    5.04    3.35
  -2  17   3    9.70    4.63
   2  17  -2   29.52    6.72
   2  17  -2   26.62    5.86
   2 -17  -2   24.35    5.72
  -2  17   2   23.16    7.47
  -2 -17   2   25.92    9.24
  -2  17   2   29.93    6.61
   2 -17  -1   12.67    3.92
   2  17  -1    8.05    4.31
   2  17  -1    8.23    4.90
  -2 -17   1    1.13    4.15
  -2  17   1   11.29    3.42
  -2  17   1    1.72    4.66
   2  17   0   97.52   11.44
   2  17   0  103.97   10.90
   2 -17   0  108.15    9.48
  -2  17   0   97.53    8.90
  -2 -17   0  101.38   10.64
  -2  17   0  104.22   11.30
   2  17   1   16.66    7.71
   2  17   1   13.36    5.29
   2 -17   1    7.74    4.16
  -2 -17  -1    8.09    4.63
  -2  17  -1   23.70    4.88
  -2  17  -1   10.25    3.95
   2  17   2   -4.77    4.40
   2 -17   2   10.27    3.21
   2  17   2    2.53    3.70
  -2  17  -2   -0.12    3.73
  -2 -17  -2    4.00    3.82
  -2  17  -2    1.56    3.15
   2  17   3   23.70    5.39
   2 -17   3   25.91    7.58
   2  17   3   12.65    6.29
  -2  17  -3   26.29    4.96
  -2 -17  -3   15.64    5.55
  -2  17  -3   21.58    8.76
   2 -17   4   17.68    4.78
   2  17   4   35.67   11.20
  -2  17  -4   27.32    9.20
  -2  17  -4   30.15    5.39
  -2 -17  -4   21.82    6.08
   2  17   5   -0.56    4.10
   2 -17   5   -0.88    2.88
  -2 -17  -5    0.32    3.68
  -2  17  -5   -1.15    3.09
  -2  17  -5    2.28    5.64
   2  17   6   -0.21    4.84
   2 -17   6    2.56    3.20
  -2 -17  -6    3.80    4.17
  -2  17  -6    2.75    4.01
  -2  17  -6    3.47    3.60
   2 -17   7    6.38    3.59
   2  17   7   29.51    9.29
  -2  17  -7    4.16    4.82
  -2 -17  -7    9.60    5.11
  -2  17  -7    5.63    4.44
   2  17   8    5.67    4.38
   2 -17   8    5.55    4.84
  -2 -17  -8   -1.27    4.22
  -2  17  -8    2.53    4.19
  -2  17  -8   -5.77    3.59
   2  17   9    9.54    5.38
  -2  17  -9   -2.40    8.12
  -2  17  -9    4.13    4.45
   2  18  -8   23.33    7.58
   2  18  -8   17.64   12.32
  -2  18   8   15.94   14.33
  -2 -18   8   30.15    6.19
   2  18  -7    1.00    4.86
   2  18  -7    5.70    5.71
  -2 -18   7    2.08    7.07
  -2  18   7   14.63    6.09
  -2  18   7    2.23    6.99
   2  18  -6   11.64    5.77
   2  18  -6    6.90    5.07
  -2  18   6   10.19    6.26
  -2 -18   6    6.43    4.26
  -2  18   6    8.09    5.93
   2  18  -5   50.26   10.51
   2  18  -5   56.42    9.74
  -2 -18   5   71.86    8.28
  -2  18   5   47.87   11.27
  -2  18   5   74.56   10.83
   2  18  -4   22.94    6.49
   2  18  -4   12.71    6.06
  -2  18   4   17.83    6.55
  -2  18   4   15.15    7.06
  -2 -18   4   19.30    5.17
   2  18  -3   17.50    5.09
   2  18  -3   12.75    5.79
  -2  18   3   12.05    5.74
  -2  18   3    8.96    3.93
  -2 -18   3    5.87    4.63
   2  18  -2   17.55    5.75
   2  18  -2   15.13    6.42
   2 -18  -2   18.45    5.58
  -2 -18   2   31.54    5.36
  -2  18   2   11.01    4.35
  -2  18   2    4.70   10.10
   2  18  -1    6.02    5.33
   2  18  -1    6.48    7.61
   2 -18  -1    5.15    4.43
  -2 -18   1    9.20    4.56
  -2  18   1   11.43    5.11
  -2  18   1    7.63    3.75
   2  18   0   12.21    4.97
   2 -18   0   14.02    4.56
   2  18   0    5.59    5.76
  -2  18   0   11.06    5.27
  -2 -18   0    9.00    4.95
  -2  18   0    8.97    4.11
   2  18   1    8.69    5.40
   2 -18   1   11.09    4.22
   2  18   1    9.22    4.77
  -2  18  -1    5.58    5.00
  -2 -18  -1    7.30    4.69
  -2  18  -1    8.70    6.57
   2  18   2    6.25    4.60
   2 -18   2   -4.42    3.43
   2  18   2    1.30    6.33
  -2  18  -2    5.80    3.48
  -2  18  -2    4.90    4.01
  -2 -18  -2    1.00    6.40
   2 -18   3   17.30    5.10
   2  18   3   15.96    5.84
   2  18   3   26.06    7.18
  -2  18  -3   27.77    5.46
  -2  18  -3   22.66    6.13
  -2 -18  -3   27.71    6.27
   2  18   4   -0.99    3.59
   2  18   4    1.00    4.64
   2 -18   4    1.80    5.35
  -2  18  -4   -1.22    5.84
  -2  18  -4    3.45    3.88
   2  18   5   -1.80    4.88
   2 -18   5   -0.74    5.61
   2  18   5   -3.85    3.78
  -2 -18  -5    6.32    4.28
  -2  18  -5    4.34    4.04
  -2  18  -5    5.00    3.70
   2  18   6   10.23    4.79
   2 -18   6    0.07    3.52
   2  18   6    6.76    4.16
  -2 -18  -6    1.06    4.54
  -2  18  -6    4.38    4.37
  -2  18  -6   -1.30    3.88
   2  18   7   -0.74    4.80
   2 -18   7    2.12    3.50
  -2  18  -7    4.76    6.58
  -2  18  -7    5.30    4.68
  -2 -18  -7    1.20    5.00
   2  18   8   -5.64    7.30
   2 -18   8    0.70    3.10
  -2 -18  -8    3.00    4.75
  -2  18  -8    0.50    3.63
  -2  18  -8   -1.91    4.64
   2  19  -6   25.54    7.05
  -2  19   6   16.30    4.96
  -2 -19   6   26.47    5.98
   2  19  -5    3.11    5.75
   2  19  -5    3.69    8.50
  -2 -19   5    2.21    7.11
  -2  19   5    6.57    3.63
  -2  19   5    6.57    5.95
   2  19  -4   13.29    5.78
  -2  19   4    8.49    4.21
  -2  19   4   21.20    6.58
  -2 -19   4    8.12    5.08
   2  19  -3    4.57    4.50
   2  19  -3    4.02    5.14
  -2 -19   3   -4.03    4.22
  -2  19   3    9.14    8.54
  -2  19   3    5.15    3.46
   2  19  -2   -5.61    4.60
   2  19  -2    1.71    4.11
  -2 -19   2   -0.56    6.42
  -2  19   2    3.69    3.36
  -2  19   2    1.02    4.57
   2 -19  -1   18.15    6.40
   2  19  -1   24.63    6.63
  -2 -19   1   31.86    6.44
  -2  19   1   20.06    5.31
  -2  19   1   26.93   11.90
   2 -19   0   77.73    9.78
   2  19   0   69.28   16.44
   2  19   0   76.84   12.01
  -2 -19   0   73.00   10.21
  -2  19   0   80.77   11.31
  -2  19   0   47.55   13.52
   2  19   1   78.00   10.69
   2  19   1   82.61   12.34
  -2  19  -1   86.07    9.09
  -2  19  -1   70.91   11.34
   2 -19   2    6.26    4.53
   2  19   2   11.24    6.08
   2  19   2   17.30    5.01
  -2  19  -2    4.71    4.54
  -2 -19  -2    7.49    5.24
  -2  19  -2   10.22    5.36
   2 -19   3    6.02    4.28
   2  19   3   10.81    4.65
  -2 -19  -3   12.08    5.27
  -2  19  -3    3.77    4.49
  -2  19  -3    4.42    5.16
   2  19   4   22.27    8.50
   2  19   4   22.37   10.49
   2 -19   4   29.68    6.05
  -2  19  -4   29.86    6.14
  -2  19  -4   16.54    6.45
  -2 -19  -4   24.93    7.05
   2  19   5    1.71    4.85
   2  19   5   11.70    6.30
   2 -19   5    9.59    4.27
  -2 -19  -5   10.41    5.19
  -2  19  -5    2.55    4.65
  -2  19  -5    0.28    4.53
   2 -19   6    6.21    4.15
   2  20  -2    7.65    5.22
  -2 -20   2    1.70    4.66
  -2  20   2   -1.09    6.61
   2  20  -1    4.86    5.76
   2 -20  -1   -2.63    4.27
   2  20  -1    3.34    4.43
  -2 -20   1   -0.24    4.32
  -2  20   1   -0.83    3.42
  -2  20   1    5.03    4.98
   2  20   0   11.06    6.05
   2 -20   0    9.44    5.69
   2  20   0   19.44    8.06
  -2  20   0   15.51    4.88
   2  20   1   49.73    8.17
   2  20   1   40.05   11.71
   2 -20   1   38.05    7.77
  -2 -20  -1   40.77    8.85
  -2  20  -1   42.13    7.14
  -2  20  -1   31.54    9.22
   2 -20   2    2.80    4.02
   2  20   2    1.89    7.14
  -2 -20  -2   -0.98    4.46
  -3   0  18    2.53    4.16
  -3   0  18    9.79    5.79
  -3   0  17    0.98    7.55
  -3   0  17    1.04    3.50
  -3   0  16   25.66    6.88
  -3   0  15    2.88    4.03
  -3   0  14    7.91    4.51
  -3   0  13    1.89    3.36
  -3   0  12    5.64    3.49
   3   0 -11   -1.10    1.20
  -3   0  11    3.06    4.69
   3   0 -10    7.65    1.30
  -3   0  10    8.50    3.14
   3   0  -9   79.77    8.28
   3   0  -9   74.53    2.88
  -3   0   9   79.50    6.22
   3   0  -8   36.94    1.70
   3   0  -8   38.29    5.43
  -3   0   8   32.33    3.89
   3   0  -7    0.68    2.30
   3   0  -7   -1.28    1.24
  -3   0   7   -3.85    1.96
   3   0  -6   19.54    3.03
   3   0  -6   18.67    1.11
  -3   0   6   17.23    2.60
   3   0  -5   35.52    3.67
   3   0  -5   43.96    1.45
  -3   0   5   46.78    3.09
   3   0  -4   56.16    1.59
   3   0  -4   55.25    3.44
  -3   0   4   61.85    3.20
   3   0  -3    4.36    1.43
  -3   0   3    2.61    2.10
   3   0  -2   -0.13    1.16
  -3   0   2    0.28    1.10
   3   0  -1   -0.30    1.02
   3   0   0    4.05    0.87
  -3   0   0    3.43    1.34
   3   0   1    6.96    0.74
  -3   0  -1    6.79    0.76
   3   0   2    4.23    0.54
  -3   0  -2    2.98    0.74
   3   0   3   33.53    0.83
  -3   0  -3   38.06    1.21
   3   0   4   27.01    0.79
  -3   0  -4   30.23    0.82
   3   0   5   43.49    2.37
   3   0   5   41.72    1.19
   3   0   6   33.12    1.22
   3   0   6   32.81    2.35
   3   0   7   43.78    1.72
   3   0   7   50.55    4.65
   3   0   8   13.89    1.22
   3   0   8   12.45    1.79
   3   0   8   12.07    2.19
   3   0   9   17.39    2.20
   3   0   9   14.73    2.72
   3   0   9   21.07    2.49
   3   0  10    0.89    1.11
   3   0  10    5.96    3.29
   3   0  10   -0.44    1.59
   3   0  11    4.58    2.46
   3   0  11    2.18    3.27
   3   0  11    2.53    2.29
   3   0  12   10.01    3.26
   3   0  12   11.27    2.60
   3   0  12    3.92    2.98
   3   0  13   63.97    4.98
   3   0  13   42.33    3.57
   3   0  13   53.11    6.20
   3   0  14   36.34    4.51
   3   0  14   28.35    3.21
   3   0  14   32.17    5.63
   3   0  15    0.88    3.64
   3   0  15    8.51    4.69
   3   0  15    1.11    2.05
   3   0  16   -1.64    3.36
   3   0  16   -2.24    3.77
   3   0  16    1.49    2.97
   3   0  17   -3.22    7.19
   3   0  17    0.04    2.25
   3   0  17   -3.62    3.22
   3   0  18    5.88    5.67
  -3  -1  18   18.56    4.87
  -3  -1  18   13.05    6.35
  -3   1  18    5.07    5.03
  -3   1  18   13.89    7.45
  -3  -1  17    7.46    4.99
  -3   1  17    3.59    3.93
  -3   1  17   -1.00    5.11
  -3  -1  16    6.32    4.30
  -3   1  16   -4.16    4.99
  -3   1  16    5.69    3.58
  -3   1  15   19.16    6.08
  -3  -1  15   17.88    8.75
  -3   1  14   22.47   10.44
  -3  -1  14   29.40    5.87
   3   1 -13    1.26    1.74
  -3  -1  13   -1.19    3.05
  -3   1  13    4.47    3.50
   3   1 -12  143.84    9.78
  -3  -1  12  169.67   11.63
  -3   1  12  166.34   12.92
   3   1 -11   -2.05    5.24
   3   1 -11   18.42    3.17
  -3  -1  11   12.97    5.76
  -3   1  11   18.59    6.64
   3   1 -10  227.94    8.39
   3   1 -10  220.58   17.71
  -3  -1  10  246.14   13.63
  -3   1  10  239.99   14.64
   3   1  -9   70.80    6.54
   3   1  -9   66.58    4.35
   3  -1  -9   54.22    2.05
  -3  -1   9   56.93    5.09
  -3   1   9   69.84    5.63
   3   1  -8  173.84    7.67
   3   1  -8  171.83   16.52
   3  -1  -8  167.59    4.29
  -3  -1   8  169.04    8.70
  -3   1   8  176.40    9.72
   3   1  -7   37.76    2.08
   3  -1  -7   46.29    5.26
   3   1  -7   43.49    4.45
   3  -1  -7   43.91    1.31
  -3  -1   7   41.58    3.64
  -3   1   7   54.33    6.78
   3   1  -6 1458.68   71.65
   3  -1  -6 1403.79   85.92
   3   1  -6 1325.94   76.85
   3  -1  -6 1354.53   58.01
  -3   1   6 1455.20   80.72
  -3  -1   6 1412.73   75.80
   3   1  -5  673.29   23.47
   3   1  -5  563.24   24.82
   3  -1  -5  550.52   14.72
   3  -1  -5  555.20   26.34
  -3   1   5  587.71   24.94
  -3  -1   5  588.32   23.35
   3  -1  -4  211.92    3.98
   3  -1  -4  209.57    9.26
   3   1  -4  194.48    7.98
  -3  -1   4  219.63    7.68
  -3   1   4  228.15    8.49
   3  -1  -3  918.72   41.43
   3   1  -3  929.06   39.56
  -3  -1   3  933.85   38.26
  -3   1   3  963.71   46.84
   3   1  -2  944.74   39.31
   3  -1  -2  924.30   39.64
  -3  -1   2  969.40   38.36
  -3   1   2  988.24   40.37
   3   1  -1  763.26   33.62
   3  -1  -1  752.95   28.55
  -3   1   1  757.59   32.48
  -3  -1   1  771.44   31.76
   3   1   0   41.29    1.81
   3  -1   0   33.03    1.58
  -3  -1   0   27.99    1.72
  -3   1   0   40.53    1.61
   3   1   1  461.17   13.16
   3  -1   1  449.26   11.87
  -3  -1  -1  443.35   12.51
   3   1   2 1144.19   43.40
   3  -1   2 1167.73   40.56
  -3  -1  -2 1150.63   42.93
  -3   1  -2 1153.65   38.79
   3  -1   3  391.70   12.10
   3  -1   3  393.00    8.29
  -3  -1  -3  399.30    9.94
   3   1   4  896.92   31.38
   3  -1   4  910.68   36.58
   3  -1   4  919.58   27.73
  -3  -1  -4  953.80   32.67
   3  -1   5   41.35    3.93
   3  -1   5   44.04    0.91
   3   1   5   46.39    1.51
  -3  -1  -5   48.92    2.27
   3  -1   6  269.31    6.99
   3  -1   6  284.61   10.11
   3   1   6  248.91    9.18
   3  -1   6  269.35    5.90
   3   1   7   26.39    1.55
   3   1   7   23.82    2.40
   3  -1   7   34.53    2.63
   3  -1   7   29.77    2.38
   3  -1   7   25.96    1.07
   3  -1   8  337.24   13.27
   3   1   8  316.27   12.73
   3  -1   8  313.85    8.87
   3   1   8  315.44   10.37
   3  -1   8  319.33   13.50
   3   1   9  716.87   33.82
   3   1   9  635.16   25.63
   3  -1   9  660.39   23.52
   3  -1   9  668.33   25.86
   3   1   9  663.38   30.39
   3  -1   9  657.55   31.70
   3  -1  10   49.63    2.43
   3   1  10   61.75    7.24
   3   1  10   57.56    3.27
   3  -1  10   72.66    5.03
   3  -1  10   58.49    3.23
   3   1  10   51.55    4.53
   3  -1  11  134.71    5.12
   3   1  11  152.79    8.78
   3   1  11  129.67    6.06
   3  -1  11  147.30    9.66
   3  -1  11  158.22    9.76
   3   1  11  156.41    8.83
   3   1  12  125.75    8.46
   3   1  12  119.22    8.05
   3   1  12  112.61    5.90
   3  -1  12  126.09    9.31
   3  -1  12  110.34    5.10
   3  -1  12  137.46    6.70
   3  -1  13  151.13    6.84
   3  -1  13  170.02   12.51
   3   1  13  186.31   17.38
   3   1  13  187.14   16.10
   3   1  13  141.95    7.87
   3  -1  13  176.56   13.08
   3   1  14   22.63    4.48
   3   1  14   25.39    7.06
   3   1  14   17.56    2.92
   3  -1  14   18.24    3.33
   3  -1  14   15.79    3.95
   3  -1  14   20.80    5.12
   3   1  15   31.11    6.15
   3   1  15   28.47    5.41
   3   1  15   34.01    5.99
   3  -1  15   39.48    4.34
   3  -1  15   27.63    3.23
   3  -1  15   28.54    6.49
   3   1  16   18.06    5.28
   3   1  16   15.89    4.87
   3   1  16   14.44    3.28
   3  -1  16   12.99    6.17
   3  -1  16   17.38    5.71
   3  -1  16   11.14    4.49
   3   1  17    8.22    4.93
   3   1  17   -0.51    7.53
   3   1  17    9.71    2.96
   3  -1  17   -0.20    5.72
  -3  -2  17   40.78    7.25
  -3   2  17   19.32    6.32
  -3   2  17   36.55    8.88
  -3   2  16   25.51    9.42
  -3  -2  16    4.83    4.57
  -3   2  16    7.49    4.16
  -3   2  15    6.92    3.68
  -3   2  15    8.19    5.18
  -3  -2  15    2.35    6.97
   3   2 -14   17.82    3.13
  -3   2  14   20.53    5.84
  -3  -2  14   18.59    4.84
   3   2 -13   14.32    2.58
  -3  -2  13   15.69    4.14
  -3   2  13   10.36    5.04
   3   2 -12   31.15    6.93
   3   2 -12   24.93    4.61
  -3  -2  12   26.44    4.47
  -3   2  12   17.97    5.38
   3   2 -11   45.80    7.49
   3   2 -11   40.81    5.02
  -3  -2  11   42.13    4.97
  -3   2  11   32.10    9.67
   3   2 -10   27.02    5.51
   3   2 -10   31.05    4.22
  -3  -2  10   26.44    6.13
  -3   2  10   37.08    5.11
   3   2  -9   36.17    3.91
   3   2  -9   43.39    5.06
  -3  -2   9   30.31    5.89
  -3   2   9   28.68    4.80
   3   2  -8   55.58    5.75
   3   2  -8   66.60    3.33
  -3  -2   8   69.64    4.57
  -3   2   8   70.80    5.80
   3   2  -7   56.88    7.53
   3   2  -7   62.74    2.87
  -3  -2   7   58.72    3.98
  -3   2   7   66.40    5.26
   3   2  -6  387.59   16.37
   3   2  -6  372.82   23.12
  -3   2   6  419.89   19.02
  -3  -2   6  392.71   15.87
   3   2  -5 1374.55   82.92
   3   2  -5 1356.71   64.27
  -3   2   5 1482.00   80.70
  -3  -2   5 1462.20   82.13
   3   2  -4  504.24   19.41
   3  -2  -4  440.74   21.70
  -3  -2   4  534.40   18.56
  -3   2   4  528.07   20.98
   3   2  -3 1694.36   89.36
   3  -2  -3 1734.53   99.73
  -3  -2   3 1666.59   84.43
  -3   2   3 1644.88   98.59
   3   2  -2  270.54    8.98
   3  -2  -2  292.42   11.09
  -3   2   2  287.85   13.13
  -3  -2   2  295.16    8.93
   3   2  -1 2316.60  135.81
   3  -2  -1 2318.40  142.19
   3  -2  -1 2326.51  120.96
  -3  -2   1 2371.75  136.21
  -3   2   1 2331.34  137.84
   3  -2   0  347.61   10.63
   3   2   0  338.69   10.79
   3  -2   0  341.78    8.43
  -3  -2   0  322.20    9.84
  -3   2   0  341.19    9.78
   3  -2   1 4842.81  388.89
   3   2   1 4432.36  359.56
   3  -2   1 4572.74  368.16
  -3  -2  -1 4292.17  355.89
   3   2   2 2111.85  112.66
   3  -2   2 2202.31  120.10
  -3   2  -2 2119.06  100.92
  -3  -2  -2 2157.84  114.12
   3   2   3  329.26    9.23
   3  -2   3  350.63   10.70
  -3  -2  -3  347.96    9.25
   3   2   4 1610.89   77.14
   3  -2   4 1674.19   91.40
  -3  -2  -4 1612.17   80.25
   3  -2   5  276.00    9.82
   3  -2   5  279.04    4.49
   3   2   5  261.45    7.85
  -3  -2  -5  271.44    9.52
   3   2   6  687.21   25.08
   3  -2   6  697.03   29.12
   3  -2   6  668.95   18.99
   3  -2   6  699.14   20.54
  -3  -2  -6  724.01   28.33
   3  -2   7   30.51    2.72
   3   2   7   21.72    1.81
   3  -2   7   26.77    0.82
   3  -2   7   24.50    0.96
   3   2   8  186.05    7.69
   3   2   8  173.08    6.47
   3  -2   8  183.65    4.68
   3  -2   8  185.67    8.51
   3  -2   8  174.65    5.32
   3   2   9   16.37    3.32
   3  -2   9   19.58    1.40
   3   2   9   18.22    2.48
   3  -2   9   12.82    3.09
   3  -2   9   17.25    1.09
   3   2  10  480.85   21.83
   3  -2  10  485.33   24.52
   3  -2  10  487.66   20.11
   3  -2  10  430.39   14.25
   3   2  10  496.74   25.79
   3   2  10  440.10   18.93
   3   2  11   12.87    2.19
   3   2  11   13.72    3.36
   3   2  11   14.07    4.70
   3  -2  11   13.67    1.71
   3  -2  11   13.63    6.03
   3  -2  11    9.12    2.25
   3   2  12  144.04    9.47
   3   2  12  166.80   16.04
   3  -2  12  142.25    7.85
   3  -2  12  170.32   11.44
   3   2  12  136.29    7.33
   3  -2  12  149.68    6.69
   3  -2  13  118.61    5.40
   3   2  13  130.10    7.42
   3   2  13  172.23   16.72
   3   2  13  148.04    9.48
   3  -2  13  132.49    9.63
   3  -2  13  154.82   17.56
   3   2  14   -3.28    3.63
   3   2  14    6.70    3.41
   3  -2  14    4.48    1.98
   3  -2  14    1.12    3.76
   3  -2  14    2.24    1.59
   3   2  14    5.50    5.00
   3   2  15   64.73    5.93
   3   2  15   79.61    8.14
   3  -2  15   61.72    4.28
   3  -2  15  101.53    9.81
   3   2  15   94.89    8.90
   3  -2  15   70.70    8.32
   3  -2  16   14.03    5.57
   3   2  16   20.55    4.82
   3   2  16    7.39    3.05
   3   2  16   13.44    4.49
   3  -2  16    5.96    2.20
   3  -2  16    4.88    2.62
   3   2  17   10.17    3.61
   3   2  17   15.33    9.53
   3   2  17   23.15    8.85
   3  -2  17   12.25    6.62
  -3   3  17    9.79    6.43
  -3  -3  17    8.82    4.64
  -3   3  17    2.83    4.48
  -3   3  16   38.51    7.58
  -3   3  16   23.75    5.18
  -3  -3  16    3.37    5.42
   3   3 -15    4.02    2.80
  -3   3  15    3.44    8.42
  -3  -3  15    9.19    6.13
  -3   3  15    0.34    5.84
   3   3 -14    5.18    2.43
  -3  -3  14    4.45    3.49
  -3   3  14    4.06    3.34
  -3   3  14    4.06    4.68
   3   3 -13    2.77    5.08
   3   3 -13    2.25    2.25
  -3  -3  13    6.63    3.02
  -3   3  13    2.57    3.01
  -3   3  13    9.20    6.84
   3   3 -12  121.93   14.77
   3   3 -12  138.23   11.11
  -3  -3  12  146.72    9.66
  -3   3  12  136.94   13.16
   3   3 -11    6.18    4.41
   3   3 -11    8.81    2.14
  -3  -3  11    6.36    2.88
  -3   3  11   18.41    4.35
   3   3 -10   12.52    4.69
   3   3 -10   24.16    2.45
  -3  -3  10   15.59    3.18
  -3   3  10   26.58    4.74
   3   3  -9  121.60    5.88
   3   3  -9  129.53    9.50
  -3  -3   9  141.43    7.21
  -3   3   9  138.89   10.07
   3   3  -8  549.77   28.63
   3   3  -8  527.83   26.48
  -3  -3   8  558.87   24.36
  -3   3   8  570.36   31.05
   3   3  -7   59.26    4.50
   3   3  -7   54.85    3.10
  -3  -3   7   50.54    3.63
  -3   3   7   64.36    5.43
   3   3  -6   56.20    2.95
   3   3  -6   51.70    4.18
  -3  -3   6   61.45    3.29
  -3   3   6   51.93    5.02
   3   3  -5  162.59    7.92
   3   3  -5  150.28    6.88
  -3  -3   5  148.24    5.70
  -3   3   5  133.37   12.40
   3   3  -4  156.63    6.43
  -3  -3   4  168.18    5.93
  -3   3   4  169.98    7.91
   3   3  -3 1469.34   74.30
  -3   3   3 1555.16   83.97
  -3  -3   3 1500.53   72.65
   3   3  -2   -0.37    1.10
   3  -3  -2    0.71    0.32
  -3  -3   2   -0.25    1.00
  -3   3   2    1.25    1.31
   3  -3  -1   16.66    1.25
   3   3  -1   18.06    2.64
  -3  -3   1   16.95    1.42
  -3   3   1   21.83    2.99
  -3   3   1   19.03    0.72
   3   3   0   21.38    1.52
   3  -3   0   18.56    1.03
  -3   3   0   21.16    0.96
  -3  -3   0   15.50    1.29
  -3   3   0   16.07    1.58
   3   3   1  500.13   15.93
   3  -3   1  508.49   15.42
  -3  -3  -1  487.85   14.91
  -3   3  -1  522.15   17.89
  -3   3  -1  499.56   14.59
   3   3   2  388.16   11.40
   3  -3   2  362.60   11.13
  -3  -3  -2  373.50   10.77
  -3   3  -2  379.43   10.85
  -3   3  -2  391.94    8.22
  -3   3  -2  372.76    8.87
   3   3   3  493.97   15.71
   3  -3   3  491.75   16.61
  -3   3  -3  498.67   10.02
  -3  -3  -3  491.68   15.24
  -3   3  -3  465.31   15.18
   3  -3   4  360.68   12.57
   3   3   4  342.23   10.87
  -3  -3  -4  363.06   10.69
  -3   3  -4  355.71   11.46
   3  -3   5   63.76    3.41
   3   3   5   56.71    2.60
  -3   3  -5   63.57    4.55
  -3  -3  -5   56.20    2.42
   3   3   6  624.24   23.94
   3  -3   6  625.57   14.61
   3  -3   6  651.02   34.40
   3  -3   6  665.32   15.41
  -3  -3  -6  638.12   23.20
  -3   3  -6  645.77   25.81
   3  -3   7  178.14    3.14
   3   3   7  173.72    9.53
   3  -3   7  195.78    8.88
   3  -3   7  184.72    3.31
  -3   3  -7  183.77    7.40
  -3  -3  -7  190.80    6.47
   3   3   8  216.85    8.21
   3  -3   8  218.79   10.55
   3  -3   8  203.10    5.04
   3  -3   8  204.35    5.36
  -3   3  -8  230.46    9.06
   3  -3   9  102.46    2.65
   3   3   9  113.02    5.20
   3   3   9  115.77    5.78
   3  -3   9  101.86    3.35
   3  -3   9  130.41   11.28
   3  -3  10   61.84    3.04
   3  -3  10   76.41    6.35
   3  -3  10   67.11    3.44
   3   3  10   68.44    4.75
   3   3  10   67.70    4.35
   3   3  11  549.71   31.53
   3   3  11  510.58   24.36
   3   3  11  451.50   27.37
   3  -3  11  459.64   15.60
   3  -3  11  528.22   29.32
   3  -3  11  487.98   19.62
   3  -3  12    3.97    2.02
   3   3  12    9.55    3.60
   3   3  12    4.21    4.29
   3   3  12   10.02    5.69
   3  -3  12    2.12    3.60
   3  -3  12    5.53    1.19
   3  -3  13   14.61    4.50
   3   3  13   12.31    3.31
   3   3  13   14.78    7.22
   3   3  13    7.01    2.75
   3  -3  13    9.49    2.54
   3  -3  13   12.10    1.66
   3   3  14   12.99    4.46
   3   3  14    8.94    3.43
   3   3  14    6.07    2.82
   3  -3  14    7.26    1.65
   3  -3  14   16.36    7.52
   3  -3  14   10.78    1.85
   3   3  15    1.28    3.22
   3   3  15   -0.31    2.51
   3  -3  15    7.34    4.42
   3  -3  15    0.89    2.41
   3  -3  15    2.48    2.77
   3   3  15    4.77    4.13
   3   3  16   13.35    7.58
   3   3  16   13.41    3.61
   3   3  16   16.74    5.86
   3  -3  16    7.89    6.44
   3   3  17   16.38   11.82
   3   3  17   20.09    7.37
   3  -3  17   25.24    7.97
  -3  -4  17   13.54    6.08
  -3   4  17   36.50    8.73
  -3   4  17   20.22    6.08
   3   4 -16    3.61    3.58
  -3   4  16   17.00    6.59
  -3  -4  16    8.84    4.44
  -3   4  16    8.91    4.49
   3   4 -15   89.94    7.35
  -3  -4  15   95.72   14.11
  -3   4  15   95.02   13.13
  -3   4  15   70.01    9.16
   3   4 -14    1.62    5.64
   3   4 -14    5.05    4.31
  -3  -4  14    5.28    3.16
  -3   4  14    2.62    4.99
  -3   4  14    0.67    3.31
   3   4 -13   16.05    2.92
   3   4 -13    7.67    6.29
  -3  -4  13    7.81    3.57
  -3   4  13   12.39    3.88
  -3   4  13   10.74    5.51
   3   4 -12  107.63    6.70
   3   4 -12  101.77   11.56
  -3  -4  12  108.21    7.36
  -3   4  12  127.89   19.25
  -3   4  12   99.50    8.48
   3   4 -11   21.55    3.09
   3   4 -11   35.02    5.53
  -3  -4  11   25.15    3.51
  -3   4  11   27.53    5.96
  -3   4  11   17.68    3.94
   3   4 -10   67.01    7.06
   3   4 -10   59.63    4.36
  -3  -4  10   59.60    4.85
  -3   4  10   67.71    7.72
   3   4  -9  581.44   25.87
   3   4  -9  562.25   33.05
  -3  -4   9  596.92   27.47
  -3   4   9  673.55   39.31
   3   4  -8  121.19    5.84
   3   4  -8  121.47    8.19
  -3  -4   8  136.34    9.48
  -3   4   8  146.03   10.06
   3   4  -7   36.43    2.88
   3   4  -7   39.47    3.85
  -3  -4   7   31.92    3.03
  -3   4   7   47.55    4.98
   3   4  -6  220.60   10.20
   3   4  -6  213.70    8.38
  -3  -4   6  242.45    9.21
  -3   4   6  253.45   13.31
   3   4  -5  445.45   18.34
   3   4  -5  415.59   15.95
  -3  -4   5  436.10   16.16
  -3   4   5  525.71   32.93
   3   4  -4  169.60    7.03
  -3  -4   4  189.19    6.73
  -3   4   4  197.23   10.48
   3   4  -3  104.40    4.35
  -3   4   3  101.13    1.48
  -3   4   3  112.61    6.09
  -3  -4   3  101.38    3.92
   3   4  -2   74.30    3.47
   3  -4  -2   81.49    1.86
  -3  -4   2   82.26    3.12
  -3   4   2   81.11    1.54
   3   4  -1   69.99    3.05
   3  -4  -1   72.52    2.03
  -3   4   1   70.44    2.44
  -3  -4   1   66.47    4.17
  -3   4   1   70.13    1.72
   3  -4   0  394.20   13.68
   3   4   0  387.07   12.62
  -3  -4   0  388.18   12.10
  -3   4   0  388.94   12.63
  -3   4   0  387.39   10.41
   3  -4   1  453.21   14.52
   3   4   1  442.15   14.55
  -3  -4  -1  452.54   14.14
  -3   4  -1  456.57   12.17
  -3   4  -1  442.35   13.15
   3  -4   2 2690.78  171.02
   3   4   2 2511.32  166.84
  -3   4  -2 2713.18  152.77
  -3  -4  -2 2603.88  162.32
  -3   4  -2 2575.15  159.11
   3   4   3  445.81   15.58
   3  -4   3  457.30   20.55
  -3   4  -3  474.51   10.62
  -3  -4  -3  474.87   18.49
  -3   4  -3  457.12   15.22
   3   4   4  131.84    4.78
   3  -4   4  148.16    8.00
  -3   4  -4  146.04    4.97
  -3   4  -4  125.50    1.71
  -3  -4  -4  141.19    4.54
   3  -4   5  121.47    8.55
   3   4   5  106.81    4.38
  -3   4  -5  117.66    7.12
  -3  -4  -5  105.21    4.15
   3   4   6  464.31   22.44
   3  -4   6  520.08   22.08
  -3  -4  -6  488.27   17.58
  -3   4  -6  450.40   17.98
   3  -4   7  108.01    1.85
   3   4   7  109.43    5.20
   3  -4   7  123.00    6.79
   3  -4   7  115.74    2.00
  -3   4  -7  119.40    5.27
  -3  -4  -7  129.23    7.07
   3   4   8  111.73    7.84
   3  -4   8  100.23    2.33
   3  -4   8  111.58    2.55
   3  -4   8  124.16    7.25
  -3   4  -8  120.14    8.62
   3   4   9  107.96    5.53
   3  -4   9  101.40    2.26
   3  -4   9  113.03    7.57
   3  -4   9   95.24    2.05
  -3   4  -9  101.86    5.81
   3  -4  10    7.17    3.02
   3   4  10    6.93    2.04
   3   4  10    8.72    2.08
   3  -4  10    2.49    0.72
   3  -4  10    2.12    1.05
  -3   4 -10    7.14    2.26
   3   4  11   13.81    2.68
   3   4  11   11.73    2.80
   3  -4  11    7.24    4.12
   3  -4  11    9.70    1.76
   3  -4  11   14.57    1.08
   3  -4  12  114.89    5.56
   3  -4  12  152.94   11.41
   3   4  12  121.31   12.59
   3   4  12  127.46    7.53
   3   4  12  148.98    8.26
   3  -4  12  119.46    3.99
   3  -4  13   35.63    6.98
   3   4  13   48.76    6.81
   3   4  13   37.71    7.51
   3  -4  13   34.70    2.08
   3  -4  13   37.15    2.12
   3   4  13   42.65    4.35
   3   4  14   18.97    3.68
   3   4  14   25.99   10.37
   3   4  14   29.86    6.59
   3  -4  14   16.92    2.95
   3  -4  14   18.70    1.78
   3  -4  14   31.35    6.36
   3  -4  15    5.21    5.25
   3   4  15    5.70    5.28
   3   4  15    4.45    3.06
   3   4  15    7.41    3.47
   3   4  16    5.37    5.86
   3   4  16    7.45    5.93
   3  -4  16   12.64    6.17
   3   4  17    4.07    5.56
   3   4  17    2.19    3.40
   3  -4  17    7.91    5.87
   3   5 -17   14.66    4.38
  -3   5  17    5.68    5.18
  -3  -5  17    2.62    4.63
  -3   5  17   14.25    7.59
   3   5 -16   11.47    3.85
  -3   5  16   10.15    4.97
  -3  -5  16   10.03    4.46
  -3   5  16    4.49    7.29
   3   5 -15    5.23    3.03
  -3  -5  15   -0.24    5.98
  -3   5  15    2.65    5.87
  -3   5  15    1.93    6.49
   3   5 -14    2.18    2.75
   3   5 -14    3.70    5.26
  -3   5  14   -0.96    3.40
  -3  -5  14    4.68    3.15
  -3   5  14    3.99    5.04
   3   5 -13   86.01    7.03
   3   5 -13   84.61   11.96
  -3  -5  13   99.42    7.86
  -3   5  13   74.45    8.44
  -3   5  13  116.85   12.65
   3   5 -12   77.03    5.96
   3   5 -12   69.36    9.53
  -3  -5  12   81.75    6.24
  -3   5  12   67.54    7.32
  -3   5  12  100.32   10.83
   3   5 -11   69.95    8.91
   3   5 -11   68.91    8.72
  -3  -5  11   85.39    6.03
  -3   5  11   62.26   10.89
  -3   5  11   90.39   10.38
   3   5 -10   96.21    9.06
   3   5 -10  106.72    9.68
  -3  -5  10  102.69    6.63
  -3   5  10  101.46    7.40
  -3   5  10  121.08   11.34
   3   5  -9    8.66    3.06
   3   5  -9    7.01    2.13
  -3   5   9    5.39    2.56
  -3  -5   9    2.50    3.54
  -3   5   9    6.30    6.82
   3   5  -8  340.06   17.15
   3   5  -8  296.41   13.02
  -3  -5   8  323.58   13.51
  -3   5   8  305.36   14.72
  -3   5   8  342.21   21.28
   3   5  -7   25.02    2.91
   3   5  -7   32.89    3.68
  -3   5   7   34.73    8.04
  -3  -5   7   38.95    2.88
  -3   5   7   30.47    3.22
   3   5  -6   27.46    2.98
   3   5  -6   20.87    4.16
  -3  -5   6   25.50    2.31
  -3   5   6   21.11    4.51
  -3   5   6   19.44    2.60
   3   5  -5  392.39   15.69
  -3  -5   5  409.15   19.84
  -3   5   5  385.45   15.72
  -3   5   5  458.97   23.48
   3   5  -4  403.16   16.09
  -3  -5   4  409.73   15.19
  -3   5   4  377.14   15.21
  -3   5   4  454.67   10.10
   3   5  -3  835.89   36.51
  -3   5   3  876.08   28.45
  -3   5   3  816.77   34.54
  -3  -5   3  845.33   34.61
   3   5  -2  897.97   38.20
  -3  -5   2  889.72   36.09
  -3   5   2  892.92   32.10
  -3   5   2  872.90   35.67
   3   5  -1 1653.68   97.27
   3  -5  -1 1754.74   86.90
  -3  -5   1 1729.68   89.70
  -3   5   1 1721.57   85.49
  -3   5   1 1715.74   87.83
   3  -5   0  811.44   33.94
   3   5   0  754.10   29.92
  -3   5   0  758.75   26.27
  -3  -5   0  750.31   28.52
  -3   5   0  769.92   27.54
   3  -5   1  950.60   38.50
   3   5   1  882.13   41.55
  -3   5  -1  855.57   32.94
  -3  -5  -1  890.53   35.64
  -3   5  -1  907.15   32.96
   3   5   2  188.55    6.59
   3  -5   2  181.81    6.89
  -3  -5  -2  180.74    6.09
  -3   5  -2  190.97    4.42
  -3   5  -2  184.70    8.16
   3  -5   3   28.10    2.54
   3  -5   3   28.70    0.90
   3   5   3   25.57    2.19
  -3   5  -3   26.80    2.10
  -3  -5  -3   27.66    2.03
  -3   5  -3   30.87    0.92
   3   5   4  198.60    7.65
   3  -5   4  206.66    8.84
   3  -5   4  208.06    3.94
  -3   5  -4  200.39    3.87
  -3   5  -4  203.56    7.60
  -3  -5  -4  220.73    7.50
   3  -5   5  236.01    4.78
   3  -5   5  243.28   10.89
   3   5   5  237.01    8.98
  -3   5  -5  246.44    9.06
  -3  -5  -5  220.96   11.52
   3   5   6  239.99    9.38
   3  -5   6  234.72    3.99
   3  -5   6  240.09   11.37
  -3  -5  -6  246.94    9.00
  -3   5  -6  237.73    9.37
  -3   5  -6  213.88    5.00
   3  -5   7  169.05    8.92
   3   5   7  164.79    7.07
   3  -5   7  150.49    2.83
  -3  -5  -7  150.84    6.31
  -3   5  -7  148.83    3.09
  -3   5  -7  150.69   10.34
   3   5   8    5.72    1.73
   3  -5   8    0.87    0.53
   3  -5   8   -0.70    2.42
  -3  -5  -8    1.08    1.57
  -3   5  -8    1.08    1.75
   3   5   9   89.94    8.53
   3  -5   9   83.88    2.39
   3  -5   9   77.71    7.24
  -3   5  -9   90.28    5.41
   3  -5  10  128.13    9.28
   3   5  10  111.87   10.33
   3  -5  10   96.97    3.10
   3  -5  10  109.66    3.37
  -3   5 -10  101.81    6.79
   3   5  11   94.56    6.25
   3   5  11   96.82    5.72
   3  -5  11   84.33    3.27
   3  -5  11  105.33    9.17
   3  -5  11   69.19    2.08
  -3   5 -11   84.70    6.29
   3   5  12   24.49    3.68
   3   5  12   34.94    3.65
   3  -5  12   29.80    6.09
   3  -5  12   23.30    1.37
   3  -5  12   23.06    1.34
   3   5  13    8.78    4.52
   3   5  13   -2.06    2.35
   3   5  13    0.86    2.38
   3  -5  13    1.13    3.83
   3  -5  13    0.64    0.85
   3  -5  13    0.50    0.83
   3  -5  14    2.74    1.78
   3  -5  14    3.55    0.96
   3   5  14    9.47    5.02
   3   5  14    9.80    2.98
   3   5  14    4.35    4.82
   3  -5  14   13.14    8.13
   3  -5  15   -0.64    5.28
   3   5  15    6.41    5.06
   3   5  15    6.72    8.78
   3   5  15    3.68    3.27
   3  -5  16   -0.79    5.56
   3   5  16    8.38    3.33
   3   5  16   -7.93    5.67
   3   5  17    9.28    4.04
   3   5  17    4.84    6.89
   3   6 -17   -3.37    6.63
  -3   6  17    3.02    4.81
  -3  -6  17    4.83    4.07
  -3   6  17    7.56    6.94
   3   6 -16    3.68    3.84
  -3  -6  16    6.87    3.97
  -3   6  16    7.89    7.19
  -3   6  16    7.26    4.72
   3   6 -15   29.85   10.40
   3   6 -15   53.78    5.78
  -3  -6  15    6.05    9.69
  -3   6  15   34.82    7.07
  -3   6  15   41.56   10.65
   3   6 -14    2.63    4.63
   3   6 -14    0.33    2.69
  -3   6  14   -0.11    5.25
  -3   6  14   -4.84    3.43
  -3  -6  14   -0.25    4.67
   3   6 -13   36.51    4.45
   3   6 -13   33.54    7.78
  -3  -6  13   34.08    4.52
  -3   6  13   25.47    9.10
  -3   6  13   22.25    8.45
   3   6 -12   26.13    3.88
   3   6 -12   17.49    9.62
  -3  -6  12   28.28    3.77
  -3   6  12   34.64    7.55
  -3   6  12   21.34    4.80
   3   6 -11   86.75    6.26
   3   6 -11   81.17   13.94
  -3  -6  11   77.07    9.27
  -3   6  11   93.93   11.40
  -3   6  11   77.12    7.35
   3   6 -10   15.60    3.45
   3   6 -10   20.10    7.28
  -3  -6  10   31.29    5.20
  -3   6  10   20.59    3.90
  -3   6  10   24.83    6.29
   3   6  -9  314.55   14.89
   3   6  -9  311.51   25.69
  -3   6   9  286.90   15.86
  -3   6   9  333.51   24.02
  -3  -6   9  309.83   14.38
   3   6  -8   36.67    3.69
   3   6  -8   34.64    4.36
  -3   6   8   33.18    3.91
  -3   6   8   51.52    6.92
  -3  -6   8   35.24    3.30
   3   6  -7  154.80    7.56
   3   6  -7  156.74    8.92
  -3   6   7  146.59    7.91
  -3   6   7  173.09   13.20
  -3  -6   7  170.70   10.24
   3   6  -6   28.43    3.28
   3   6  -6   30.68    3.06
  -3   6   6   23.80    3.10
  -3   6   6   30.65    0.66
  -3  -6   6   36.73    2.66
   3   6  -5    5.76    2.05
   3   6  -5    9.44    3.39
  -3  -6   5    7.80    1.71
  -3   6   5    9.60    1.98
  -3   6   5    8.38    0.67
   3   6  -4  504.74   21.29
  -3  -6   4  514.77   19.18
  -3   6   4  510.69   20.72
   3   6  -3 1428.89   75.74
  -3   6   3 1398.68   80.90
  -3   6   3 1476.73   63.29
  -3  -6   3 1485.62   82.20
   3   6  -2  129.49    5.86
  -3  -6   2  130.07    5.28
  -3   6   2  139.78    5.43
  -3   6   2  148.69    3.82
   3   6  -1  621.29   24.77
   3  -6  -1  657.37   23.34
  -3  -6   1  607.55   23.16
  -3   6   1  559.72   21.75
  -3   6   1  629.00   23.22
   3  -6   0  136.54    5.07
   3   6   0  126.13    7.68
  -3  -6   0  120.64    4.84
  -3   6   0  125.71    4.03
  -3   6   0  125.28    4.25
   3   6   1  201.75    7.61
   3  -6   1  205.89    5.82
   3  -6   1  208.15    7.87
  -3   6  -1  193.16    6.47
  -3  -6  -1  204.62    7.16
  -3   6  -1  207.42    6.02
   3   6   2  606.23   24.45
   3  -6   2  617.38   19.87
   3  -6   2  669.45   33.06
  -3  -6  -2  632.01   24.09
  -3   6  -2  593.41   22.40
  -3   6  -2  618.96   20.34
   3   6   3 1488.99   79.37
   3  -6   3 1583.81   87.53
   3  -6   3 1504.60   67.22
  -3   6  -3 1521.15   67.90
  -3   6  -3 1467.51   75.71
  -3  -6  -3 1532.48   79.44
   3   6   4  613.68   25.40
   3  -6   4  664.24   29.52
   3  -6   4  614.63   18.00
  -3   6  -4  617.14   24.45
  -3   6  -4  593.35   19.16
  -3  -6  -4  613.18   24.64
   3  -6   5   66.62    4.71
   3   6   5   52.79    3.53
   3  -6   5   56.75    1.33
  -3  -6  -5   51.43    5.26
  -3   6  -5   52.40    1.39
  -3   6  -5   59.68    3.48
   3   6   6  506.18   21.91
   3  -6   6  529.41   14.68
   3  -6   6  539.63   26.24
  -3  -6  -6  519.20   21.05
  -3   6  -6  492.44   26.69
  -3   6  -6  499.87   13.84
   3   6   7    6.95    3.55
   3  -6   7    5.77    3.05
   3  -6   7    8.08    0.48
  -3   6  -7    9.05    0.74
  -3  -6  -7    7.87    1.92
  -3   6  -7    8.06    2.13
   3   6   8    1.70    1.99
   3  -6   8    2.69    0.69
   3  -6   8    5.13    2.91
  -3  -6  -8   -0.40    1.77
  -3   6  -8    2.90    1.08
  -3   6  -8    1.91    1.98
   3   6   9   62.23    4.95
   3  -6   9   65.55    7.18
   3  -6   9   58.81    1.37
  -3   6  -9   64.33    4.88
   3  -6  10  336.26   22.18
   3   6  10  292.74   16.08
   3  -6  10  314.99    8.88
  -3   6 -10  306.28   15.47
   3  -6  11   60.21    2.49
   3  -6  11   56.40    1.61
   3   6  11   54.45    5.69
   3  -6  11   65.06    8.32
  -3   6 -11   79.95    8.79
   3   6  12    7.64    2.75
   3  -6  12    9.69    7.03
   3  -6  12    4.69    1.11
   3   6  12   11.33    4.09
   3  -6  12    2.16    0.76
  -3   6 -12   10.89    2.80
   3  -6  13  243.45   18.82
   3   6  13  206.23   12.42
   3   6  13  222.91   11.73
   3  -6  13  180.86    6.89
   3  -6  13  162.61    6.30
   3  -6  14  106.29   13.49
   3   6  14   78.11    8.65
   3   6  14  109.60    8.44
   3   6  14  140.19   15.93
   3   6  15   52.78    6.26
   3  -6  15   33.52   10.27
   3   6  15   36.55    6.51
   3   6  15   82.31   11.08
   3   6  16    2.11    3.22
   3  -6  16   -2.33    5.61
   3   6  16    0.05    5.53
   3   6  17   14.78    4.77
   3   6  17   14.63   14.40
   3  -6  17   10.14    8.50
   3   7 -16    7.06    6.51
   3   7 -16    6.15    6.69
  -3  -7  16    5.26    3.64
  -3   7  16    1.77    4.75
  -3   7  16   -3.13    7.20
   3   7 -15    5.77    3.89
   3   7 -15    7.64   10.98
  -3   7  15    7.39    4.76
  -3   7  15   13.78    7.14
  -3  -7  15    1.46    5.85
   3   7 -14   15.83    4.22
   3   7 -14    7.94    7.01
  -3   7  14   17.32    5.22
  -3  -7  14   10.48    6.71
  -3   7  14   32.94    7.94
   3   7 -13   10.82    5.49
   3   7 -13    9.95    3.29
  -3  -7  13    5.61    4.90
  -3   7  13   11.45    4.06
  -3   7  13    0.22    6.59
   3   7 -12   25.60    6.56
   3   7 -12   29.13    6.07
  -3  -7  12   19.85    6.04
  -3   7  12   20.46    7.86
  -3   7  12   20.88    5.05
   3   7 -11  137.65    9.01
   3   7 -11  126.04   12.27
  -3  -7  11  159.71   12.32
  -3   7  11  180.60   16.54
  -3   7  11  127.57   11.01
   3   7 -10   19.98    4.36
   3   7 -10   10.89    3.37
  -3  -7  10   23.59    2.96
  -3   7  10   15.84    6.25
  -3   7  10   10.30    4.00
   3   7  -9   50.55    6.34
   3   7  -9   60.75    5.02
  -3   7   9   67.94    9.69
  -3   7   9   42.08    9.03
  -3  -7   9   60.01    4.42
   3   7  -8   58.40    4.74
   3   7  -8   58.92    8.31
  -3   7   8   61.19    8.57
  -3   7   8   53.40    8.21
  -3  -7   8   45.26    4.06
   3   7  -7   75.55    6.02
   3   7  -7   80.63    5.50
  -3   7   7   66.35    8.81
  -3   7   7   82.90    1.35
  -3  -7   7   85.14    4.65
   3   7  -6   68.20    5.08
   3   7  -6   80.41    5.33
  -3   7   6   79.20    1.64
  -3   7   6   66.27    5.21
  -3  -7   6   80.98    4.31
   3   7  -5   14.95    2.48
   3   7  -5   16.62    2.55
  -3  -7   5   17.29    2.03
  -3   7   5   16.60    2.50
  -3   7   5   14.23    0.84
   3   7  -4   43.45    5.21
  -3  -7   4   39.95    2.74
  -3   7   4   40.87    2.15
  -3   7   4   32.98    3.26
   3   7  -3   30.80    2.97
  -3   7   3   33.45    1.49
  -3  -7   3   32.04    2.53
  -3   7   3   32.11    4.54
   3   7  -2  199.13    8.33
  -3  -7   2  193.82    7.41
  -3   7   2  195.47    7.49
  -3   7   2  187.02    7.58
   3   7  -1   64.95    6.03
  -3  -7   1   67.44    3.51
  -3   7   1   62.45    3.35
  -3   7   1   67.28    2.71
   3   7   0  640.17   27.05
   3  -7   0  668.33   27.67
  -3  -7   0  675.55   26.82
  -3   7   0  644.55   24.97
  -3   7   0  649.41   24.31
   3   7   1  145.05    6.59
   3  -7   1  147.22    4.83
   3  -7   1  165.23    7.14
  -3  -7  -1  150.37    6.08
  -3   7  -1  142.79    5.33
  -3   7  -1  148.05    4.98
   3  -7   2  400.66   22.47
   3   7   2  367.76   14.83
   3  -7   2  372.84   11.41
  -3  -7  -2  366.17   14.25
  -3   7  -2  381.42   13.76
  -3   7  -2  368.58   11.56
   3   7   3  939.96   44.06
   3  -7   3  995.15   48.81
   3  -7   3  932.78   38.75
  -3  -7  -3  922.88   42.07
  -3   7  -3  902.26   40.43
  -3   7  -3  952.90   36.60
   3   7   4  135.18    9.77
   3  -7   4  142.26    4.88
   3  -7   4  150.77    7.94
  -3  -7  -4  127.12    6.02
  -3   7  -4  136.13    3.58
  -3   7  -4  127.75    5.90
   3   7   5   44.45    3.66
   3  -7   5   45.27    1.48
   3  -7   5   43.36    4.53
  -3   7  -5   42.95    2.35
  -3  -7  -5   47.01    5.10
  -3   7  -5   47.78    5.30
   3   7   6    1.39    1.87
   3  -7   6    1.42    0.58
   3  -7   6    3.35    4.10
  -3  -7  -6   -1.49    2.67
  -3   7  -6    3.25    1.75
  -3   7  -6    1.51    0.66
   3   7   7  150.83    7.95
   3  -7   7  146.88    3.30
   3  -7   7  145.99   15.64
  -3   7  -7  140.34    3.80
  -3  -7  -7  144.25   10.49
  -3   7  -7  138.93    7.57
   3   7   8  101.69   10.72
   3  -7   8  114.58   14.89
   3  -7   8  109.37    3.26
  -3  -7  -8  110.01    9.42
  -3   7  -8  101.80    4.24
  -3   7  -8  103.70    6.66
   3   7   9   31.04    4.05
   3  -7   9   28.60    8.97
   3  -7   9   28.27    1.04
  -3   7  -9   30.90    3.73
  -3   7  -9   25.31    1.52
   3   7  10   48.05    4.88
   3  -7  10   40.42    1.35
   3  -7  10   59.45    7.02
  -3   7 -10   36.72    4.57
   3  -7  11   77.24    9.70
   3  -7  11   70.97    2.03
   3   7  11   76.84    6.73
  -3   7 -11   77.15    6.30
   3  -7  12   69.24    8.55
   3   7  12   51.49    5.73
   3   7  12   60.91    4.90
   3  -7  12   41.37    2.04
   3  -7  12   48.41    2.41
  -3   7 -12   53.67    9.01
   3  -7  13    2.83    1.25
   3   7  13    8.40    3.40
   3  -7  13    6.62    0.70
   3  -7  13   14.59    5.10
   3   7  13    8.50    2.90
  -3   7 -13   13.67    3.43
   3  -7  14   13.29    9.51
   3   7  14    2.43    3.52
   3   7  14   11.86    6.58
   3   7  14    4.70    3.09
   3   7  15    2.91   10.92
   3   7  15    0.78    3.13
   3  -7  15   14.48    5.86
   3   7  15    1.66    3.61
   3  -7  16   -0.27    6.61
   3   7  16    3.36    6.67
   3   7  16    5.37    3.96
   3   8 -16    7.54    6.83
   3   8 -16    3.37    4.09
  -3   8  16    8.21    7.65
  -3  -8  16    1.86    3.56
  -3   8  16    3.24    4.96
   3   8 -15    3.64    3.61
   3   8 -15    2.20    5.40
  -3   8  15    1.66    6.44
  -3   8  15   -1.43    4.28
  -3  -8  15    1.78    4.94
   3   8 -14   -0.71    4.70
   3   8 -14    1.04    2.94
  -3   8  14    3.26    6.15
  -3   8  14    0.16    3.88
  -3  -8  14    1.97    4.47
   3   8 -13   12.27    3.62
   3   8 -13   16.56    5.59
  -3  -8  13    4.60    5.38
  -3   8  13    1.54    4.48
  -3   8  13   30.34    7.13
   3   8 -12   14.74    5.47
   3   8 -12   14.29    3.79
  -3  -8  12   12.21    5.12
  -3   8  12   26.84    7.43
  -3   8  12   11.12    7.29
   3   8 -11   26.47    5.79
   3   8 -11   32.12    7.32
  -3  -8  11   27.61    3.69
  -3   8  11   38.36    8.31
  -3   8  11   30.45    8.68
   3   8 -10   23.28    4.14
   3   8 -10   31.19    5.43
  -3  -8  10   33.25    3.61
  -3   8  10   34.36    5.09
  -3   8  10   38.45    8.66
   3   8  -9   24.02    3.83
   3   8  -9   30.97    4.65
  -3   8   9   28.47    7.39
  -3   8   9   21.43    4.43
  -3  -8   9   25.63    3.27
   3   8  -8   43.58    4.69
   3   8  -8   55.72    5.13
  -3   8   8   45.32    4.85
  -3   8   8   33.54    1.27
  -3   8   8   45.41    1.31
  -3  -8   8   47.56    5.82
   3   8  -7  204.56   11.28
   3   8  -7  226.76   12.17
  -3   8   7  216.82    5.88
  -3   8   7  195.31   12.00
  -3  -8   7  213.80    9.63
   3   8  -6   47.28    4.19
   3   8  -6   39.98    3.97
  -3  -8   6   44.27    5.11
  -3   8   6   46.34    6.61
  -3   8   6   37.00    2.20
   3   8  -5   36.66    6.33
   3   8  -5   36.78    3.81
  -3  -8   5   37.39    2.98
  -3   8   5   37.31    3.85
  -3   8   5   39.00    1.62
   3   8  -4   59.51    4.04
   3   8  -4   34.81    4.12
  -3   8   4   51.12    4.07
  -3   8   4   55.21    2.11
  -3  -8   4   51.53    3.33
   3   8  -3  102.09    5.75
  -3  -8   3   99.06    4.75
  -3   8   3   96.83    8.31
  -3   8   3  103.25    4.83
   3   8  -2  200.88    8.85
  -3  -8   2  197.75   11.27
  -3   8   2  177.56    8.20
  -3   8   2  191.40    6.12
   3   8  -1  907.81   43.51
  -3  -8   1  939.20   49.00
  -3   8   1  916.88   41.54
  -3   8   1  921.43   43.62
   3   8   0   86.41    4.81
   3  -8   0   75.12    3.78
  -3  -8   0   70.28    6.68
  -3   8   0   91.25    4.00
  -3   8   0   92.41    3.78
   3   8   1   66.84    4.49
   3  -8   1   72.42    4.73
   3  -8   1   83.45    5.06
  -3  -8  -1   61.54    6.17
  -3   8  -1   72.76    3.76
  -3   8  -1   73.06    3.38
   3   8   2  101.74    5.59
   3  -8   2  112.69   10.34
   3  -8   2  103.23    3.73
  -3   8  -2  100.02    4.82
  -3   8  -2  106.03    5.67
   3   8   3  140.88    7.17
   3  -8   3  169.43    8.69
   3  -8   3  149.10    4.54
  -3  -8  -3  133.26    9.90
  -3   8  -3  136.48    6.27
  -3   8  -3  130.55    6.49
   3   8   4   67.63    4.62
   3  -8   4   64.37    3.50
   3  -8   4   67.56    5.89
  -3  -8  -4   66.67    6.36
  -3   8  -4   65.60    2.44
  -3   8  -4   64.31    4.07
   3  -8   5   15.44    1.17
   3  -8   5   14.23    5.84
   3   8   5   16.40    2.82
  -3   8  -5   18.31    2.50
  -3   8  -5   21.88    2.06
  -3  -8  -5   16.94    4.18
   3  -8   6  152.77    4.22
   3   8   6  147.71    8.32
   3  -8   6  150.70   10.52
  -3  -8  -6  128.21   11.19
  -3   8  -6  135.36   11.32
  -3   8  -6  152.88    6.24
   3  -8   7   31.00    4.80
   3   8   7   26.69    3.69
   3  -8   7   24.44    2.00
  -3  -8  -7   25.93    3.27
  -3   8  -7   23.78    3.29
  -3   8  -7   26.31    1.58
   3   8   8  124.89    8.16
   3  -8   8  127.49   11.11
   3  -8   8  122.71    4.44
  -3  -8  -8  116.03    7.24
  -3   8  -8  110.82    3.89
  -3   8  -8  124.81    7.49
   3   8   9  186.05   11.66
   3  -8   9  193.89    5.02
   3  -8   9  223.06   15.83
  -3  -8  -9  204.78   10.99
  -3   8  -9  178.68   10.60
  -3   8  -9  174.05    5.70
   3   8  10   90.80   11.25
   3  -8  10   80.16    9.94
  -3   8 -10   70.68    4.35
  -3   8 -10   82.26    6.30
   3   8  11   29.88    4.67
   3  -8  11   25.57   10.84
   3  -8  11   24.37    1.20
  -3   8 -11   25.90    4.25
   3  -8  12   27.14    6.36
   3   8  12   11.67    4.27
   3  -8  12   15.04    1.01
  -3   8 -12   40.90    3.93
   3   8  13   26.12    5.20
   3   8  13   23.65    4.24
   3  -8  13   28.64    7.78
  -3   8 -13   28.73    5.11
   3   8  14    9.02    3.53
   3  -8  14   12.76    6.66
   3   8  14    9.70    4.31
  -3   8 -14   12.06    4.32
   3   8  15   10.14    6.68
   3   8  15    3.06    7.46
   3  -8  15    0.74    6.58
   3   8  16   12.09    8.88
   3   8  16   19.06    9.14
   3   9 -16   13.99    5.33
   3   9 -16    7.90   14.09
  -3   9  16    0.66    9.82
  -3  -9  16   12.08    4.37
  -3   9  16   16.94    6.87
   3   9 -15   -1.56    9.19
   3   9 -15    0.37    3.85
  -3  -9  15    7.67    4.96
  -3   9  15   -0.73    4.53
  -3   9  15    9.14   12.09
   3   9 -14    5.08   11.24
   3   9 -14   19.91    4.44
  -3  -9  14    1.74    6.28
  -3   9  14   13.13    8.82
  -3   9  14   25.28    8.63
   3   9 -13   -0.79    3.03
   3   9 -13   -1.15    7.30
  -3  -9  13    5.16    4.38
  -3   9  13    9.31   10.15
  -3   9  13    2.72    3.69
   3   9 -12   76.43    7.28
   3   9 -12   71.32   16.29
  -3  -9  12   72.93    6.20
  -3   9  12   97.35   13.87
  -3   9  12   62.70    8.42
   3   9 -11   90.55   17.84
   3   9 -11  106.53    9.03
  -3  -9  11  122.64    7.31
  -3   9  11   98.74   10.33
  -3   9  11  107.11   25.37
   3   9 -10   35.47    7.65
   3   9 -10   31.61    9.35
  -3  -9  10   45.87    3.96
  -3   9  10   29.69   10.07
  -3   9  10   30.22    5.81
   3   9  -9    2.20    3.08
   3   9  -9    2.82    2.61
  -3  -9   9    6.42    2.19
  -3   9   9    5.28    3.16
  -3   9   9    3.77    0.65
  -3   9   9   -3.80    5.23
  -3   9   9    1.46    0.73
   3   9  -8  390.74   22.55
   3   9  -8  437.87   24.69
  -3   9   8  425.38   13.25
  -3   9   8  396.79   24.63
  -3  -9   8  461.54   20.03
   3   9  -7   38.18    4.75
   3   9  -7   41.74    4.63
  -3  -9   7   39.54    3.61
  -3   9   7   41.55    2.49
  -3   9   7   41.84    5.18
   3   9  -6   30.03    6.01
   3   9  -6   34.93    3.58
  -3   9   6   20.87    3.81
  -3   9   6   18.48    2.31
  -3  -9   6   23.17    2.76
   3   9  -5   19.22    3.03
   3   9  -5   10.37    3.13
  -3  -9   5   16.52    2.37
  -3   9   5   14.99    4.95
  -3   9   5   15.30    1.34
   3   9  -4  297.23   19.47
   3   9  -4  275.25   14.25
  -3   9   4  289.70    9.26
  -3  -9   4  288.83   12.16
  -3   9   4  281.81   14.14
   3   9  -3   88.20    5.68
  -3   9   3  103.84    5.52
  -3  -9   3   86.75    7.43
  -3   9   3   82.71    5.62
   3   9  -2  197.38    9.35
  -3  -9   2  205.11    8.47
  -3   9   2  185.65    8.83
  -3   9   2  176.20    6.53
   3   9  -1  108.81    6.30
   3  -9  -1  113.51    5.26
  -3  -9   1  102.87    5.62
  -3   9   1  104.84    8.47
  -3   9   1  112.05    4.64
   3   9   0  464.51   21.41
   3  -9   0  493.19   19.05
  -3  -9   0  473.75   20.08
  -3   9   0  475.09   22.97
   3   9   1  123.60    6.88
   3  -9   1  124.45    4.97
  -3  -9  -1  118.36    6.13
  -3   9  -1  111.45    5.14
  -3   9  -1  127.76    5.67
   3   9   2   98.51    5.78
   3  -9   2   99.36    7.00
   3  -9   2   92.15    3.86
  -3  -9  -2   90.55    5.17
  -3   9  -2   94.05    7.61
  -3   9  -2   91.53    4.12
   3   9   3  297.64   19.41
   3  -9   3  296.80   10.10
   3  -9   3  327.49   16.89
  -3  -9  -3  303.19   13.38
  -3   9  -3  285.94   12.28
  -3   9  -3  293.64   10.18
   3   9   4   54.03    4.77
   3  -9   4   54.40    9.74
   3  -9   4   58.96    3.93
  -3  -9  -4   60.52    4.44
  -3   9  -4   56.16    2.67
  -3   9  -4   58.69    4.18
   3   9   5   41.14    4.38
   3  -9   5   59.68    5.68
   3  -9   5   44.25    2.10
  -3  -9  -5   39.71    3.93
  -3   9  -5   47.47    3.87
  -3   9  -5   37.92    2.19
   3   9   6   28.12    3.89
   3  -9   6   31.94    5.31
   3  -9   6   29.37    2.63
  -3  -9  -6   24.48    5.55
  -3   9  -6   25.95    3.05
  -3   9  -6   29.76    3.40
   3  -9   7   33.11    1.74
   3   9   7   29.46    7.26
   3  -9   7   32.29    6.32
  -3   9  -7   42.91    3.88
  -3   9  -7   30.32    3.06
  -3  -9  -7   40.40    4.07
   3   9   8   28.18    4.51
   3  -9   8   24.18    6.27
   3  -9   8   32.38    2.54
  -3  -9  -8   30.60    3.85
  -3   9  -8   30.48    2.04
  -3   9  -8   25.34    3.99
   3   9   9   19.36    4.29
   3  -9   9   27.11    5.95
   3  -9   9   19.48    1.38
  -3   9  -9   25.77    6.05
  -3  -9  -9   18.32    3.58
  -3   9  -9   20.66    1.82
   3  -9  10   42.17    7.92
   3  -9  10   36.69    2.58
   3   9  10   29.73    5.34
  -3   9 -10   34.09    3.67
  -3   9 -10   33.71    4.73
   3   9  11  102.57    8.58
   3  -9  11   80.77    3.21
   3  -9  11   69.21   12.13
  -3   9 -11   83.19    3.66
  -3   9 -11  100.93    7.50
   3   9  12   25.13    4.24
   3  -9  12    8.47    1.22
   3  -9  12   25.17    6.29
  -3   9 -12   27.27    3.90
   3   9  13    3.64    3.12
   3   9  13    6.61    4.10
   3  -9  13    6.27    5.99
  -3   9 -13   10.01    3.75
   3   9  14    0.01    4.21
   3   9  14    9.01    3.18
   3  -9  14   15.15   10.50
  -3   9 -14    5.90    4.05
   3   9  15   32.88    7.09
   3   9  15   33.23   12.77
   3  -9  15   44.86   11.54
  -3   9 -15   34.88    6.98
   3  -9  16    0.41    6.98
   3   9  16    0.06    3.80
   3   9  16   -0.72   11.80
   3  10 -15    3.48    6.63
   3  10 -15    9.71    4.33
  -3  10  15    8.69    5.98
  -3 -10  15    4.63    5.77
  -3  10  15    4.43    8.88
   3  10 -14    2.72    3.35
   3  10 -14    3.73    4.91
  -3 -10  14   -3.41    4.63
  -3  10  14   10.32    6.63
  -3  10  14   -2.96    4.06
   3  10 -13   18.08    6.04
   3  10 -13   12.38    6.90
  -3 -10  13   18.63    5.86
  -3  10  13    8.67    5.16
  -3  10  13    1.21    8.39
   3  10 -12    4.63    3.28
   3  10 -12    9.54    4.49
  -3 -10  12    3.15    2.66
  -3  10  12    9.11    6.44
  -3  10  12   -2.27    4.05
   3  10 -11    4.50    4.03
   3  10 -11    5.77    3.12
  -3 -10  11    1.35    2.49
  -3  10  11    2.29    3.62
  -3  10  11    5.83    6.63
   3  10 -10   15.83    6.66
   3  10 -10   22.39    4.98
  -3 -10  10   17.57    3.16
  -3  10  10   15.95    5.03
  -3  10  10   23.79    8.13
   3  10  -9   12.30    3.33
   3  10  -9    7.87    4.09
  -3 -10   9   11.30    2.61
  -3  10   9   11.11    0.94
  -3  10   9    8.98    4.03
   3  10  -8    4.72    3.52
   3  10  -8    9.73    3.32
  -3  10   8    6.70    1.73
  -3 -10   8   14.52    2.58
  -3  10   8   12.54    3.85
   3  10  -7   96.40    7.22
   3  10  -7   89.84   12.05
  -3 -10   7   97.94    5.91
  -3  10   7   87.23    4.93
  -3  10   7   96.66    8.46
   3  10  -6   47.10    5.01
   3  10  -6   45.40    8.14
  -3 -10   6   51.16    6.30
  -3  10   6   47.35    3.66
  -3  10   6   45.29    5.56
   3  10  -5   89.80    7.25
   3  10  -5   92.55    6.78
  -3  10   5   96.43    3.78
  -3  10   5  101.11    7.43
  -3 -10   5   96.52    5.70
   3  10  -4    6.20    2.61
   3  10  -4    7.07    2.91
  -3  10   4    6.59    1.46
  -3  10   4    9.07    2.61
  -3 -10   4    4.74    2.15
   3  10  -3   20.75    3.38
  -3 -10   3   19.49    2.80
  -3  10   3   24.07    2.13
  -3  10   3   18.95    3.32
   3  10  -2  199.01   10.74
  -3 -10   2  209.05    9.69
  -3  10   2  209.34    7.90
  -3  10   2  193.16   10.17
   3  10  -1  143.77    8.28
   3 -10  -1  157.90    7.13
  -3 -10   1  148.98    7.47
  -3  10   1  140.04    7.57
  -3  10   1  135.17    6.18
   3  10   0    6.88    2.61
   3 -10   0   11.49    1.97
  -3 -10   0    7.79    2.32
  -3  10   0    8.84    2.20
  -3  10   0    4.59    3.19
   3  10   1  353.82   18.08
   3 -10   1  381.71   14.96
  -3 -10  -1  377.93   23.15
  -3  10  -1  387.34   16.10
  -3  10  -1  370.61   15.46
   3  10   2  304.30   21.78
   3 -10   2  316.16   11.85
  -3 -10  -2  318.75   14.64
  -3  10  -2  300.49   13.47
  -3  10  -2  330.32   17.04
   3 -10   3   70.99    3.52
   3  10   3   61.26    5.60
  -3 -10  -3   76.41    5.19
  -3  10  -3   60.56    4.63
  -3  10  -3   70.73    3.65
   3 -10   4   12.66    3.72
   3 -10   4   10.04    1.49
   3  10   4    2.93    2.86
  -3  10  -4    7.33    1.60
  -3 -10  -4    6.41    2.64
  -3  10  -4    8.54    2.40
   3  10   5   90.08    6.66
   3 -10   5   72.14    3.42
   3 -10   5   91.87    8.95
  -3 -10  -5   78.38    5.94
  -3  10  -5   80.55    3.63
  -3  10  -5   78.67    8.76
   3  10   6    1.64    2.50
   3 -10   6   -0.89    3.60
   3 -10   6    2.70    1.10
  -3 -10  -6    0.67    3.63
  -3  10  -6   -1.56    1.29
  -3  10  -6   -0.71    2.09
   3 -10   7   48.47    8.13
   3 -10   7   52.72    2.54
   3  10   7   50.51    5.87
  -3 -10  -7   45.34    5.07
  -3  10  -7   46.38    4.57
  -3  10  -7   59.90    5.03
   3  10   8   15.13    6.76
   3 -10   8   18.93    1.63
   3 -10   8   21.23    9.91
  -3 -10  -8   18.75    3.59
  -3  10  -8   14.47    1.92
  -3  10  -8   18.27    3.52
   3 -10   9   51.91   11.48
   3 -10   9   27.11    2.91
   3  10   9   24.23    5.13
  -3 -10  -9   25.57    4.29
  -3  10  -9   27.10    4.43
  -3  10  -9   26.15    3.75
   3 -10  10   19.73   11.33
   3  10  10   20.36    4.75
   3 -10  10   18.04    2.52
  -3  10 -10   16.37    2.06
  -3  10 -10   24.30    3.99
   3  10  11   51.38    6.44
   3 -10  11   56.19   14.65
   3 -10  11   36.24    2.49
  -3  10 -11   43.39    5.61
  -3  10 -11   38.34    4.21
   3  10  12   21.30    6.15
   3 -10  12   41.35    9.04
  -3  10 -12   37.41    5.57
   3  10  13    9.62    4.80
   3 -10  13   14.21    7.30
  -3  10 -13   12.48    4.37
   3  10  14    5.30    4.91
   3 -10  14   14.58    7.39
  -3  10 -14    8.74    7.21
   3  10  15   10.12    5.62
   3  10  15   -1.21   10.37
   3 -10  15   26.72    9.34
  -3  10 -15   16.61    5.37
   3  11 -15    2.31    4.04
   3  11 -15    3.53    6.30
  -3  11  15    3.59    5.28
  -3  11  15    5.40    8.15
  -3 -11  15    2.85    5.24
   3  11 -14   11.36    7.20
   3  11 -14   16.73    5.02
  -3 -11  14    4.53    6.72
  -3  11  14   25.35   10.11
  -3  11  14   38.15   16.25
   3  11 -13    5.78    3.77
   3  11 -13    5.70    5.27
  -3 -11  13    0.03    5.07
  -3  11  13    3.67    4.52
  -3  11  13    3.84    7.25
   3  11 -12   -4.62    6.50
   3  11 -12   -0.49    3.01
  -3 -11  12    1.69    2.45
  -3  11  12   -7.18   10.56
  -3  11  12   -1.91    3.58
   3  11 -11   24.44   10.96
   3  11 -11   37.86    5.46
  -3 -11  11   24.36    4.22
  -3  11  11   39.51   11.08
  -3  11  11   26.33    6.10
   3  11 -10   57.00   11.18
   3  11 -10   42.46    9.61
  -3 -11  10   51.86    4.87
  -3  11  10   40.56    1.73
  -3  11  10   54.87    6.99
  -3  11  10   46.62    1.85
   3  11  -9   26.74    4.52
   3  11  -9   27.12    5.30
  -3 -11   9   20.23    3.67
  -3  11   9   25.11    2.55
  -3  11   9   26.13    5.53
   3  11  -8   84.22    8.38
   3  11  -8   83.55    7.85
  -3  11   8   87.21    9.21
  -3  11   8   94.84    3.86
  -3 -11   8   84.70    9.45
   3  11  -7   -2.23    2.68
   3  11  -7    4.22    2.71
  -3  11   7    3.03    1.20
  -3 -11   7   -0.59    2.12
  -3  11   7   -4.40    5.19
   3  11  -6  283.59   16.54
   3  11  -6  263.26   16.15
  -3 -11   6  288.22   19.36
  -3  11   6  276.87   17.64
  -3  11   6  288.77   10.07
   3  11  -5   52.82    5.24
   3  11  -5   55.94    5.57
  -3  11   5   43.00    5.58
  -3  11   5   44.50    2.92
  -3 -11   5   53.33    4.29
   3  11  -4  118.09    8.85
   3  11  -4  123.51    8.45
  -3  11   4  120.90    8.82
  -3 -11   4  130.65   10.71
  -3  11   4  119.42    5.34
   3  11  -3   23.89    4.19
  -3 -11   3   34.23    3.50
  -3  11   3   22.62    4.27
  -3  11   3   38.37    4.15
   3  11  -2   60.41    5.50
  -3 -11   2   59.61    4.66
  -3  11   2   59.37    3.84
  -3  11   2   65.47    5.25
   3  11  -1   13.20    3.26
   3 -11  -1   13.59    2.51
  -3 -11   1   17.64    4.41
  -3  11   1   14.83    2.27
  -3  11   1   11.65    2.92
   3  11   0  298.37   16.22
   3 -11   0  318.34   13.57
  -3 -11   0  298.84   15.02
  -3  11   0  300.96   13.12
  -3  11   0  301.82   14.46
   3  11   1 1144.58   67.01
   3 -11   1 1186.93   61.15
  -3 -11  -1 1183.77   65.24
  -3  11  -1 1156.90   62.47
  -3  11  -1 1142.41   60.68
   3  11   2  110.94    8.10
   3 -11   2  111.39    5.54
  -3 -11  -2  114.07    7.22
  -3  11  -2  111.66    6.04
  -3  11  -2  116.92    6.69
   3 -11   3    1.35    1.60
   3  11   3    5.22    2.71
  -3  11  -3    5.44    3.42
  -3  11  -3    3.62    1.74
  -3 -11  -3   -0.84    2.36
   3 -11   4   13.19    2.06
   3  11   4   17.25    3.85
  -3  11  -4   14.05    3.04
  -3 -11  -4   20.70    3.32
  -3  11  -4   18.65    2.30
   3  11   5  150.39   11.17
   3 -11   5  162.81    9.46
  -3 -11  -5  158.29    9.85
  -3  11  -5  161.67   10.14
  -3  11  -5  156.96    9.27
   3 -11   6   24.19    2.25
   3  11   6   31.34    7.58
   3 -11   6   23.12    6.44
  -3 -11  -6   24.87    4.07
  -3  11  -6   24.92    4.02
  -3  11  -6   28.35    3.81
   3 -11   7   90.02    4.16
   3 -11   7   83.22   11.39
   3  11   7   97.37    8.36
  -3  11  -7   90.01    4.80
  -3  11  -7   79.83    6.79
  -3 -11  -7   89.93    7.21
   3  11   8  118.65   10.71
   3 -11   8  141.66   14.81
   3 -11   8  127.86    7.76
  -3 -11  -8  127.10    9.25
  -3  11  -8  120.72    5.67
  -3  11  -8  134.42    9.02
   3  11   9   28.35    5.45
   3 -11   9   37.67    7.91
   3 -11   9   23.03    2.16
  -3  11  -9   30.89    4.32
  -3  11  -9   31.03    4.49
  -3 -11  -9   27.52    4.64
   3 -11  10    1.88    5.22
   3  11  10    1.67    6.00
   3 -11  10    2.37    1.10
  -3  11 -10    3.11    1.64
  -3  11 -10   10.35    5.06
   3  11  11    3.12    3.68
   3 -11  11   -4.95    5.30
   3 -11  11    0.20    1.48
  -3  11 -11    8.89    3.08
  -3  11 -11    1.14    1.43
   3  11  12   18.58    5.99
   3 -11  12   14.32    8.34
  -3  11 -12   23.47    5.05
   3  11  13   43.98    8.54
   3 -11  13   44.68   12.62
  -3  11 -13   59.23    7.53
   3  11  14   10.45    5.43
   3 -11  14   13.32    8.32
  -3  11 -14    9.68    4.83
  -3  11 -15   21.09    6.59
   3  12 -14    1.07    4.09
   3  12 -14    2.28    5.28
  -3 -12  14   -0.55    5.15
  -3  12  14    3.79    4.88
  -3  12  14   -0.70    7.64
   3  12 -13    7.67    5.76
   3  12 -13    1.93    4.35
  -3 -12  13    2.98    5.65
  -3  12  13   24.76    8.25
  -3  12  13    8.82    5.06
   3  12 -12   -0.30    4.17
   3  12 -12    0.60    3.17
  -3  12  12   -0.86    6.83
  -3  12  12   -1.57    3.77
  -3 -12  12    2.99    4.26
   3  12 -11    0.97    4.70
   3  12 -11   10.27    3.73
  -3 -12  11    0.99    2.95
  -3  12  11    8.98    4.49
  -3  12  11   15.51    7.72
   3  12 -10   -0.71    4.85
   3  12 -10    0.81    3.61
  -3 -12  10    0.73    2.30
  -3  12  10    0.62    3.39
  -3  12  10   -0.22    1.10
   3  12  -9   68.54    7.26
   3  12  -9   64.45    8.59
  -3 -12   9   70.39    5.94
  -3  12   9   54.18    8.35
  -3  12   9   67.80    5.02
   3  12  -8   24.86    5.23
   3  12  -8   32.66    5.53
  -3  12   8   30.08    6.08
  -3 -12   8   24.57    6.38
  -3  12   8   32.29    2.63
   3  12  -7   13.11    3.85
   3  12  -7    9.68    6.36
  -3  12   7   13.82    4.47
  -3 -12   7   14.93    3.04
  -3  12   7   12.00    1.93
   3  12  -6   64.77    7.14
   3  12  -6   75.37    7.06
  -3 -12   6   65.84    5.63
  -3  12   6   64.55    7.73
  -3  12   6   71.51    3.96
   3  12  -5  102.02    8.72
   3  12  -5   97.92    9.10
  -3  12   5  110.02    5.28
  -3  12   5   99.66   14.18
  -3 -12   5  113.68    7.10
   3  12  -4  109.92    9.04
   3  12  -4  114.04   14.74
  -3 -12   4  108.30    7.30
  -3  12   4  122.48    5.85
  -3  12   4  104.22    8.98
   3  12  -3  122.88    8.96
   3  12  -3  119.89    9.14
  -3 -12   3  122.33    7.56
  -3  12   3  110.59    8.64
  -3  12   3  108.86    9.14
   3  12  -2   94.53    7.58
  -3 -12   2   88.02    6.44
  -3  12   2   93.08    5.09
  -3  12   2   86.75    7.37
   3  12  -1   61.36    5.81
   3 -12  -1   59.23    4.78
  -3 -12   1   55.08    5.13
  -3  12   1   68.15    8.40
  -3  12   1   48.36    4.20
   3  12   0   84.05    6.97
   3 -12   0   81.61    5.38
  -3  12   0   80.94    6.03
  -3  12   0   72.76    5.29
  -3 -12   0   79.61    6.18
   3  12   1   55.03    9.76
   3 -12   1   48.12    4.29
  -3 -12  -1   55.45    5.15
  -3  12  -1   63.78    4.92
  -3  12  -1   63.00    4.63
   3  12   2   20.69    4.28
   3 -12   2   27.82    2.76
  -3 -12  -2   13.36    3.54
  -3  12  -2   20.26    3.12
  -3  12  -2   18.10    3.31
   3 -12   3  101.67    5.77
   3  12   3   95.36    9.04
  -3 -12  -3  118.48    7.64
  -3  12  -3  109.31   11.42
  -3  12  -3  121.54    9.79
   3 -12   4  245.81   10.71
   3  12   4  244.84   16.20
  -3  12  -4  234.84   13.29
  -3 -12  -4  242.13   14.46
  -3  12  -4  256.83   11.56
   3  12   5   71.91    7.17
   3 -12   5   61.50    3.86
  -3 -12  -5   61.82    6.20
  -3  12  -5   65.67    6.99
  -3  12  -5   55.29    5.78
   3 -12   6   48.21    5.23
   3  12   6   43.34    6.50
  -3  12  -6   44.61    5.02
  -3  12  -6   43.51    3.60
  -3 -12  -6   45.57    5.55
   3 -12   7    6.33    1.84
   3  12   7    5.93    6.23
  -3  12  -7    5.31    2.16
  -3  12  -7    4.74    3.06
  -3 -12  -7    9.47    5.28
   3  12   8   75.41    9.08
   3 -12   8   84.26    4.47
  -3 -12  -8   89.87    7.70
  -3  12  -8   72.49    4.62
  -3  12  -8   84.60   11.53
   3  12   9   97.96   10.10
   3 -12   9   96.43    5.20
  -3 -12  -9  106.25    9.37
  -3  12  -9  101.96    8.71
  -3  12  -9  106.97    8.98
   3 -12  10   47.41    2.85
   3  12  10   75.58    7.95
  -3  12 -10   59.68    6.94
  -3  12 -10   63.67    4.21
   3  12  11   28.12    6.81
  -3  12 -11   31.61    5.59
   3  12  12   14.94    5.39
  -3  12 -12    8.82    4.52
   3  12  13    2.46    4.78
  -3  12 -13    6.75    4.23
   3  12  14    2.52    5.59
  -3  12 -14   14.69    5.29
   3  13 -13    4.88    5.87
   3  13 -13    9.53    4.38
  -3 -13  13    2.39    3.42
  -3  13  13    5.41    5.47
  -3  13  13   -5.64   14.01
   3  13 -12    9.62    4.61
   3  13 -12    9.18    6.06
  -3  13  12   19.42    9.98
  -3  13  12   12.01    5.58
  -3 -13  12    4.86    6.08
   3  13 -11    4.11    4.83
   3  13 -11    0.35    4.05
  -3 -13  11    4.50    5.26
  -3  13  11   11.11    7.96
  -3  13  11    7.38    4.67
   3  13 -10   37.47    9.13
   3  13 -10   26.09    7.08
  -3 -13  10   22.36    4.50
  -3  13  10   30.09    6.61
   3  13  -9    9.71    3.78
   3  13  -9    4.78    4.53
  -3 -13   9    8.42    3.02
  -3  13   9    3.04    1.67
  -3  13   9   16.56    4.48
   3  13  -8   25.94    5.22
   3  13  -8   22.57    5.36
  -3 -13   8   22.91    4.00
  -3  13   8   20.05    4.64
  -3  13   8   23.43    9.20
   3  13  -7   34.36    5.77
   3  13  -7   40.11    9.02
  -3 -13   7   32.26    4.33
  -3  13   7   33.22    6.37
  -3  13   7   33.63    2.97
   3  13  -6   57.34   11.02
   3  13  -6   57.83    6.69
  -3 -13   6   60.43    5.30
  -3  13   6   47.40    7.39
  -3  13   6   53.05    3.98
   3  13  -5   25.30    7.34
   3  13  -5   24.96    4.55
  -3 -13   5   16.29    5.70
  -3  13   5   24.32    4.83
  -3  13   5   14.31    2.64
   3  13  -4  291.60   19.40
   3  13  -4  319.71   20.39
  -3 -13   4  315.51   16.95
  -3  13   4  315.77   19.36
  -3  13   4  330.02   29.47
   3  13  -3   22.11    4.40
   3  13  -3   23.24    4.48
  -3 -13   3   15.77    3.51
  -3  13   3   11.25    4.27
  -3  13   3   18.33    2.65
   3  13  -2   82.07    6.83
   3  13  -2   51.34    6.98
  -3 -13   2   67.21    5.70
  -3  13   2   54.44    4.48
  -3  13   2   76.27   10.54
   3  13  -1   37.23    5.43
   3 -13  -1   37.07    4.33
  -3 -13   1   31.12    7.25
  -3  13   1   32.12    4.89
  -3  13   1   35.48    3.80
   3  13   0    0.54    3.42
   3 -13   0   11.39    2.56
  -3 -13   0    2.09    2.83
  -3  13   0    6.23    2.89
  -3  13   0    6.36    4.02
   3  13   1  262.60   17.07
   3 -13   1  272.47   13.43
  -3 -13  -1  284.36   15.47
  -3  13  -1  262.79   14.70
  -3  13  -1  258.33   13.68
   3  13   2  125.01   10.81
   3 -13   2  141.56    7.63
  -3 -13  -2  136.08    9.14
  -3  13  -2  129.33    8.32
  -3  13  -2  128.78    8.28
   3  13   3   51.44    6.64
   3 -13   3   62.03    6.70
  -3  13  -3   59.64    8.61
  -3  13  -3   57.27    4.89
  -3 -13  -3   46.85    5.74
   3  13   4  130.61   11.62
   3 -13   4  135.36    7.22
  -3 -13  -4  143.17    9.93
  -3  13  -4  126.48    8.96
  -3  13  -4  141.75    7.91
   3  13   5   82.08   14.13
   3 -13   5   79.02    5.14
  -3 -13  -5   89.43    7.86
  -3  13  -5   91.16    9.21
  -3  13  -5   82.61    7.14
   3 -13   6   46.65    3.90
   3  13   6   55.58    7.32
  -3  13  -6   45.62    8.99
  -3  13  -6   54.48    4.28
  -3 -13  -6   43.10    6.22
   3 -13   7   53.83    6.00
   3  13   7   41.92    7.32
  -3  13  -7   55.50    5.88
  -3  13  -7   46.53    4.46
  -3 -13  -7   45.01    6.12
   3  13   8  158.21   21.61
   3 -13   8  148.67   11.84
  -3 -13  -8  180.83   12.52
  -3  13  -8  151.36   11.72
  -3  13  -8  166.67    8.93
   3  13   9    6.70    4.38
   3 -13   9    3.15    1.76
  -3 -13  -9   16.80    4.08
  -3  13  -9   11.40    3.67
  -3  13  -9    7.95    2.60
   3  13  10    9.75    4.97
   3 -13  10    4.87    2.79
  -3  13 -10   16.60    4.16
  -3  13 -10   11.58    2.67
   3  13  11   53.56    8.79
  -3  13 -11   52.08    7.48
   3  13  12    0.52    4.34
  -3  13 -12    0.59    3.54
   3  13  13   71.16   11.00
  -3  13 -13   70.16   16.68
   3  14 -12    0.84    4.43
   3  14 -12    6.06    9.74
  -3 -14  12    3.67    3.60
  -3  14  12   10.71    9.17
  -3  14  12    9.18    4.82
   3  14 -11   34.52   13.48
   3  14 -11   39.74    7.03
  -3 -14  11   32.94    8.90
  -3  14  11   31.93    8.03
  -3  14  11   17.23   13.61
   3  14 -10    9.06    9.17
  -3 -14  10   11.05    6.00
  -3  14  10    8.65    5.18
   3  14  -9   10.19    7.76
   3  14  -9   13.90    4.33
  -3 -14   9    4.68    3.40
  -3  14   9    7.27    5.01
   3  14  -8   11.84    4.66
   3  14  -8    7.52    7.38
  -3 -14   8   11.50    3.55
  -3  14   8    9.26    2.55
  -3  14   8   17.82    5.02
   3  14  -7   58.33   13.51
   3  14  -7   70.88    8.44
  -3  14   7   80.81    8.94
  -3  14   7   64.28    8.60
  -3 -14   7   67.72    6.63
   3  14  -6   29.13    8.76
   3  14  -6   28.11    5.47
  -3 -14   6   28.55    4.26
  -3  14   6   19.70    5.11
  -3  14   6   24.98    9.32
   3  14  -5    5.39    3.23
   3  14  -5   -3.63    5.52
  -3 -14   5    0.88    2.64
  -3  14   5    3.98    3.60
  -3  14   5    1.00    3.16
   3  14  -4   35.81    5.78
   3  14  -4   41.15    9.71
  -3  14   4   35.44    6.14
  -3  14   4   34.03    3.52
  -3 -14   4   30.68    7.61
   3  14  -3   33.49   10.10
   3  14  -3   38.87    6.05
  -3 -14   3   45.09    4.98
  -3  14   3   32.19    3.72
  -3  14   3   44.30    9.68
   3  14  -2  159.23   12.64
   3  14  -2  143.26   12.80
  -3  14   2  152.22    8.59
  -3 -14   2  164.13   16.17
  -3  14   2  163.51   12.12
   3  14  -1    9.98    4.26
   3 -14  -1   13.84    3.36
  -3 -14   1    9.82    3.59
  -3  14   1   16.04    2.82
  -3  14   1    8.73    3.93
   3  14   0   27.47    9.63
   3 -14   0   39.63    4.50
  -3 -14   0   37.07    8.13
  -3  14   0   43.15    5.19
  -3  14   0   20.60    6.79
   3  14   1  261.27   18.45
   3 -14   1  289.81   20.86
  -3 -14  -1  254.23   16.48
  -3  14  -1  272.42   15.97
  -3  14  -1  254.87   14.15
   3 -14   2   14.87    3.00
   3  14   2    8.02    4.61
  -3  14  -2   19.10    3.45
  -3  14  -2   11.94    3.41
  -3 -14  -2   15.01    3.97
   3 -14   3   15.85    3.01
   3  14   3    8.76    4.92
  -3  14  -3   16.39    5.97
  -3  14  -3   18.28    3.53
  -3 -14  -3   18.28    4.10
   3  14   4   23.97    5.56
   3 -14   4   23.70    5.37
  -3 -14  -4   24.20    4.85
  -3  14  -4   24.98    4.24
  -3  14  -4   22.33    6.10
   3  14   5   79.82   10.24
   3 -14   5   83.53    5.96
  -3 -14  -5   92.50   13.89
  -3  14  -5   95.57    8.00
  -3  14  -5   95.82    6.96
   3 -14   6   15.21    2.88
   3  14   6   12.32    5.03
  -3  14  -6   18.69    6.61
  -3 -14  -6   10.93    4.50
  -3  14  -6   17.52    3.41
   3 -14   7   16.98    3.16
   3  14   7   31.61    5.94
  -3  14  -7   26.44    3.70
  -3  14  -7   26.65    4.65
  -3 -14  -7   21.32    5.21
   3  14   8   53.80    8.38
   3 -14   8   62.88    4.72
  -3 -14  -8   63.25    7.73
  -3  14  -8   37.30    8.99
  -3  14  -8   50.58    6.85
   3  14   9    6.35    4.42
   3 -14   9    2.06    1.78
  -3 -14  -9   14.94    4.18
  -3  14  -9    6.92    4.52
  -3  14  -9    5.37    3.62
   3  14  10   -1.29    6.76
  -3  14 -10   -0.75    3.41
   3  14  11   77.63   11.49
  -3  14 -11   76.91   15.07
   3  14  12   43.98   10.12
  -3  14 -12   63.63    8.56
   3  15 -11   29.05    6.53
   3  15 -11   21.69    7.96
  -3 -15  11   20.39    5.29
  -3  15  11   27.66    6.90
   3  15 -10   -0.91    4.60
   3  15 -10   13.17    5.30
  -3 -15  10    5.79    3.79
  -3  15  10   12.52    5.39
   3  15  -9   -0.66    3.57
   3  15  -9    0.19    3.90
  -3 -15   9    2.80    4.64
  -3  15   9   -7.11    6.84
   3  15  -8   24.25    5.34
   3  15  -8   32.69    9.03
  -3 -15   8    9.81    4.21
  -3  15   8   25.91    9.72
  -3  15   8   12.87    3.20
   3  15  -7   13.95    5.81
   3  15  -7   25.55    5.62
  -3  15   7   19.51    3.68
  -3 -15   7   19.65    4.39
  -3  15   7   27.46    6.25
   3  15  -6    7.82    4.71
   3  15  -6   13.99    4.60
  -3 -15   6   12.91    3.62
  -3  15   6   19.51    4.96
  -3  15   6    7.69    2.61
   3  15  -5   16.76    5.01
   3  15  -5   22.32    8.81
  -3  15   5   17.59    3.13
  -3  15   5   20.76    5.53
  -3 -15   5   19.95    4.19
   3  15  -4   43.36   10.97
   3  15  -4   34.95    6.75
  -3 -15   4   42.02    5.24
  -3  15   4   32.85    6.76
  -3  15   4   37.42    4.04
   3  15  -3   50.18    6.67
   3  15  -3   28.99    6.98
  -3  15   3   48.37    4.46
  -3  15   3   39.10    6.95
  -3 -15   3   41.63    8.89
   3  15  -2  131.95   12.51
   3  15  -2  147.72   12.73
  -3  15   2  158.76   18.84
  -3  15   2  138.23    8.60
  -3 -15   2  139.00   10.44
   3  15  -1   60.56    7.62
   3  15  -1   52.77    7.57
   3 -15  -1   59.52    6.24
  -3 -15   1   57.05   10.29
  -3  15   1   61.07    7.23
  -3  15   1   43.66    8.67
   3  15   0   77.11   15.13
   3 -15   0   79.24    7.27
  -3 -15   0   89.24    8.13
  -3  15   0   85.89    8.47
  -3  15   0   86.26    6.67
   3  15   1    5.95    4.88
   3 -15   1   15.22    5.73
  -3 -15  -1    2.98    6.75
  -3  15  -1   16.01    4.01
  -3  15  -1   18.48    3.48
   3  15   2   24.24    6.02
   3 -15   2   23.00    4.13
  -3  15  -2   21.33    7.55
  -3 -15  -2   35.46    5.20
  -3  15  -2   26.06    4.37
   3  15   3    5.23    4.25
   3 -15   3    5.19    2.86
  -3  15  -3   11.39    5.14
  -3  15  -3    9.84    5.37
  -3 -15  -3    7.29    6.24
   3  15   4   37.57    9.89
   3 -15   4   21.60    3.88
  -3 -15  -4   32.83    5.39
  -3  15  -4   25.66    4.70
  -3  15  -4   33.27    4.64
   3  15   5    8.27    4.81
   3 -15   5    9.30    4.74
  -3 -15  -5   12.91    4.18
  -3  15  -5    8.42    3.44
  -3  15  -5    7.42    3.64
   3  15   6   20.20    5.82
   3 -15   6   16.52    3.55
  -3  15  -6   16.50    4.23
  -3  15  -6   24.78    7.41
  -3 -15  -6   28.29    5.26
   3 -15   7    1.44    2.30
   3  15   7    4.69    4.19
  -3  15  -7    0.66    2.89
  -3  15  -7    2.55    3.26
  -3 -15  -7    2.54    3.66
   3  15   8   37.45    8.25
   3 -15   8   40.62    3.97
  -3 -15  -8   54.65   12.00
  -3  15  -8   57.63    6.30
  -3  15  -8   49.26    6.60
   3  15   9    1.94    4.33
   3 -15   9    1.24    1.73
  -3 -15  -9    2.21    3.84
  -3  15  -9    2.44    3.48
  -3  15  -9   -0.80    2.88
   3  15  10    9.79    5.63
  -3  15 -10    9.03    4.60
   3  15  11   22.27    7.39
  -3  15 -11   18.05    9.80
   3  16 -10    2.66    5.31
   3  16 -10   11.58    5.60
  -3 -16  10   12.20    4.26
  -3  16  10    1.15    5.57
   3  16  -9   15.40    5.33
   3  16  -9   12.83    5.83
  -3 -16   9    6.88    4.19
  -3  16   9   12.85    6.22
   3  16  -8   12.69    4.69
   3  16  -8    5.74    5.23
  -3 -16   8    9.89    6.57
  -3  16   8    8.55    5.70
   3  16  -7   31.08    7.87
   3  16  -7   27.36    7.49
  -3  16   7   50.64    5.03
  -3  16   7   37.31    8.20
  -3 -16   7   28.43    6.05
   3  16  -6   11.66    4.49
   3  16  -6    6.01    4.69
  -3 -16   6    1.88    3.66
  -3  16   6    6.57    2.73
  -3  16   6   -1.27    7.79
   3  16  -5   98.50   10.34
   3  16  -5   84.33   17.36
  -3  16   5   80.45    6.61
  -3  16   5   90.86   11.01
  -3 -16   5   94.28    8.58
   3  16  -4   28.04    6.44
   3  16  -4   23.75    5.94
  -3 -16   4   25.98    4.85
  -3  16   4   21.83    3.83
  -3  16   4   26.36    6.13
   3  16  -3    4.60    4.32
   3  16  -3    6.18    4.42
  -3  16   3    4.57    7.09
  -3  16   3    3.95    2.85
  -3 -16   3    8.53    3.46
   3  16  -2    9.86    4.63
   3  16  -2    7.71    4.82
  -3  16   2   10.04    5.38
  -3  16   2   16.59    4.70
  -3 -16   2    2.66    6.40
   3 -16  -1   39.37    5.71
   3  16  -1   34.59    7.00
   3  16  -1   37.77    6.94
  -3 -16   1   38.37    6.04
  -3  16   1   43.79    6.66
  -3  16   1   39.85    7.93
   3  16   0   27.50    6.20
   3  16   0   24.81    6.02
   3 -16   0   22.63    4.91
  -3 -16   0   26.63    5.38
  -3  16   0   29.49    5.65
  -3  16   0   32.98    4.56
   3  16   1   69.16    8.52
   3 -16   1   61.63    6.80
  -3 -16  -1   64.19    7.62
  -3  16  -1   66.61    7.65
  -3  16  -1   54.70    6.39
   3  16   2   17.35    5.08
   3 -16   2   16.08    6.09
  -3 -16  -2   13.48    4.48
  -3  16  -2   11.93    3.81
  -3  16  -2    7.77    4.24
   3 -16   3    6.49    3.48
   3  16   3   19.93    5.17
  -3  16  -3    7.31    3.70
  -3  16  -3   13.48    3.95
  -3 -16  -3   11.32    4.52
   3  16   4   53.55    8.61
   3 -16   4   53.53    5.85
  -3 -16  -4   54.57    7.59
  -3  16  -4   58.88    6.74
  -3  16  -4   52.68    6.65
   3  16   5   18.13    5.71
   3 -16   5    7.24    3.75
  -3 -16  -5   27.71    5.15
  -3  16  -5   16.77    4.42
  -3  16  -5   14.95    4.41
   3  16   6   12.31    5.40
   3 -16   6    7.32    3.23
  -3 -16  -6   14.93    7.88
  -3  16  -6    7.77    4.01
  -3  16  -6   13.75    4.18
   3 -16   7    2.40    4.55
   3  16   7    5.64    4.76
  -3  16  -7    1.85    3.60
  -3  16  -7    6.10    3.79
  -3 -16  -7   -0.03    4.11
   3  16   8   14.70   10.65
   3 -16   8    6.83    4.65
  -3 -16  -8   11.00    5.61
  -3  16  -8   21.93    4.51
  -3  16  -8   15.30    4.93
   3  16   9   13.52    5.60
  -3 -16  -9    2.65    5.15
  -3  16  -9    7.99    4.48
   3  16  10   28.46    8.94
  -3  16 -10   40.06    7.49
   3  17  -9    6.05    5.56
   3  17  -9    6.06    5.31
  -3 -17   9    5.46    4.49
  -3  17   9   12.68    9.01
   3  17  -8    8.39    5.03
   3  17  -8    8.05    5.47
  -3 -17   8    6.48    4.17
  -3  17   8    4.20   10.05
   3  17  -7    0.64    4.39
   3  17  -7    5.54    4.68
  -3  17   7   -0.70    4.69
  -3 -17   7   -0.49    3.38
  -3  17   7    2.31    4.67
   3  17  -6   45.50    9.09
   3  17  -6   47.24    8.52
  -3  17   6   52.59   10.47
  -3 -17   6   50.97   11.16
  -3  17   6   40.81    8.91
   3  17  -5   10.38   10.37
   3  17  -5   24.68    5.92
  -3  17   5   14.34    6.32
  -3  17   5    9.31    6.32
  -3 -17   5   20.14    4.88
   3  17  -4   10.33    4.89
   3  17  -4    1.77    4.41
  -3  17   4    1.72    4.69
  -3 -17   4    4.81    3.82
  -3  17   4    6.11    5.06
   3  17  -3   37.27    7.77
  -3 -17   3   42.21   10.36
  -3  17   3   32.12    7.60
  -3  17   3   33.39    8.37
   3  17  -2   61.81    8.30
   3  17  -2   54.51    8.61
  -3  17   2   55.22   13.30
  -3 -17   2   36.90    7.24
  -3  17   2   47.82    9.39
   3  17  -1   55.36   13.94
   3  17  -1   58.36   14.80
  -3 -17   1   59.30    8.14
  -3  17   1   59.08    8.66
  -3  17   1   59.20    6.36
   3  17   0   -0.73    3.69
   3  17   0    7.43    3.82
   3 -17   0    0.70    3.03
  -3 -17   0   -5.03    3.21
  -3  17   0    0.96    3.40
  -3  17   0   -0.80    2.66
   3  17   1    9.70    4.93
   3  17   1   10.65    5.07
   3 -17   1   11.92    3.89
  -3 -17  -1    5.18    4.36
  -3  17  -1   10.26    7.29
  -3  17  -1    6.85    3.73
   3  17   2   17.78    5.12
   3 -17   2    7.27    3.76
  -3 -17  -2    9.87    4.38
  -3  17  -2    1.74    4.25
  -3  17  -2    2.36    6.26
   3 -17   3   15.71    6.69
  -3  17  -3   15.07    4.59
  -3 -17  -3   16.81    5.10
  -3  17  -3    7.95    4.30
   3  17   4   39.16    6.99
   3 -17   4   22.60    4.98
  -3 -17  -4   28.66    6.17
  -3  17  -4   26.71    5.35
  -3  17  -4   16.39    5.38
   3  17   5   10.94    5.80
   3 -17   5   12.56    3.87
  -3 -17  -5   11.41    5.18
  -3  17  -5    6.54    4.51
  -3  17  -5   11.78    4.42
   3  17   6   10.57    5.54
   3 -17   6    2.23    3.51
  -3 -17  -6    9.25    4.79
  -3  17  -6   10.81    4.05
  -3  17  -6    7.68    7.02
   3  17   7    2.83    4.88
   3 -17   7   -0.78    3.12
  -3  17  -7    6.25    3.69
  -3 -17  -7    4.49    4.37
  -3  17  -7    1.10    4.14
   3  17   8    3.77    4.99
   3 -17   8    4.20    2.54
  -3 -17  -8    8.84    4.79
  -3  17  -8    1.08    4.90
  -3  17  -8    2.06    4.03
   3  17   9    9.87    6.43
  -3 -17  -9   12.21    5.92
  -3  17  -9    4.06    4.84
   3  18  -7   13.58    7.05
   3  18  -7   10.35   10.49
  -3  18   7   16.79    7.09
  -3 -18   7   11.90    5.00
   3  18  -6    3.61    5.52
   3  18  -6    5.58    5.12
  -3  18   6    4.38    3.84
  -3 -18   6    4.77    4.10
  -3  18   6    2.55    8.80
   3  18  -5   10.16    8.72
   3  18  -5   -2.42    4.93
  -3  18   5    8.55    5.14
  -3  18   5    3.81    3.25
  -3 -18   5    5.42    6.61
   3  18  -4   70.69   10.35
   3  18  -4   73.21   11.39
  -3  18   4   83.35   11.24
  -3 -18   4   61.59    9.00
  -3  18   4   63.41    7.28
   3  18  -3    4.96    5.32
   3  18  -3   -1.04    4.86
  -3 -18   3   12.23    4.38
  -3  18   3    4.83    8.64
  -3  18   3    6.69    3.39
   3  18  -2   25.56    6.75
   3  18  -2   30.59    7.31
  -3 -18   2   25.48    5.96
  -3  18   2   19.18    6.93
  -3  18   2   20.76    4.88
   3  18  -1  118.22   14.74
   3  18  -1  133.13   15.68
  -3 -18   1  138.48   13.63
  -3  18   1  125.60   22.07
  -3  18   1  130.71   10.76
   3  18   0   11.85    9.95
   3  18   0   18.99    6.32
  -3 -18   0   18.80    5.53
  -3  18   0   19.56    5.88
  -3  18   0   14.06    4.54
   3  18   1    6.17    4.64
   3  18   1    5.75    5.03
   3 -18   1    8.63    3.83
  -3 -18  -1    0.83    4.21
  -3  18  -1   -1.74    4.41
  -3  18  -1    3.84    3.57
   3  18   2    9.58    6.32
   3  18   2   15.82    5.73
   3 -18   2   10.22    4.62
  -3 -18  -2   20.81    5.47
  -3  18  -2   17.75    4.49
  -3  18  -2   10.31    5.25
   3  18   3   17.97    5.53
   3  18   3    1.09    4.83
   3 -18   3    2.11    4.15
  -3  18  -3   10.09    4.05
  -3  18  -3    5.45    7.32
   3  18   4    5.88    5.33
   3 -18   4    2.90    6.02
  -3 -18  -4    3.75    4.50
  -3  18  -4    3.79    3.85
  -3  18  -4    3.46    6.69
   3  18   5   14.72    6.05
   3 -18   5    7.88    7.56
  -3  18  -5   19.71    8.38
  -3  18  -5   17.48    8.68
   3  18   6   16.10    6.25
   3 -18   6    7.19    7.47
  -3 -18  -6   20.81    5.93
  -3  18  -6   12.24    5.21
  -3  18  -6    7.26    9.20
   3 -18   7    0.83    2.80
   3  18   7    1.05    4.94
  -3  18  -7    2.55    4.10
  -3  18  -7    6.96    4.54
  -3 -18  -7    8.75    5.08
   3  19  -5    1.79    5.67
   3  19  -5   11.27    6.25
  -3  19   5   10.19    4.72
  -3  19   5   -0.78    6.36
  -3 -19   5    8.70    4.71
   3  19  -4   24.97    7.21
  -3  19   4    6.30    4.55
  -3 -19   4   11.53    5.57
  -3  19   4   28.72    7.06
   3  19  -3   10.60    5.03
   3  19  -3    9.51    5.67
  -3 -19   3    2.22    7.61
  -3  19   3    4.57    5.51
  -3  19   3    1.36    3.70
   3  19  -2   30.70    7.24
   3  19  -2   22.37   13.40
  -3  19   2   19.81   12.49
  -3  19   2   26.49    5.38
  -3 -19   2   19.95    6.77
   3  19  -1    1.40    4.80
   3  19  -1   -7.86    5.25
  -3 -19   1    8.62    4.39
  -3  19   1    4.20    4.69
  -3  19   1    1.90    3.42
   3  19   0    3.65    5.66
   3  19   0    9.63    5.37
  -3  19   0    5.09    5.40
  -3  19   0    7.18    6.66
   3  19   1   11.59    5.59
   3  19   1   10.53    6.16
  -3  19  -1   10.05    5.47
  -3 -19  -1   14.57    5.27
  -3  19  -1    3.56    4.22
   3  19   2   26.28    7.45
   3 -19   2   26.80    6.28
  -3  19  -2   31.99    5.74
  -3  19  -2   23.70    7.13
   3 -19   3   40.76    7.37
   3  19   3   37.76    9.59
   3  19   3   47.14    8.22
  -3  19  -3   36.40    6.96
  -3 -19  -3   45.17    8.23
  -3  19  -3   26.89    7.26
   3  19   4   14.32    5.98
   3  19   4    1.59    5.05
   3 -19   4    3.11    4.41
  -3 -19  -4   -1.09    5.34
  -3  19  -4    4.53    4.49
  -3  19  -4   13.62    4.54
   3  19   5    2.82    5.01
   3 -19   5    5.52    3.80
   3  19   5   -2.50    4.47
  -3 -19  -5    1.31    4.73
  -3  19  -5    3.61    3.95
  -3  19  -5    0.83    3.99
  -4   0  17   11.87    6.20
  -4   0  16    8.88    5.53
  -4   0  15    0.98    4.03
  -4   0  14   20.39    5.70
  -4   0  13   32.22   10.15
   4   0 -12   47.42    3.01
  -4   0  12   69.10    6.96
   4   0 -11   54.65    2.86
  -4   0  11   64.10    6.66
   4   0 -10  201.86    6.61
   4   0 -10  225.07   18.27
  -4   0  10  207.62   13.40
   4   0  -9   90.97    8.44
   4   0  -9   66.45    2.65
  -4   0   9   68.50    6.12
   4   0  -8  221.74   15.33
   4   0  -8  243.52    8.88
  -4   0   8  229.29   17.78
   4   0  -7 1035.04   45.01
   4   0  -7 1037.77   75.39
  -4   0   7 1083.29   68.61
   4   0  -6   99.58    4.10
   4   0  -6   93.08    6.72
  -4   0   6   82.50    8.84
   4   0  -5   60.20    4.50
   4   0  -5   56.49    1.91
  -4   0   5   54.23    4.00
   4   0  -4  167.62    7.96
  -4   0   4  183.21    7.41
   4   0  -3  576.89   29.15
  -4   0   3  633.68   29.45
   4   0  -2  918.45   46.18
  -4   0   2 1004.11   41.95
   4   0  -1 1113.44   48.74
  -4   0   1 1148.98   48.76
   4   0   0 2173.80  122.62
  -4   0   0 2231.13  122.17
   4   0   1   38.38    1.56
  -4   0  -1   44.12    1.54
   4   0   2  853.33   28.31
  -4   0  -2  830.98   29.31
   4   0   3    1.89    0.53
  -4   0  -3    2.02    0.74
   4   0   4 1631.63   72.00
  -4   0  -4 1656.32   75.23
   4   0   5    1.14    0.52
  -4   0  -5    0.45    0.83
   4   0   6   66.15    1.80
   4   0   6   66.28    3.79
  -4   0  -6   73.21    1.89
   4   0   7   92.37    4.86
   4   0   7   95.21    2.61
   4   0   8    3.21    0.85
   4   0   8   -0.03    2.95
   4   0   8   -1.67    1.40
   4   0   9  671.19   33.11
   4   0   9  703.17   25.78
   4   0   9  670.27   28.74
   4   0  10  606.73   23.44
   4   0  10  626.07   31.92
   4   0  10  619.09   27.20
   4   0  11   84.95    5.05
   4   0  11   78.66    6.16
   4   0  11   88.63    6.99
   4   0  12   31.70    3.35
   4   0  12   26.40    4.47
   4   0  12   16.20    3.69
   4   0  13   12.66    5.80
   4   0  13    4.82    2.46
   4   0  13    4.41    2.88
   4   0  14    5.90    1.99
   4   0  14    3.22    4.42
   4   0  14    6.99    3.87
   4   0  15  169.28   14.35
   4   0  15  159.78   10.72
   4   0  15  136.19    7.62
   4   0  16   17.55    2.94
   4   0  16   22.67    6.13
   4   0  16   18.61    4.27
   4   0  17   18.83    6.91
  -4   1  17    6.05    5.12
  -4  -1  17   25.90   10.00
  -4   1  17   16.30    6.68
  -4  -1  16    4.88    4.68
  -4   1  16    1.23    8.25
  -4  -1  15   21.03    5.72
  -4   1  15   14.28    6.36
  -4   1  14   14.38    4.86
  -4  -1  14   -3.51    6.98
   4   1 -13   28.85    5.01
  -4   1  13   34.05   10.40
  -4  -1  13   37.94    5.88
   4   1 -12    1.74    1.45
  -4   1  12   -0.13    3.31
  -4  -1  12   -2.77    3.03
   4   1 -11    6.49    1.67
   4   1 -11    7.21    5.17
  -4   1  11   14.03    3.87
  -4  -1  11    5.50    3.44
   4   1 -10   68.93    8.09
   4   1 -10   66.22    4.91
   4  -1 -10   57.39    2.30
  -4  -1  10   63.30    6.05
  -4   1  10   79.33    6.94
   4   1  -9   13.48    2.65
   4   1  -9   21.35    4.46
   4  -1  -9   14.65    1.08
  -4  -1   9   15.35    3.26
  -4   1   9   22.32    5.87
   4   1  -8   42.46    5.12
   4   1  -8   34.90    2.06
   4  -1  -8   29.05    5.81
   4  -1  -8   34.83    2.01
  -4  -1   8   31.32    3.83
  -4   1   8   32.99    4.30
   4   1  -7  458.30   24.21
   4  -1  -7  434.34   11.78
   4   1  -7  455.20   15.39
   4  -1  -7  482.11   27.55
  -4   1   7  466.57   22.75
  -4  -1   7  474.96   21.44
   4   1  -6   69.48    3.98
   4   1  -6   56.00    8.04
   4  -1  -6   69.66    5.84
   4  -1  -6   65.08    2.36
  -4  -1   6   64.79    4.48
  -4   1   6   66.13    4.95
   4  -1  -5  355.15   24.17
   4   1  -5  340.08   16.16
   4  -1  -5  351.13    8.49
  -4  -1   5  387.43   15.25
  -4   1   5  380.27   16.05
   4   1  -4 1545.95   87.33
   4  -1  -4 1557.88   91.82
  -4   1   4 1633.43   90.42
  -4  -1   4 1623.51   86.64
   4   1  -3  113.55    5.48
   4  -1  -3  112.80    5.65
  -4  -1   3  129.16    4.88
  -4   1   3  133.94    5.35
   4   1  -2 1201.66   63.71
   4  -1  -2 1230.87   60.34
  -4   1   2 1282.43   60.17
  -4  -1   2 1273.68   57.30
   4  -1  -1   80.62    3.46
   4   1  -1   86.48    3.39
  -4   1   1   85.68    3.29
  -4  -1   1   83.06    4.69
   4   1   0  236.79    9.08
   4  -1   0  224.60    6.71
  -4   1   0  242.83    6.88
  -4  -1   0  237.25    6.78
   4   1   1 1652.56   79.49
   4  -1   1 1642.04   77.82
  -4  -1  -1 1650.68   82.10
  -4   1  -1 1697.95   77.77
   4  -1   2 1032.56   37.48
   4   1   2 1070.49   40.91
  -4  -1  -2 1051.77   39.18
  -4   1  -2 1077.79   37.46
   4  -1   3   99.88    1.85
   4   1   3   94.75    3.52
  -4   1  -3   96.20    1.66
  -4  -1  -3   99.47    3.32
   4   1   4  111.90    3.82
   4  -1   4  113.49    1.98
   4  -1   4  114.39    4.49
   4  -1   5   43.81    2.65
   4  -1   5   35.97    1.12
   4   1   5   35.98    1.44
  -4  -1  -5   38.12    1.45
   4  -1   6  308.09    7.52
   4  -1   6  313.11   12.34
   4   1   6  314.48   10.86
  -4  -1  -6  329.59    8.95
   4  -1   7  271.39    7.32
   4  -1   7  269.61    7.13
   4   1   7  258.80   10.94
   4   1   7  252.41    9.79
   4  -1   7  264.01   11.04
   4   1   8  279.98    8.96
   4   1   8  281.79   16.93
   4  -1   8  288.45   17.38
   4  -1   8  266.70    6.80
   4  -1   8  280.42    8.51
   4  -1   9   37.76    1.61
   4  -1   9   40.13    3.35
   4  -1   9   33.16    3.83
   4   1   9   33.10    3.61
   4   1   9   34.92    2.27
   4   1  10   74.12    3.82
   4   1  10   82.70    5.82
   4  -1  10   65.61    5.21
   4   1  10   76.70    5.71
   4  -1  10   76.18    2.90
   4  -1  10   88.92    9.82
   4   1  11  352.39   14.51
   4   1  11  350.92   18.88
   4  -1  11  374.71   20.37
   4  -1  11  358.65   13.67
   4  -1  11  339.52   15.77
   4   1  11  367.66   18.36
   4   1  12  207.55   11.66
   4   1  12  212.79   12.55
   4   1  12  193.08    8.39
   4  -1  12  198.10   13.36
   4  -1  12  160.38    9.21
   4  -1  12  204.13    8.93
   4  -1  13  103.40    8.57
   4  -1  13   75.89    6.03
   4   1  13   84.22    6.91
   4   1  13   74.87    4.91
   4  -1  13   85.95    8.00
   4   1  13   86.70    7.97
   4   1  14   78.40    6.95
   4   1  14   82.46   12.52
   4   1  14   73.27    4.95
   4  -1  14   69.74    8.47
   4  -1  14   74.91    8.87
   4  -1  14   63.17    3.92
   4  -1  15   36.63    6.33
   4  -1  15   19.64    2.65
   4   1  15   30.34    4.93
   4   1  15   25.53    3.36
   4   1  15   27.82    5.78
   4  -1  15   22.39    3.66
   4   1  16   13.35    5.81
   4   1  16   16.37    3.21
   4   1  16   18.64    4.73
   4  -1  16   12.58    6.19
   4  -1  17   26.78    7.82
  -4  -2  17    6.72    5.93
  -4   2  17   14.58    5.38
  -4   2  17   20.50    7.18
  -4  -2  16   11.70    5.02
  -4   2  16   11.60    4.55
  -4   2  16    1.20    6.24
   4   2 -15   12.52    3.04
  -4   2  15    6.07   10.00
  -4  -2  15   12.66    4.82
   4   2 -14   19.84    5.62
  -4  -2  14   33.30    9.66
  -4   2  14   37.72    7.15
   4   2 -13    2.50    7.99
   4   2 -13   23.29    4.84
  -4   2  13   24.45    6.14
  -4  -2  13   30.62    5.16
   4   2 -12    3.38    5.20
   4   2 -12    4.67    1.86
  -4  -2  12    4.61    3.20
  -4   2  12   -5.00    6.53
   4   2 -11   28.57    7.17
   4   2 -11   38.92    3.08
  -4   2  11   33.18    6.32
  -4  -2  11   49.35    5.21
   4   2 -10   95.43    6.91
   4   2 -10   89.99   15.57
  -4   2  10   93.15    8.74
  -4  -2  10   93.85    7.12
   4   2  -9  232.44   16.16
   4   2  -9  235.25    9.09
  -4  -2   9  240.79   12.93
  -4   2   9  253.85   15.38
   4   2  -8  105.58    8.32
   4   2  -8   99.40    4.47
  -4  -2   8  111.24    6.54
  -4   2   8  120.92    8.29
   4   2  -7   34.82    3.86
   4   2  -7   37.91    4.45
  -4  -2   7   35.56    3.54
  -4   2   7   46.51    4.43
   4   2  -6  778.27   31.76
   4   2  -6  801.82   40.60
   4  -2  -6  832.91   48.36
  -4  -2   6  862.57   39.73
  -4   2   6  851.44   43.12
   4  -2  -5   60.76    5.60
   4   2  -5   65.78    4.40
  -4  -2   5   55.41    3.63
  -4   2   5   63.54    4.52
   4   2  -4  563.20   24.44
   4  -2  -4  601.63   29.52
  -4  -2   4  604.28   23.51
  -4   2   4  583.55   25.58
   4   2  -3  569.55   22.48
   4  -2  -3  544.98   24.41
  -4  -2   3  579.60   21.04
  -4   2   3  581.58   23.48
   4  -2  -2  137.95    6.11
   4   2  -2  137.81    5.46
  -4   2   2  146.56    5.55
  -4  -2   2  143.90    5.13
   4  -2  -1  137.55    7.35
   4   2  -1  135.38    4.57
  -4  -2   1  130.81    6.37
  -4   2   1  126.84    4.48
   4   2   0  268.38   11.27
   4  -2   0  276.25    8.63
  -4   2   0  299.02   11.03
  -4  -2   0  282.51    8.35
   4   2   1 1109.01   46.09
   4  -2   1 1116.36   45.12
   4  -2   1 1108.53   44.65
  -4  -2  -1 1078.17   43.25
  -4   2  -1 1123.96   43.50
   4   2   2   16.38    1.24
   4  -2   2   18.94    0.87
  -4  -2  -2   16.33    1.11
  -4   2  -2   14.82    0.69
   4  -2   3  538.54   13.42
   4  -2   3  543.85   18.84
   4   2   3  528.89   16.76
  -4  -2  -3  545.59   16.65
   4   2   4  977.52   38.02
   4  -2   4 1036.24   50.25
  -4  -2  -4  943.52   39.59
   4  -2   5   68.75    3.67
   4   2   5   59.13    2.38
  -4  -2  -5   63.32    2.27
   4  -2   6  133.73    1.74
   4  -2   6  113.68    8.75
   4  -2   6  127.43    1.72
   4   2   6  111.71    4.03
  -4  -2  -6  110.30    3.81
   4  -2   7   29.29    0.82
   4   2   7   35.80    3.10
   4  -2   7   38.88    3.16
   4  -2   7   31.11    0.71
  -4  -2  -7   29.55    2.88
   4  -2   8  293.97   18.27
   4  -2   8  278.54    5.95
   4   2   8  280.59    9.71
   4  -2   8  264.63    6.15
   4   2   9   38.58    3.91
   4  -2   9   41.80    1.92
   4   2   9   41.35    4.28
   4  -2   9   41.14    1.55
   4  -2   9   42.82    4.29
   4   2  10  139.01    6.31
   4   2  10  139.09    8.04
   4  -2  10  153.69    9.30
   4  -2  10  137.94    3.80
   4  -2  10  140.19    5.82
   4   2  11    3.84    3.00
   4  -2  11    2.41    3.08
   4   2  11    7.72    1.89
   4   2  11    0.39    2.55
   4  -2  11    2.92    1.70
   4  -2  11    2.90    1.17
   4   2  12   61.84    9.53
   4   2  12   57.50    4.20
   4  -2  12   61.76    7.04
   4  -2  12   56.93    4.81
   4   2  12   67.04    6.30
   4   2  13    7.63    3.47
   4   2  13    8.04    2.38
   4  -2  13   10.25    2.32
   4  -2  13    6.28    4.23
   4  -2  13    8.52    1.69
   4   2  13    9.13    3.72
   4   2  14    5.61    3.38
   4   2  14    1.39    3.30
   4   2  14    2.00    2.21
   4  -2  14    4.26    4.04
   4  -2  14    3.61    1.37
   4  -2  14    4.63    2.86
   4   2  15   15.88    3.18
   4   2  15   13.27    7.68
   4  -2  15   16.83    5.72
   4  -2  15   12.66    1.91
   4  -2  15   14.36    2.31
   4   2  15   16.89    4.67
   4   2  16    3.31    4.14
   4  -2  16    0.84    4.62
   4   2  16    1.42    6.25
   4   2  17    6.99    4.60
   4   2  17    4.11    2.83
   4  -2  17    0.64    5.87
  -4  -3  17   28.30    6.76
  -4   3  17   21.93    8.63
  -4   3  17   16.56    6.24
   4   3 -16   33.26    4.87
  -4  -3  16   25.59    6.78
  -4   3  16   46.73    9.64
  -4   3  16   30.94    6.78
   4   3 -15   14.67    5.91
  -4  -3  15   20.14    8.36
  -4   3  15   10.66    5.24
  -4   3  15   38.84    7.27
   4   3 -14    4.34    8.44
   4   3 -14   26.98    5.48
  -4  -3  14   18.44    5.02
  -4   3  14   29.93   10.85
   4   3 -13   11.24    2.82
   4   3 -13   16.39    7.05
  -4   3  13   15.31    5.56
  -4  -3  13   16.12    4.09
   4   3 -12   17.68    6.58
   4   3 -12   18.55    2.99
  -4  -3  12   25.31    4.25
  -4   3  12   27.89    5.79
   4   3 -11  211.63   25.97
   4   3 -11  194.72    9.19
  -4   3  11  202.50   16.76
  -4  -3  11  220.56   12.66
   4   3 -10   24.42    2.65
   4   3 -10   21.66    5.46
  -4  -3  10   27.34    3.73
  -4   3  10   21.87    5.39
   4   3  -9    4.98    3.51
   4   3  -9    8.60    1.87
  -4  -3   9    6.29    2.61
  -4   3   9    5.22    3.63
   4   3  -8   94.61    7.96
   4   3  -8   94.05    7.43
  -4  -3   8  104.59    6.20
  -4   3   8  100.41   13.16
   4   3  -7  112.86    7.39
   4   3  -7  117.04    4.93
  -4  -3   7   98.99    9.16
  -4   3   7  113.80    8.14
   4   3  -6  244.28   11.95
   4   3  -6  224.83   11.73
  -4  -3   6  250.37    9.90
  -4   3   6  233.46   12.91
   4   3  -5   74.47    4.93
  -4  -3   5   75.83    4.21
  -4   3   5   92.75    5.79
   4   3  -4 1002.45   49.06
  -4  -3   4 1057.97   47.44
  -4   3   4 1000.84   60.90
   4   3  -3  613.60   30.71
   4  -3  -3  599.42   15.77
  -4   3   3  651.19   34.15
  -4  -3   3  639.17   23.79
   4  -3  -2 1191.93   45.52
   4   3  -2 1174.03   55.09
  -4   3   2 1216.29   66.70
  -4  -3   2 1218.52   55.15
   4  -3  -1    0.76    0.56
   4   3  -1    3.41    1.25
  -4   3   1    0.10    1.92
  -4  -3   1    4.10    1.11
   4   3   0 1101.68   46.53
   4  -3   0 1051.21   40.56
  -4  -3   0 1028.56   42.58
  -4   3   0 1073.11   45.27
   4  -3   1 1391.34   62.55
   4   3   1 1335.87   67.70
  -4  -3  -1 1369.20   62.02
  -4   3  -1 1378.66   60.51
   4   3   2  637.96   22.43
   4  -3   2  664.88   27.03
  -4  -3  -2  638.80   21.60
  -4   3  -2  650.49   21.09
   4   3   3   80.44    4.32
   4  -3   3   73.19    3.32
  -4  -3  -3   69.66    2.66
  -4   3  -3   77.25    1.10
   4   3   4   83.47    3.23
   4  -3   4   88.40    4.19
  -4  -3  -4   89.22    3.05
   4   3   5  572.27   20.75
   4  -3   5  613.95   24.54
  -4  -3  -5  570.49   23.51
   4   3   6   56.50    2.87
   4  -3   6   64.28    4.09
  -4  -3  -6   65.51    2.73
   4   3   7   81.92    5.30
   4  -3   7   69.21    4.97
  -4  -3  -7   73.53    3.30
   4   3   8   88.94    4.09
   4  -3   8   90.06    5.77
  -4  -3  -8   77.46    3.84
   4   3   9    3.95    2.70
   4  -3   9   -0.60    2.55
   4  -3   9    3.22    0.54
   4  -3   9    3.26    0.34
   4  -3  10  110.05    8.44
   4   3  10  109.46    6.79
   4  -3  10   99.56    2.30
   4   3  10  117.04    5.76
   4  -3  10  113.65    3.25
   4   3  11   66.18    6.00
   4  -3  11   73.57    2.18
   4  -3  11   95.70   12.50
   4   3  11   78.30    5.04
   4  -3  11   70.72    3.00
   4   3  12  126.33   10.01
   4   3  12  109.94    6.24
   4   3  12  107.51    7.72
   4  -3  12  113.83    9.86
   4  -3  12   90.63    4.13
   4  -3  12   93.14    4.27
   4   3  13   11.64    4.04
   4   3  13   15.98    3.32
   4   3  13    6.41    2.53
   4  -3  13    3.82    4.29
   4  -3  13    7.25    1.08
   4  -3  13    8.12    1.16
   4   3  14    0.69    3.95
   4   3  14    4.32    3.21
   4   3  14    2.25    2.48
   4  -3  14    2.99    1.15
   4  -3  14    5.52    4.23
   4  -3  14    3.97    1.07
   4   3  15   22.75    5.44
   4   3  15   13.20    3.51
   4   3  15   16.12    4.75
   4  -3  15   19.17    6.18
   4  -3  16   22.79    7.02
   4   3  16   10.24    5.99
   4   3  16   10.32    9.85
   4   3  17    8.93    9.24
   4   3  17    5.97    3.32
   4  -3  17    8.87    6.51
   4   4 -17    8.49    4.21
  -4  -4  17   16.98    5.96
  -4   4  17   24.62    8.00
  -4   4  17    6.05    5.52
   4   4 -16    4.72    6.65
  -4  -4  16   13.00    5.32
  -4   4  16   23.52    7.68
  -4   4  16   18.29    5.41
   4   4 -15    2.33    2.75
  -4   4  15    7.11    6.24
  -4  -4  15    6.33    5.84
  -4   4  15   -4.35    5.36
   4   4 -14    0.67    2.31
   4   4 -14    2.05    5.40
  -4  -4  14   -1.41    3.04
  -4   4  14    0.62    3.18
  -4   4  14    2.99    4.42
   4   4 -13   41.70    4.35
   4   4 -13   31.47    8.97
  -4   4  13   27.87    5.87
  -4   4  13   44.95   13.65
  -4  -4  13   50.70    5.67
   4   4 -12    8.36    2.66
   4   4 -12   20.30    8.64
  -4  -4  12    9.52    3.24
  -4   4  12   15.51    5.21
   4   4 -11   56.36    4.57
   4   4 -11   60.33    8.65
  -4  -4  11   57.90    5.57
  -4   4  11   63.12    8.54
   4   4 -10   45.24    3.95
   4   4 -10   50.03    6.63
  -4   4  10   52.05    7.19
  -4  -4  10   43.50    4.62
   4   4  -9   19.61    4.35
   4   4  -9   18.59    2.58
  -4  -4   9   14.87    3.04
  -4   4   9   24.82    4.64
   4   4  -8    4.38    2.90
   4   4  -8    6.17    1.90
  -4  -4   8    3.20    3.55
  -4   4   8    4.75    3.36
   4   4  -7    1.73    1.58
   4   4  -7    3.77    2.36
  -4  -4   7    2.31    1.80
  -4   4   7   -0.51    2.79
   4   4  -6   30.46    4.07
   4   4  -6   29.36    3.40
  -4  -4   6   21.11    2.80
  -4   4   6   27.39    4.14
   4   4  -5   78.08    5.13
  -4  -4   5   86.80    4.34
  -4   4   5   87.97    6.46
   4   4  -4   44.03    3.56
  -4  -4   4   53.13    4.87
  -4   4   4   51.26    4.45
   4  -4  -3  643.54   18.52
   4   4  -3  590.62   24.65
  -4  -4   3  636.54   24.86
  -4   4   3  627.47   29.23
   4  -4  -2  353.78    8.58
   4   4  -2  333.43   13.01
  -4   4   2  346.44   14.26
  -4  -4   2  348.68   15.83
   4  -4  -1  106.55    2.83
   4   4  -1  110.13    6.71
  -4  -4   1  114.44    4.22
  -4   4   1  112.43    4.75
   4   4   0   51.92    2.86
   4  -4   0   55.16    3.18
  -4   4   0   54.93    1.95
  -4  -4   0   57.60    2.55
  -4   4   0   58.15    2.75
   4   4   1  703.70   26.68
   4  -4   1  710.59   25.40
  -4  -4  -1  705.46   25.54
  -4   4  -1  687.12   25.12
  -4   4  -1  692.24   24.03
   4   4   2 1650.44   85.19
   4  -4   2 1666.84   85.69
  -4  -4  -2 1662.70   84.00
  -4   4  -2 1609.89   76.62
  -4   4  -2 1631.53   87.45
  -4   4  -2 1696.16   78.00
   4   4   3  200.57    6.96
   4  -4   3  213.95    7.53
  -4   4  -3  202.62    4.28
  -4  -4  -3  207.00    6.56
  -4   4  -3  216.62    3.95
  -4   4  -3  198.46    9.69
   4   4   4    6.38    1.37
   4  -4   4    6.05    1.70
  -4  -4  -4    5.86    1.26
  -4   4  -4    7.27    1.47
   4  -4   5  155.80   10.90
   4   4   5  161.04    6.01
  -4  -4  -5  159.28    5.60
  -4   4  -5  151.00    6.29
   4  -4   6  413.94   18.34
   4   4   6  395.93   15.15
  -4   4  -6  402.99   16.13
  -4  -4  -6  429.38   15.16
   4   4   7   46.83    4.93
   4  -4   7   45.79    4.54
  -4  -4  -7   54.34    2.97
  -4   4  -7   48.84    3.58
   4   4   8   19.23    2.50
   4  -4   8   28.58    3.59
  -4  -4  -8   23.42    2.33
   4   4   9   72.48    4.63
   4  -4   9   71.90    6.52
   4   4  10   29.37    5.34
   4  -4  10   30.09    5.00
   4   4  11    6.15    2.03
   4   4  11   -2.49    2.18
   4  -4  11    0.31    0.52
   4  -4  11    0.32    0.34
   4  -4  11    4.96    2.99
   4  -4  12   18.97    0.79
   4   4  12   17.97    3.21
   4   4  12   19.92    3.63
   4  -4  12   17.75    1.34
   4  -4  12   16.87    5.15
   4   4  13  171.55    9.48
   4   4  13  171.74   10.87
   4  -4  13  141.42    4.63
   4  -4  13  142.76    4.76
   4   4  13  183.70   15.63
   4  -4  13  186.98   14.56
   4   4  14    9.53    4.51
   4   4  14   12.34    2.74
   4   4  14    7.54    3.25
   4  -4  14    3.14    1.06
   4  -4  14    3.52    1.17
   4  -4  14    6.77    4.57
   4   4  15    7.91    6.47
   4   4  15    7.38    5.38
   4   4  15    7.57    5.31
   4  -4  15    7.32    5.84
   4   4  16    8.06    4.57
   4   4  16   -1.79    2.76
   4  -4  16    0.68    5.12
   4   4  17   10.56    3.92
   4   4  17    7.94   10.68
   4   5 -17   -0.38    3.30
  -4  -5  17   -0.24    4.05
  -4   5  17  -15.41    9.83
  -4   5  17    2.76    4.28
   4   5 -16   17.12    4.36
  -4   5  16   11.71    5.67
  -4   5  16   18.93    8.29
  -4  -5  16   18.04    8.78
   4   5 -15    5.31    6.88
   4   5 -15    2.52    3.14
  -4   5  15   14.54    6.14
  -4  -5  15    3.07    6.36
  -4   5  15    2.87    4.11
   4   5 -14   49.56    5.37
   4   5 -14   41.90   10.26
  -4  -5  14   49.06    6.69
  -4   5  14   57.22   10.68
  -4   5  14   33.75    7.13
   4   5 -13   96.57   21.35
   4   5 -13   94.62   11.35
  -4  -5  13  109.84    8.88
  -4   5  13   79.24    9.34
  -4   5  13   95.25   13.31
   4   5 -12    3.20    4.03
   4   5 -12    6.13    4.57
  -4  -5  12   -4.01    2.86
  -4   5  12    2.76    7.94
  -4   5  12   13.53    3.30
   4   5 -11   85.02    6.05
   4   5 -11   88.24   10.09
  -4  -5  11   96.63    7.05
  -4   5  11   79.02    7.81
  -4   5  11   96.84   11.54
   4   5 -10   23.27    5.77
   4   5 -10   27.90    3.66
  -4  -5  10   41.59    4.12
  -4   5  10   29.15    6.62
   4   5  -9  101.44    9.12
   4   5  -9  111.96    6.44
  -4  -5   9  125.83   11.14
  -4   5   9  123.48   11.67
   4   5  -8   25.29    2.95
   4   5  -8   23.26    4.13
  -4  -5   8   21.03    3.04
  -4   5   8   24.41    5.17
   4   5  -7   33.23    4.00
   4   5  -7   23.67    4.62
  -4  -5   7   27.59    3.01
  -4   5   7   30.00    8.29
   4   5  -6  192.85    8.64
   4   5  -6  195.80   10.50
  -4  -5   6  213.85   12.46
  -4   5   6  215.49   13.14
   4   5  -5  297.68   13.94
  -4  -5   5  308.91   12.31
  -4   5   5  310.30   16.94
   4   5  -4  417.44   23.03
  -4  -5   4  396.91   15.49
  -4   5   4  439.71   30.75
   4   5  -3  769.73   35.58
  -4  -5   3  802.78   33.70
  -4   5   3  859.71   44.40
   4  -5  -2   35.88    1.50
   4   5  -2   29.62    2.80
  -4   5   2   37.39    3.75
  -4  -5   2   40.65    2.52
  -4   5   2   36.66    1.19
   4   5  -1  829.93   36.45
   4  -5  -1  853.37   35.34
  -4  -5   1  855.52   35.15
  -4   5   1  870.29   41.07
  -4   5   1  863.12   33.20
  -4   5   1  831.18   33.04
   4  -5   0   87.23    4.75
   4   5   0   70.80    3.74
  -4   5   0   85.74    2.62
  -4   5   0   88.26    4.16
  -4  -5   0   73.55    3.47
   4   5   1  629.91   24.85
   4  -5   1  650.70   24.32
  -4  -5  -1  631.33   23.80
  -4   5  -1  632.15   22.10
  -4   5  -1  636.58   20.93
   4  -5   2  250.60    9.21
   4   5   2  249.43    9.06
  -4  -5  -2  252.78    8.59
  -4   5  -2  243.72    8.05
  -4   5  -2  258.17    7.69
   4  -5   3  921.23   39.35
   4   5   3  888.16   37.01
  -4  -5  -3  885.23   41.28
  -4   5  -3  902.41   28.70
  -4   5  -3  873.66   41.22
  -4   5  -3  712.55   26.96
   4   5   4  117.32    5.05
   4  -5   4  130.29    6.21
  -4  -5  -4  115.72    4.75
  -4   5  -4  123.75    5.16
  -4   5  -4  121.97    2.37
   4  -5   5  671.37   30.45
   4   5   5  637.14   26.76
  -4  -5  -5  659.78   25.99
  -4   5  -5  645.22   26.53
   4  -5   6  113.24    7.20
   4   5   6  113.71    5.46
  -4   5  -6  123.10    5.63
  -4  -5  -6  120.05    5.14
   4   5   7  134.57    6.41
   4  -5   7  140.79    8.47
  -4  -5  -7  130.14    5.91
  -4   5  -7  130.06    9.81
   4   5   8   60.99    4.06
   4  -5   8   56.45    5.68
  -4  -5  -8   50.38    3.67
  -4   5  -8   55.06    4.23
   4   5   9  201.44   10.29
   4  -5   9  221.40   13.73
  -4  -5  -9  210.30    9.55
  -4   5  -9  197.56   10.87
   4   5  10   25.20    3.49
   4  -5  10   25.23    5.11
   4   5  11   19.99    5.39
   4   5  11   12.54    3.42
   4  -5  11   22.89    4.83
   4   5  12    6.12    4.39
   4   5  12    5.15    4.64
   4  -5  12    9.38    4.46
   4   5  13   40.78    8.06
   4  -5  13   49.63   12.73
   4   5  13   28.14    7.29
   4   5  14   35.81    7.95
   4   5  14   18.25    6.97
   4   5  14   23.90    4.72
   4  -5  14   28.17    7.48
   4   5  15   -1.24    5.22
   4   5  15    7.63    3.41
   4   5  15   -0.50    2.96
   4  -5  15    2.65    5.28
   4   5  16   -0.35    2.92
   4  -5  16   -0.11    5.17
   4   5  16    3.45    5.08
   4   5  17   -1.93    5.77
   4   5  17    2.42    3.35
   4  -5  17    5.22    6.02
   4   6 -17   -8.47    4.37
   4   6 -16   12.80    7.62
   4   6 -16    5.97    6.67
  -4   6  16   16.86    7.58
  -4  -6  16   -3.90    7.62
  -4   6  16    8.97    5.34
   4   6 -15    5.44    7.43
   4   6 -15    5.86    3.56
  -4  -6  15    9.78    6.69
  -4   6  15    6.37    7.86
  -4   6  15   13.06    7.23
   4   6 -14   17.98    6.81
   4   6 -14   14.40    3.65
  -4  -6  14    8.41    4.08
  -4   6  14    8.47    4.76
  -4   6  14    9.79    7.06
   4   6 -13   24.42    3.87
   4   6 -13   21.21    6.96
  -4  -6  13   17.95    4.21
  -4   6  13   18.56    7.57
  -4   6  13   14.76    4.78
   4   6 -12   56.25    5.48
   4   6 -12   37.18    9.18
  -4   6  12   57.15    6.99
  -4   6  12   60.17   10.24
  -4  -6  12   70.74    6.05
   4   6 -11   54.65    5.36
   4   6 -11   58.00    8.16
  -4   6  11   52.61   10.26
  -4  -6  11   60.19    5.56
  -4   6  11   71.12   16.14
   4   6 -10   68.89    7.57
   4   6 -10   67.03    5.50
  -4   6  10   54.73    6.44
  -4  -6  10   67.31    8.78
  -4   6  10   68.59    9.68
   4   6  -9  215.31   16.97
   4   6  -9  221.19   14.75
  -4  -6   9  215.45   11.13
  -4   6   9  217.64   17.80
  -4   6   9  197.07   12.57
   4   6  -8   86.52    7.54
   4   6  -8   79.58    8.97
  -4  -6   8   96.34    5.76
  -4   6   8   96.25    9.83
  -4   6   8   79.99    6.43
   4   6  -7  130.91   10.82
   4   6  -7  134.45    8.75
  -4  -6   7  132.41    7.04
  -4   6   7  144.41   11.53
  -4   6   7  127.46    7.53
   4   6  -6    3.12    2.42
   4   6  -6    3.03    2.08
  -4  -6   6    8.01    1.92
  -4   6   6    4.85    6.10
  -4   6   6    7.91    2.13
   4   6  -5   46.00    3.91
  -4  -6   5   45.35    3.26
  -4   6   5   43.22    5.85
  -4   6   5   44.45    3.53
   4   6  -4   69.15    4.37
  -4  -6   4   66.68    3.74
  -4   6   4   78.71    6.41
  -4   6   4   56.54    3.86
  -4   6   4   63.51    1.24
   4   6  -3  260.99   15.20
  -4  -6   3  248.50    9.72
  -4   6   3  259.79    5.90
  -4   6   3  239.76    9.81
   4  -6  -2  177.43    5.38
   4   6  -2  162.34    7.42
  -4   6   2  174.90    5.65
  -4   6   2  163.21    6.27
  -4  -6   2  164.52    6.59
   4   6  -1   19.49    2.24
   4  -6  -1   14.52    1.64
  -4  -6   1    9.12    1.99
  -4   6   1   18.30    1.17
  -4   6   1   13.63    1.69
   4   6   0  502.11   20.35
   4  -6   0  533.83   19.59
  -4   6   0  498.78   17.59
  -4  -6   0  518.73   19.51
  -4   6   0  504.33   16.77
   4   6   1  235.52    9.18
   4  -6   1  249.24   12.75
  -4  -6  -1  229.23    8.56
  -4   6  -1  231.37    7.63
  -4   6  -1  223.29    8.92
   4   6   2  137.88    9.20
   4  -6   2  153.99    6.59
  -4   6  -2  152.10    7.95
  -4  -6  -2  155.30    6.03
  -4   6  -2  149.17    4.13
   4   6   3   43.47    3.37
   4  -6   3   56.18    3.86
  -4  -6  -3   57.42    3.17
  -4   6  -3   51.55    1.59
  -4   6  -3   57.48    3.05
   4   6   4  127.98    6.00
   4  -6   4  134.40    7.02
  -4  -6  -4  139.56    5.69
  -4   6  -4  135.01    3.52
  -4   6  -4  123.23    5.61
   4  -6   5    5.87    2.35
   4   6   5    6.84    1.84
  -4   6  -5    5.30    0.62
  -4  -6  -5    6.54    2.67
  -4   6  -5    3.01    1.77
   4  -6   6   31.58    3.80
   4   6   6   27.29    2.99
  -4   6  -6   36.44    4.80
  -4  -6  -6   32.65    2.72
   4   6   7   36.27    3.44
   4  -6   7   42.58    4.70
  -4  -6  -7   38.30    3.13
  -4   6  -7   36.07    3.45
   4  -6   8  104.81    8.34
   4   6   8   96.45    9.27
  -4  -6  -8  102.55    5.55
  -4   6  -8   92.79    6.07
   4   6   9   19.14    3.19
   4  -6   9    8.65    4.51
  -4   6  -9   13.68    5.36
  -4  -6  -9   22.34    2.86
   4   6  10   24.94    3.88
   4  -6  10   31.97    5.43
  -4   6 -10   22.54    3.81
   4  -6  11   36.14   10.06
   4   6  11   26.98    4.25
  -4   6 -11   24.97    4.28
   4   6  12   64.41    6.02
   4   6  12   64.99    6.09
   4  -6  12   69.63    9.91
   4   6  13    9.92    3.22
   4   6  13    3.92    3.20
   4  -6  13    7.84    5.17
   4   6  14   20.55    4.38
   4   6  14   13.02    4.27
   4  -6  14   34.58   11.85
   4   6  14   22.17    7.94
   4   6  15    4.56   10.49
   4   6  15    3.97    3.68
   4   6  15    6.95    6.33
   4  -6  15   17.22    6.22
   4   6  16    5.01    5.58
   4   6  16   -3.92    3.15
   4  -6  16    4.47    5.38
   4   7 -16    7.17    7.65
   4   7 -16    5.77    4.41
  -4   7  16   14.98    8.25
  -4  -7  16    2.99    7.65
  -4   7  16   12.57    5.49
   4   7 -15    7.33    7.03
   4   7 -15   13.57    3.99
  -4  -7  15    5.11    4.32
  -4   7  15    6.65    5.16
  -4   7  15    9.88    7.76
   4   7 -14   15.68    6.58
   4   7 -14   12.15    6.90
  -4  -7  14   10.49    4.18
  -4   7  14   18.13    4.82
  -4   7  14    1.87    7.69
   4   7 -13  110.15    8.28
   4   7 -13   93.79   13.39
  -4  -7  13  105.91    8.81
  -4   7  13   79.61   16.06
  -4   7  13  123.01   15.69
   4   7 -12   94.77   17.66
   4   7 -12   78.53    7.18
  -4   7  12   73.56    8.95
  -4   7  12   96.15   13.97
  -4  -7  12  102.02    7.66
   4   7 -11   46.22    4.63
   4   7 -11   24.85   11.34
  -4  -7  11   33.76    4.62
  -4   7  11   49.40    8.93
  -4   7  11   26.38    5.65
   4   7 -10   17.85    5.12
   4   7 -10   18.08    3.61
  -4  -7  10   18.35    5.62
  -4   7  10   24.65    4.31
  -4   7  10   25.00   10.84
   4   7  -9  189.84   11.67
   4   7  -9  184.08   13.98
  -4  -7   9  194.39   10.56
  -4   7   9  223.22   18.06
  -4   7   9  192.29   12.59
   4   7  -8   57.55   11.04
   4   7  -8   62.03    5.47
  -4  -7   8   74.53    5.16
  -4   7   8   88.25    9.48
  -4   7   8   66.53    6.06
   4   7  -7  154.06   14.39
   4   7  -7  124.95    8.37
  -4  -7   7  170.33   11.58
  -4   7   7  195.15   14.71
  -4   7   7  145.28    8.74
   4   7  -6  261.67   13.89
   4   7  -6  264.69   12.81
  -4  -7   6  284.10   11.84
  -4   7   6  312.92   20.34
  -4   7   6  250.50   12.75
   4   7  -5   27.87    3.35
  -4  -7   5   31.04    4.50
  -4   7   5   23.15    3.14
  -4   7   5   28.75    0.72
   4   7  -4   29.79    3.10
  -4   7   4   20.98    2.74
  -4   7   4   22.92    0.94
  -4  -7   4   23.99    2.53
   4   7  -3   98.25    5.98
  -4  -7   3  106.78    5.19
  -4   7   3  104.52    8.00
  -4   7   3  118.37    4.22
   4   7  -2  126.31    6.82
  -4  -7   2  140.32    5.87
  -4   7   2  133.06    5.87
  -4   7   2  134.29    3.76
   4   7  -1 1966.27  136.31
   4  -7  -1 2147.45  125.38
  -4  -7   1 1955.49  118.94
  -4   7   1 2012.30  128.61
  -4   7   1 1998.92  110.07
   4  -7   0  428.04   21.41
   4   7   0  411.03   17.11
  -4   7   0  410.81   18.44
  -4   7   0  407.59   13.60
  -4  -7   0  399.52   15.85
   4   7   1  373.18   15.53
   4  -7   1  372.61   15.23
  -4  -7  -1  371.10   14.46
  -4   7  -1  376.57   12.52
  -4   7  -1  380.51   16.61
   4  -7   2   89.59    4.92
   4   7   2   74.77    4.57
  -4  -7  -2   74.63    4.03
  -4   7  -2   77.38    2.79
  -4   7  -2   74.45    3.70
   4   7   3   40.78    5.24
   4  -7   3   36.70    3.91
  -4  -7  -3   40.71    2.95
  -4   7  -3   37.47    2.52
  -4   7  -3   42.30    2.82
   4   7   4  120.10    6.37
   4  -7   4  137.83    7.78
  -4  -7  -4  116.12    8.35
  -4   7  -4  127.06    4.20
  -4   7  -4  123.98    5.87
   4  -7   5   10.36    3.03
   4   7   5   13.78    2.33
  -4   7  -5    9.89    1.18
  -4   7  -5   10.65    2.11
  -4  -7  -5   11.83    3.37
   4  -7   6   12.24    3.45
   4   7   6   12.78    4.09
  -4   7  -6   11.60    0.60
  -4   7  -6   18.37    2.38
  -4  -7  -6   18.22    2.34
   4  -7   7    7.27    2.94
   4   7   7    4.37    2.12
  -4  -7  -7    6.99    1.85
  -4   7  -7    1.89    0.42
  -4   7  -7    4.10    2.03
   4  -7   8   21.13    4.99
   4   7   8   20.71    3.42
  -4  -7  -8   19.80    2.99
  -4   7  -8   21.60    3.24
   4   7   9  135.28   13.70
   4  -7   9  142.26   12.68
  -4  -7  -9  145.77    8.21
  -4   7  -9  130.42    8.47
   4   7  10   86.97    7.23
   4  -7  10   94.31   10.48
  -4   7 -10   89.49   10.78
   4   7  11   16.99    3.87
   4  -7  11   20.03    5.80
  -4   7 -11   13.46    3.63
   4   7  12    9.34    3.38
   4  -7  12    7.06    8.56
  -4   7 -12    5.41    3.39
   4   7  13   90.90    7.56
   4  -7  13  100.98   11.94
   4   7  13   74.63    7.91
   4   7  14   60.98    7.50
   4   7  14   68.42    7.22
   4  -7  14   86.66   11.65
   4   7  15   11.33    7.57
   4   7  15    5.04    4.12
   4  -7  15   14.70    6.79
   4   7  16   -4.88    7.10
   4   7  16    6.70    3.86
   4   8 -16   11.31   10.23
   4   8 -16    3.67    3.81
  -4   8  16    2.34    5.54
  -4   8  16    3.61    7.72
  -4  -8  16    3.14    6.59
   4   8 -15   13.65    7.97
   4   8 -15   17.68    4.82
  -4   8  15    6.10    5.89
  -4  -8  15   12.78    4.56
  -4   8  15   16.14    9.04
   4   8 -14   15.46    4.18
   4   8 -14    9.22    6.98
  -4  -8  14   10.76    3.95
  -4   8  14   16.77    7.89
  -4   8  14   10.35    5.03
   4   8 -13   12.45    3.74
   4   8 -13    8.66    6.09
  -4  -8  13    7.32    3.61
  -4   8  13   13.58   12.22
  -4   8  13   15.12    4.63
   4   8 -12   49.10    5.38
   4   8 -12   38.85    8.47
  -4  -8  12   46.54    5.42
  -4   8  12   40.05    6.61
  -4   8  12   53.33   10.92
   4   8 -11   42.43    7.40
   4   8 -11   41.51    5.17
  -4  -8  11   49.66    7.98
  -4   8  11   47.50   15.59
  -4   8  11   40.38    6.46
   4   8 -10    3.89    4.60
   4   8 -10   12.93    3.34
  -4  -8  10   20.46    5.03
  -4   8  10   12.24    6.41
  -4   8  10   14.05    3.97
   4   8  -9   55.06    5.51
   4   8  -9   52.85    6.92
  -4  -8   9   68.63    4.96
  -4   8   9   45.80    6.37
  -4   8   9   47.17    9.40
   4   8  -8  195.28   12.72
   4   8  -8  178.43   10.82
  -4  -8   8  182.36    9.71
  -4   8   8  202.80   18.55
  -4   8   8  156.71   11.70
   4   8  -7  135.10    8.56
   4   8  -7  132.32    9.51
  -4  -8   7  143.56   11.25
  -4   8   7  164.71   14.64
  -4   8   7  119.61    8.92
   4   8  -6    6.33    5.26
   4   8  -6   27.94    3.54
  -4  -8   6   27.54    2.76
  -4   8   6   16.88    0.91
  -4   8   6   18.86    3.27
   4   8  -5  122.90    7.88
   4   8  -5  143.52    8.14
  -4  -8   5  129.24    6.63
  -4   8   5  142.51    3.28
  -4   8   5  125.26    7.62
   4   8  -4   18.90    4.88
  -4   8   4   16.83    1.84
  -4   8   4   18.39    2.75
  -4  -8   4   19.92    2.46
   4   8  -3   43.11    3.99
  -4  -8   3   41.51    3.28
  -4   8   3   39.40    2.80
  -4   8   3   45.53    5.49
   4   8  -2  291.34   13.32
  -4   8   2  295.31   11.54
  -4   8   2  280.58   12.15
  -4  -8   2  283.28   11.87
   4   8  -1   20.77    2.96
  -4   8   1   23.44    2.44
  -4   8   1   22.31    2.82
  -4  -8   1   25.56    2.56
   4   8   0  146.59    7.74
   4  -8   0  154.54    7.46
  -4   8   0  156.06    5.61
  -4   8   0  153.02    8.69
  -4  -8   0  150.23    6.93
   4   8   1  293.59   12.96
   4  -8   1  315.50   13.53
  -4  -8  -1  278.80   12.09
  -4   8  -1  298.85   10.26
  -4   8  -1  282.45   10.60
   4   8   2  571.60   25.98
   4  -8   2  599.89   27.42
  -4  -8  -2  548.76   24.39
  -4   8  -2  566.19   23.14
  -4   8  -2  591.22   21.41
   4   8   3  170.34   12.41
   4  -8   3  185.00    9.66
  -4  -8  -3  160.92    7.60
  -4   8  -3  172.14    5.30
  -4   8  -3  152.78   10.38
   4   8   4   62.53    4.85
   4  -8   4   76.46    5.97
  -4  -8  -4   64.92    4.48
  -4   8  -4   74.56    3.64
  -4   8  -4   72.71    4.37
   4  -8   5   25.70    6.69
   4  -8   5   21.99    1.22
   4   8   5   26.52    3.23
  -4  -8  -5   24.74    2.87
  -4   8  -5   22.38    1.95
  -4   8  -5   29.72    2.87
   4   8   6   58.45    5.07
   4  -8   6   81.28   10.34
   4  -8   6   62.42    1.64
  -4   8  -6   56.92    2.65
  -4   8  -6   60.84    7.17
  -4  -8  -6   66.20    4.59
   4   8   7   20.44    3.37
   4  -8   7   17.24    0.71
   4  -8   7   27.27    7.47
  -4   8  -7   20.47    3.19
  -4  -8  -7   20.56    3.01
  -4   8  -7   18.65    0.94
   4  -8   8   67.58   11.36
   4   8   8   53.15    5.09
  -4   8  -8   44.10    1.02
  -4   8  -8   67.84    4.77
  -4  -8  -8   61.79    6.96
   4   8   9   17.14    3.62
   4  -8   9   19.78    8.41
  -4  -8  -9   11.11    5.12
  -4   8  -9   13.29    3.38
   4   8  10    8.23    5.94
   4  -8  10   21.27    5.40
  -4  -8 -10   13.09    3.33
  -4   8 -10   10.50    3.37
   4   8  11   11.12    3.99
   4  -8  11   11.84    5.79
  -4   8 -11   18.99    5.88
   4   8  12    5.70    3.56
   4  -8  12    2.87    4.84
  -4   8 -12    5.03    3.34
   4   8  13   42.61    6.33
   4   8  13   42.89    5.77
   4  -8  13   41.12    9.62
  -4   8 -13   56.00    6.58
   4   8  14    3.60    3.66
   4   8  14    2.84    3.22
   4   8  15   10.20    7.69
   4   8  15    5.05    4.20
   4  -8  15    5.16    6.62
   4   8  16   45.23   20.53
   4   8  16    5.76   10.07
   4  -8  16   50.08   11.78
   4   9 -15    9.51    4.20
   4   9 -15    7.41    6.22
  -4  -9  15    3.40    3.81
  -4   9  15    2.33    4.97
  -4   9  15    1.42    7.54
   4   9 -14   11.40    6.39
   4   9 -14   11.00    4.05
  -4   9  14   19.47   12.75
  -4   9  14    3.25    5.01
  -4  -9  14    9.25    3.90
   4   9 -13   -1.75    3.08
   4   9 -13    3.38    4.73
  -4   9  13   -0.49    5.93
  -4   9  13    2.93    3.83
  -4  -9  13    2.14    2.78
   4   9 -12   20.41   11.96
   4   9 -12   28.43    8.83
  -4   9  12   19.80   10.13
  -4   9  12   39.10   10.12
  -4  -9  12   39.92    4.81
   4   9 -11   43.99    5.30
   4   9 -11   34.64   11.65
  -4   9  11   41.72   10.13
  -4   9  11   25.95    9.92
  -4  -9  11   33.48    7.70
   4   9 -10   61.27    6.05
   4   9 -10   52.97   12.84
  -4  -9  10   61.13    5.53
  -4   9  10   63.62    7.53
  -4   9  10   68.90   11.23
   4   9  -9    4.65    3.89
   4   9  -9    7.98    3.18
  -4  -9   9    6.91    2.70
  -4   9   9   12.08    6.04
  -4   9   9    7.93    3.64
   4   9  -8  282.65   15.42
   4   9  -8  271.54   17.98
  -4  -9   8  293.84   14.63
  -4   9   8  317.07   26.60
  -4   9   8  246.68   16.91
   4   9  -7   50.94    5.61
   4   9  -7   47.95    8.23
  -4  -9   7   56.80    4.36
  -4   9   7   46.80    1.36
  -4   9   7   44.59    5.56
   4   9  -6   38.90    4.83
   4   9  -6   40.99    4.98
  -4  -9   6   42.36    3.98
  -4   9   6   49.43    2.26
  -4   9   6   42.77    8.04
   4   9  -5   23.66    3.84
   4   9  -5   19.56    3.84
  -4  -9   5   28.65    3.04
  -4   9   5   23.30    1.41
  -4   9   5   26.54    3.63
   4   9  -4   32.70    3.92
  -4   9   4   33.29    1.71
  -4   9   4   35.98    3.83
  -4  -9   4   33.85    3.36
   4   9  -3  130.08    7.77
  -4  -9   3  117.68    6.37
  -4   9   3  135.69    7.16
  -4   9   3  120.63    4.13
   4   9  -2   14.38    2.90
  -4  -9   2   14.06    2.44
  -4   9   2   12.54    1.60
  -4   9   2   10.62    2.46
   4   9  -1  339.47   16.38
  -4   9   1  339.03   19.43
  -4   9   1  353.96   12.62
  -4  -9   1  349.42   20.34
   4   9   0   22.31    3.37
  -4  -9   0   22.98    2.94
  -4   9   0   23.68    4.20
  -4   9   0   28.62    2.32
   4   9   1   17.43    3.01
   4  -9   1   22.94    3.31
  -4  -9  -1   19.90    2.66
  -4   9  -1   16.60    3.38
  -4   9  -1   12.78    3.37
   4   9   2   32.92    3.53
   4  -9   2   37.02    3.99
  -4  -9  -2   26.05    3.07
  -4   9  -2   27.71    2.69
  -4   9  -2   26.57    2.21
   4   9   3   18.88    3.11
   4  -9   3   25.41    3.69
   4  -9   3   16.30    1.62
  -4  -9  -3   15.23    2.62
  -4   9  -3   12.53    2.45
  -4   9  -3   15.43    2.72
   4   9   4    8.50    2.77
   4  -9   4    9.64    3.47
   4  -9   4    9.05    1.26
  -4   9  -4   11.39    1.38
  -4  -9  -4    8.93    2.46
  -4   9  -4   11.36    3.67
   4  -9   5   21.98    1.42
   4   9   5   18.78    5.51
   4  -9   5   22.15    4.25
  -4  -9  -5   19.40    3.02
  -4   9  -5   17.68    1.49
  -4   9  -5   19.96    2.99
   4  -9   6   30.30    2.38
   4  -9   6   34.26    5.35
   4   9   6   32.99    4.17
  -4   9  -6   27.56    1.72
  -4   9  -6   33.16    3.67
  -4  -9  -6   29.58    3.63
   4  -9   7   29.97    1.88
   4  -9   7   27.94    5.80
   4   9   7   22.27    6.94
  -4   9  -7   24.66    5.95
  -4  -9  -7   33.28    3.77
  -4   9  -7   28.01    1.45
   4  -9   8  139.13   11.75
   4  -9   8  118.39    2.65
   4   9   8  131.13    9.15
  -4  -9  -8  127.53   11.95
  -4   9  -8  117.30    4.58
  -4   9  -8  126.47    8.09
   4  -9   9   12.33    4.70
   4   9   9   12.00    3.39
  -4  -9  -9   12.15    3.00
  -4   9  -9    6.93    0.58
  -4   9  -9    8.32    2.98
   4   9  10   16.58    4.57
   4  -9  10   22.79    6.59
  -4  -9 -10   25.76    4.15
  -4   9 -10   21.45    4.20
   4  -9  11   62.66   15.57
   4   9  11   53.00    7.27
  -4   9 -11   65.64    6.54
   4   9  12   32.31    9.47
   4  -9  12   29.34   13.78
   4   9  13   14.63    9.06
   4  -9  13   26.95    8.53
  -4   9 -13   28.62    5.45
   4   9  14   13.44    8.58
   4  -9  14   26.75    8.25
  -4   9 -14   14.70    5.31
   4   9  15   11.89    5.39
   4  -9  15   20.78    8.39
   4  10 -15   24.12    9.43
   4  10 -15   20.09    8.27
  -4 -10  15   18.19    4.86
  -4  10  15    9.57    7.09
  -4  10  15   21.48   10.30
   4  10 -14    6.02    6.32
   4  10 -14    8.25    4.01
  -4 -10  14    5.85    3.69
  -4  10  14    9.82    8.18
  -4  10  14   -2.09    8.02
   4  10 -13   22.28    4.69
   4  10 -13   13.68    7.04
  -4 -10  13   12.13    4.22
  -4  10  13   28.42    9.19
  -4  10  13   15.24    5.80
   4  10 -12   22.06    4.64
   4  10 -12   15.44    6.39
  -4 -10  12   16.56    4.09
  -4  10  12   28.22    8.75
  -4  10  12   11.72    5.55
   4  10 -11   29.28    7.12
   4  10 -11   24.43    8.26
  -4  10  11   57.46    9.80
  -4 -10  11   25.27    4.54
  -4  10  11   35.08    6.05
   4  10 -10  107.61   11.60
   4  10 -10  100.78    8.73
  -4 -10  10  127.63   12.46
  -4  10  10  160.41   27.19
  -4  10  10  104.70   10.67
   4  10  -9   13.51    4.74
   4  10  -9    8.81    3.83
  -4 -10   9   17.13    3.13
  -4  10   9    7.67    7.30
  -4  10   9   17.82    4.42
   4  10  -8   38.32    5.87
   4  10  -8   32.23    4.70
  -4 -10   8   32.12    4.10
  -4  10   8   34.16    9.12
  -4  10   8   41.29    5.80
   4  10  -7   66.57    9.51
   4  10  -7   61.01    6.81
  -4 -10   7   81.31    8.30
  -4  10   7   63.33    1.86
  -4  10   7   56.92    6.78
   4  10  -6   24.06    4.45
   4  10  -6   37.89    4.56
  -4 -10   6   38.76    3.70
  -4  10   6   30.57    1.74
  -4  10   6   29.94    4.82
   4  10  -5  200.40   12.38
   4  10  -5  198.65   12.37
  -4  10   5  215.50    9.11
  -4  10   5  200.09   18.28
   4  10  -4   83.86    6.82
  -4  10   4   88.85    5.28
  -4  10   4   80.09    6.64
  -4 -10   4   91.87    5.70
   4  10  -3   44.17    4.62
  -4 -10   3   40.97    3.93
  -4  10   3   39.41    3.93
  -4  10   3   40.21    4.26
   4  10  -2  227.05   12.58
  -4 -10   2  224.71   10.68
  -4  10   2  206.33   11.01
  -4  10   2  216.06   11.07
   4  10  -1  102.45    7.08
  -4 -10   1  109.23    6.30
  -4  10   1   97.85    4.72
  -4  10   1  100.77    9.23
   4  10   0  154.81    9.30
  -4  10   0  149.26    6.66
  -4 -10   0  158.10    8.14
  -4  10   0  158.48    7.67
   4  10   1   16.34    3.33
  -4 -10  -1   18.70    2.98
  -4  10  -1   11.87    2.38
  -4  10  -1   20.17    2.40
   4  10   2  218.87   12.41
   4 -10   2  253.59   14.50
  -4 -10  -2  222.48   16.33
  -4  10  -2  220.72   14.44
  -4  10  -2  224.57   12.83
   4  10   3   73.56    5.82
   4 -10   3   72.45    7.02
   4 -10   3   67.32    3.30
  -4 -10  -3   58.51    5.07
  -4  10  -3   65.50    4.54
  -4  10  -3   60.07    3.46
   4  10   4  127.01    8.76
   4 -10   4  127.10    4.92
   4 -10   4  147.56   10.74
  -4  10  -4  126.53    7.29
  -4  10  -4  129.54    5.17
  -4 -10  -4  126.06    7.83
   4  10   5  108.17    8.18
   4 -10   5  128.07   10.64
   4 -10   5  112.58    6.08
  -4 -10  -5  114.03    7.34
  -4  10  -5  102.28   10.80
  -4  10  -5  109.90    4.36
   4 -10   6  100.32   10.68
   4 -10   6  105.00    5.28
   4  10   6  100.11    8.16
  -4  10  -6   99.04    6.89
  -4  10  -6  105.71    6.04
  -4 -10  -6   94.83    6.99
   4  10   7   56.92    6.59
   4 -10   7   77.09    8.77
   4 -10   7   56.86    3.36
  -4  10  -7   62.70    4.09
  -4 -10  -7   72.03    5.53
  -4  10  -7   62.44    5.60
   4 -10   8  104.53    4.22
   4 -10   8  124.76   12.83
   4  10   8   99.71   14.44
  -4  10  -8  108.32    5.55
  -4 -10  -8  121.56   11.95
  -4  10  -8  112.26    7.85
   4  10   9   23.77    5.20
   4 -10   9   33.33    7.10
   4 -10   9   25.22    1.00
  -4 -10  -9   39.93    4.41
  -4  10  -9   25.21    2.23
  -4  10  -9   33.84    4.39
   4  10  10   20.76    5.15
   4 -10  10   32.39    7.31
  -4 -10 -10   20.81    4.48
  -4  10 -10   27.14    7.38
   4  10  11   16.34    5.02
   4 -10  11   20.41    7.04
  -4  10 -11   15.97    4.33
   4  10  12    9.78    5.10
   4 -10  12    8.54    7.17
  -4  10 -12   19.73    4.41
   4  10  13    6.57    4.51
   4 -10  13   10.05    6.67
  -4  10 -13    7.83    4.22
   4  10  14   30.63    8.53
  -4  10 -14   77.18    8.32
   4  10  15   13.31    5.98
   4 -10  15   27.11   10.09
   4  11 -14   18.81    9.36
   4  11 -14    8.71    6.65
  -4  11  14    7.12    5.29
  -4  11  14    3.48    8.06
  -4 -11  14    1.33    3.64
   4  11 -13    5.33    3.80
   4  11 -13    2.76    8.70
  -4 -11  13    6.54    3.34
  -4  11  13   -1.76   12.61
  -4  11  13   -1.27    4.73
   4  11 -12    2.28    7.51
   4  11 -12    5.86    3.44
  -4 -11  12    3.71    2.83
  -4  11  12   -8.18    6.63
  -4  11  12   -4.59    3.95
   4  11 -11   10.26    9.31
   4  11 -11   13.67    7.02
  -4 -11  11   12.04    3.68
  -4  11  11   19.61    7.94
  -4  11  11   15.01    5.24
   4  11 -10   38.42    5.81
   4  11 -10   40.18   12.30
  -4 -11  10   28.41    8.03
  -4  11  10   57.51    6.98
  -4  11  10   45.56   12.00
   4  11  -9   51.61    6.67
   4  11  -9   54.11   12.82
  -4 -11   9   63.59    5.42
  -4  11   9   60.98   12.51
  -4  11   9   51.88    7.48
   4  11  -8   28.57    4.61
   4  11  -8   18.37    8.37
  -4  11   8   21.22    5.61
  -4  11   8   27.25    1.62
  -4 -11   8   21.71    3.84
   4  11  -7   18.89    7.54
   4  11  -7   26.07    4.38
  -4 -11   7   32.11    6.00
  -4  11   7   24.58    1.59
  -4  11   7   26.54    5.06
   4  11  -6   67.46   11.31
   4  11  -6   61.31    7.05
  -4 -11   6   76.13    5.63
  -4  11   6   68.73    7.16
  -4  11   6   68.91    4.70
   4  11  -5   47.40    6.22
   4  11  -5   44.27    9.71
  -4 -11   5   55.36    4.90
  -4  11   5   57.71    3.14
  -4  11   5   50.83    6.24
   4  11  -4   25.88    6.53
   4  11  -4    5.89    4.17
  -4  11   4   21.40    2.05
  -4 -11   4   17.00    3.30
  -4  11   4   23.27    6.20
  -4 -11   3    6.39    3.98
  -4  11   3    3.44    2.71
  -4  11   3    5.45    1.63
   4  11  -2   52.43    5.79
  -4 -11   2   50.32    4.72
  -4  11   2   58.51    5.49
  -4  11   2   41.94    7.78
   4  11  -1   77.82    7.14
  -4  11   1   79.68    7.15
  -4  11   1   83.75    5.99
  -4 -11   1   91.20    6.11
   4  11   0   32.25    4.66
  -4  11   0   30.00    3.19
  -4 -11   0   39.95    6.36
  -4  11   0   36.56    3.75
   4  11   1   31.84    4.75
  -4 -11  -1   34.99    4.12
  -4  11  -1   34.03    3.47
  -4  11  -1   37.85    3.51
   4 -11   2  122.41    5.77
   4  11   2  129.18   13.37
  -4  11  -2  111.88    6.06
  -4  11  -2  111.14    6.67
  -4 -11  -2  102.98    7.32
   4 -11   3   19.12    2.36
   4  11   3   19.14    4.34
   4 -11   3    5.16    4.98
  -4 -11  -3   23.26    3.57
  -4  11  -3   27.50    3.16
  -4  11  -3   28.00    4.13
   4 -11   4   29.40    5.59
   4  11   4   21.16    4.30
   4 -11   4   27.52    2.31
  -4 -11  -4   26.69    6.09
  -4  11  -4   18.52    3.44
  -4  11  -4   18.50    2.47
   4  11   5   15.51    3.88
   4 -11   5   18.25    5.11
   4 -11   5   13.15    2.94
  -4 -11  -5   16.30    3.35
  -4  11  -5   11.90    2.01
  -4  11  -5   13.56    3.19
   4  11   6   46.45    6.16
   4 -11   6   54.22    2.96
   4 -11   6   49.19    8.28
  -4  11  -6   53.52    3.09
  -4 -11  -6   42.06    5.31
  -4  11  -6   52.60    5.15
   4  11   7   26.37    4.86
   4 -11   7   31.07   11.18
   4 -11   7   22.98    1.73
  -4  11  -7   28.06    4.12
  -4 -11  -7   27.68    4.14
  -4  11  -7   25.07    3.68
   4 -11   8   74.74    4.26
   4 -11   8  117.74   18.38
   4  11   8   91.17    8.64
  -4  11  -8   82.96    5.43
  -4 -11  -8   82.82   11.30
  -4  11  -8   90.32   11.30
   4  11   9    8.64    6.46
   4 -11   9    6.03    1.44
   4 -11   9    7.98    9.10
  -4 -11  -9    7.81    3.29
  -4  11  -9    3.95    2.14
  -4  11  -9   10.91    3.34
   4 -11  10   21.02   13.35
   4  11  10   30.31    6.00
  -4 -11 -10   26.79    5.20
  -4  11 -10   28.94    1.49
  -4  11 -10   47.19    5.09
   4  11  11   77.65    9.40
   4 -11  11   91.84   21.32
  -4  11 -11   63.80    7.96
   4  11  12    2.81    4.48
   4 -11  12   -1.35    6.45
  -4  11 -12    7.79    3.70
   4  11  13   26.80    7.82
   4 -11  13   56.61   11.66
  -4  11 -13   53.13   11.08
   4 -11  14   23.20    9.44
   4  11  14   13.02    5.77
  -4  11 -14   11.39    5.45
   4  12 -14    8.52    7.71
   4  12 -14    8.90    6.52
  -4  12  14   14.94    8.98
  -4  12  14   -1.02    9.65
  -4 -12  14    6.57    4.12
   4  12 -13    2.95    4.40
   4  12 -13   14.67    5.75
  -4 -12  13    6.07    3.79
  -4  12  13   10.30    8.64
  -4  12  13    7.41    5.40
   4  12 -12   -1.71    3.45
   4  12 -12    2.39    4.64
  -4 -12  12   -1.84    2.92
  -4  12  12    2.62    6.50
  -4  12  12    6.12    4.04
   4  12 -11   -3.49    6.23
   4  12 -11    5.72    5.07
  -4  12  11   15.32    7.77
  -4  12  11    2.57    4.67
  -4 -12  11    6.54    3.23
   4  12 -10   25.00    5.23
   4  12 -10   17.83    6.93
  -4 -12  10   24.29    4.46
  -4  12  10   45.98   10.38
  -4  12  10   23.13    6.07
   4  12  -9   95.28    9.08
   4  12  -9  101.25   10.80
  -4 -12   9   92.58    7.53
  -4  12   9   71.16   16.42
  -4  12   9   89.39   10.42
   4  12  -8    0.81    6.47
   4  12  -8   13.97    4.44
  -4 -12   8   10.61    3.16
  -4  12   8    8.38    1.79
  -4  12   8   27.13    4.43
   4  12  -7   -3.93    3.04
   4  12  -7    4.31    3.07
  -4 -12   7    2.98    2.42
  -4  12   7    0.98    5.62
  -4  12   7    2.05    1.17
   4  12  -6   68.81    6.96
   4  12  -6   58.95    6.76
  -4 -12   6   56.77    5.40
  -4  12   6   57.27    5.35
  -4  12   6   50.60    7.24
   4  12  -5   -0.85    5.27
   4  12  -5    0.51    3.11
  -4 -12   5    5.93    2.45
  -4  12   5    1.74    1.54
  -4  12   5    4.43    3.17
   4  12  -4  327.70   21.35
   4  12  -4  341.13   21.10
  -4  12   4  326.50   20.29
  -4  12   4  345.31   13.68
  -4 -12   4  339.06   17.90
   4  12  -3   10.99    4.40
  -4  12   3   22.97    4.04
  -4 -12   3   16.29    3.50
  -4  12   3   24.14    2.48
   4  12  -2    0.16    5.10
  -4 -12   2    4.09    2.73
  -4  12   2    7.24    2.01
  -4  12   2    7.88    3.01
   4  12  -1    8.27    3.38
  -4  12   1    6.07    3.65
  -4 -12   1    5.93    2.71
  -4  12   1    5.60    2.80
   4  12   0   49.55    5.89
  -4  12   0   42.58    7.52
  -4  12   0   41.64    4.06
  -4 -12   0   63.66    5.10
   4  12   1  119.89    9.59
  -4 -12  -1  120.77    7.92
  -4  12  -1  114.81    6.98
  -4  12  -1  118.85   11.16
   4 -12   2   59.82    4.13
   4  12   2   63.89    6.68
  -4 -12  -2   58.93    5.49
  -4  12  -2   61.57    5.04
  -4  12  -2   58.74    7.36
   4  12   3   54.56    5.89
   4 -12   3   39.50    3.38
  -4 -12  -3   38.34    4.89
  -4  12  -3   41.58    3.69
  -4  12  -3   41.49    7.00
   4  12   4  448.37   39.11
   4 -12   4  477.21   19.98
  -4 -12  -4  466.98   26.06
  -4  12  -4  428.62   22.72
  -4  12  -4  476.14   20.69
   4  12   5   85.22    8.50
   4 -12   5   84.57    6.98
  -4 -12  -5   88.68   11.61
  -4  12  -5   90.77    6.69
  -4  12  -5   83.49    5.08
   4  12   6   72.75    8.67
   4 -12   6   84.87    6.94
   4 -12   6  105.95   11.89
  -4 -12  -6   81.34    7.54
  -4  12  -6   94.06    4.78
  -4  12  -6   69.31   11.02
   4 -12   7   -1.50    1.93
   4  12   7    2.79    3.16
   4 -12   7   -5.08    4.37
  -4  12  -7   -1.16    1.57
  -4  12  -7    2.60    2.59
  -4 -12  -7    0.09    2.63
   4  12   8    4.03    3.86
   4 -12   8    5.53    2.02
   4 -12   8    3.75    5.47
  -4 -12  -8   -0.94    3.27
  -4  12  -8    5.81    2.76
  -4  12  -8    7.06    3.24
   4  12   9    5.55    3.85
   4 -12   9    4.18    1.77
   4 -12   9   12.65    5.50
  -4 -12  -9    1.20    3.36
  -4  12  -9    4.20    3.19
  -4  12  -9    3.38    1.50
   4  12  10   46.90    6.93
   4 -12  10   60.65    9.99
  -4 -12 -10   49.01    6.30
  -4  12 -10   38.53    6.09
  -4  12 -10   30.80    3.46
   4  12  11   -0.65    6.95
   4 -12  11    1.63    5.93
  -4  12 -11    3.81    5.49
   4  12  12    0.99    4.97
   4 -12  12    3.80    7.17
  -4  12 -12    9.02    4.05
   4  12  13    1.70    4.96
   4 -12  13    6.83    7.70
  -4  12 -13    7.95    4.22
   4 -12  14   25.65   11.80
   4  12  14   18.42    7.45
  -4  12 -14   31.61    7.18
   4  13 -13   -2.57    4.32
   4  13 -13   25.46    5.92
  -4 -13  13    9.09    3.92
  -4  13  13    0.26    8.82
  -4  13  13   -4.27    5.52
   4  13 -12    4.34    5.02
   4  13 -12    1.61    3.81
  -4 -13  12   -0.10    3.30
  -4  13  12    2.13    7.36
  -4  13  12    6.25    4.77
   4  13 -11   24.06    8.75
   4  13 -11   20.12    7.20
  -4  13  11   26.68   11.04
  -4  13  11   16.15    6.41
  -4 -13  11   17.73    4.46
   4  13 -10    5.57    3.63
   4  13 -10   -2.07    4.76
  -4 -13  10   -0.07    2.96
  -4  13  10   -2.41    7.18
  -4  13  10    8.41    4.15
   4  13  -9    5.83    3.63
   4  13  -9   -2.75    4.21
  -4 -13   9   -3.66    4.64
  -4  13   9    5.43    3.98
   4  13  -8   74.66    8.85
   4  13  -8   81.48    9.35
  -4 -13   8   80.74    7.19
  -4  13   8   79.40    5.05
  -4  13   8   63.42    9.39
   4  13  -7   35.62    6.36
   4  13  -7   45.28    6.34
  -4 -13   7   42.51    5.10
  -4  13   7   39.41    2.94
  -4  13   7   55.72    6.84
   4  13  -6   15.53    4.17
   4  13  -6    4.00    4.12
  -4 -13   6    7.84    3.12
  -4  13   6    9.20    3.48
  -4  13   6    5.80    4.25
   4  13  -5    8.30    3.84
   4  13  -5    3.34    3.84
  -4  13   5    8.50    2.25
  -4 -13   5    5.57    3.01
  -4  13   5    6.38    6.18
   4  13  -4   16.95    4.87
   4  13  -4   28.26    4.83
  -4  13   4   17.49    4.66
  -4  13   4   19.73    2.58
  -4 -13   4   17.76    3.81
   4  13  -3    1.74    3.80
   4  13  -3    1.48    3.76
  -4  13   3    8.70    3.40
  -4  13   3    6.04    2.12
  -4 -13   3   13.49    2.98
   4  13  -2   18.38    8.22
  -4 -13   2   19.37    4.14
  -4  13   2   37.03    3.25
  -4  13   2   18.30    4.72
   4  13  -1   94.96    9.18
  -4  13   1  103.75   12.41
  -4 -13   1   92.87    7.76
  -4  13   1  100.78    9.38
   4  13   0    9.02    3.50
  -4 -13   0    0.38    4.73
  -4  13   0    2.48    2.28
  -4  13   0    5.30    2.75
   4  13   1    9.26    4.16
  -4 -13  -1   12.01    3.61
  -4  13  -1   14.59    2.98
  -4  13  -1   14.42    3.20
   4  13   2    1.73    3.40
   4 -13   2    3.41    2.15
  -4 -13  -2    0.65    2.84
  -4  13  -2    5.20    2.45
  -4  13  -2    3.88    2.38
   4  13   3  266.76   17.43
   4 -13   3  251.84   11.86
  -4 -13  -3  243.35   15.15
  -4  13  -3  236.54   19.87
  -4  13  -3  234.47   12.49
   4  13   4    0.80    3.33
   4 -13   4   -0.10    1.80
  -4 -13  -4    4.33    2.82
  -4  13  -4   -3.39    3.27
  -4  13  -4    3.50    2.43
   4  13   5    9.79    4.46
   4 -13   5   11.11    3.86
  -4 -13  -5    7.37    3.90
  -4  13  -5   15.16    2.68
  -4  13  -5    9.01    3.40
   4  13   6   -3.24    3.28
   4 -13   6   -2.00    2.80
  -4 -13  -6    1.40    2.99
  -4  13  -6   -1.32    1.98
  -4  13  -6   -1.25    4.47
   4 -13   7   44.28    5.40
   4  13   7   75.80   12.18
  -4  13  -7   64.16    4.65
  -4  13  -7   51.71    6.43
  -4 -13  -7   60.04    6.67
   4  13   8   31.23    5.67
   4 -13   8   11.80    3.57
  -4  13  -8   25.20    4.73
  -4  13  -8   26.12    2.84
  -4 -13  -8   32.35    5.07
   4  13   9    9.71    4.22
   4 -13   9    3.54    1.34
  -4 -13  -9   14.38    3.74
  -4  13  -9    0.12    5.54
  -4  13  -9    1.22    3.05
   4  13  10    6.08    3.80
  -4 -13 -10   -0.40    3.45
  -4  13 -10   -2.63    3.14
   4  13  11   47.04    9.54
  -4  13 -11   60.98    7.85
   4  13  12    3.97    5.24
  -4  13 -12    4.80    4.18
   4  13  13   -1.23    4.99
  -4  13 -13    3.23    4.23
   4  14 -12    4.33    4.48
   4  14 -12   -0.61    9.59
  -4  14  12    2.75   14.63
  -4  14  12    9.61    4.91
  -4 -14  12    1.68    3.90
   4  14 -11    2.57    9.24
   4  14 -11   -0.15    3.96
  -4  14  11   -3.98    4.79
  -4  14  11   -2.28    8.04
  -4 -14  11   -3.12    3.34
   4  14 -10   13.58   10.01
   4  14 -10    8.03    4.69
  -4 -14  10   11.64    3.82
  -4  14  10    3.03    5.45
  -4  14  10    7.31    8.84
   4  14  -9    9.14    4.45
   4  14  -9    1.37    5.00
  -4 -14   9    7.15    3.51
  -4  14   9    6.87    4.92
   4  14  -8    1.91    4.12
   4  14  -8    7.51    4.31
  -4 -14   8   10.24    5.34
  -4  14   8    3.51    2.60
  -4  14   8    6.68    7.20
   4  14  -7    0.75    3.71
   4  14  -7    4.36    3.74
  -4 -14   7    3.23    2.93
  -4  14   7   -3.59    4.02
  -4  14   7    3.93    1.82
   4  14  -6   79.77    8.94
   4  14  -6   58.31    8.20
  -4 -14   6   73.93    6.71
  -4  14   6   63.21    7.74
  -4  14   6   56.44    8.52
   4  14  -5    3.87    3.61
   4  14  -5    2.71    3.79
  -4 -14   5    8.77    4.83
  -4  14   5    1.87    2.26
  -4  14   5    5.57    3.78
   4  14  -4  -10.09    5.77
   4  14  -4    0.78    3.54
  -4 -14   4    2.00    2.73
  -4  14   4    3.42    1.95
  -4  14   4   -1.26    5.60
   4  14  -3   39.80    7.43
   4  14  -3   46.41    7.69
  -4  14   3   57.75    4.42
  -4 -14   3   59.33    5.99
  -4  14   3   60.22    7.14
   4  14  -2    0.97    6.00
  -4 -14   2    5.63    3.02
  -4  14   2    4.08    5.58
  -4  14   2    3.34    2.30
   4  14  -1   60.98    7.68
  -4 -14   1   52.24    6.47
  -4  14   1   58.03    7.95
  -4  14   1   65.33    6.63
   4  14   0   58.58    7.30
  -4 -14   0   42.93    6.05
  -4  14   0   46.95    4.61
  -4  14   0   58.61    6.02
   4  14   1    4.46    6.01
  -4 -14  -1    3.13    5.12
  -4  14  -1    6.16    2.57
  -4  14  -1   -3.19    4.81
   4  14   2   98.44    9.78
   4 -14   2   98.90    6.68
  -4 -14  -2   98.87    8.43
  -4  14  -2   97.35    7.20
  -4  14  -2   82.34   11.35
   4 -14   3   20.07    3.46
   4  14   3   29.73    5.70
  -4  14  -3   24.65    6.68
  -4  14  -3   23.74    6.16
  -4 -14  -3   25.89    4.68
   4  14   4   65.43    8.49
   4 -14   4   56.62    4.87
  -4 -14  -4   63.38    7.13
  -4  14  -4   47.00    5.91
  -4  14  -4   71.46    5.35
   4  14   5  186.73   24.09
   4 -14   5  205.94   10.37
  -4 -14  -5  205.94   14.86
  -4  14  -5  169.08   12.54
  -4  14  -5  191.34   11.12
   4  14   6   23.38    5.18
   4 -14   6   14.55    2.83
  -4 -14  -6   19.96    7.43
  -4  14  -6   11.71    3.40
  -4  14  -6   13.11    4.15
   4 -14   7    1.01    2.74
   4  14   7    0.31    3.81
  -4 -14  -7    0.02    3.40
  -4  14  -7    0.37    3.66
  -4  14  -7    5.35    3.02
   4 -14   8    7.40    2.03
   4  14   8   22.20    8.26
  -4  14  -8   11.80    4.73
  -4  14  -8   17.22    4.17
  -4 -14  -8   16.16    4.55
   4  14   9   36.48    7.70
  -4 -14  -9   51.03   11.11
  -4  14  -9   46.12   10.04
  -4  14  -9   35.98    3.85
   4  14  10   19.96    6.31
  -4 -14 -10   15.13    5.58
  -4  14 -10   19.35    5.06
   4  14  11   14.92    6.33
  -4  14 -11   16.69    5.37
   4  14  12   12.47    7.27
  -4  14 -12   17.24    9.68
   4  15 -11   33.24    7.22
   4  15 -11   22.28    9.19
  -4  15  11   45.10   15.27
  -4  15  11   17.99    7.60
  -4 -15  11   40.90    6.44
   4  15 -10   11.55    5.11
   4  15 -10    1.59    4.10
  -4 -15  10   -0.15    3.43
  -4  15  10   -1.97    4.93
  -4  15  10    6.82    8.11
   4  15  -9    0.32    6.47
   4  15  -9   -4.64    7.27
  -4 -15   9    1.21    3.25
  -4  15   9    6.15    4.48
   4  15  -8   56.41    8.71
   4  15  -8   16.86   14.82
  -4 -15   8   59.81    6.92
  -4  15   8   57.95    9.27
   4  15  -7   81.38   11.31
   4  15  -7  106.96   11.23
  -4 -15   7  108.62   14.46
  -4  15   7   91.75   11.98
  -4  15   7  102.63    6.36
   4  15  -6    3.13    4.53
   4  15  -6    3.15    4.08
  -4 -15   6    9.36    3.39
  -4  15   6    6.39    7.28
  -4  15   6    3.60    4.09
   4  15  -5    0.37    5.02
   4  15  -5   15.90    4.94
  -4 -15   5   13.59    3.81
  -4  15   5    8.51    5.06
  -4  15   5   14.62    4.83
   4  15  -4   11.80    4.47
   4  15  -4    6.78    4.46
  -4 -15   4    8.36    5.75
  -4  15   4    5.99    2.54
  -4  15   4    4.05    4.24
   4  15  -3   29.42    6.46
   4  15  -3   26.00    6.87
  -4  15   3   30.31    9.90
  -4  15   3   27.57    4.01
  -4 -15   3   49.59    5.41
   4  15  -2    6.03    7.94
   4  15  -2   12.38    4.93
  -4  15   2   11.96    4.84
  -4 -15   2   11.45    3.91
  -4  15   2    9.81    4.36
   4  15  -1   35.77    6.77
  -4  15   1   37.61    7.19
  -4  15   1   37.18    9.71
  -4 -15   1   38.08    5.71
   4  15   0   39.41    7.08
  -4 -15   0   42.26    6.03
  -4  15   0   46.83    5.92
  -4  15   0   33.95    4.70
   4  15   1   20.84    5.35
  -4 -15  -1   17.96    4.67
  -4  15  -1   17.43    3.71
  -4  15  -1   17.37    4.37
   4  15   2   30.61    5.47
  -4 -15  -2   26.18    8.05
  -4  15  -2   18.25    4.06
  -4  15  -2   17.50    4.37
   4 -15   3   38.36    4.25
   4  15   3   28.30   10.28
  -4 -15  -3   32.38    5.68
  -4  15  -3   26.50    7.75
  -4  15  -3   27.41    4.82
   4  15   4    3.37    4.18
   4 -15   4    7.51    2.60
  -4 -15  -4    1.92    5.90
  -4  15  -4    0.41    2.76
  -4  15  -4    1.64    2.94
   4  15   5   74.71    9.73
   4 -15   5   73.81    6.07
  -4 -15  -5   84.38    8.78
  -4  15  -5   73.08   10.78
  -4  15  -5   70.40    7.42
   4  15   6   14.72    5.27
   4 -15   6    6.88    2.55
  -4 -15  -6   21.74    4.61
  -4  15  -6   13.97    4.02
  -4  15  -6   10.77    3.65
   4  15   7   13.58    5.39
   4 -15   7    7.69    2.56
  -4  15  -7    9.92    6.10
  -4  15  -7   19.98    4.37
  -4 -15  -7   20.44    4.79
   4 -15   8   34.56    3.35
   4  15   8   50.63    7.91
  -4  15  -8   43.17    8.54
  -4  15  -8   36.55    6.37
  -4 -15  -8   47.55    7.14
   4  15   9   15.63    6.01
  -4 -15  -9   14.71    8.84
  -4  15  -9   13.04    4.93
   4  15  10   12.38    9.71
  -4 -15 -10    8.29    5.32
  -4  15 -10   10.96    4.61
   4  15  11   91.93   14.31
  -4  15 -11  107.65   12.18
   4  16 -10   13.54    5.91
   4  16 -10    8.65    6.58
  -4 -16  10    5.34    7.76
  -4  16  10    5.75    5.75
  -4  16  10   20.78   11.22
   4  16  -9   16.86    6.15
   4  16  -9   21.86    6.90
  -4 -16   9   18.75    5.14
  -4  16   9   15.98   10.34
   4  16  -8    5.16    5.44
   4  16  -8    8.10    9.23
  -4 -16   8   14.46    4.44
  -4  16   8   12.44    6.15
   4  16  -7    9.63    4.82
   4  16  -7    6.68    8.39
  -4 -16   7    8.83    3.98
  -4  16   7   -1.76    5.32
   4  16  -6    4.88    4.99
   4  16  -6    8.44    5.45
  -4 -16   6   15.96    6.71
  -4  16   6    7.46    5.22
  -4  16   6    7.91    3.00
   4  16  -5    2.44    4.38
  -4 -16   5    2.20    3.51
  -4  16   5    0.27    4.29
  -4  16   5    5.69    4.39
   4  16  -4   54.67    8.48
   4  16  -4   46.56    8.67
  -4 -16   4   52.56    7.10
  -4  16   4   34.27    8.11
  -4  16   4   59.82    8.30
   4  16  -3   10.25    7.82
   4  16  -3    8.45    4.75
  -4  16   3    2.59    4.78
  -4 -16   3    3.26    6.43
  -4  16   3    9.53    4.49
   4  16  -2   66.69    9.68
   4  16  -2   70.62    9.97
  -4 -16   2   74.56    8.24
  -4  16   2   77.61   10.11
  -4  16   2   80.99   14.60
   4  16  -1   12.50    5.07
   4  16  -1    2.35    5.34
  -4  16   1    3.87    3.40
  -4  16   1   19.25    4.58
  -4 -16   1   19.23    4.21
   4  16   0    6.16    4.88
  -4 -16   0    9.12    4.20
  -4  16   0   10.55    3.38
  -4  16   0   10.80    4.28
   4  16   1  123.70   12.48
  -4 -16  -1  133.31   11.21
  -4  16  -1  106.44    9.32
  -4  16  -1  120.33   16.62
   4  16   2    6.40    4.32
  -4 -16  -2    0.65    3.69
  -4  16  -2    4.63    3.03
  -4  16  -2    3.39    3.41
   4  16   3    6.74    4.59
   4 -16   3    4.38    3.23
  -4  16  -3    6.77    5.42
  -4  16  -3    8.49    3.61
  -4 -16  -3    4.51    4.06
   4  16   4    9.86    5.37
   4 -16   4   16.25    3.72
  -4 -16  -4   22.88    4.73
  -4  16  -4    5.58    6.45
  -4  16  -4    4.11    4.00
   4  16   5    8.07    4.91
   4 -16   5    6.96    2.98
  -4 -16  -5    7.79    6.95
  -4  16  -5    2.80    3.65
  -4  16  -5    1.60    3.48
   4  16   6   32.38    7.31
   4 -16   6   18.29    3.88
  -4 -16  -6   40.49    6.54
  -4  16  -6   36.63    5.34
  -4  16  -6   30.83    5.41
   4  16   7   30.30    6.14
   4 -16   7    9.26    2.86
  -4  16  -7   18.21    7.57
  -4  16  -7   12.53    4.70
   4  16   8    6.79    5.06
  -4  16  -8    2.29    3.75
  -4  16  -8    2.09    4.03
  -4 -16  -8    7.23    4.58
   4  16   9    8.57    5.44
  -4 -16  -9    4.30    4.88
  -4  16  -9    3.89    4.37
   4  16  10    8.76    6.29
  -4 -16 -10    6.48    5.83
  -4  16 -10    7.77    4.83
   4  17  -9   54.28    9.31
   4  17  -9   46.36    9.97
  -4 -17   9   27.49    7.17
  -4  17   9   44.18   10.46
   4  17  -8   14.53    6.69
   4  17  -8   10.06    6.55
  -4 -17   8   13.14    8.19
  -4  17   8   16.11    7.16
   4  17  -7   18.73   12.78
   4  17  -7   17.88    7.09
  -4 -17   7   29.73    5.73
  -4  17   7   20.43    7.57
   4  17  -6   70.98   10.47
   4  17  -6   53.23    9.76
  -4 -17   6   61.47    8.02
  -4  17   6   54.67   16.18
  -4  17   6   52.16    6.17
   4  17  -5   44.98    7.50
   4  17  -5   37.02    8.21
  -4 -17   5   39.89    6.48
  -4  17   5   30.46    7.76
  -4  17   5   25.09    5.35
   4  17  -4    7.87    5.28
   4  17  -4    3.35    5.40
  -4 -17   4    6.44    4.21
  -4  17   4    6.24    3.16
  -4  17   4   12.70    5.21
   4  17  -3    6.43    5.95
   4  17  -3   18.58    9.98
  -4  17   3   15.08    3.80
  -4  17   3   17.67    5.76
  -4 -17   3   16.09    5.01
   4  17  -2   33.57    7.38
  -4  17   2   28.45    4.99
  -4 -17   2   39.87    6.28
  -4  17   2   26.33    7.07
   4  17  -1   88.27   10.90
   4  17  -1   91.90   10.75
  -4 -17   1   78.44    9.39
  -4  17   1   71.80    7.33
  -4  17   1   65.15    9.90
   4  17   0   10.55    9.20
   4  17   0    9.97    5.92
  -4 -17   0   20.06    4.84
  -4  17   0    8.86    3.81
  -4  17   0   10.97    4.91
   4  17   1   61.35    9.15
  -4 -17  -1   52.66    7.77
  -4  17  -1   55.92    6.48
  -4  17  -1   35.81    7.55
  -4 -17  -2    6.94    4.37
  -4  17  -2    3.77    4.05
  -4  17  -2    6.38    3.48
   4  17   3    4.23    4.51
  -4 -17  -3    0.54    4.03
  -4  17  -3    2.07    3.52
  -4  17  -3    3.69    3.27
   4  17   4    3.72    4.68
  -4 -17  -4    7.27    4.17
  -4  17  -4    3.25    3.50
  -4  17  -4   -0.94    3.46
   4  17   5   28.62    8.07
   4 -17   5   19.64    5.38
  -4 -17  -5   57.43    7.11
  -4  17  -5   37.81    6.07
  -4  17  -5   27.07    5.96
   4  17   6    7.05    5.07
   4 -17   6    0.56    2.62
  -4 -17  -6    4.51    4.42
  -4  17  -6    4.20    3.71
  -4  17  -6   -0.69    6.33
   4  17   7    5.85    5.41
  -4 -17  -7    8.31    5.30
  -4  17  -7   10.12    7.71
  -4  17  -7   10.23    4.47
   4  17   8    0.48    8.37
  -4  17  -8   -1.16    3.77
  -4 -17  -8    4.58    4.30
   4  17   9   21.34    8.58
  -4 -17  -9   20.75    8.00
  -4  17  -9   28.31    6.31
   4  18  -7    4.25    6.02
   4  18  -7   13.25   10.19
  -4 -18   7    6.15    4.53
  -4  18   7    3.13    6.09
   4  18  -6   35.60    8.60
   4  18  -6   21.49    9.06
  -4 -18   6   27.52   10.57
  -4  18   6   31.33    8.69
   4  18  -5    2.29    6.08
   4  18  -5   11.37    5.57
  -4 -18   5   10.38    4.66
  -4  18   5    4.83    3.98
  -4  18   5   10.64    5.90
   4  18  -4   44.15   10.98
   4  18  -4   46.62   10.02
  -4 -18   4   67.68    8.59
  -4  18   4   50.63    7.92
  -4  18   4   73.60   10.30
   4  18  -3   26.90    7.53
   4  18  -3   21.76   13.45
  -4 -18   3   14.77   10.46
  -4  18   3   27.47    4.88
  -4  18   3   30.89    7.44
   4  18  -2    1.12    5.25
   4  18  -2    1.45    5.53
  -4 -18   2    9.51    4.59
  -4  18   2   11.09    8.27
  -4  18   2    5.64    3.42
   4  18  -1   -1.08    4.33
   4  18  -1    6.46    4.33
  -4 -18   1   -2.54    3.64
  -4  18   1   -0.79    4.02
  -4  18   1    1.05    2.90
   4  18   0   10.84    5.03
   4  18   0    5.14    4.99
  -4 -18   0   -2.15    4.23
  -4  18   0    0.97    3.34
  -4  18   0    4.34    4.32
   4  18   1    7.03    5.64
   4  18   1   13.42    5.66
  -4 -18  -1   15.01    4.91
  -4  18  -1    0.86    3.87
  -4  18  -1   13.32    7.93
   4  18   2    9.35    5.73
  -4  18  -2    9.97    6.61
  -4  18  -2    4.94    4.66
   4  18   3    9.31    5.94
  -4 -18  -3    6.81    5.27
  -4  18  -3   10.04    4.24
  -4  18  -3   10.29    4.54
   4  18   4   10.35    5.20
  -4  18  -4    0.31    3.93
  -4  18  -4    2.61    3.78
  -4 -18  -5    9.35    4.59
  -4  18  -5   -1.38    3.87
  -4  18  -5    2.60    3.90
   4  18   6   14.09    6.13
  -4  18  -6    7.29    4.89
  -4  18  -6   10.00    7.95
   4  18   7    8.13    6.31
  -4 -18  -7   13.26    6.49
  -4  18  -7    7.08    5.18
  -4  18  -7   17.52    4.96
   4  19  -4  -10.24    5.64
   4  19  -4   -1.15    5.11
  -4 -19   4    6.26    4.37
  -4  19   4   -4.08    3.92
  -4  19   4   -6.99    5.81
   4  19  -3    0.40    5.52
  -4 -19   3    3.97    4.64
  -4  19   3    4.90    3.51
  -4  19   3    3.56    5.39
   4  19  -2    2.26    4.55
   4  19  -2   11.18    4.81
  -4 -19   2   -0.23    3.95
  -4  19   2   -5.45    3.02
  -4  19   2    0.62    4.38
   4  19  -1    9.25    5.02
   4  19  -1    8.22    8.22
  -4  19   1   -2.50    4.65
  -4 -19   1   -1.57    4.35
  -4  19   1    0.49    3.38
   4  19   0    5.09    5.12
   4  19   0    2.03    8.39
  -4 -19   0    3.08    4.27
  -4  19   0    1.13    4.48
  -4  19   0   -0.80    3.36
   4  19   1   51.23    9.93
  -4  19  -1   40.52    8.96
  -4  19  -1   50.23   11.28
   4  19   2   32.20    6.74
   4  19   2   10.48    6.06
  -4 -19  -2    5.45    5.50
  -4  19  -2    3.05    4.78
  -4  19  -2    5.41    4.25
   4  19   3    7.30    5.14
  -4  19  -3   -2.23    3.91
  -4  19  -3   13.89    6.74
   4  19   4   -1.71    5.03
  -4 -19  -4   12.96    4.97
  -4  19  -4    4.03    6.63
  -4  19  -4   -0.52    3.93
  -5   0  17   -4.32    5.50
  -5   0  16    6.90    5.39
  -5   0  15    3.92    4.63
  -5   0  14   19.53    5.95
  -5   0  13   14.05    4.95
   5   0 -12   -0.96    1.96
  -5   0  12    3.42    5.32
   5   0 -11   13.24    5.63
   5   0 -11    6.16    1.44
  -5   0  11   12.55    3.87
   5   0 -10   70.61    8.27
   5   0 -10   37.37    2.20
  -5   0  10   46.29    5.84
   5   0  -9  204.20    8.77
   5   0  -9  197.34   16.34
  -5   0   9  238.06   13.77
   5   0  -8   70.48    2.73
   5   0  -8   72.15    7.92
  -5   0   8   82.61    6.22
   5   0  -7    4.76    1.50
   5   0  -7   -2.64    2.89
  -5   0   7   -1.87    2.25
   5   0  -6    0.71    2.56
   5   0  -6    3.62    0.93
  -5   0   6    1.85    2.15
   5   0  -5   12.75    3.02
  -5   0   5   11.59    2.53
   5   0  -4   38.24    3.61
  -5   0   4   34.01    3.18
   5   0  -3   -0.92    1.62
  -5   0   3    1.99    1.42
   5   0  -2  133.69    5.77
  -5   0   2  135.98    5.42
   5   0  -1    2.09    2.14
  -5   0   1    2.44    1.15
   5   0   0   87.61    3.53
  -5   0   0   96.04    3.15
   5   0   1  156.47    4.90
  -5   0  -1  160.77    4.53
   5   0   2   50.64    1.87
  -5   0  -2   50.96    2.57
   5   0   3   79.08    2.26
  -5   0  -3   76.76    2.00
   5   0   4   35.08    1.30
  -5   0  -4   36.81    1.18
   5   0   5   18.71    1.45
  -5   0  -5   16.00    0.89
   5   0   6  280.87    8.48
  -5   0  -6  292.68    7.32
   5   0   7  125.27    3.24
   5   0   7  126.83    6.57
   5   0   8   18.16    1.19
   5   0   8   15.76    2.86
   5   0   9   52.24    3.30
   5   0   9   61.51    4.68
   5   0   9   45.66    2.10
   5   0  10    3.37    1.90
   5   0  10    4.56    2.69
   5   0  10    3.39    1.66
   5   0  11   -1.16    1.18
   5   0  11    1.73    2.49
   5   0  11    0.29    2.71
   5   0  12    4.15    3.03
   5   0  12   -3.14    2.90
   5   0  12    1.44    1.37
   5   0  13    6.08    1.57
   5   0  13    0.74    3.65
   5   0  14   35.34    6.98
   5   0  14   34.76    2.88
   5   0  14   49.15   10.81
   5   0  15    3.62    1.72
   5   0  15    3.02    4.50
   5   0  15    3.98    4.39
  -5  -1  17    5.31    5.91
  -5   1  17   15.36    6.77
  -5  -1  16   -2.69    4.80
  -5   1  16    9.26    5.22
  -5  -1  15   48.87    8.22
  -5   1  15   41.19   14.88
   5   1 -14    7.87    2.24
  -5  -1  14    8.19    4.64
  -5   1  14    9.12    5.16
   5   1 -13   56.58    4.01
  -5  -1  13   74.86    8.17
  -5   1  13   76.99    9.10
   5   1 -12    6.73    5.54
   5   1 -12    3.96    1.66
  -5   1  12    4.03    3.88
  -5  -1  12    1.52    6.03
   5   1 -11  131.97   15.26
   5   1 -11  128.75    5.29
   5  -1 -11  111.13    3.73
  -5  -1  11  138.11   10.39
  -5   1  11  122.64   16.84
   5   1 -10    5.57    4.57
   5   1 -10    5.06    2.48
   5  -1 -10    6.98    0.95
  -5  -1  10    5.15    3.41
  -5   1  10    6.54    3.78
   5   1  -9   58.36    6.86
   5   1  -9   47.12    2.69
   5  -1  -9   47.24    7.95
   5  -1  -9   44.71    2.60
  -5  -1   9   41.98    5.35
  -5   1   9   46.30    5.88
   5   1  -8  234.43   16.31
   5  -1  -8  224.20   18.31
   5   1  -8  268.55   11.31
   5  -1  -8  227.26    7.40
  -5  -1   8  246.21   13.31
  -5   1   8  257.99   14.56
   5  -1  -7    3.67    0.71
   5   1  -7    0.29    2.77
   5   1  -7    1.56    1.16
   5  -1  -7    2.93    3.10
  -5  -1   7    0.80    2.23
  -5   1   7    3.94    2.40
   5   1  -6  525.46   27.94
   5   1  -6  530.27   18.55
   5  -1  -6  539.49   30.22
   5  -1  -6  530.28   15.73
  -5  -1   6  576.52   33.50
  -5   1   6  546.85   26.53
   5   1  -5  280.10   19.36
   5  -1  -5  286.55   15.33
  -5   1   5  297.99   14.07
  -5  -1   5  288.99   12.86
   5  -1  -4   69.25    7.74
   5   1  -4   65.52    4.78
  -5  -1   4   69.88    4.37
  -5   1   4   69.18    4.63
   5   1  -3  268.89   11.67
   5  -1  -3  281.14   12.24
  -5  -1   3  291.61   10.61
  -5   1   3  279.69   11.34
   5   1  -2  144.41    6.11
   5  -1  -2  121.16    6.06
  -5  -1   2  143.47    5.31
  -5   1   2  142.36    5.84
   5  -1  -1 1341.05   74.70
   5   1  -1 1305.41   72.71
  -5   1   1 1376.15   65.82
  -5  -1   1 1379.66   64.79
   5  -1   0  801.41   31.87
   5   1   0  816.56   31.83
  -5   1   0  829.22   31.20
  -5  -1   0  813.94   30.69
   5   1   1  147.66    4.74
   5  -1   1  155.59    4.66
  -5  -1  -1  151.72    4.44
  -5   1  -1  155.47    4.19
   5   1   2   29.92    1.59
   5  -1   2   30.16    1.38
  -5  -1  -2   30.13    1.41
  -5   1  -2   27.00    1.88
   5  -1   3  146.40    4.54
   5   1   3  159.62    4.47
  -5  -1  -3  153.23    3.91
  -5   1  -3  148.61    3.19
   5   1   4  256.43    7.05
   5  -1   4  263.29    7.05
  -5  -1  -4  259.82    8.42
  -5   1  -4  269.33    6.40
   5   1   5  293.44    8.19
   5  -1   5  300.36    7.65
   5  -1   5  306.21   11.88
  -5  -1  -5  295.68    8.09
   5  -1   6  178.71    7.98
   5   1   6  167.23    4.86
   5  -1   6  181.46    4.25
  -5  -1  -6  183.66    4.99
   5   1   7  182.68    5.36
   5  -1   7  182.11    3.73
   5  -1   7  188.79    8.82
  -5  -1  -7  194.85    5.45
   5   1   8  130.23    6.96
   5  -1   8  128.54    7.36
   5  -1   8  120.91    3.80
   5   1   8  137.50    6.06
   5  -1   8  125.55    3.65
   5   1   9   12.00    1.39
   5   1   9    5.40    2.53
   5  -1   9    7.03    1.89
   5  -1   9    7.10    0.79
   5  -1   9    6.14    4.45
   5   1  10  449.84   32.05
   5  -1  10  469.42   16.58
   5  -1  10  464.71   25.32
   5   1  10  467.11   17.67
   5  -1  10  453.47   14.15
   5   1  11   12.73    4.54
   5   1  11    9.18    1.98
   5  -1  11   11.32    1.70
   5   1  11   13.22    3.46
   5  -1  11   13.95    6.10
   5  -1  11   15.98    2.15
   5   1  12   18.76    3.61
   5   1  12   20.36    4.27
   5   1  12   21.44    2.55
   5  -1  12   19.71    2.17
   5  -1  12   18.54    4.53
   5  -1  12   20.11    2.88
   5   1  13   88.74    9.25
   5   1  13   93.65    5.12
   5  -1  13   89.18    3.82
   5  -1  13  106.53    5.24
   5  -1  13  117.20    9.97
   5   1  13  104.40    7.65
   5  -1  14   98.98    8.27
   5  -1  14  116.63   10.85
   5   1  14  115.68   10.09
   5   1  14   94.25    5.50
   5   1  14  112.44    8.08
   5  -1  14   89.46    4.08
   5   1  15    3.47    6.68
   5   1  15    2.33    2.02
   5  -1  15    7.35    4.52
   5   1  15    3.22    3.09
   5  -1  17   -7.38    6.07
  -5   2  17   25.63    6.44
  -5   2  17    3.32    5.06
  -5  -2  17   -3.08    5.49
  -5  -2  16   22.60    6.26
  -5   2  16   11.73    7.78
   5   2 -15   10.07    3.12
  -5  -2  15   24.11    5.49
  -5   2  15   23.77    6.86
   5   2 -14    9.29    2.74
  -5  -2  14   21.10    4.60
  -5   2  14   11.12    9.37
   5   2 -13   36.59   10.22
   5   2 -13   40.37    3.57
  -5  -2  13   35.44   10.41
  -5   2  13   26.77    7.60
   5   2 -12   48.83    3.59
   5   2 -12   39.26   15.32
  -5   2  12   47.90    8.03
  -5  -2  12   49.93    6.60
   5   2 -11   81.63   10.68
   5   2 -11   71.05    4.28
  -5  -2  11   88.17    7.59
  -5   2  11   75.00    9.05
   5   2 -10   73.97    6.37
   5   2 -10   75.96    9.31
  -5  -2  10   74.82    7.03
  -5   2  10   77.37   13.45
   5   2  -9   74.75    4.05
   5   2  -9   71.45   12.91
  -5  -2   9   73.53    6.38
  -5   2   9   77.75    7.61
   5   2  -8  201.63    8.26
   5   2  -8  208.00   14.27
  -5  -2   8  220.51   11.69
  -5   2   8  229.27   13.69
   5   2  -7  400.22   15.01
   5  -2  -7  387.45   26.24
   5   2  -7  405.18   22.68
  -5  -2   7  401.76   26.40
  -5   2   7  429.44   22.05
   5  -2  -6   64.63    7.50
   5   2  -6   73.50    5.95
  -5  -2   6   81.16    4.84
  -5   2   6   69.89    5.64
   5   2  -5   15.50    3.30
   5  -2  -5   20.13    3.75
  -5  -2   5   27.86    2.67
  -5   2   5   17.29    3.11
   5  -2  -4  272.93   14.66
   5   2  -4  291.13   13.28
  -5  -2   4  305.18   11.72
  -5   2   4  305.82   13.44
   5   2  -3   67.18    4.11
   5  -2  -3   69.20    7.34
  -5  -2   3   59.40    3.53
  -5   2   3   64.16    4.11
   5   2  -2 1560.94   85.79
   5  -2  -2 1553.81   89.29
  -5  -2   2 1651.83   85.67
  -5   2   2 1632.33   97.17
   5  -2  -1   11.34    1.87
   5   2  -1    9.04    1.69
  -5  -2   1   12.19    2.50
  -5   2   1    9.79    1.64
   5  -2   0  873.28   36.98
   5   2   0  892.95   41.74
  -5   2   0  905.76   36.12
  -5  -2   0  913.35   36.14
   5   2   1  763.38   29.25
   5  -2   1  753.65   28.45
  -5   2  -1  810.87   32.14
  -5  -2  -1  782.59   32.56
   5  -2   2  510.34   17.59
   5  -2   2  501.67   17.68
   5   2   2  490.60   16.67
  -5  -2  -2  498.42   18.59
  -5   2  -2  477.79   13.25
   5   2   3  111.45    3.70
   5  -2   3  112.24    4.46
   5  -2   3  112.59    2.64
  -5  -2  -3  109.49    3.33
  -5   2  -3  110.99    2.87
   5  -2   4  243.59    4.90
   5   2   4  242.03    7.37
   5  -2   4  240.77    9.13
  -5  -2  -4  240.07    6.85
   5  -2   5  539.15   11.97
   5  -2   5  478.85   20.06
   5   2   5  481.09   16.13
  -5  -2  -5  480.97   15.76
   5  -2   6  449.74   19.66
   5   2   6  452.10   18.11
  -5  -2  -6  467.41   15.21
   5   2   7  190.24    6.31
   5  -2   7  200.22    9.39
  -5  -2  -7  188.60    6.17
   5   2   8   13.14    1.62
   5  -2   8   11.40    2.87
   5  -2   8   11.55    0.56
   5  -2   8   12.77    0.51
  -5  -2  -8   12.82    1.51
   5   2   9   64.57    5.15
   5   2   9   65.06    5.05
   5  -2   9   58.31    5.58
   5  -2   9   63.51    1.87
   5  -2   9   58.76    1.50
   5   2  10   98.72    4.78
   5   2  10   92.64    6.76
   5  -2  10  104.30    7.85
   5  -2  10   87.72    1.94
   5  -2  10   93.36    2.29
   5  -2  11  140.40   10.08
   5  -2  11  127.11    4.70
   5   2  11  137.22    8.98
   5   2  11  139.12    6.40
   5  -2  11  122.84    3.07
   5   2  12   32.22    8.48
   5   2  12   32.38    3.29
   5   2  12   34.27    4.86
   5  -2  12   18.53    5.68
   5  -2  12   30.09    1.59
   5  -2  12   29.81    2.22
   5   2  13   48.61    5.56
   5   2  13   34.18    5.38
   5  -2  13   35.46    6.38
   5  -2  13   34.02    2.82
   5   2  13   40.38    8.95
   5  -2  13   32.70    1.83
   5   2  14   26.51    7.85
   5   2  14   22.92    2.99
   5  -2  14   12.99    2.60
   5  -2  14   18.92    1.32
   5  -2  14   22.87    5.84
   5   2  14   13.96    8.07
   5  -2  15   12.92    4.83
   5   2  15    3.14    3.97
   5   2  15    1.04    6.40
   5   2  15    3.37    2.36
   5   2  16    2.11    6.25
   5   2  16    1.63    2.32
   5  -2  16    3.97    4.95
   5  -2  17   11.86    6.78
  -5   3  17   47.07    9.85
  -5  -3  17   65.73   10.07
  -5   3  17   69.43   13.70
   5   3 -16    5.10    3.04
  -5  -3  16    8.52    4.52
  -5   3  16   -4.83    6.11
  -5   3  16    4.41    4.59
   5   3 -15    9.51    2.86
  -5   3  15   -4.13    6.29
  -5  -3  15    8.80    4.45
   5   3 -14   15.14    7.42
   5   3 -14   10.40    2.86
  -5  -3  14    4.70    6.79
  -5   3  14    4.79    5.81
   5   3 -13   20.15   12.21
   5   3 -13   17.15    3.15
  -5   3  13   15.83   10.41
  -5  -3  13   25.89    4.83
   5   3 -12    5.83    2.37
   5   3 -12   -2.13    5.75
  -5   3  12   13.81    4.93
  -5  -3  12   16.11    3.66
   5   3 -11    9.13    4.71
   5   3 -11    5.50    2.11
  -5  -3  11    7.70    3.15
  -5   3  11   -2.21    4.28
   5   3 -10   87.45    5.17
   5   3 -10   88.45   10.09
  -5  -3  10   93.86    7.22
  -5   3  10   93.11    9.43
   5   3  -9    3.68    2.60
   5   3  -9    1.17    5.18
  -5  -3   9   -2.14    2.37
  -5   3   9    4.48    5.26
   5   3  -8   93.61    4.90
   5   3  -8   91.27    8.65
  -5  -3   8  114.94   10.49
  -5   3   8   98.53    8.46
   5   3  -7   23.68    2.53
   5   3  -7   29.22    4.21
  -5   3   7   25.95    4.35
  -5  -3   7   35.91    3.25
   5   3  -6   50.94    5.06
  -5  -3   6   52.49    3.89
  -5   3   6   52.50    5.14
   5   3  -5   45.23    4.27
  -5  -3   5   59.58    5.47
  -5   3   5   36.92    4.30
   5   3  -4   94.46    5.14
   5  -3  -4   74.20    1.18
   5  -3  -4   87.27    6.44
  -5  -3   4   80.24    4.51
  -5   3   4   68.83    5.10
   5   3  -3  715.73   31.07
   5  -3  -3  731.58   36.56
   5  -3  -3  633.23   19.94
  -5  -3   3  720.58   29.22
  -5   3   3  725.87   32.36
   5  -3  -2    3.53    1.00
   5   3  -2    6.22    1.65
   5  -3  -2    0.96    2.09
  -5  -3   2    2.52    1.48
  -5   3   2    3.85    1.63
   5   3  -1  306.31   15.69
   5  -3  -1  333.95   14.04
   5  -3  -1  332.66    8.82
  -5  -3   1  335.26   11.41
  -5   3   1  317.75   11.97
   5  -3   0  444.75   17.32
   5  -3   0  445.15   13.50
   5   3   0  436.70   15.79
  -5  -3   0  441.30   15.21
  -5   3   0  426.18   14.79
   5   3   1 1369.34   66.72
   5  -3   1 1410.18   69.33
   5  -3   1 1362.12   63.70
  -5  -3  -1 1351.52   63.71
  -5   3  -1 1389.25   63.80
   5  -3   2 1151.84   56.65
   5   3   2 1092.46   48.62
  -5   3  -2 1112.93   46.38
  -5  -3  -2 1099.22   46.66
   5  -3   3   74.51    3.50
   5   3   3   65.25    3.05
  -5   3  -3   70.11    1.43
  -5  -3  -3   64.13    4.08
   5   3   4  487.35   17.14
   5  -3   4  481.55   19.53
  -5  -3  -4  486.77   16.45
  -5   3  -4  514.62   11.01
   5  -3   5  175.29    8.05
   5   3   5  173.83    6.05
  -5  -3  -5  182.31    5.77
   5  -3   6   59.50    4.22
   5   3   6   53.41    2.80
  -5  -3  -6   55.12    2.70
   5   3   7  127.58    7.48
   5  -3   7  140.83    7.48
  -5  -3  -7  122.16    4.87
   5   3   8   67.82    3.69
   5  -3   8   76.41    5.63
  -5  -3  -8   66.63    3.48
   5   3   9    0.15    1.51
   5  -3   9    3.28    2.42
   5   3  10   34.95    4.15
   5  -3  10   31.17    7.95
   5   3  10   29.62    3.05
   5   3  11  136.81    7.36
   5   3  11  147.03    9.24
   5  -3  11  136.47   11.39
   5   3  12    9.32    2.65
   5   3  12    9.56    5.53
   5  -3  12   11.14    4.24
   5  -3  13   79.72    9.91
   5   3  13   82.95    7.93
   5   3  13   71.03    8.79
   5   3  13   99.30   15.43
   5   3  14    0.41    6.80
   5   3  14    6.73    3.63
   5   3  14    2.06    2.49
   5  -3  14   14.30    4.68
   5   3  15    6.11    7.97
   5   3  15   18.42    7.22
   5   3  15    6.42    2.95
   5  -3  15   13.16    5.72
   5   3  16   10.35    3.16
   5  -3  16    9.78    6.26
   5   3  16    5.74    5.45
   5  -3  17    2.23    9.89
   5   4 -17    1.50    3.84
  -5  -4  17    9.73    5.51
  -5   4  17   27.68   12.04
  -5   4  17    5.76    5.24
   5   4 -16   42.32    5.39
  -5  -4  16   49.30    7.62
  -5   4  16   19.53   10.98
  -5   4  16   24.81    7.74
   5   4 -15   22.05    4.22
   5   4 -15   32.66   10.33
  -5   4  15   25.51    8.29
  -5   4  15   19.66    6.13
  -5  -4  15   20.12    9.78
   5   4 -14    7.78   13.13
   5   4 -14   11.30    3.28
  -5  -4  14   11.81    7.53
  -5   4  14   17.25    6.61
   5   4 -13    5.00    2.63
   5   4 -13   -4.19    5.82
  -5   4  13    3.73    5.27
  -5  -4  13   11.24    3.53
   5   4 -12   29.43    5.93
   5   4 -12   26.65    7.67
  -5  -4  12   27.93    4.69
  -5   4  12   34.17    7.26
   5   4 -11   63.72    5.08
   5   4 -11   61.63    9.23
  -5   4  11   65.58    9.29
  -5  -4  11   67.45    6.30
   5   4 -10  251.67   29.93
   5   4 -10  247.40   12.30
  -5  -4  10  261.05   14.94
  -5   4  10  296.39   20.58
   5   4  -9  253.75   11.86
   5   4  -9  225.52   17.57
  -5  -4   9  270.03   13.93
  -5   4   9  266.26   18.78
   5   4  -8   61.15    6.95
   5   4  -8   66.37    4.38
  -5   4   8   71.49    7.69
  -5  -4   8   77.90    5.55
   5   4  -7   77.02    4.69
   5   4  -7   85.22    7.18
  -5   4   7   85.45    7.64
  -5  -4   7   89.03    5.63
   5   4  -6  412.15   21.62
  -5  -4   6  438.61   19.52
  -5   4   6  442.85   23.98
   5   4  -5  950.48   51.69
  -5  -4   5  996.18   47.76
  -5   4   5 1001.87   55.71
   5   4  -4  650.91   32.22
   5  -4  -4  725.59   20.40
  -5  -4   4  682.93   29.81
  -5   4   4  681.07   35.03
   5  -4  -3  335.83    7.89
   5   4  -3  347.77   14.60
  -5  -4   3  356.93   13.75
  -5   4   3  354.94   20.77
   5   4  -2  141.43    6.56
   5  -4  -2  147.18    3.56
  -5  -4   2  163.40    6.26
  -5   4   2  143.70   10.26
   5   4  -1   38.73    4.24
   5  -4  -1   32.15    1.46
  -5  -4   1   28.25    2.38
  -5   4   1   23.17    2.58
   5   4   0   79.16    4.09
   5  -4   0   84.35    2.91
  -5  -4   0   88.40    5.57
  -5   4   0   75.06    3.68
   5  -4   1 1009.62   42.31
   5   4   1 1001.58   44.98
  -5  -4  -1 1005.99   43.60
  -5   4  -1  998.19   46.87
   5  -4   2  727.60   28.53
   5   4   2  701.35   28.25
  -5   4  -2  704.97   24.19
  -5  -4  -2  696.77   31.27
   5   4   3  116.72    4.58
   5  -4   3  113.62    4.90
  -5   4  -3  108.86    2.51
  -5   4  -3  112.48    2.20
  -5  -4  -3  113.21    4.14
   5   4   4  107.08    4.42
   5  -4   4  109.04    8.10
  -5   4  -4  105.68    1.54
  -5  -4  -4  108.91    4.21
   5  -4   5  104.06    5.51
   5   4   5   95.33    4.28
  -5  -4  -5   98.59    3.99
   5  -4   6  118.10    6.51
   5   4   6  105.50    4.89
  -5  -4  -6  114.27    4.70
   5  -4   7    2.04    2.19
   5   4   7    2.22    1.53
  -5  -4  -7    2.46    1.43
   5   4   8  164.39    7.56
   5  -4   8  174.86   10.55
  -5  -4  -8  173.37    7.06
   5  -4   9   17.04    4.14
   5   4   9   18.21    2.65
  -5  -4  -9   21.99    2.42
   5  -4  10   55.77    6.71
   5   4  10   57.35    4.43
   5   4  11   63.60    6.18
   5  -4  11   72.34    8.08
   5   4  11   66.07    5.20
   5   4  12   17.69    3.77
   5  -4  12   14.60    4.97
   5   4  12   12.15    3.14
   5  -4  13   92.31   11.58
   5   4  13   94.14    6.85
   5   4  13  112.09   13.77
   5   4  13  101.43   11.85
   5   4  14    4.12    2.62
   5   4  14    2.54    7.26
   5   4  14    5.01    3.47
   5  -4  14    1.81    4.80
   5   4  15    7.40    3.08
   5  -4  15    4.37    5.57
   5   4  15    7.93    4.14
   5   4  15    4.83    8.99
   5   4  16   -3.83    8.19
   5   4  16   -0.70    2.78
   5  -4  16   -3.72    5.60
   5   4  17    6.22    3.37
   5  -4  17    1.24    6.89
   5   4  17    5.04    5.90
   5   5 -17   28.96    5.70
   5   5 -16   12.74    7.20
   5   5 -16   -0.52    5.03
  -5  -5  16   -6.12    3.94
  -5   5  16    0.61    4.24
  -5   5  16   -5.22    9.88
   5   5 -15    5.33    6.90
   5   5 -15    5.33    4.97
  -5   5  15    4.67    5.92
  -5   5  15    0.75    6.92
  -5  -5  15   -5.38    6.64
   5   5 -14    2.01    6.04
   5   5 -14    1.71    2.86
  -5  -5  14    9.51    3.86
  -5   5  14    2.41    3.97
  -5   5  14    1.31    5.44
   5   5 -13    2.28    5.77
   5   5 -13    7.18    2.81
  -5   5  13    5.73    5.69
  -5   5  13    5.53    3.65
  -5  -5  13    4.94    3.79
   5   5 -12  121.41   22.67
   5   5 -12  137.87    8.49
  -5  -5  12  125.27   10.17
  -5   5  12  131.56   15.42
   5   5 -11  101.03   12.08
   5   5 -11  108.87    7.10
  -5  -5  11  100.95    8.52
  -5   5  11  113.62   12.84
   5   5 -10   22.32    5.67
   5   5 -10   21.13    3.32
  -5  -5  10   21.21    4.00
  -5   5  10   21.32    6.21
   5   5  -9   43.49    4.11
   5   5  -9   40.01    6.28
  -5  -5   9   44.39    7.33
  -5   5   9   39.04    7.03
   5   5  -8  399.70   24.19
   5   5  -8  386.10   17.99
  -5  -5   8  418.70   20.17
  -5   5   8  440.20   27.47
   5   5  -7  240.87   16.26
   5   5  -7  260.94   15.40
  -5   5   7  272.43   17.78
  -5  -5   7  264.53   12.66
   5   5  -6  120.97    8.40
  -5  -5   6  136.44   10.35
  -5   5   6  138.60   10.18
   5   5  -5   70.14    5.36
  -5  -5   5   71.72    4.46
  -5   5   5   57.46    6.27
   5   5  -4    3.73    2.03
  -5  -5   4    1.38    1.68
  -5   5   4    3.31    2.41
   5  -5  -3  166.97    4.02
   5   5  -3  151.39    7.79
  -5   5   3  153.92   13.21
  -5  -5   3  161.68   10.39
   5  -5  -2  321.47   11.04
   5   5  -2  316.53   14.03
  -5  -5   2  329.00   12.68
  -5   5   2  314.24   19.84
   5   5  -1  616.15   26.36
   5  -5  -1  624.42   21.78
  -5  -5   1  620.94   25.38
  -5   5   1  640.83   27.89
   5  -5   0  279.56    9.00
   5   5   0  289.59   15.33
  -5  -5   0  268.11   13.96
  -5   5   0  271.67   14.66
   5   5   1   67.83    3.79
   5  -5   1   64.07    3.22
  -5   5  -1   61.70    3.14
  -5  -5  -1   68.83    3.38
  -5   5  -1   63.39    2.34
  -5   5  -1   70.18    2.88
   5  -5   2   52.05    3.08
   5   5   2   53.90    3.16
  -5   5  -2   55.72    2.72
  -5   5  -2   50.77    2.39
  -5   5  -2   49.55    2.56
  -5  -5  -2   53.54    2.97
   5   5   3   44.80    2.84
   5  -5   3   41.12    3.01
  -5  -5  -3   34.59    4.09
  -5   5  -3   36.59    2.36
  -5   5  -3   45.14    2.68
  -5   5  -3   41.09    1.22
   5   5   4   21.86    2.29
   5  -5   4   27.72    2.74
  -5  -5  -4   16.29    2.10
  -5   5  -4   22.33    0.81
  -5   5  -4   26.69    2.26
   5  -5   5    9.11    2.35
   5   5   5    7.89    2.98
  -5   5  -5    8.36    1.85
  -5  -5  -5    6.95    1.63
   5   5   6  211.22    9.07
   5  -5   6  222.78   11.47
  -5  -5  -6  226.72    8.78
  -5   5  -6  223.30    9.66
   5  -5   7   35.74    3.65
   5   5   7   18.02    2.64
  -5  -5  -7   16.49    2.34
   5   5   8  163.25    8.37
   5  -5   8  168.38   16.61
  -5  -5  -8  182.83    7.91
   5  -5   9   56.22    6.67
   5   5   9   55.77    6.99
  -5  -5  -9   48.31    6.13
   5   5  10  155.23    9.09
   5  -5  10  175.66   13.17
   5   5  11   68.74    5.82
   5  -5  11   68.69    8.47
   5   5  12   85.80    6.86
   5   5  12   73.83    7.39
   5  -5  12   84.82   10.21
   5  -5  13   26.12    6.61
   5   5  13   31.04    4.74
   5   5  13   23.10    4.08
   5   5  14   -5.06    2.97
   5  -5  14   -2.87    4.08
   5   5  14    3.54    2.46
   5   5  14    4.85    4.68
   5  -5  15    8.89    6.28
   5   5  15    9.63    6.70
   5   5  15   11.13    5.88
   5   5  15    3.88    3.35
   5   5  16    5.94    5.06
   5   5  16   -0.91    2.85
   5  -5  16   -0.65    5.50
   5   6 -16   32.32   10.69
   5   6 -16   21.02    4.92
  -5   6  16   10.44    9.59
  -5   6  16    4.90    7.11
  -5  -6  16   37.86   10.49
   5   6 -15   22.74    4.99
   5   6 -15   32.63    9.85
  -5   6  15   18.72    9.68
  -5   6  15   21.95    6.72
  -5  -6  15   29.28    6.14
   5   6 -14   30.16   14.48
   5   6 -14   24.08    4.64
  -5  -6  14   26.75    5.69
  -5   6  14   37.56    9.23
  -5   6  14   25.52    5.99
   5   6 -13    5.00    4.51
   5   6 -13    6.56    5.27
  -5  -6  13    1.13    3.12
  -5   6  13   -2.82    5.25
  -5   6  13    0.58    5.69
   5   6 -12    0.72    5.60
   5   6 -12    9.82    5.12
  -5   6  12    5.72   10.28
  -5   6  12   11.74    4.16
  -5  -6  12   13.44    3.56
   5   6 -11   52.63    4.93
   5   6 -11   54.16    8.43
  -5   6  11   47.39    6.44
  -5  -6  11   53.74    5.65
  -5   6  11   38.65    9.57
   5   6 -10  437.63   32.12
   5   6 -10  452.45   23.76
  -5  -6  10  531.70   27.14
  -5   6  10  534.67   37.51
  -5   6  10  430.32   27.14
   5   6  -9   26.90    5.51
   5   6  -9   26.99    3.85
  -5  -6   9   23.22    6.39
  -5   6   9   32.45    6.47
   5   6  -8   27.82    4.92
   5   6  -8   19.55    3.52
  -5  -6   8   34.75    3.73
  -5   6   8   31.17    6.11
   5   6  -7   10.89    3.58
   5   6  -7    4.87    4.38
  -5   6   7   19.94    4.50
  -5  -6   7   14.72    2.80
   5   6  -6  216.82   12.40
  -5  -6   6  214.65   10.20
  -5   6   6  221.79   23.15
   5   6  -5  276.13   14.31
  -5  -6   5  289.74   12.47
  -5   6   5  290.46   17.46
   5   6  -4  312.21   14.87
  -5  -6   4  328.97   13.71
  -5   6   4  318.94   17.90
   5   6  -3  171.78    8.96
   5  -6  -3  187.25    6.79
  -5  -6   3  180.76   11.05
  -5   6   3  178.32   10.42
   5   6  -2   46.95    4.00
   5  -6  -2   54.13    2.33
  -5   6   2   50.41    8.10
  -5   6   2   55.01    3.15
  -5   6   2   52.37    1.81
  -5  -6   2   43.27    5.32
   5   6  -1   56.30    4.14
   5  -6  -1   58.44    4.32
  -5  -6   1   55.38    3.40
  -5   6   1   56.08    4.70
  -5   6   1   52.05    2.84
  -5   6   1   59.93    3.28
   5   6   0  266.35   11.33
   5  -6   0  273.91    9.76
  -5  -6   0  261.72   14.60
  -5   6   0  274.38   12.08
  -5   6   0  260.73    8.70
  -5   6   0  275.84    8.41
   5   6   1  454.93   18.76
   5  -6   1  442.95   16.96
  -5   6  -1  445.59   15.25
  -5  -6  -1  456.05   17.46
  -5   6  -1  446.18   18.24
  -5   6  -1  446.54   14.59
   5   6   2   60.92    3.98
   5  -6   2   65.56    3.92
  -5  -6  -2   63.32    3.56
  -5   6  -2   68.53    4.56
  -5   6  -2   67.20    3.13
  -5   6  -2   64.24    2.28
   5   6   3   54.96    3.70
   5  -6   3   64.07    4.14
  -5  -6  -3   56.77    3.26
  -5   6  -3   48.96    2.30
  -5   6  -3   57.78    2.54
  -5   6  -3   64.82    3.28
   5  -6   4  307.23   14.60
   5   6   4  312.66   13.05
  -5  -6  -4  299.13   12.07
  -5   6  -4  301.76    8.09
  -5   6  -4  321.70    8.23
  -5   6  -4  324.31   12.07
   5   6   5  327.37   17.82
   5  -6   5  328.81   15.11
  -5  -6  -5  321.10   16.37
  -5   6  -5  318.14   12.59
  -5   6  -5  291.37    5.30
   5  -6   6   27.62    3.99
   5   6   6   26.09    2.97
  -5  -6  -6   24.63    2.64
  -5   6  -6   28.46    2.99
   5  -6   7  125.61    9.58
   5   6   7  129.26    7.28
  -5  -6  -7  144.54    6.86
  -5   6  -7  139.61    7.47
   5   6   8  155.25    8.50
   5  -6   8  172.22   11.82
  -5  -6  -8  143.19    7.71
  -5   6  -8  150.24    8.61
   5   6   9  282.07   21.68
   5  -6   9  317.34   30.74
  -5  -6  -9  315.81   14.24
  -5   6  -9  287.35   15.60
   5   6  10   83.94    6.80
   5  -6  10   97.76    9.57
  -5  -6 -10   92.07    6.33
   5   6  11   10.68    3.09
   5  -6  11    3.67    4.62
   5   6  12   18.37    3.89
   5  -6  12   13.67    5.81
   5   6  13   12.85    6.14
   5   6  13    9.17    3.42
   5  -6  14    4.77    5.20
   5   6  14    1.77    3.12
   5   6  14    4.74    3.35
   5   6  15   17.47    4.70
   5  -6  15   27.07    8.54
   5   6  15   27.81    9.02
   5   6  16   -1.36    3.41
   5   6  16   -6.23    6.01
   5   7 -16    2.79    7.88
   5   7 -16   12.46   14.57
  -5   7  16    4.30    6.66
  -5   7  16    8.85    8.82
  -5  -7  16   24.19    5.62
   5   7 -15   26.11    7.45
   5   7 -15   10.73    3.89
  -5   7  15   10.22    7.90
  -5   7  15    2.10    5.05
  -5  -7  15    0.16    4.54
   5   7 -14    6.69    5.70
   5   7 -14    0.71    3.08
  -5  -7  14    4.49    3.60
  -5   7  14   -2.93    3.87
  -5   7  14    8.10    6.00
   5   7 -13   18.04    7.36
   5   7 -13   20.80    4.39
  -5   7  13   17.11    5.27
  -5   7  13   17.74   13.31
  -5  -7  13   22.67    4.70
   5   7 -12   14.36    3.80
   5   7 -12    7.87    6.19
  -5   7  12   17.74    4.58
  -5   7  12   20.37    7.17
  -5  -7  12   17.86    4.13
   5   7 -11   54.02    5.97
   5   7 -11   68.35   14.23
  -5  -7  11   62.67    6.19
  -5   7  11   57.02    7.36
  -5   7  11   79.89   10.90
   5   7 -10   17.86    5.84
   5   7 -10   18.01    8.63
  -5  -7  10   17.31    5.99
  -5   7  10   14.93    6.57
  -5   7  10   17.33    7.19
   5   7  -9    8.97    5.23
   5   7  -9    9.69    4.46
  -5  -7   9    9.92    3.07
  -5   7   9   15.87    5.40
  -5   7   9   11.71    3.69
   5   7  -8   42.47    6.52
   5   7  -8   48.33    7.68
  -5  -7   8   60.05    4.95
  -5   7   8   55.87   13.14
  -5   7   8   45.49    5.63
   5   7  -7  109.52    7.10
   5   7  -7  126.32    9.22
  -5   7   7  125.59   12.03
  -5   7   7  110.86    8.06
  -5  -7   7  115.64    7.23
   5   7  -6    8.89    2.74
   5   7  -6   13.27    3.29
  -5  -7   6    9.87    2.51
  -5   7   6    7.45    2.69
  -5   7   6   20.15    4.30
   5   7  -5   -2.83    2.58
  -5   7   5    5.04    2.17
  -5   7   5    6.42    5.47
  -5  -7   5    7.60    2.06
   5   7  -4  112.39    7.33
  -5  -7   4  121.08    6.10
  -5   7   4  116.25    6.39
  -5   7   4  129.91   10.13
   5   7  -3  112.98   10.85
  -5   7   3  129.70    9.28
  -5   7   3  110.37    5.84
  -5   7   3  118.39    4.30
  -5  -7   3  108.49    5.78
   5   7  -2  313.50   20.47
   5  -7  -2  328.18   14.52
  -5  -7   2  304.20   12.97
  -5   7   2  367.23   18.70
  -5   7   2  334.73    9.44
  -5   7   2  290.55   12.17
   5   7  -1   52.78    6.12
   5  -7  -1   46.12    2.76
  -5  -7   1   43.25    3.30
  -5   7   1   40.08    3.24
  -5   7   1   37.44    4.33
   5   7   0   50.25    5.82
   5  -7   0   42.94    3.03
  -5  -7   0   35.15    3.14
  -5   7   0   45.03    2.56
  -5   7   0   39.12    2.23
   5   7   1  737.17   43.43
   5  -7   1  814.96   36.27
  -5  -7  -1  771.70   34.12
  -5   7  -1  770.00   30.47
  -5   7  -1  743.60   30.39
   5  -7   2   56.73    4.18
   5   7   2   59.63    4.17
  -5   7  -2   56.71    2.41
  -5   7  -2   55.94    3.20
  -5  -7  -2   55.84    3.57
   5   7   3  110.33    6.13
   5  -7   3  117.84    6.67
  -5   7  -3  118.06    7.85
  -5   7  -3  116.04    3.40
  -5  -7  -3  109.11    8.36
   5   7   4   57.51    4.00
   5  -7   4   56.03    4.60
  -5  -7  -4   38.37    3.40
  -5   7  -4   50.47    2.37
  -5   7  -4   46.53    3.56
  -5   7  -4   50.40    1.57
   5   7   5   82.21    5.24
   5  -7   5   89.98    6.37
  -5  -7  -5   78.95    4.67
  -5   7  -5   79.97    2.23
  -5   7  -5   79.75    4.87
   5  -7   6  103.51    7.48
   5   7   6  101.35    6.09
  -5   7  -6   84.63    5.88
  -5  -7  -6  104.41    5.58
   5   7   7    2.68    2.37
   5  -7   7    8.41    3.22
  -5  -7  -7    3.82    2.10
  -5   7  -7    4.21    2.31
   5   7   8  125.06    8.21
   5  -7   8  140.78   11.23
  -5  -7  -8  127.30    7.52
  -5   7  -8  130.57    8.10
   5  -7   9    7.23    3.90
   5   7   9    3.66    2.71
  -5  -7  -9    5.21    2.41
  -5   7  -9    2.30    2.67
   5   7  10   16.70    6.10
   5  -7  10    4.78    8.61
  -5  -7 -10   21.71    3.33
  -5   7 -10   11.30    3.71
   5   7  11  150.67   10.78
   5  -7  11  157.35   15.85
   5  -7  12   52.93    8.16
   5   7  12   33.18    5.54
   5  -7  13   50.27    9.49
   5   7  13   47.11    6.12
   5   7  13   45.53    6.05
   5   7  14    9.02    4.05
   5   7  14   12.07    4.03
   5   7  15    6.81    3.97
   5  -7  15   10.55    6.39
   5   7  15    2.29    7.57
   5  -7  16   15.56    7.79
   5   7  16   16.15   13.75
   5   7  16    3.01    4.07
   5   8 -16    5.77    5.23
   5   8 -16   15.81    8.52
  -5   8  16    6.73   10.27
  -5   8  16    8.96    7.21
  -5  -8  16   26.89    5.63
   5   8 -15   -4.58    7.04
   5   8 -15    1.51    6.76
  -5  -8  15    3.12    4.45
  -5   8  15   16.01    7.49
  -5   8  15   10.57    4.99
   5   8 -14   -0.51   10.98
   5   8 -14   13.17    4.16
  -5  -8  14    8.41    4.03
  -5   8  14    3.50    5.02
  -5   8  14   20.16   12.42
   5   8 -13    3.61    3.55
   5   8 -13   -0.25    5.81
  -5  -8  13    9.09    3.58
  -5   8  13    5.28    6.54
  -5   8  13    8.42    4.30
   5   8 -12   25.20    4.71
   5   8 -12   20.70    7.38
  -5   8  12   20.18    8.89
  -5   8  12   35.71    8.58
  -5  -8  12   26.96    4.80
   5   8 -11    2.77    4.21
   5   8 -11    0.86    2.77
  -5   8  11   -4.08    5.42
  -5   8  11    2.44    3.28
  -5  -8  11    4.96    2.77
   5   8 -10   91.20    7.70
   5   8 -10   85.15   10.32
  -5  -8  10   91.13    7.24
  -5   8  10   86.64    9.19
  -5   8  10  100.44   12.98
   5   8  -9   27.91    6.04
   5   8  -9   29.99    6.94
  -5  -8   9   31.38    4.03
  -5   8   9   26.64    5.03
  -5   8   9   27.70   12.30
   5   8  -8  180.25   16.47
   5   8  -8  209.91   14.93
  -5  -8   8  205.70   11.15
  -5   8   8  171.50   12.76
  -5   8   8  215.89   18.68
   5   8  -7   64.01    6.45
   5   8  -7   93.00    7.69
  -5   8   7   74.09   10.23
  -5   8   7   76.65    6.98
  -5  -8   7   89.46    5.93
   5   8  -6   76.01    6.49
   5   8  -6   87.28    7.23
  -5  -8   6   94.54    5.79
  -5   8   6   97.68   10.81
  -5   8   6   76.69    6.53
   5   8  -5   30.97    4.20
  -5   8   5   31.07    3.77
  -5   8   5   18.60    6.22
  -5  -8   5   38.65    3.49
   5   8  -4   12.82    2.99
  -5   8   4   17.27    4.18
  -5   8   4   10.08    0.88
  -5   8   4    8.59    2.47
  -5  -8   4   11.43    2.36
   5   8  -3  104.63    7.05
  -5  -8   3  101.73    8.98
  -5   8   3  109.53    3.26
  -5   8   3   99.20    6.05
   5   8  -2   90.85    6.01
  -5  -8   2   82.03    4.87
  -5   8   2   84.43    3.12
  -5   8   2   77.53    4.90
   5   8  -1   67.33    4.71
   5  -8  -1   55.12    5.72
  -5  -8   1   52.68    3.93
  -5   8   1   51.17    3.57
  -5   8   1   55.69    2.62
   5   8   0  196.04   10.36
   5  -8   0  209.79   13.35
  -5  -8   0  204.83    9.28
  -5   8   0  195.42   10.99
  -5   8   0  208.61    9.88
   5   8   1   26.90    3.33
   5  -8   1   29.64    3.29
  -5  -8  -1   28.50    2.92
  -5   8  -1   30.94    3.51
  -5   8  -1   26.57    2.34
   5   8   2    1.54    3.47
   5  -8   2   10.97    3.77
  -5   8  -2    3.63    1.23
  -5   8  -2    3.44    1.59
  -5  -8  -2    3.85    1.91
   5   8   3   48.25    4.21
   5  -8   3   52.07    4.77
  -5  -8  -3   50.59    3.72
  -5   8  -3   49.59    3.45
  -5   8  -3   46.47    2.19
   5   8   4   59.60    4.89
   5  -8   4   79.98    6.01
  -5  -8  -4   65.58    4.44
  -5   8  -4   63.91    4.28
  -5   8  -4   65.13    2.30
   5   8   5   21.04    3.33
   5  -8   5   30.40    4.28
  -5  -8  -5   26.80    2.98
  -5   8  -5   27.73    3.01
  -5   8  -5   21.09    1.65
   5  -8   6  120.13    9.19
   5   8   6  103.11    6.98
  -5  -8  -6  115.74    6.49
  -5   8  -6  102.56    2.84
  -5   8  -6  102.47    6.70
   5   8   7  117.93   12.39
   5  -8   7  119.97   10.74
  -5   8  -7  105.35    7.34
  -5  -8  -7  126.87    7.25
   5   8   8   36.74    4.42
   5  -8   8   35.14    6.57
  -5   8  -8   31.46    4.09
  -5  -8  -8   31.75    4.08
   5   8   9  132.23    9.30
   5  -8   9  114.55   12.93
  -5  -8  -9  131.09    8.25
  -5   8  -9  117.71   13.31
   5  -8  10   67.10    9.63
   5   8  10   58.98   10.21
  -5  -8 -10   69.21    5.72
  -5   8 -10   45.01    6.12
   5   8  11   55.94   10.30
   5  -8  11   55.34    8.80
  -5   8 -11   45.44    6.17
   5   8  12   13.41    4.33
   5  -8  12   15.02   10.01
   5  -8  13   16.05    5.92
   5   8  13    4.55    3.86
   5  -8  14    1.28    5.14
   5   8  14   -1.18    3.32
   5   8  14    1.82    3.16
   5  -8  15   24.41    7.39
   5   8  15    5.06    4.57
   5   9 -15    9.72    5.81
   5   9 -15   -2.60    3.75
  -5  -9  15   -0.23    3.75
  -5   9  15   -3.37   11.37
  -5   9  15    4.55    4.70
   5   9 -14   17.14    7.65
   5   9 -14   16.30    7.29
  -5  -9  14    2.34    4.26
  -5   9  14   27.04    8.43
  -5   9  14   16.74    8.95
   5   9 -13   50.31    6.09
   5   9 -13   36.71    9.70
  -5  -9  13   29.85    6.02
  -5   9  13   32.81    7.42
  -5   9  13   73.27   11.54
   5   9 -12    6.86    5.79
   5   9 -12   12.25    3.82
  -5   9  12    9.94    7.43
  -5   9  12   15.39    4.66
  -5  -9  12    5.92    3.75
   5   9 -11   80.79   10.85
   5   9 -11   90.92    7.83
  -5  -9  11   80.47    7.64
  -5   9  11   71.55    9.50
  -5   9  11   85.98   13.73
   5   9 -10   18.47    4.12
   5   9 -10   22.72    8.90
  -5  -9  10   16.47    3.71
  -5   9  10   17.35    4.98
  -5   9  10   19.14   12.05
   5   9  -9   76.72   10.76
   5   9  -9   46.13   14.19
  -5  -9   9   73.71   10.07
  -5   9   9  112.47   12.10
  -5   9   9   71.95    8.13
   5   9  -8   42.65    5.76
   5   9  -8   61.59   12.59
  -5  -9   8   74.93    5.58
  -5   9   8   61.31    6.92
  -5   9   8   71.47   10.35
   5   9  -7  176.31   11.82
   5   9  -7  223.31   22.05
  -5  -9   7  219.47   11.34
  -5   9   7  217.35   19.94
  -5   9   7  176.85   12.85
   5   9  -6  157.98   10.98
   5   9  -6  154.21   11.47
  -5  -9   6  189.70    9.58
  -5   9   6  168.77   16.35
  -5   9   6  165.04   10.88
   5   9  -5  204.79   13.03
  -5  -9   5  225.26   11.15
  -5   9   5  243.20   19.23
  -5   9   5  197.40   12.31
  -5   9   5  228.45    5.69
   5   9  -4   29.68    4.28
  -5   9   4   35.12    3.66
  -5  -9   4   26.34    3.44
  -5   9   4   26.88    1.49
   5   9  -3  153.13    9.63
  -5  -9   3  153.00    8.07
  -5   9   3  156.16    5.03
  -5   9   3  150.15    8.49
   5   9  -2  189.21   11.48
  -5  -9   2  195.00    9.87
  -5   9   2  211.08    7.08
  -5   9   2  190.15    9.49
   5   9  -1  111.40    7.70
  -5  -9   1  124.17    6.66
  -5   9   1  122.25    4.73
  -5   9   1  116.51    6.34
   5   9   0   25.70    3.64
   5  -9   0   31.01    3.47
  -5  -9   0   23.87    3.17
  -5   9   0   26.18    2.33
  -5   9   0   16.67    4.19
   5   9   1   26.00    3.71
   5  -9   1   29.11    3.75
  -5  -9  -1   32.04    5.11
  -5   9  -1   25.74    2.56
  -5   9  -1   29.80    3.98
   5   9   2   81.54    5.96
   5  -9   2   85.38    9.90
  -5  -9  -2   81.01    5.17
  -5   9  -2   80.68    3.84
  -5   9  -2   78.88    4.49
   5   9   3   46.08    4.70
   5  -9   3   50.56    5.42
  -5  -9  -3   58.65    4.37
  -5   9  -3   51.20    4.08
  -5   9  -3   50.70    6.13
   5   9   4   44.12    4.80
   5  -9   4   48.57    5.73
  -5  -9  -4   46.74    4.18
  -5   9  -4   47.08    3.55
  -5   9  -4   53.00    3.96
   5  -9   5   53.76    6.47
   5   9   5   46.85    8.15
  -5  -9  -5   53.15    4.63
  -5   9  -5   56.60    3.32
  -5   9  -5   58.15    4.59
   5   9   6  217.35   12.94
   5  -9   6  251.02   24.67
  -5  -9  -6  221.29   11.98
  -5   9  -6  218.76    5.86
  -5   9  -6  217.89   11.61
   5   9   7    5.17    2.55
   5  -9   7   -0.94    5.55
  -5   9  -7   -0.07    0.60
  -5  -9  -7    2.33    2.13
  -5   9  -7    0.82    0.46
  -5   9  -7    8.83    3.70
   5   9   8  142.45   10.48
   5  -9   8  162.14   22.18
  -5  -9  -8  171.49    9.63
  -5   9  -8  139.93    9.57
   5  -9   9   20.97    6.74
   5   9   9   27.01    4.76
  -5  -9  -9   23.86    4.07
  -5   9  -9   28.79    4.26
   5  -9  10    3.48    5.13
   5   9  10    7.33    3.58
  -5   9 -10    5.86    5.23
  -5  -9 -10    7.12    3.15
   5   9  11   60.03    7.67
   5  -9  11   74.66   10.74
  -5   9 -11   62.18    7.14
   5   9  12   14.36    8.21
   5  -9  12   11.39    6.99
  -5   9 -12   22.09    4.75
   5   9  13   -0.55    5.70
   5  -9  13    2.64    5.22
   5   9  14   10.81    7.91
   5   9  15   -0.24    7.50
   5  -9  15   12.53    7.63
   5  10 -15   10.57    9.92
   5  10 -15   -3.92    4.28
  -5 -10  15    7.62    4.10
  -5  10  15    9.99    7.88
  -5  10  15    1.56    5.36
   5  10 -14    0.09    3.66
   5  10 -14   17.14    6.07
  -5 -10  14   -5.95    3.66
  -5  10  14   17.38    7.08
  -5  10  14    4.33    4.77
   5  10 -13    8.88    7.45
   5  10 -13   12.89    7.26
  -5 -10  13    9.66    4.38
  -5  10  13   19.80    5.84
  -5  10  13   33.35    9.25
   5  10 -12   10.63    5.24
   5  10 -12    1.60    3.59
  -5  10  12    3.33    6.88
  -5  10  12    3.97    4.38
  -5 -10  12    4.72    3.31
   5  10 -11    6.52    5.03
   5  10 -11    4.51    3.41
  -5  10  11    5.07    7.05
  -5  10  11   -0.46   10.37
  -5 -10  11    5.16    3.21
   5  10 -10   52.80    6.67
   5  10 -10   45.43    8.57
  -5 -10  10   54.13    5.57
  -5  10  10   34.30   11.61
  -5  10  10   62.14   11.02
   5  10  -9   15.73    5.90
   5  10  -9   21.71    7.13
  -5  10   9   26.63    8.12
  -5 -10   9   32.49    6.43
  -5  10   9   16.84    8.62
   5  10  -8  143.33   10.42
   5  10  -8  161.40   13.50
  -5  10   8  148.55   18.87
  -5  10   8  172.92   19.37
  -5 -10   8  166.63   10.05
   5  10  -7  161.78   11.47
   5  10  -7  168.84   13.19
  -5 -10   7  195.19   10.56
  -5  10   7  192.60   19.70
  -5  10   7  155.47   19.35
   5  10  -6   12.72    3.29
   5  10  -6    7.33    3.49
  -5 -10   6    9.04    4.58
  -5  10   6    1.20    5.21
  -5  10   6    7.60    0.78
  -5  10   6    6.59    3.38
   5  10  -5    5.44    3.04
  -5 -10   5    1.99    2.33
  -5  10   5    3.23    1.44
  -5  10   5    0.20    2.70
   5  10  -4   17.70    4.18
  -5 -10   4   18.69    5.48
  -5  10   4   14.91    3.77
  -5  10   4   24.66    1.70
   5  10  -3   45.14    5.39
  -5 -10   3   44.42    4.24
  -5  10   3   45.17    2.59
  -5  10   3   36.37    7.25
   5  10  -2   63.55    8.55
  -5  10   2   40.16    4.36
  -5 -10   2   49.61    4.45
  -5  10   2   46.45    4.31
   5  10  -1   69.32    6.14
  -5 -10   1   66.27    7.96
  -5  10   1   68.41    7.40
  -5  10   1   52.03    5.45
   5  10   0   -2.81    2.51
   5 -10   0    0.73    2.45
  -5 -10   0    4.89    2.13
  -5  10   0    2.20    2.55
  -5  10   0    1.42    1.84
   5  10   1  118.97    8.03
   5 -10   1  122.65    8.74
  -5 -10  -1  116.35    7.11
  -5  10  -1  106.65    5.68
  -5  10  -1  109.86    5.85
   5  10   2  383.58   20.89
   5 -10   2  413.54   22.87
  -5  10  -2  384.25   16.79
  -5 -10  -2  380.79   18.82
  -5  10  -2  379.38   19.99
   5  10   3   55.53    5.93
   5 -10   3   64.38    6.72
  -5 -10  -3   62.94    5.10
  -5  10  -3   58.70    3.32
  -5  10  -3   60.79    4.52
   5  10   4   86.59    7.23
   5 -10   4   94.31    8.88
  -5 -10  -4   85.66   10.04
  -5  10  -4   87.15    3.90
  -5  10  -4   87.33    6.01
   5  10   5   27.54    7.78
   5 -10   5   38.70    9.79
  -5  10  -5   36.77    2.14
  -5  10  -5   31.77    3.95
  -5 -10  -5   29.45    4.09
   5  10   6   76.14    6.84
   5 -10   6   71.13    8.99
  -5  10  -6   65.21    6.04
  -5  10  -6   75.92    2.98
  -5 -10  -6   75.23    5.97
   5  10   7    1.35    3.14
   5 -10   7    6.33    4.06
  -5 -10  -7    4.91    2.64
  -5  10  -7    0.47    2.73
  -5  10  -7    3.63    0.82
   5  10   8   14.31    6.29
   5 -10   8   20.21    4.96
  -5 -10  -8   12.84    3.19
  -5  10  -8   12.00    0.58
  -5  10  -8    3.27    0.69
  -5  10  -8   17.86    5.32
   5  10   9   21.03    4.84
   5 -10   9   17.46    6.76
  -5 -10  -9   22.26    4.22
  -5  10  -9   23.13    4.30
   5  10  10    2.48    3.60
   5 -10  10   -0.46    4.97
  -5 -10 -10    1.91    5.19
  -5  10 -10    7.61    3.19
   5  10  11   84.98    9.85
   5 -10  11  119.37   20.97
  -5 -10 -11   88.61    8.80
   5  10  12    5.12    3.63
   5 -10  12    2.65    5.21
  -5  10 -12   -4.18    3.20
   5 -10  13    2.58    6.10
   5  10  13    1.81    4.03
  -5  10 -13    5.70    3.98
   5  10  14    2.18    4.35
   5 -10  14    6.24    6.50
   5  10  15    4.49    4.97
   5 -10  15   13.83    8.30
   5  11 -14    6.02    5.80
   5  11 -14    0.33    3.98
  -5 -11  14    5.65    3.82
  -5  11  14    1.18   13.14
  -5  11  14    1.03    8.67
   5  11 -13   10.86    7.17
   5  11 -13    5.06    6.39
  -5 -11  13    8.30    3.87
  -5  11  13    0.97    5.29
  -5  11  13   22.05    8.53
   5  11 -12   19.11   11.72
   5  11 -12   12.56    5.02
  -5  11  12   15.61    6.35
  -5  11  12   23.64    9.25
  -5 -11  12   22.57    4.47
   5  11 -11   24.97   12.12
   5  11 -11   25.78    5.11
  -5  11  11   23.51    6.36
  -5  11  11   26.09    9.51
  -5 -11  11   21.36    4.69
   5  11 -10   11.74    4.30
   5  11 -10   11.33    9.40
  -5 -11  10   13.82    3.67
  -5  11  10    9.96    7.58
  -5  11  10   10.81    4.78
   5  11  -9   86.67   11.19
   5  11  -9   77.83   13.92
  -5 -11   9  104.21    7.59
  -5  11   9   88.45    9.87
  -5  11   9  107.40   26.60
   5  11  -8   42.80    5.94
   5  11  -8   58.53    7.50
  -5  11   8   63.30   11.31
  -5  11   8   35.16    7.16
  -5 -11   8   48.61    5.17
   5  11  -7   60.08    6.44
   5  11  -7   58.71    7.14
  -5 -11   7   52.95    5.41
  -5  11   7   65.29   10.97
  -5  11   7   49.84    7.08
  -5  11   7   53.26    2.10
   5  11  -6    1.18    3.06
   5  11  -6   -0.62    3.16
  -5  11   6    2.56    0.90
  -5  11   6    5.17    3.16
  -5 -11   6    0.29    2.49
   5  11  -5  167.42   12.76
   5  11  -5  149.20   12.24
  -5 -11   5  163.45   10.14
  -5  11   5  179.45    5.96
  -5  11   5  164.60   11.69
   5  11  -4   68.16    7.10
  -5 -11   4   62.97    5.67
  -5  11   4   61.69    6.32
  -5  11   4   70.40    5.10
   5  11  -3    3.42    3.06
  -5 -11   3    3.37    2.39
  -5  11   3    2.17    2.63
  -5  11   3    1.76    1.51
   5  11  -2   32.06    5.51
  -5 -11   2   60.93    7.33
  -5  11   2   43.04    3.04
  -5  11   2   41.81    4.70
   5  11  -1  351.39   29.89
  -5 -11   1  357.12   18.56
  -5  11   1  369.11   15.20
  -5  11   1  351.65   17.88
   5  11   0  132.84   10.68
  -5 -11   0  145.92    8.99
  -5  11   0  151.15    7.29
  -5  11   0  157.76    8.43
   5  11   1   14.70    4.33
  -5 -11  -1   19.88    3.49
  -5  11  -1   22.36    2.95
  -5  11  -1   23.24    4.55
   5  11   2    0.02    2.79
   5 -11   2   -2.31    3.19
  -5 -11  -2    1.25    2.29
  -5  11  -2    3.37    1.99
  -5  11  -2    2.14    1.78
   5  11   3   24.09    4.34
   5 -11   3   25.61    5.18
  -5 -11  -3   18.30    3.63
  -5  11  -3   18.87    4.05
  -5  11  -3   19.65    3.18
   5  11   4   82.67    7.59
   5 -11   4   70.95   14.56
  -5 -11  -4   83.56    6.45
  -5  11  -4   82.46    4.24
  -5  11  -4   66.78    5.91
   5  11   5   31.48    5.27
   5 -11   5   42.11    6.59
  -5 -11  -5   32.53    4.31
  -5  11  -5   25.29    4.05
  -5  11  -5   36.92    4.21
   5 -11   6  201.05   16.06
   5  11   6  168.36   12.44
  -5  11  -6  159.99    6.28
  -5  11  -6  167.32   10.45
  -5 -11  -6  180.87   10.97
   5  11   7  170.34   12.82
   5 -11   7  190.92   16.75
  -5 -11  -7  161.62   11.22
  -5  11  -7  166.52   10.86
  -5  11  -7  162.37    5.62
   5 -11   8   32.20    7.88
   5  11   8   33.47    5.76
  -5  11  -8   34.84    4.96
  -5 -11  -8   34.29    4.94
  -5  11  -8   28.66    2.34
   5 -11   9   60.45    8.62
   5  11   9   33.88    6.40
  -5 -11  -9   37.34    5.29
  -5  11  -9   31.89    5.47
   5  11  10    8.90    4.62
   5 -11  10    7.86    6.24
  -5 -11 -10   10.07    6.29
  -5  11 -10    9.12    3.77
   5  11  11   51.97    8.11
   5 -11  11   49.51   11.30
  -5 -11 -11   54.32    7.18
  -5  11 -11   49.81    6.88
   5  11  12   15.49    5.77
   5 -11  12   16.80    8.24
  -5  11 -12   16.69    4.94
   5  11  13   31.27    7.50
   5 -11  13   33.72   11.01
  -5  11 -13   42.85    7.08
   5  11  14   17.90    6.19
   5  12 -13    1.69    6.78
   5  12 -13   12.36    4.83
  -5 -12  13    6.09    7.32
  -5  12  13   14.42    6.03
  -5  12  13    2.71    9.22
   5  12 -12    5.84    3.37
   5  12 -12   -3.76    4.95
  -5 -12  12   -3.98    2.98
  -5  12  12    3.03    4.21
  -5  12  12   -6.12   10.44
   5  12 -11    0.05    3.32
   5  12 -11    5.47    4.76
  -5 -12  11   -2.50    3.00
  -5  12  11   -5.63    4.13
  -5  12  11    3.47    6.29
   5  12 -10    0.32    4.17
   5  12 -10   11.05    5.32
  -5 -12  10    5.98    3.50
  -5  12  10    1.40    7.36
  -5  12  10   13.05    4.53
   5  12  -9    2.81    3.78
   5  12  -9    7.32    4.68
  -5 -12   9    7.18    3.23
  -5  12   9   -6.67    7.25
  -5  12   9   11.30    4.29
   5  12  -8    1.78    3.44
   5  12  -8   -0.15    6.88
  -5 -12   8    6.80    5.06
  -5  12   8    7.83    6.76
  -5  12   8   11.87    4.02
   5  12  -7   37.76   10.28
   5  12  -7   46.90    6.13
  -5 -12   7   44.77    5.09
  -5  12   7   40.33    6.89
  -5  12   7   41.20    2.65
   5  12  -6    5.93    6.87
   5  12  -6    4.70    6.83
  -5 -12   6   13.04    3.25
  -5  12   6   10.60    1.44
  -5  12   6   13.47    4.22
   5  12  -5   37.95    6.15
   5  12  -5   54.90    5.83
  -5 -12   5   29.51    4.56
  -5  12   5   24.57    5.60
  -5  12   5   34.04    3.99
   5  12  -4   12.18    3.90
  -5 -12   4    5.30    3.07
  -5  12   4    8.37    1.88
  -5  12   4    5.46    3.57
   5  12  -3   38.32    6.01
  -5 -12   3   44.06    4.70
  -5  12   3   28.01    5.14
  -5  12   3   39.67    3.26
   5  12  -2   46.48    6.36
  -5 -12   2   50.02    5.17
  -5  12   2   49.61    3.49
  -5  12   2   39.29    8.43
   5  12  -1   29.96    4.97
  -5 -12   1   19.04    4.17
  -5  12   1   27.92    2.98
  -5  12   1   35.89    4.07
   5  12   0   26.96    4.92
  -5  12   0   23.89    3.65
  -5  12   0   29.81    3.07
  -5 -12   0   13.96    3.90
   5  12   1   18.22    4.82
  -5  12  -1   24.13    3.18
  -5  12  -1   23.84    3.39
  -5 -12  -1   20.24    3.96
   5  12   2   68.74    7.16
  -5 -12  -2   53.95    5.76
  -5  12  -2   57.42    8.02
  -5  12  -2   68.45    4.80
   5  12   3   51.77    6.50
  -5 -12  -3   50.40    8.56
  -5  12  -3   52.82    4.66
  -5  12  -3   45.07    3.98
   5  12   4   42.09    6.01
   5 -12   4   43.50    7.23
  -5 -12  -4   39.79    4.97
  -5  12  -4   33.40    3.35
  -5  12  -4   33.42    4.39
   5  12   5   61.23    7.56
   5 -12   5   71.65    9.74
  -5 -12  -5   62.54    6.52
  -5  12  -5   58.67    6.42
  -5  12  -5   70.70    6.08
   5  12   6   25.49    8.24
   5 -12   6   23.15    6.70
  -5 -12  -6   21.71    4.25
  -5  12  -6   17.77    3.81
  -5  12  -6   23.73    6.66
   5  12   7   38.63    6.29
   5 -12   7   42.36    8.88
  -5  12  -7   35.77    2.76
  -5 -12  -7   43.41    5.47
  -5  12  -7   42.18    5.27
   5 -12   8   43.15   14.08
   5  12   8   24.58    6.43
  -5  12  -8   44.06    5.34
  -5  12  -8   33.20    2.14
  -5 -12  -8   35.46    5.30
   5  12   9   84.64    8.18
   5 -12   9   82.79   18.45
  -5 -12  -9   68.97    7.11
  -5  12  -9   55.86    1.94
  -5  12  -9   71.52    7.05
   5 -12  10    5.16   11.22
   5  12  10    4.77    8.56
  -5 -12 -10   12.74    7.08
  -5  12 -10   12.04    4.12
   5  12  11    2.61    4.26
   5 -12  11   -4.29    6.19
  -5 -12 -11    0.78    3.71
  -5  12 -11    5.64    3.56
   5  12  12    3.49    4.75
   5 -12  12    1.78    6.87
  -5  12 -12    5.20    6.25
   5  12  13   -2.89    4.48
   5 -12  13   10.03    6.19
  -5  12 -13    1.45    4.22
   5  13 -13   12.56    5.63
   5  13 -13   11.05    7.66
  -5 -13  13   25.17    8.66
  -5  13  13    9.99   10.47
  -5  13  13   23.72   11.50
   5  13 -12    2.29    5.48
   5  13 -12   -1.85    3.65
  -5 -13  12   -1.96    5.31
  -5  13  12    9.99    4.20
  -5  13  12  -13.71    6.92
   5  13 -11    8.27    4.64
   5  13 -11   12.73    6.72
  -5 -13  11    8.65    6.60
  -5  13  11    7.20    5.67
  -5  13  11   17.17    8.63
   5  13 -10    3.81    6.55
   5  13 -10   -5.77    5.23
  -5 -13  10   -5.37    3.34
  -5  13  10   -5.77   12.72
  -5  13  10   -2.17    4.60
   5  13  -9   19.79    5.85
   5  13  -9   29.49    7.15
  -5 -13   9   28.64    4.97
  -5  13   9   24.81   10.83
  -5  13   9   29.30    6.64
   5  13  -8   31.51    6.79
   5  13  -8   31.23    6.05
  -5 -13   8   28.71    4.97
  -5  13   8   39.19   10.83
  -5  13   8   42.68   10.94
   5  13  -7   10.20    4.03
   5  13  -7    0.66    6.19
  -5 -13   7    3.56    5.15
  -5  13   7   -0.07    6.67
  -5  13   7    4.41    1.97
   5  13  -6   40.46    6.85
   5  13  -6   39.63    6.46
  -5  13   6   34.19    2.67
  -5 -13   6   57.50    5.29
  -5  13   6   40.05    6.74
   5  13  -5   73.39   15.91
   5  13  -5   92.24   10.01
  -5 -13   5  100.97    7.96
  -5  13   5   89.97    4.92
  -5  13   5   90.07    9.34
   5  13  -4   10.68    5.45
   5  13  -4   26.81    5.35
  -5 -13   4   14.38    4.19
  -5  13   4   28.05    2.77
  -5  13   4   18.90    4.94
   5  13  -3   44.28    6.87
  -5 -13   3   43.04    5.60
  -5  13   3   50.17    3.61
  -5  13   3   44.48    6.06
   5  13  -2   18.22    5.20
  -5 -13   2   19.68    4.13
  -5  13   2   22.51    4.46
  -5  13   2   24.71    2.84
   5  13  -1   69.89    7.41
  -5  13   1   61.71    6.37
  -5  13   1   62.07    4.53
  -5 -13   1   58.58    6.36
   5  13   0  114.27   11.18
  -5  13   0  135.74    7.40
  -5  13   0  130.89   13.53
  -5 -13   0  125.25    9.58
   5  13   1   31.37    5.98
  -5  13  -1   38.01    3.97
  -5  13  -1   29.51    4.32
   5  13   2   13.74    7.10
  -5 -13  -2   11.64    3.50
  -5  13  -2    8.24    2.89
  -5  13  -2   12.70    4.68
   5  13   3   70.64    8.36
  -5 -13  -3   76.48    7.19
  -5  13  -3   73.54    8.42
  -5  13  -3   76.93    9.60
   5  13   4   58.38   13.29
  -5 -13  -4   69.70   11.03
  -5  13  -4   65.13    5.88
  -5  13  -4   66.20    4.95
   5  13   5    2.80    3.63
  -5 -13  -5    2.65    3.17
  -5  13  -5    2.76    3.30
  -5  13  -5    1.77    2.75
   5 -13   6   55.48   10.36
   5  13   6   58.30    7.43
  -5  13  -6   54.48    7.13
  -5  13  -6   65.51    6.37
  -5 -13  -6   53.38    6.81
   5 -13   7   33.75    8.51
   5  13   7   34.37    6.15
  -5  13  -7   33.32    3.31
  -5  13  -7   28.17    5.09
  -5 -13  -7   20.95    8.62
   5  13   8    4.86    4.33
   5 -13   8    8.63    6.09
  -5 -13  -8    6.57    3.81
  -5  13  -8    6.36    3.56
  -5  13  -8    6.35    2.76
   5  13   9   17.19    6.00
   5 -13   9    9.32    8.59
  -5 -13  -9   29.54    5.51
  -5  13  -9   29.07    5.19
   5  13  10    4.01    4.58
   5 -13  10    0.62    6.29
  -5 -13 -10    1.75    3.92
  -5  13 -10    6.05    3.74
   5  13  11   67.59   18.73
   5 -13  11   85.99   16.39
  -5 -13 -11  103.86   10.42
  -5  13 -11   77.07    9.47
   5  13  12   21.47   12.90
   5 -13  12   20.10   10.11
  -5  13 -12   30.98    6.42
   5  13  13   28.50    8.49
   5 -13  13   28.12   11.02
  -5  13 -13   29.75    7.60
   5  14 -12   13.48   16.01
   5  14 -12   26.76    6.21
  -5  14  12   23.62   13.03
  -5  14  12   23.06    7.28
  -5 -14  12   20.18    5.88
   5  14 -11    2.99    3.92
   5  14 -11   -0.46    5.71
  -5 -14  11   -0.24    3.34
  -5  14  11    4.07    7.36
  -5  14  11    2.07    4.22
   5  14 -10    3.11    8.97
   5  14 -10   17.83    7.33
  -5 -14  10   16.33    7.84
  -5  14  10   35.69   10.66
  -5  14  10   18.14    6.55
   5  14  -9   12.52    4.91
   5  14  -9    9.64    5.62
  -5 -14   9   10.11    3.95
  -5  14   9    2.12    5.34
  -5  14   9   11.34    8.96
   5  14  -8  122.76   13.67
   5  14  -8  127.64   12.94
  -5 -14   8  130.04   10.62
  -5  14   8  128.27   22.19
  -5  14   8  123.97   13.91
   5  14  -7    9.68    4.43
   5  14  -7   14.40    4.63
  -5 -14   7    8.18    3.57
  -5  14   7    4.86    4.73
  -5  14   7    5.03    2.63
   5  14  -6    7.97    4.80
   5  14  -6    8.19    4.92
  -5 -14   6   11.85    3.73
  -5  14   6   11.47    4.57
  -5  14   6    7.81    3.39
   5  14  -5   -1.29    3.68
   5  14  -5    3.66    6.24
  -5 -14   5    1.69    2.85
  -5  14   5    1.00    1.78
  -5  14   5    1.48    3.46
   5  14  -4   10.79    7.04
   5  14  -4    7.66    4.28
  -5  14   4    5.32    3.97
  -5  14   4    5.09    2.35
  -5 -14   4    7.59    5.52
   5  14  -3   64.87    8.58
  -5 -14   3   60.72    6.85
  -5  14   3   60.93    4.72
  -5  14   3   74.63    7.60
   5  14  -2   53.84    7.36
  -5 -14   2   49.86    6.04
  -5  14   2   43.97    4.20
  -5  14   2   45.74    6.40
   5  14  -1  104.42   10.13
  -5 -14   1   87.44    8.85
  -5  14   1   95.13    6.25
  -5  14   1   92.28   13.60
   5  14   0   44.90    7.54
  -5  14   0   49.38    4.73
  -5  14   0   56.86    5.93
  -5 -14   0   49.84    6.25
   5  14   1    4.66    4.19
  -5  14  -1    6.49    3.15
  -5  14  -1    8.47    2.72
  -5 -14  -1    4.03    3.51
   5  14   2   69.18    8.73
  -5 -14  -2   64.12   11.58
  -5  14  -2   71.77    6.07
  -5  14  -2   60.15    5.89
   5  14   3   96.26   10.22
  -5 -14  -3  103.46    9.15
  -5  14  -3   99.94   12.26
  -5  14  -3  100.99    7.25
   5  14   4   18.30    4.15
  -5 -14  -4    6.78    3.65
  -5  14  -4    3.22    2.60
  -5  14  -4    0.99    3.03
   5  14   5    3.30    4.40
  -5 -14  -5   14.23    3.84
  -5  14  -5    4.37    2.70
  -5  14  -5    6.32    3.27
   5  14   6   55.64    8.33
  -5  14  -6   58.80    6.86
  -5  14  -6   68.49    8.77
  -5 -14  -6   61.74    7.69
   5  14   7   24.01   10.53
  -5 -14  -7   43.54    5.80
  -5  14  -7   14.79    8.23
  -5  14  -7   18.07    5.90
   5  14   8   12.87    4.77
  -5 -14  -8   10.87    4.21
  -5  14  -8    7.41    3.82
  -5  14  -8    4.67    2.14
   5  14   9    2.12    3.98
  -5 -14  -9   -0.45    3.51
  -5  14  -9    0.52    3.31
   5  14  10   23.55    6.97
  -5 -14 -10   28.00    6.15
  -5  14 -10   14.05    9.33
   5  14  11   26.92    8.93
  -5 -14 -11   35.10    7.72
  -5  14 -11   43.03    7.06
   5  14  12    5.05    6.22
  -5  14 -12    6.14    4.97
   5  15 -11   37.96    7.63
   5  15 -11   30.91   15.99
  -5 -15  11   18.25    6.13
  -5  15  11   25.04   12.26
  -5  15  11   42.03   13.90
   5  15 -10    4.92    4.27
   5  15 -10    0.55    9.20
  -5 -15  10   -0.75    3.69
  -5  15  10    3.82    7.54
  -5  15  10    9.30    8.40
   5  15  -9    6.36    4.83
   5  15  -9    4.10    5.49
  -5 -15   9    4.57    6.29
  -5  15   9    4.49    8.66
  -5  15   9    3.38    8.48
   5  15  -8   36.61    8.49
  -5 -15   8   50.10    6.52
  -5  15   8   45.36    8.45
  -5  15   8    2.19   13.64
   5  15  -7   41.67    7.73
   5  15  -7   36.34    7.97
  -5 -15   7   33.80    6.31
  -5  15   7   53.13    7.84
   5  15  -6   38.85    7.21
   5  15  -6   37.14    6.92
  -5 -15   6   31.37    5.62
  -5  15   6   17.66    5.52
  -5  15   6   27.96    6.65
   5  15  -5    9.03    4.64
   5  15  -5    0.14    4.75
  -5  15   5    4.77    2.48
  -5  15   5   10.89    4.31
  -5 -15   5    7.65    3.65
   5  15  -4   12.66    5.88
   5  15  -4   20.64    9.49
  -5  15   4   16.65    3.21
  -5  15   4   14.78    8.65
  -5 -15   4   17.46    4.42
   5  15  -3   41.21    7.61
   5  15  -3   56.73    8.24
  -5 -15   3   35.21   10.07
  -5  15   3   45.07    4.39
  -5  15   3   33.16    7.04
   5  15  -2    3.63    3.74
  -5 -15   2    2.35    3.23
  -5  15   2   -0.75    5.50
  -5  15   2   -0.17    2.17
   5  15  -1   70.91   14.84
  -5 -15   1   73.04    8.11
  -5  15   1   67.41    6.12
  -5  15   1   82.18    8.14
   5  15   0   26.12    6.30
  -5  15   0   29.91    4.22
  -5  15   0   28.65    5.39
  -5 -15   0   28.30    5.43
   5  15   1   14.51    5.18
  -5  15  -1   11.95    3.60
  -5  15  -1   12.52    6.82
  -5 -15  -1   22.80    4.63
   5  15   2   18.50    6.35
  -5 -15  -2   30.57    5.30
  -5  15  -2   29.71    4.33
  -5  15  -2   15.33    7.57
   5  15   3   11.40    4.77
  -5 -15  -3   14.01    6.74
  -5  15  -3   11.19    5.59
  -5  15  -3    2.46    5.46
   5  15   4   11.33    4.13
  -5 -15  -4   -3.57    3.56
  -5  15  -4    0.39    2.64
  -5  15  -4    5.92    2.93
  -5 -15  -5   38.06    6.04
  -5  15  -5   27.82    4.44
  -5  15  -5   27.61    5.41
   5  15   6    2.79    4.06
  -5 -15  -6   -2.98    3.45
  -5  15  -6    4.64    4.42
  -5  15  -6    1.00    3.06
   5  15   7   10.68    5.41
  -5 -15  -7   16.18    4.95
  -5  15  -7    4.07    6.05
  -5  15  -7   14.61    7.03
  -5 -15  -8   20.77   11.89
  -5  15  -8   51.02    6.77
   5  15   9   -1.40    4.32
  -5 -15  -9   -2.37    3.72
  -5  15  -9    3.64    3.47
   5  15  10    7.27    5.58
  -5 -15 -10    7.64    4.71
  -5  15 -10    0.96    4.37
   5  15  11   61.20   11.90
  -5 -15 -11   58.17    9.52
  -5  15 -11   40.85    9.14
   5  16 -10    6.32    6.17
  -5 -16  10   14.32    4.79
  -5  16  10    9.08    6.03
   5  16  -9    3.34    5.88
   5  16  -9    9.02   10.18
  -5 -16   9    4.99    4.38
  -5  16   9    9.36    6.09
  -5  16   9   18.04    9.76
   5  16  -8   54.59    8.48
   5  16  -8   37.13    9.31
  -5 -16   8   40.78    7.05
  -5  16   8   28.09    9.25
   5  16  -7    6.09    4.82
   5  16  -7    6.04    5.15
  -5 -16   7   -0.05    4.08
  -5  16   7   10.64    5.11
   5  16  -6   43.15    8.25
   5  16  -6   40.74    8.91
  -5  16   6    8.78    6.53
  -5 -16   6   69.39    6.84
  -5  16   6   48.40   13.22
   5  16  -5    9.06    4.98
   5  16  -5    6.12    4.97
  -5  16   5    2.09    2.68
  -5  16   5    5.54    4.61
  -5 -16   5    6.93    3.95
   5  16  -4   11.14    8.65
  -5  16   4    1.72    4.93
  -5  16   4    7.65    3.04
  -5 -16   4    9.81    4.21
   5  16  -3   17.84    5.80
   5  16  -3    6.70    6.14
  -5 -16   3   19.68    4.87
  -5  16   3   16.91    8.68
  -5  16   3   13.51    3.81
   5  16  -2    1.61    6.71
   5  16  -2   24.40    6.39
  -5 -16   2   18.37    8.47
  -5  16   2   26.74    5.80
  -5  16   2   24.92    3.93
   5  16  -1   11.53    9.33
  -5 -16   1   17.97    4.58
  -5  16   1   14.69    3.60
  -5  16   1   11.26    5.04
   5  16   0   63.78    9.57
  -5 -16   0   61.49    7.98
  -5  16   0   59.50    6.40
  -5  16   0   74.69    8.03
   5  16   1   24.68    6.38
  -5 -16  -1   27.21    5.59
  -5  16  -1   24.90    4.48
  -5  16  -1   18.72    5.30
   5  16   2   10.67    4.89
  -5 -16  -2    9.05    4.24
  -5  16  -2    4.92    3.36
  -5  16  -2    5.62    3.74
   5  16   3   90.49   17.55
  -5 -16  -3   92.27    9.49
  -5  16  -3   79.63    8.15
  -5  16  -3   72.90   12.54
   5  16   4   72.29   10.46
  -5  16  -4   83.56    7.56
  -5  16  -4   67.56    8.13
   5  16   5   50.09    9.15
  -5 -16  -5   51.10    7.94
  -5  16  -5   55.59    6.05
  -5  16  -5   40.54    6.91
   5  16   6    3.47    4.80
  -5  16  -6    5.21    3.19
  -5  16  -6    0.87    3.64
   5  16   7   -2.63    4.30
  -5 -16  -7    6.04    3.81
  -5  16  -7   -2.36    5.04
  -5  16  -7   -2.81    5.44
   5  16   8   -0.97    4.72
  -5  16  -8    4.84    3.69
  -5 -16  -8   -1.38    4.12
  -5 -16  -9   66.06    9.39
  -5  16  -9   44.49    8.19
   5  17  -8   -8.83    5.40
   5  17  -8   10.05    5.47
  -5 -17   8    3.42    3.98
  -5  17   8    3.38    5.57
   5  17  -7   -1.83    5.49
  -5 -17   7    7.38    4.20
  -5  17   7    5.12    5.35
   5  17  -6   -5.57    5.22
   5  17  -6   -0.01    4.77
  -5  17   6   -0.13    4.80
  -5 -17   6   -5.34    6.60
   5  17  -5   23.12    7.46
  -5  17   5   18.50    4.21
  -5  17   5   17.12    7.01
  -5 -17   5   29.99    5.95
   5  17  -4    6.95    7.92
   5  17  -4    2.17    4.72
  -5 -17   4   -3.25    3.77
  -5  17   4    5.14    2.92
  -5  17   4   -3.77    4.39
   5  17  -3   -2.20    5.29
   5  17  -3    2.83    5.38
  -5 -17   3    2.02    6.81
  -5  17   3   10.61    4.68
  -5  17   3    4.68    3.43
   5  17  -2    5.83    5.57
   5  17  -2    1.59    5.13
  -5 -17   2    9.58    4.24
  -5  17   2   11.78    4.63
  -5  17   2    2.74    3.26
   5  17  -1   -0.64    4.52
   5  17  -1   -0.63    4.63
  -5 -17   1    8.62    3.63
  -5  17   1   -1.10    2.86
  -5  17   1   -1.86    3.80
   5  17   0    4.85    4.65
  -5 -17   0    2.72    3.83
  -5  17   0    2.00    3.91
  -5  17   0    0.44    2.91
   5  17   1   -1.97    7.97
  -5 -17  -1    6.69    4.11
  -5  17  -1    0.52    6.27
  -5  17  -1    2.46    3.17
   5  17   2    1.96    4.28
  -5  17  -2    0.27    2.99
  -5  17  -2    0.59    3.38
  -5 -17  -2   -5.51    3.84
   5  17   3    2.04    5.08
  -5 -17  -3    7.46    4.25
  -5  17  -3    4.81    5.81
  -5  17  -3    1.60    3.63
   5  17   4    3.58    4.84
  -5 -17  -4   -0.25    4.14
  -5  17  -4   -1.41    5.47
  -5  17  -4    6.26    3.52
   5  17   5   13.18    6.09
  -5 -17  -5    9.27    5.38
  -5  17  -5    7.12    6.99
  -5  17  -5   13.05    4.55
  -5 -17  -6   19.66    5.65
  -5  17  -6   11.31    4.53
  -5  17  -6    9.65    4.94
   5  17   7   15.92    5.77
  -5 -17  -7    3.10    5.50
  -5  17  -7   13.16    7.78
   5  17   8   19.82    6.52
  -5 -17  -8    7.41    5.96
  -5  17  -8    4.35    4.79
   5  18  -6   25.49    8.54
   5  18  -6   21.99    8.27
  -5  18   6   26.28    8.06
  -5 -18   6   18.35    6.38
   5  18  -5   15.89    6.91
   5  18  -5   20.98    7.28
  -5 -18   5   14.24    9.38
  -5  18   5   10.06    6.96
   5  18  -4   23.11    8.47
   5  18  -4   35.32    8.13
  -5 -18   4   29.84    6.69
  -5  18   4   21.16    5.48
  -5  18   4   26.29    7.78
   5  18  -3    1.57    5.08
   5  18  -3    2.55    4.89
  -5 -18   3   -7.89    4.04
  -5  18   3   -0.63    3.43
  -5  18   3   -0.87    4.56
   5  18  -2   -1.69    5.49
   5  18  -2    9.48    5.37
  -5 -18   2    6.82    4.53
  -5  18   2    2.18    3.35
  -5  18   2    4.82    4.89
   5  18  -1    6.53    6.08
   5  18  -1   13.45    6.30
  -5 -18   1   11.84    5.11
  -5  18   1    5.70    3.95
  -5  18   1   12.76    5.29
   5  18   0   31.16    8.13
   5  18   0    3.46    8.05
  -5 -18   0   28.98    6.60
  -5  18   0   24.48    5.20
  -5  18   0   34.20    6.79
   5  18   1   91.56   13.52
  -5 -18  -1   99.09   11.62
  -5  18  -1   91.26    9.16
  -5  18  -1   91.55   11.15
   5  18   2    2.61    4.89
  -5 -18  -2    2.07    4.22
  -5  18  -2    1.42    3.57
  -5  18  -2    0.29    3.34
   5  18   3    0.56    5.13
  -5  18  -3   -1.87    6.39
  -5  18  -3   10.73    4.10
  -5 -18  -4   29.81    8.00
  -5  18  -4   33.92    6.63
  -5  18  -4   42.23    6.60
   5  18   5   11.83    5.56
  -5  18  -5    5.87    4.37
  -5  18  -5    6.12    4.58
   5  18   6    8.29    5.69
  -5 -18  -6   13.07    5.83
  -5  18  -6    7.17    4.33
  -5  18  -6    1.56    4.65
   5  19  -3   29.22   13.54
   5  19  -3   81.30   11.63
  -5 -19   3   56.31   15.52
  -5  19   3   62.74    8.40
  -5  19   3   33.53   10.52
   5  19  -2   -0.63   11.49
   5  19  -2    8.43    6.10
  -5 -19   2    3.28    5.16
  -5  19   2    6.43    5.52
  -5  19   2    5.92    3.82
   5  19  -1   12.78    6.32
   5  19  -1    5.56    6.03
  -5 -19   1    2.93    5.01
  -5  19   1    1.15    5.34
  -5  19   1    6.86    4.02
   5  19   0    1.04    9.87
   5  19   0   -0.31    6.05
  -5 -19   0    4.58    4.99
  -5  19   0    8.39    3.99
  -5  19   0    1.46    4.94
   5  19   1    6.66    6.43
   5  19   1   14.77    6.51
  -5 -19  -1    9.41    5.22
  -5  19  -1    1.39    4.10
  -5  19  -1    5.41    8.31
  -5  19  -2   14.00    5.05
  -5  19  -2    3.16    7.41
   5  19   3   15.81    7.71
  -5 -19  -3   26.84    6.44
  -5  19  -3   11.94    5.11
  -5  19  -3    7.46    4.96
  -6   0  17   27.30    8.63
  -6   0  16   40.43    9.24
  -6   0  15   24.96    7.35
  -6   0  14   -5.41    4.84
   6   0 -13  139.93    5.92
  -6   0  13  159.38   14.44
   6   0 -12   55.07    4.54
  -6   0  12   60.53    8.13
   6   0 -11   -1.28    1.17
   6   0 -11   -1.68    5.05
  -6   0  11   -1.08    3.40
   6   0 -10  217.92    7.43
   6   0 -10  229.90   31.54
  -6   0  10  258.83   16.39
   6   0  -9   62.32    2.78
   6   0  -9   70.83    8.85
  -6   0   9   70.82    6.86
   6   0  -8   97.33    9.99
   6   0  -8   94.71    3.62
  -6   0   8  101.08    7.78
   6   0  -7   34.55    5.64
   6   0  -7   36.17    2.00
  -6   0   7   40.80    4.41
   6   0  -6   80.79    7.28
  -6   0   6   85.03    6.00
   6   0  -5   44.57    8.40
  -6   0   5   51.71    4.34
   6   0  -4  255.09   13.60
  -6   0   4  276.52   12.41
   6   0  -3   30.39    3.35
  -6   0   3   31.87    2.91
   6   0  -2  268.20   11.38
  -6   0   2  259.01   13.73
   6   0  -1    5.94    1.81
  -6   0   1    7.64    2.60
   6   0   0  191.74    7.49
  -6   0   0  209.13    6.93
   6   0   1  705.14   27.51
  -6   0  -1  695.93   25.25
   6   0   2 2439.37  149.92
  -6   0  -2 2441.13  143.66
   6   0   3  433.71   15.94
  -6   0  -3  443.60   13.05
   6   0   4  148.30    4.26
  -6   0  -4  156.41    5.03
   6   0   5   18.64    1.19
  -6   0  -5   18.84    1.06
   6   0   6   29.21    2.03
  -6   0  -6   26.78    1.25
   6   0   7   83.49    2.49
   6   0   7   92.09    5.66
  -6   0  -7   90.48    2.55
   6   0   8  284.93   19.73
   6   0   8  276.94    7.58
   6   0   9  443.40   23.93
   6   0   9  456.33   14.28
   6   0  10    3.05    2.98
   6   0  10    4.31    1.76
   6   0  10    3.38    2.95
   6   0  11    2.90    1.54
   6   0  11   -1.22    1.03
   6   0  11    2.26    2.70
   6   0  12   88.19    5.24
   6   0  12   80.08    5.91
   6   0  12  100.12    8.67
   6   0  13   44.42   10.79
   6   0  13   40.14    4.50
   6   0  13   43.30    6.15
   6   0  14   85.13    9.30
   6   0  14   81.97    5.76
   6   0  14   99.96   10.37
   6   0  15   24.86    6.91
  -6  -1  17    7.60    6.38
  -6   1  17   20.84   11.50
  -6  -1  16   20.39   11.92
  -6   1  16   27.60    8.44
  -6  -1  15   11.09    6.07
  -6   1  15   17.82    6.56
   6   1 -14    2.47    3.02
  -6  -1  14   -1.66    4.32
  -6   1  14   10.32    4.78
   6   1 -13   14.38    3.65
   6   1 -13    4.20    8.28
  -6  -1  13   13.84    5.09
  -6   1  13   12.65    9.19
   6   1 -12    6.90    1.83
   6   1 -12    8.95    6.36
  -6   1  12    0.75    4.54
  -6  -1  12    7.78    4.06
   6   1 -11   85.41   11.14
   6   1 -11   69.78    3.84
   6  -1 -11   68.04    2.48
  -6  -1  11   83.19    8.21
  -6   1  11   81.85    8.83
   6   1 -10   43.13    8.71
   6  -1 -10   49.19   10.04
   6  -1 -10   50.05    1.90
   6   1 -10   55.34    4.97
  -6  -1  10   52.88    6.16
  -6   1  10   48.88    6.95
   6   1  -9   91.07    9.78
   6   1  -9   82.09    3.87
   6  -1  -9   82.06   11.34
   6  -1  -9   76.99    2.46
  -6  -1   9   74.73    7.32
  -6   1   9   85.97    8.12
   6   1  -8   46.51    2.75
   6   1  -8   41.85   10.56
   6  -1  -8   51.59    7.13
   6  -1  -8   48.44    2.73
  -6  -1   8   39.95    5.18
  -6   1   8   46.12    5.55
   6   1  -7   25.36    5.00
   6  -1  -7   24.39    5.24
   6  -1  -7   25.43    1.39
   6   1  -7   31.54    2.13
  -6   1   7   31.73    4.15
  -6  -1   7   21.61    3.91
   6   1  -6   24.46    4.14
   6  -1  -6   26.29    4.53
  -6  -1   6   23.39    3.30
  -6   1   6   22.04    3.63
   6  -1  -5    8.80    3.17
   6   1  -5   12.70    2.85
  -6  -1   5    5.69    2.39
  -6   1   5    7.68    2.57
   6   1  -4   33.61    4.12
   6  -1  -4   45.87    4.35
  -6  -1   4   39.78    3.55
  -6   1   4   37.23    3.68
   6  -1  -3   97.64    6.47
   6   1  -3  100.29    6.22
  -6  -1   3  119.89    5.53
  -6   1   3  102.27    8.97
   6   1  -2    7.43    2.11
   6  -1  -2    8.54    2.14
  -6  -1   2    8.77    1.72
  -6   1   2    6.34    1.86
   6   1  -1  196.79    7.96
   6  -1  -1  178.66    7.75
  -6  -1   1  206.14    7.26
  -6   1   1  178.82    7.24
   6  -1   0  317.21   11.75
   6   1   0  313.66   11.71
  -6  -1   0  320.87   10.81
  -6   1   0  327.18   10.77
   6  -1   1  250.92    8.59
   6   1   1  243.06    8.70
  -6  -1  -1  250.81    7.95
  -6   1  -1  268.06   10.11
   6  -1   2  226.30    7.29
   6   1   2  251.98    7.82
  -6  -1  -2  234.86    7.19
  -6   1  -2  245.35    8.70
   6   1   3  455.63   17.82
   6  -1   3  447.54   13.62
  -6  -1  -3  439.31   13.60
  -6   1  -3  449.16   12.66
   6   1   4   79.44    2.86
   6  -1   4   73.70    2.17
  -6  -1  -4   72.97    2.40
  -6   1  -4   77.27    1.82
   6  -1   5  238.90    5.76
   6   1   5  238.38    7.09
   6  -1   5  251.47   10.77
  -6  -1  -5  246.60    6.83
  -6   1  -5  245.87    5.47
   6   1   6   47.13    1.94
   6  -1   6   51.44    3.70
   6  -1   6   42.86    1.80
  -6  -1  -6   45.14    1.80
  -6   1  -6   35.09    1.07
   6   1   7   53.28    2.29
   6  -1   7   58.36    4.53
   6  -1   7   56.00    1.40
  -6  -1  -7   60.50    3.39
   6   1   8  190.93    6.02
   6   1   8  202.44   10.64
   6  -1   8  191.22    5.23
   6  -1   8  195.26   15.83
  -6  -1  -8  199.47    6.23
   6  -1   9   19.72    3.47
   6   1   9   15.85    3.28
   6  -1   9   13.88    0.81
   6  -1   9    9.16    2.02
   6   1   9   16.56    1.59
   6   1  10  158.31    8.38
   6  -1  10  165.65    7.07
   6   1  10  164.42   10.48
   6  -1  10  151.04    3.76
   6  -1  10  157.46   16.61
   6  -1  11  133.64    9.87
   6   1  11  136.12    8.11
   6   1  11  114.98    5.26
   6   1  11  131.13    9.59
   6  -1  11  111.88    4.42
   6  -1  11  118.40    4.31
   6  -1  12  108.40    3.59
   6   1  12  120.68    7.78
   6   1  12  118.85    5.65
   6   1  12  126.72    9.88
   6  -1  12  121.46   10.60
   6  -1  12  109.99    4.54
   6   1  13   46.69    7.92
   6  -1  13   37.16    6.61
   6   1  13   41.35    3.50
   6   1  13   41.94    6.41
   6  -1  13   42.25    3.15
   6  -1  13   36.21    2.59
   6   1  14    9.78    7.03
   6   1  14    6.06    1.81
   6   1  14    8.49    5.06
   6  -1  14   16.30    4.58
   6  -1  14    3.58    1.57
   6  -1  14    6.40    1.49
   6   1  15    0.45    1.58
   6   1  15   -9.31    3.93
   6   1  15   -0.74    4.26
   6  -1  15   -0.42    4.20
  -6  -2  17    6.77    8.95
  -6   2  17    5.35    6.77
  -6  -2  16    9.98    5.47
  -6   2  16    5.02    6.58
   6   2 -15    6.58    4.84
  -6  -2  15   15.97    5.81
  -6   2  15   24.60    6.93
   6   2 -14   18.09   11.67
   6   2 -14   32.57    3.71
  -6  -2  14   38.17    6.75
  -6   2  14   44.55    8.41
   6   2 -13   25.77   11.08
   6   2 -13   37.05    3.64
  -6  -2  13   46.81    6.69
  -6   2  13   39.28    7.97
   6   2 -12   10.24    6.24
   6   2 -12    7.53    2.23
  -6   2  12   22.01    8.39
  -6  -2  12   11.02    4.05
   6   2 -11    0.63    1.69
   6   2 -11    2.82    7.63
  -6  -2  11   -3.65    4.98
  -6   2  11   12.11    3.93
   6   2 -10   63.02    9.41
   6   2 -10   57.74    6.18
  -6  -2  10   80.55   10.38
  -6   2  10   57.36    8.11
   6   2  -9  109.17    5.63
   6   2  -9  109.28   11.35
  -6  -2   9  119.98   13.28
  -6   2   9  124.43   10.41
   6   2  -8  151.00   20.07
   6   2  -8  154.85    9.90
   6  -2  -8  167.05   15.60
  -6  -2   8  166.53   10.28
  -6   2   8  185.08   11.83
   6   2  -7   11.24    2.01
   6   2  -7   16.08    4.14
   6  -2  -7   12.51    4.89
  -6  -2   7   20.34    3.12
  -6   2   7   18.65    3.64
   6  -2  -6   93.82    8.43
   6   2  -6   95.53    7.20
   6  -2  -6   90.46    2.17
  -6  -2   6  101.55    5.97
  -6   2   6   98.19    6.91
   6   2  -5  123.45    8.05
   6  -2  -5  121.76    9.14
  -6  -2   5  117.41    9.89
  -6   2   5  114.53    7.42
   6   2  -4   80.35    5.60
   6  -2  -4   63.30    9.76
  -6   2   4   79.61    5.18
  -6  -2   4   69.46    4.51
   6   2  -3  376.35   23.07
   6  -2  -3  361.16   19.04
  -6  -2   3  411.65   16.43
  -6   2   3  414.36   17.73
   6   2  -2   17.46    4.39
   6  -2  -2   21.84    3.04
  -6  -2   2   22.59    3.90
  -6   2   2   22.67    3.97
   6  -2  -1  898.06   43.98
  -6  -2   1  956.99   48.04
  -6   2   1  952.76   42.78
   6   2   0    7.30    2.83
   6  -2   0    8.35    1.82
  -6  -2   0   12.09    1.59
  -6   2   0   10.82    1.58
   6   2   1  464.20   17.05
   6  -2   1  440.93   20.13
  -6  -2  -1  461.14   15.99
  -6   2  -1  471.57   18.85
   6   2   2   19.33    1.90
   6  -2   2   20.08    1.59
  -6  -2  -2   21.33    1.60
  -6   2  -2   24.16    2.08
   6  -2   3  977.01   38.02
   6  -2   3  985.15   44.42
   6   2   3  982.30   41.60
  -6  -2  -3  947.33   38.17
  -6   2  -3  974.33   34.83
   6  -2   4  189.06    5.73
   6  -2   4  205.56    8.15
   6   2   4  191.37    6.29
  -6  -2  -4  196.71    5.81
  -6   2  -4  190.24    4.58
   6   2   5   33.44    2.15
   6  -2   5   38.06    1.45
   6  -2   5   43.67    3.34
  -6  -2  -5   40.81    1.98
   6  -2   6    6.68    0.48
   6   2   6    6.57    1.31
   6  -2   6    8.62    2.23
  -6  -2  -6    8.53    1.22
   6   2   7   23.22    1.87
   6  -2   7   20.21    3.39
  -6  -2  -7   28.43    1.87
   6   2   8   77.39    3.49
   6  -2   8   79.23    6.12
  -6  -2  -8   76.70    3.30
   6   2   9  208.65   11.09
   6  -2   9  212.67   12.85
   6   2  10   78.32    4.09
   6   2  10   70.75    6.76
   6  -2  10   72.02    7.22
   6   2  11   55.32    5.71
   6   2  11   49.29    3.59
   6  -2  11   42.50    6.35
   6   2  12    4.08    3.67
   6   2  12    6.09    3.68
   6   2  12   12.58    3.69
   6  -2  12   12.79    4.20
   6   2  13   20.38    4.85
   6   2  13   21.85    4.34
   6   2  13   13.25    4.86
   6  -2  13   15.99    5.37
   6  -2  14   25.84    6.62
   6   2  14   29.20    5.38
   6   2  14   25.89    5.84
   6   2  14   23.33    4.97
   6  -2  15   40.62    7.73
   6   2  15   38.16    6.52
   6   2  15   18.71    5.56
   6   2  15   20.72    5.44
   6  -2  17    9.44    7.07
  -6  -3  17   50.47    9.31
  -6   3  17   48.93   12.54
  -6   3  17   36.60    9.33
   6   3 -16    2.36    5.80
  -6  -3  16   11.93    5.66
  -6   3  16   23.59    7.59
   6   3 -15    4.63    7.92
   6   3 -15    0.67    4.59
  -6  -3  15   14.59    4.61
  -6   3  15   -0.90    6.11
   6   3 -14    8.82    8.28
   6   3 -14    5.82    4.91
  -6   3  14    2.41    6.67
  -6  -3  14   20.58    4.64
   6   3 -13   10.67    4.65
   6   3 -13    7.10    7.24
  -6  -3  13   14.10    7.37
  -6   3  13   16.81    5.99
   6   3 -12   47.31   17.56
   6   3 -12   56.01    4.65
  -6  -3  12   42.27   11.63
  -6   3  12   67.67    9.33
   6   3 -11  120.35   15.40
   6   3 -11  140.84    7.52
  -6  -3  11  138.74   16.85
  -6   3  11  144.73   21.73
   6   3 -10   51.74    9.00
   6   3 -10   57.69    4.40
  -6   3  10   76.53    8.43
  -6  -3  10   71.44   10.49
   6   3  -9    2.80    1.90
   6   3  -9    4.36    6.22
  -6  -3   9    1.08    4.44
  -6   3   9    4.29    3.55
   6   3  -8   31.43    5.91
   6   3  -8   35.33    3.26
  -6  -3   8   37.54    4.32
  -6   3   8   41.62    5.70
   6   3  -7   85.92    5.04
   6   3  -7   92.16    8.13
  -6  -3   7  108.09    6.52
  -6   3   7   95.03    7.96
   6   3  -6  405.45   19.48
   6  -3  -6  343.02   23.02
   6  -3  -6  294.39    5.40
  -6  -3   6  401.69   16.24
  -6   3   6  418.55   18.93
   6   3  -5  128.23    8.72
   6  -3  -5  159.14   11.44
  -6  -3   5  144.03    7.56
  -6   3   5  149.17    8.66
   6   3  -4   41.95    4.18
   6  -3  -4   49.90    5.43
  -6  -3   4   36.00    3.52
  -6   3   4   42.85    3.98
   6   3  -3  557.00   25.84
   6  -3  -3  587.72   30.86
  -6  -3   3  575.33   24.18
  -6   3   3  581.59   26.51
   6   3  -2  248.12   10.95
   6  -3  -2  245.04   12.36
  -6  -3   2  277.88   10.60
  -6   3   2  264.45   11.06
   6   3  -1   27.51    2.58
   6  -3  -1   17.47    2.92
   6  -3  -1   23.16    1.50
  -6  -3   1   31.25    2.32
  -6   3   1   25.45    2.44
   6   3   0   30.78    2.80
   6  -3   0   31.39    2.85
   6  -3   0   37.03    1.96
  -6  -3   0   35.82    2.42
  -6   3   0   30.69    2.43
   6  -3   1   63.40    3.23
   6  -3   1   55.68    4.52
   6   3   1   57.66    3.40
  -6   3  -1   58.96    4.05
  -6  -3  -1   54.99    2.98
   6   3   2  538.03   20.94
   6  -3   2  531.73   19.38
   6  -3   2  543.87   20.56
  -6  -3  -2  538.09   19.65
  -6   3  -2  551.22   17.78
   6   3   3  391.62   13.96
   6  -3   3  395.54   12.54
   6  -3   3  386.16   14.99
  -6  -3  -3  377.71   16.14
  -6   3  -3  387.60   10.01
   6   3   4  104.70    4.32
   6  -3   4  112.93    5.43
  -6  -3  -4  108.38    3.86
   6   3   5   45.71    2.73
   6  -3   5   48.40    3.78
  -6  -3  -5   48.34    2.46
   6   3   6  444.71   16.38
   6  -3   6  441.10   20.36
  -6  -3  -6  451.00   16.24
   6   3   7   39.94    2.69
   6  -3   7   45.42    4.27
  -6  -3  -7   40.98    4.09
   6   3   8  238.79    9.72
   6  -3   8  259.58   13.93
  -6  -3  -8  254.31    9.69
   6   3   9   41.97    3.18
   6  -3   9   41.97    5.25
  -6  -3  -9   42.83    3.01
   6   3  10    4.07    1.73
   6   3  10    1.70    2.62
   6  -3  10   -5.30    3.03
   6   3  11    3.33    3.19
   6   3  11    0.37    2.87
   6  -3  11    7.77    5.44
   6   3  12   54.73    4.98
   6   3  12   65.64    6.98
   6  -3  12   71.36    8.22
   6  -3  13   41.49    7.77
   6   3  13   61.47    7.90
   6   3  13   54.80    4.99
   6   3  13   52.72    6.97
   6   3  14   14.28    3.11
   6   3  14   14.44    5.17
   6   3  14   22.43    8.08
   6  -3  14   22.09    6.27
   6   3  15    1.55    2.26
   6   3  15   -0.47    3.93
   6   3  15    1.42    3.65
   6  -3  15   -0.31    4.72
   6   3  16   -0.17    4.13
   6   3  16    2.32    3.84
   6  -3  16    2.07    5.37
   6   4 -16    1.83    3.30
  -6  -4  16    8.93    4.83
  -6   4  16    3.21    4.88
  -6   4  16    0.42   10.65
   6   4 -15   26.28    9.22
   6   4 -15    9.82    3.50
  -6  -4  15    7.97    5.37
  -6   4  15   16.24    7.45
   6   4 -14    5.85    7.69
   6   4 -14   12.72    3.35
  -6   4  14   14.72    6.62
  -6  -4  14    9.37    7.99
   6   4 -13   53.30   11.18
   6   4 -13   47.68    4.86
  -6  -4  13   56.77   11.47
  -6   4  13   58.27   16.26
   6   4 -12   10.32    5.66
   6   4 -12    5.05    2.54
  -6  -4  12    3.09    3.55
  -6   4  12    9.64    5.11
   6   4 -11  117.99   13.86
   6   4 -11  108.74    7.16
  -6  -4  11  119.21    9.59
  -6   4  11  142.87   13.17
   6   4 -10  184.42   14.33
   6   4 -10  132.96   24.00
  -6   4  10  184.11   15.40
  -6  -4  10  165.48   17.92
   6   4  -9   27.72    6.03
   6   4  -9   28.22    3.35
  -6  -4   9   28.08    7.44
  -6   4   9   34.04    6.04
   6   4  -8  150.12   12.42
   6   4  -8  152.64    7.76
  -6  -4   8  163.67    9.96
  -6   4   8  164.97   12.94
   6   4  -7  163.90    8.11
   6   4  -7  182.99   12.73
  -6  -4   7  189.77   10.31
  -6   4   7  185.75   12.72
   6   4  -6    8.12    2.93
  -6  -4   6    1.32    2.38
  -6   4   6    6.09    3.00
   6   4  -5    6.51    2.46
   6  -4  -5    2.41    0.34
  -6  -4   5    5.02    1.97
  -6   4   5    0.49    2.52
   6   4  -4   73.12    5.46
   6  -4  -4   71.89    1.49
  -6  -4   4   83.93    7.42
  -6   4   4   73.58    5.55
   6   4  -3    7.19    2.06
   6  -4  -3    0.86    0.60
  -6  -4   3    7.46    1.71
  -6   4   3    4.73    2.03
   6   4  -2  202.38    9.49
   6  -4  -2  210.31    5.53
  -6  -4   2  216.52    8.87
  -6   4   2  214.28    9.80
   6   4  -1  486.75   20.90
   6  -4  -1  471.88   15.14
  -6  -4   1  500.11   19.38
  -6   4   1  491.08   20.43
   6   4   0  216.55    8.82
   6  -4   0  212.41    6.74
  -6  -4   0  214.52    8.05
  -6   4   0  201.59    7.82
   6   4   1  338.75   13.61
   6  -4   1  348.36   11.96
  -6  -4  -1  333.01   12.27
  -6   4  -1  332.38   14.93
   6   4   2  154.58    6.49
   6  -4   2  152.00    6.21
  -6  -4  -2  161.17    5.83
  -6   4  -2  153.79    4.83
   6  -4   3   96.95    4.75
   6   4   3   88.62    4.41
  -6  -4  -3   95.54    3.99
  -6   4  -3   94.00    2.51
   6  -4   4  211.92    9.30
   6   4   4  194.51    7.73
  -6  -4  -4  199.69    7.20
  -6   4  -4  207.47    3.83
   6   4   5   74.03    3.80
   6  -4   5   72.70    4.96
  -6  -4  -5   73.56    3.53
   6  -4   6    8.00    4.08
   6   4   6   10.12    2.84
  -6  -4  -6    6.11    1.58
   6   4   7   21.03    2.61
   6  -4   7   30.23    3.83
  -6  -4  -7   28.09    2.42
   6   4   8   38.98    5.30
   6  -4   8   46.64    5.17
  -6  -4  -8   42.85    3.09
   6   4   9    0.90    1.91
   6  -4   9    5.88    5.07
  -6  -4  -9    5.09    1.75
   6  -4  10   86.41    8.85
   6   4  10   89.20    8.63
   6   4  11  106.88    7.02
   6   4  11  120.04    9.07
   6  -4  11  104.31   10.40
   6   4  12   53.73   10.35
   6  -4  12   53.51   13.50
   6   4  12   52.17    5.14
   6   4  13   23.68    4.11
   6   4  13   21.30    5.02
   6  -4  13   27.31    6.27
   6   4  14   24.45    6.82
   6   4  14   18.78    3.75
   6   4  14   23.32    5.29
   6  -4  14   30.17    6.66
   6   4  15   16.94    5.95
   6   4  15    7.84    3.26
   6  -4  15   12.14    6.28
   6   4  16   29.03    7.71
   6   4  16   21.61    4.17
   6  -4  16   18.24    8.45
   6   5 -16    0.21    7.27
   6   5 -16    0.97    2.92
  -6  -5  16   -0.58    4.01
  -6   5  16   -3.16    7.08
  -6   5  16   -3.11    6.06
   6   5 -15   59.66   21.21
   6   5 -15   52.33    6.15
  -6  -5  15   43.64   13.29
  -6   5  15   38.50    8.84
  -6   5  15   45.18   12.14
   6   5 -14   26.32   10.91
   6   5 -14   45.76    5.29
  -6   5  14   33.14    7.13
  -6  -5  14   41.33    7.29
  -6   5  14   35.63   10.07
   6   5 -13   18.91    3.88
   6   5 -13   24.75    8.06
  -6  -5  13   22.07    5.20
  -6   5  13   16.03    7.47
   6   5 -12    2.05    5.43
   6   5 -12    5.29    2.91
  -6  -5  12    7.52    3.68
  -6   5  12   10.45    5.41
   6   5 -11    5.81    7.87
   6   5 -11    5.52    2.58
  -6  -5  11    3.71    3.25
  -6   5  11   -0.21    4.92
   6   5 -10   42.52    4.68
   6   5 -10   42.67    7.90
  -6   5  10   51.40    8.22
  -6  -5  10   40.37    9.16
   6   5  -9   32.62    6.89
   6   5  -9   42.46    4.25
  -6  -5   9   44.37    8.12
  -6   5   9   38.95    7.20
   6   5  -8   41.93    6.27
   6   5  -8   39.55    4.06
  -6  -5   8   43.43    4.75
  -6   5   8   25.61   10.56
   6   5  -7    7.86    2.76
   6   5  -7   18.98    4.14
  -6  -5   7   18.15    3.10
  -6   5   7   22.33    4.49
   6   5  -6  286.98   17.16
  -6  -5   6  290.30   20.85
  -6   5   6  324.39   19.11
   6   5  -5  139.76   14.01
  -6  -5   5  153.87    7.96
  -6   5   5  145.68   10.34
   6   5  -4  366.74   26.42
   6  -5  -4  417.30   10.56
  -6  -5   4  386.33   23.03
  -6   5   4  404.81   21.05
   6   5  -3   65.24    7.58
   6  -5  -3   65.04    1.98
  -6  -5   3   61.06    4.20
  -6   5   3   63.58    5.00
   6   5  -2  125.81   11.28
   6  -5  -2  142.54    4.13
  -6  -5   2  146.18    6.49
  -6   5   2  133.49    7.47
   6   5  -1   44.33    5.33
   6  -5  -1   34.18    1.88
  -6  -5   1   27.49    2.80
  -6   5   1   37.47    3.15
   6   5   0  275.23   16.48
   6  -5   0  273.28    9.03
  -6  -5   0  272.87   10.66
  -6   5   0  272.61   10.89
   6  -5   1  237.07    8.55
   6   5   1  228.76   13.80
  -6  -5  -1  228.49    9.20
  -6   5  -1  227.55    8.39
   6   5   2  148.72   10.11
   6  -5   2  148.72    6.28
  -6  -5  -2  141.37    8.87
  -6   5  -2  155.27    5.08
  -6   5  -2  163.27    4.44
   6   5   3  492.09   26.11
   6  -5   3  521.66   21.47
  -6  -5  -3  495.24   19.21
  -6   5  -3  485.96   15.24
  -6   5  -3  484.59   15.72
   6   5   4  911.67   42.90
   6  -5   4  946.58   46.52
  -6   5  -4  927.83   31.95
  -6  -5  -4  905.59   40.64
   6   5   5  138.51    6.56
   6  -5   5  140.64    7.77
  -6  -5  -5  136.80    8.45
   6   5   6   92.75    4.98
   6  -5   6   88.95    9.73
  -6  -5  -6   85.08    4.44
   6   5   7   20.86    2.80
   6  -5   7   18.26    3.98
  -6  -5  -7   24.25    2.54
   6   5   8    8.87    2.38
   6  -5   8    8.93    3.55
  -6  -5  -8   11.33    3.49
   6  -5   9   17.89    4.78
   6   5   9   14.78    3.13
  -6  -5  -9   26.44    2.79
   6   5  10   24.49    5.99
   6  -5  10   31.64    9.41
  -6  -5 -10   29.51    3.39
   6   5  11  109.28    7.91
   6  -5  11  116.03   11.72
   6   5  12   44.93    4.99
   6   5  12   35.35    5.88
   6  -5  12   35.59    7.69
   6   5  13    4.91    3.13
   6   5  13    4.57    3.54
   6   5  14   -3.58    6.85
   6   5  14   16.30    3.66
   6   5  14   19.40    7.44
   6  -5  14   14.68    6.18
   6   5  15   18.70   12.28
   6   5  15   15.46    3.87
   6  -5  15    8.07    7.16
   6   5  16    4.59    6.08
   6   5  16    4.51    3.30
   6   6 -16   14.57    8.81
   6   6 -16   -0.22    6.20
  -6  -6  16   16.30    8.11
  -6   6  16   -0.54    5.59
  -6   6  16    4.85   12.46
   6   6 -15   17.29    8.60
   6   6 -15    9.58    4.15
  -6  -6  15   16.02    5.23
  -6   6  15   11.25    7.76
  -6   6  15    7.42    5.42
   6   6 -14    8.67    6.55
   6   6 -14    6.02    3.17
  -6  -6  14    7.25    4.14
  -6   6  14    0.35    4.26
  -6   6  14   -5.54    6.09
   6   6 -13    4.19    3.16
   6   6 -13   -2.78    9.66
  -6  -6  13    7.25    3.67
  -6   6  13    9.98   10.01
  -6   6  13    5.46    4.04
   6   6 -12   12.84    3.47
   6   6 -12    6.56    6.20
  -6   6  12    3.23    6.57
  -6   6  12   11.53    4.40
  -6  -6  12   13.79    3.89
   6   6 -11    2.99    4.45
   6   6 -11    5.79    2.50
  -6  -6  11   -3.16    2.88
  -6   6  11   -0.46    4.75
   6   6 -10   73.22    6.39
   6   6 -10   70.33    9.78
  -6  -6  10   76.47    7.18
  -6   6  10   98.83   17.49
   6   6  -9  250.65   20.11
   6   6  -9  253.22   13.95
  -6  -6   9  286.21   23.10
  -6   6   9  293.90   22.23
   6   6  -8  154.55   20.24
   6   6  -8  151.29    9.44
  -6  -6   8  182.63   10.73
  -6   6   8  163.41   14.18
   6   6  -7   40.17    4.40
   6   6  -7   50.60    9.91
  -6  -6   7   49.68    4.81
  -6   6   7   47.78    7.02
   6   6  -6   58.07    6.67
  -6  -6   6   66.52    8.08
  -6   6   6   65.76    7.67
   6   6  -5   11.23    3.51
  -6  -6   5   14.85    2.78
  -6   6   5   15.18    3.97
   6   6  -4  314.18   16.68
   6  -6  -4  339.59    8.85
  -6  -6   4  329.59   14.50
  -6   6   4  316.52   18.62
   6   6  -3  268.89   13.87
   6  -6  -3  301.40   10.83
  -6  -6   3  292.48   12.56
  -6   6   3  288.31   15.58
   6   6  -2  127.41    7.45
   6  -6  -2  121.90    4.34
  -6  -6   2  124.27    6.03
  -6   6   2  126.56    7.61
   6   6  -1  180.89    9.04
   6  -6  -1  176.58    6.34
  -6  -6   1  180.56    7.92
  -6   6   1  182.87    9.08
   6   6   0  583.14   26.54
   6  -6   0  570.37   22.10
  -6  -6   0  556.39   23.26
  -6   6   0  562.61   20.86
  -6   6   0  540.03   24.44
   6   6   1  117.76    6.23
   6  -6   1  105.56    5.09
  -6  -6  -1  111.56    5.33
  -6   6  -1  107.69    5.31
  -6   6  -1  118.81    5.71
   6   6   2   68.03    4.44
   6  -6   2   77.16    4.16
  -6  -6  -2   67.65    3.76
  -6   6  -2   62.75    2.47
  -6   6  -2   62.24    3.12
   6  -6   3   65.07    4.34
   6   6   3   64.71    4.26
  -6  -6  -3   63.88    3.71
  -6   6  -3   62.42    2.59
  -6   6  -3   61.97    3.06
   6  -6   4   83.97    5.46
   6   6   4   89.58    7.61
  -6  -6  -4   80.13    6.59
  -6   6  -4   82.97    2.59
  -6   6  -4   78.96    2.24
   6   6   5    2.60    1.96
   6  -6   5    4.90    2.40
  -6  -6  -5    3.89    1.70
   6   6   6   44.88    3.96
   6  -6   6   55.14    5.15
  -6  -6  -6   48.23    3.62
   6   6   7   11.88    4.51
   6  -6   7   11.34    6.33
  -6  -6  -7   15.20    2.50
   6   6   8   18.34    3.31
   6  -6   8   26.59    5.09
  -6  -6  -8   26.49    3.05
   6   6   9    0.93    2.31
   6  -6   9    5.09    3.57
  -6  -6  -9    3.47    3.43
   6   6  10   17.89    5.42
   6  -6  10    9.59    5.07
  -6  -6 -10   14.62    2.97
   6   6  11  133.76    9.38
   6  -6  11  137.99   21.66
   6  -6  12   22.61    6.13
   6   6  12   18.25    4.23
   6   6  13    3.27    2.91
   6   6  13    3.27    3.45
   6  -6  13    2.93    4.73
   6   6  14   26.79    5.07
   6   6  14   35.76    5.99
   6   6  15   -3.29    5.99
   6   6  15    0.76    3.15
   6  -6  15    9.10    5.56
   6   6  16   -5.63    5.46
   6   6  16    2.02    3.09
   6  -6  16    1.83    6.38
   6   7 -16   20.75   10.10
   6   7 -16   11.96    5.23
  -6  -7  16   28.72    6.19
  -6   7  16    7.47    9.52
  -6   7  16    1.54   12.00
   6   7 -15   17.59   17.40
   6   7 -15   20.74    5.70
  -6  -7  15   37.36    6.66
  -6   7  15   39.11   10.27
  -6   7  15   17.36    7.06
   6   7 -14   25.10    9.85
   6   7 -14   34.68   11.48
  -6  -7  14   53.32    7.10
  -6   7  14   49.76   11.42
  -6   7  14   31.15    7.55
   6   7 -13   71.18   11.87
   6   7 -13   65.82   12.89
  -6  -7  13   89.89    8.77
  -6   7  13   92.88   14.05
  -6   7  13   57.58    9.22
   6   7 -12    9.93    5.78
   6   7 -12    8.83    3.37
  -6  -7  12    6.76    3.77
  -6   7  12    5.71    4.23
  -6   7  12   12.55    6.23
   6   7 -11   19.93    4.12
   6   7 -11   30.80    6.89
  -6  -7  11   32.96    4.78
  -6   7  11   13.49    8.12
  -6   7  11   26.74    5.31
   6   7 -10   65.24    6.41
   6   7 -10   69.58   15.79
  -6   7  10   66.84    8.05
  -6   7  10   86.78   11.18
  -6  -7  10   74.00    7.08
   6   7  -9   13.08    4.74
   6   7  -9    9.93    2.94
  -6  -7   9    9.58    5.23
  -6   7   9    0.70    3.53
  -6   7   9   15.98    5.31
   6   7  -8  382.46   26.87
   6   7  -8  384.87   21.06
  -6  -7   8  418.00   22.06
  -6   7   8  422.55   31.38
  -6   7   8  371.86   23.33
   6   7  -7  415.08   22.63
   6   7  -7  476.29   29.24
  -6  -7   7  515.38   24.50
  -6   7   7  488.83   33.43
  -6   7   7  418.01   24.68
   6   7  -6   75.76    7.77
  -6  -7   6   81.41    9.55
  -6   7   6   99.13    9.45
  -6   7   6   79.47    6.12
   6   7  -5   73.41    6.30
  -6  -7   5   70.78    5.14
  -6   7   5   59.37    5.10
  -6   7   5   75.23   12.12
   6   7  -4   52.94    5.05
  -6  -7   4   55.40    4.16
  -6   7   4   50.90    6.29
  -6   7   4   45.21    4.21
   6   7  -3   69.93    5.72
   6  -7  -3   69.70    2.94
  -6  -7   3   67.19    4.60
  -6   7   3   62.05    4.42
  -6   7   3   61.14    6.42
   6   7  -2   78.99    5.82
   6  -7  -2   83.14    3.61
  -6  -7   2   68.65    4.84
  -6   7   2   72.47    6.34
  -6   7   2   76.09    4.45
   6   7  -1  194.71   10.69
   6  -7  -1  206.68    8.11
  -6  -7   1  211.19    9.43
  -6   7   1  208.70   10.95
  -6   7   1  195.91   11.53
   6   7   0  342.98   16.04
   6  -7   0  354.37   13.76
  -6  -7   0  340.15   14.49
  -6   7   0  329.39   15.51
  -6   7   0  326.79   12.20
  -6   7   0  345.75   11.98
   6  -7   1    3.61    1.69
   6   7   1    6.00    3.23
  -6  -7  -1    3.14    1.68
  -6   7  -1    0.38    1.70
  -6   7  -1    0.27    1.17
  -6   7  -1   -0.13    1.32
   6   7   2   17.81    2.83
   6  -7   2   13.45    4.35
  -6  -7  -2   15.44    2.40
  -6   7  -2   23.45    3.38
  -6   7  -2   16.78    1.56
  -6   7  -2   18.44    2.08
   6  -7   3   50.34    4.31
   6   7   3   52.87    4.04
  -6  -7  -3   48.09    3.50
  -6   7  -3   47.02    2.65
  -6   7  -3   46.21    2.03
  -6   7  -3   47.36    3.34
   6   7   4  268.31   13.03
   6  -7   4  284.15   14.43
  -6  -7  -4  279.30   11.90
  -6   7  -4  268.62    8.13
  -6   7  -4  280.44    7.10
  -6   7  -4  281.47   12.02
   6   7   5    5.45    4.10
   6  -7   5   14.61    3.07
  -6  -7  -5   14.93    2.21
  -6   7  -5    9.23    0.48
  -6   7  -5    9.93    2.39
   6   7   6    0.18    2.08
   6  -7   6   -2.77    2.70
  -6  -7  -6    3.65    1.85
  -6   7  -6    2.84    2.10
   6   7   7   47.28    7.49
   6  -7   7   48.79    6.41
  -6  -7  -7   51.52    4.26
  -6   7  -7   47.15    4.71
   6   7   8   50.60    5.21
   6  -7   8   50.69   11.44
  -6  -7  -8   54.68    4.66
   6   7   9   27.84    4.14
   6  -7   9   32.17    6.25
  -6  -7  -9   26.58    3.75
   6   7  10  185.01   19.84
   6  -7  10  218.80   18.66
  -6  -7 -10  224.36   12.00
   6   7  11    3.68    4.85
   6  -7  11   -3.43    4.25
  -6  -7 -11    4.61    2.72
   6   7  12   80.23    8.16
   6  -7  12   95.42   11.50
   6   7  13    8.81    3.70
   6   7  13    8.31    4.01
   6  -7  13   11.32    5.99
   6   7  14   10.46    4.21
   6  -7  14   18.65    7.15
   6   7  15   14.20    4.85
   6  -7  15   23.07    8.29
   6   8 -15   14.42    5.16
   6   8 -15   18.93    9.24
  -6  -8  15   14.00    5.55
  -6   8  15   21.65    9.49
  -6   8  15   15.23    6.68
   6   8 -14   11.14    5.11
   6   8 -14   13.83    8.47
  -6  -8  14   24.80    5.10
  -6   8  14   21.70    9.06
   6   8 -13   10.43    4.45
   6   8 -13   35.85   11.74
  -6   8  13    6.74   12.98
  -6   8  13   10.89    5.33
  -6  -8  13   16.19    4.58
   6   8 -12   15.11    7.46
   6   8 -12   13.66    7.29
  -6   8  12   14.80    5.45
  -6   8  12   32.94    8.63
  -6  -8  12   26.85    4.75
   6   8 -11   32.03    8.47
   6   8 -11   40.92    5.38
  -6  -8  11   45.23    5.71
  -6   8  11   50.12    9.74
  -6   8  11   39.21    6.64
   6   8 -10    6.22    3.39
   6   8 -10   11.18    5.23
  -6   8  10   -0.57    9.63
  -6   8  10    2.85    4.22
  -6  -8  10   19.04    3.47
   6   8  -9   14.79    3.37
   6   8  -9    7.81    4.92
  -6  -8   9   10.12    5.54
  -6   8   9   15.02    5.83
  -6   8   9    7.19    4.14
   6   8  -8  305.88   21.69
   6   8  -8  270.11   15.92
  -6  -8   8  304.34   16.30
  -6   8   8  334.34   25.76
  -6   8   8  278.06   27.28
   6   8  -7  226.99   13.96
   6   8  -7  233.69   16.84
  -6  -8   7  240.58   13.45
  -6   8   7  233.67   21.45
  -6   8   7  272.17   30.61
   6   8  -6    3.32    5.52
  -6  -8   6    4.45    4.36
  -6   8   6    7.73    4.68
  -6   8   6    6.92    4.20
   6   8  -5   33.06    7.90
  -6  -8   5   31.80    3.88
  -6   8   5   40.38    6.01
  -6   8   5   26.81    6.54
   6   8  -4   66.97    6.28
  -6  -8   4   67.34    8.14
  -6   8   4   74.64    7.73
  -6   8   4   65.71    5.15
   6   8  -3   63.97    5.99
  -6  -8   3   63.46    4.77
  -6   8   3   70.38    6.92
  -6   8   3   61.80    4.55
   6   8  -2    2.24    2.90
   6  -8  -2    5.92    1.84
  -6  -8   2   11.07    2.37
  -6   8   2    5.07    5.77
  -6   8   2   10.13    2.13
  -6   8   2    8.38    1.27
   6   8  -1  143.74    8.98
   6  -8  -1  145.74    6.69
  -6  -8   1  144.11    7.56
  -6   8   1  145.75   10.07
  -6   8   1  134.44    6.62
  -6   8   1  134.65    7.44
   6   8   0   89.41    6.18
   6  -8   0   73.09    7.68
  -6  -8   0   87.65    8.05
  -6   8   0   85.73    6.47
  -6   8   0   80.36    6.61
  -6   8   0   80.03    3.86
   6  -8   1   40.37    3.75
   6   8   1   30.66    3.96
  -6  -8  -1   35.41    3.46
  -6   8  -1   37.66    3.78
  -6   8  -1   31.39    2.56
  -6   8  -1   30.89    2.45
   6   8   2   17.69    5.68
   6  -8   2   31.65    5.82
  -6  -8  -2   24.16    3.05
  -6   8  -2   24.50    4.92
  -6   8  -2   27.39    2.56
  -6   8  -2   27.23    3.18
   6   8   3   37.61    4.01
   6  -8   3   34.79    4.13
  -6  -8  -3   39.17    3.49
  -6   8  -3   31.05    2.78
  -6   8  -3   34.21    1.98
  -6   8  -3   34.90    3.10
   6   8   4    0.12    2.16
   6  -8   4    4.96    2.44
  -6  -8  -4    2.01    1.86
  -6   8  -4    2.25    1.90
  -6   8  -4    0.42    0.84
  -6   8  -4    1.30    1.79
   6   8   5   35.44    6.41
   6  -8   5   38.12    4.73
  -6  -8  -5   23.58    3.42
  -6   8  -5   30.63    1.53
  -6   8  -5   33.42    1.77
  -6   8  -5   32.15    3.58
   6  -8   6  122.61   10.05
   6   8   6  111.04    8.34
  -6  -8  -6  127.16    7.30
  -6   8  -6  138.86    7.76
   6  -8   7   49.96    6.97
   6   8   7   48.65    8.38
  -6  -8  -7   54.48    4.75
  -6   8  -7   45.95    4.93
   6   8   8   56.37    5.48
   6  -8   8   54.36    7.74
  -6  -8  -8   51.23    5.11
  -6   8  -8   54.21    5.47
   6   8   9    1.86    3.25
   6  -8   9   -0.28    7.43
  -6  -8  -9   11.48    2.82
  -6   8  -9    9.32    3.14
   6  -8  10   87.28   12.42
   6   8  10   90.82    8.13
  -6  -8 -10   90.76    7.11
   6  -8  11  153.91   17.77
   6   8  11  153.69   19.35
  -6  -8 -11  180.99   11.93
   6  -8  12   94.97   12.44
   6   8  12   78.43    8.94
   6   8  13   14.08    4.60
   6  -8  13   18.87    7.18
   6   8  14   11.35    4.61
   6   8  15   18.31    5.47
   6  -8  15   29.02    9.29
   6   9 -15    3.72    6.47
   6   9 -15   -2.93    3.65
  -6  -9  15    2.00    3.74
  -6   9  15    1.41    6.73
  -6   9  15    1.84    4.73
   6   9 -14    4.97    3.91
   6   9 -14    1.41    6.42
  -6  -9  14    8.39    3.78
  -6   9  14   -6.41    4.65
   6   9 -13   20.13    8.14
   6   9 -13   13.16    5.39
  -6  -9  13   21.86    5.14
  -6   9  13   21.69    6.23
  -6   9  13   29.55    9.51
   6   9 -12   25.32    5.27
   6   9 -12   26.77    8.10
  -6   9  12   32.50    9.73
  -6  -9  12   35.68    5.47
  -6   9  12   22.06    6.53
   6   9 -11   54.23    9.87
   6   9 -11   47.00   10.37
  -6  -9  11   56.39    6.54
  -6   9  11   67.28   19.89
   6   9 -10    8.60    3.81
   6   9 -10   10.34    9.56
  -6   9  10    5.59    6.90
  -6  -9  10   14.21    3.77
  -6   9  10   17.80    4.40
   6   9  -9    3.69    3.34
   6   9  -9   12.47    4.92
  -6  -9   9    8.19    3.32
  -6   9   9   12.80    5.89
  -6   9   9    8.85    4.06
   6   9  -8    2.35    3.65
   6   9  -8    1.52    2.64
  -6  -9   8   -1.94    2.54
  -6   9   8    6.65    7.65
  -6   9   8    3.73    3.07
   6   9  -7    1.80    2.65
   6   9  -7    5.03    3.32
  -6  -9   7    1.95    2.45
  -6   9   7    1.07    4.32
  -6   9   7   -2.96    2.72
   6   9  -6   23.66    4.97
  -6  -9   6   24.06    3.78
  -6   9   6   32.17    6.30
  -6   9   6   20.07    4.18
   6   9  -5    9.91    3.48
  -6  -9   5    7.88    2.82
  -6   9   5    9.36    4.98
  -6   9   5    4.19    7.38
   6   9  -4   -1.32    2.63
  -6  -9   4    1.43    2.03
  -6   9   4    1.76    3.48
  -6   9   4   -1.09    2.07
   6   9  -3   13.61    3.75
  -6  -9   3   19.35    3.08
  -6   9   3   17.19    5.04
  -6   9   3    9.32    3.04
  -6   9   3   17.95    1.48
   6   9  -2  279.83   16.37
  -6  -9   2  271.78   13.88
  -6   9   2  325.41   20.11
  -6   9   2  293.52    9.79
  -6   9   2  266.84   13.33
   6   9  -1  126.13   13.93
   6  -9  -1  137.41   10.81
  -6  -9   1  118.81    7.45
  -6   9   1  138.98   10.52
  -6   9   1  130.58    5.30
  -6   9   1  132.85    6.96
   6   9   0   22.36    4.22
   6  -9   0   22.52    3.73
  -6  -9   0   34.61    3.60
  -6   9   0   27.90    4.73
  -6   9   0   21.95    4.27
  -6   9   0   32.69    2.60
   6   9   1   54.62    5.09
   6  -9   1   50.90    4.65
  -6  -9  -1   45.16    4.41
  -6   9  -1   44.34    4.95
  -6   9  -1   47.35    5.23
  -6   9  -1   47.80    5.35
   6   9   2  139.74    9.23
   6  -9   2  157.01    9.46
  -6  -9  -2  142.09    8.02
  -6   9  -2  131.05    8.18
  -6   9  -2  139.70    5.82
  -6   9  -2  151.87   10.28
   6   9   3    3.76    2.92
   6  -9   3   12.43    3.20
  -6  -9  -3    6.51    2.59
  -6   9  -3    7.05    2.23
  -6   9  -3    8.53    1.48
  -6   9  -3    5.76    2.21
   6   9   4   22.95    4.18
   6  -9   4   29.97    4.88
  -6  -9  -4   25.44    3.56
  -6   9  -4   29.07    2.74
  -6   9  -4   27.99    2.95
  -6   9  -4   35.95    3.36
   6   9   5  210.38   19.25
   6  -9   5  247.56   15.79
  -6  -9  -5  218.14   16.96
  -6   9  -5  197.79    7.32
  -6   9  -5  228.10    8.23
  -6   9  -5  214.94   11.42
   6   9   6   11.21    3.21
   6  -9   6   12.55    4.12
  -6  -9  -6    5.86    4.27
  -6   9  -6   -0.22    1.26
  -6   9  -6    9.11    0.70
  -6   9  -6   16.27    2.76
   6   9   7  196.33   13.22
   6  -9   7  254.53   17.66
  -6  -9  -7  191.25   11.72
  -6   9  -7  217.42   12.10
   6  -9   8   39.46    7.28
   6   9   8   33.20    5.29
  -6  -9  -8   41.27    4.64
  -6   9  -8   33.53    4.76
   6   9   9   29.99    5.40
   6  -9   9   39.52    7.84
  -6  -9  -9   41.32    4.73
  -6   9  -9   31.38    5.06
   6   9  10   43.08    6.37
   6  -9  10   54.03    9.02
  -6  -9 -10   43.98    5.48
  -6   9 -10   47.20    6.09
   6   9  11   23.76    5.43
   6  -9  11   32.58    7.77
  -6  -9 -11   23.38    4.71
   6   9  12   27.71   10.12
   6  -9  12   35.55    8.93
   6   9  13   16.34    9.76
   6  -9  13   38.05    8.97
   6   9  14    2.21    5.96
   6  -9  14   -3.51    5.69
   6   9  15   -0.72    7.58
   6  -9  15   15.24    7.83
   6  10 -14    9.28    4.75
   6  10 -14   31.00   12.12
  -6 -10  14    7.34    4.43
  -6  10  14   -0.93    8.79
  -6  10  14    7.24    9.83
   6  10 -13   17.19    6.09
   6  10 -13    6.59    3.75
  -6 -10  13   -0.87    3.65
  -6  10  13   -0.45    4.64
  -6  10  13   -2.14    7.06
   6  10 -12   36.21    8.56
   6  10 -12   23.28    5.67
  -6 -10  12   31.09    5.61
  -6  10  12   27.83    6.99
   6  10 -11   74.60   12.42
   6  10 -11   75.25   11.89
  -6 -10  11   76.10    7.87
  -6  10  11   95.79   14.56
  -6  10  11   64.31    9.97
   6  10 -10   26.08    5.64
   6  10 -10   36.36    7.99
  -6  10  10   30.24    6.40
  -6  10  10   34.34    9.67
  -6 -10  10   47.93    5.39
   6  10  -9   72.36    7.10
   6  10  -9   70.31   10.24
  -6 -10   9   82.30    6.98
  -6  10   9   76.51   20.92
  -6  10   9   63.47    8.43
   6  10  -8   55.51    7.30
   6  10  -8   45.89    5.59
  -6 -10   8   31.88    8.33
  -6  10   8   46.00    9.60
  -6  10   8   31.31    6.41
   6  10  -7   27.41    5.10
   6  10  -7   32.58    9.54
  -6 -10   7   29.85    4.39
  -6  10   7   27.73    7.82
  -6  10   7   41.65    5.50
   6  10  -6    3.71    3.26
   6  10  -6    3.70    5.96
  -6 -10   6    6.61    2.69
  -6  10   6   -3.07    8.19
  -6  10   6    3.18    3.15
   6  10  -5   49.27    6.10
  -6 -10   5   39.46    4.85
  -6  10   5   51.42    8.52
  -6  10   5   44.27    5.48
   6  10  -4   23.91    4.48
  -6 -10   4   18.11    3.38
  -6  10   4   18.53    5.97
  -6  10   4   15.76    5.92
  -6  10   4   15.14    2.35
   6  10  -3   14.07    3.95
  -6 -10   3   10.86    3.05
  -6  10   3    9.96    5.05
  -6  10   3   12.43    1.60
  -6  10   3   11.82    3.11
   6  10  -2   60.91    6.84
  -6 -10   2   58.88    5.30
  -6  10   2   64.25    5.15
  -6  10   2   60.58    5.15
   6  10  -1  209.70   13.25
  -6 -10   1  197.16   11.41
  -6  10   1  201.63   10.66
  -6  10   1  213.99    8.54
   6  10   0   96.71    8.29
   6 -10   0  104.48    7.49
  -6 -10   0   80.70    6.89
  -6  10   0   99.14    9.00
  -6  10   0   97.93    4.94
   6  10   1  117.64    9.69
   6 -10   1  136.98    9.53
  -6 -10  -1  127.16   12.39
  -6  10  -1  128.32   10.03
  -6  10  -1  136.43    6.68
   6  10   2   52.30    6.02
   6 -10   2   54.80   10.05
  -6 -10  -2   53.44    4.84
  -6  10  -2   61.93    5.82
  -6  10  -2   57.98    4.40
   6  10   3  122.94    8.75
   6 -10   3  120.27    9.47
  -6 -10  -3  112.36    7.46
  -6  10  -3  110.54    5.10
  -6  10  -3  112.34    6.78
   6  10   4  108.72    9.33
   6 -10   4  118.79   10.73
  -6 -10  -4  117.92    7.89
  -6  10  -4  131.31    4.98
  -6  10  -4  138.94   11.89
   6  10   5  270.57   25.04
   6 -10   5  296.74   20.19
  -6 -10  -5  273.89   14.82
  -6  10  -5  269.36   11.55
  -6  10  -5  292.81   12.09
  -6  10  -5  280.84   14.72
   6  10   6   29.06    4.84
   6 -10   6   33.26    6.09
  -6 -10  -6   26.76    4.03
  -6  10  -6   29.29    2.05
  -6  10  -6   26.77    1.61
  -6  10  -6   22.98    4.10
   6 -10   7  184.36   13.21
   6  10   7  152.94   10.18
  -6 -10  -7  156.68   13.31
  -6  10  -7  112.49    3.19
  -6  10  -7  149.80    9.06
  -6  10  -7  116.24    2.70
   6  10   8   13.51    4.35
   6 -10   8   11.79    6.55
  -6 -10  -8   20.35    3.78
  -6  10  -8   13.47    3.83
   6  10   9  148.68   12.01
   6 -10   9  134.57   14.88
  -6  10  -9  139.28   10.74
  -6 -10  -9  143.23   10.48
   6  10  10   59.98    8.15
   6 -10  10   77.57   11.17
  -6  10 -10   57.40    7.27
  -6 -10 -10   75.46    7.03
   6  10  11    9.13    4.66
   6 -10  11    5.81    6.57
  -6 -10 -11   15.08    4.07
  -6  10 -11   10.09    4.30
   6  10  12    4.65    4.11
   6 -10  12    0.70    5.85
   6  10  13   26.18    6.69
   6 -10  13   39.92   10.00
   6  10  14    8.43    8.13
   6  11 -14   -3.13    4.00
   6  11 -14    1.92    6.17
  -6 -11  14   -0.04    5.96
  -6  11  14    6.47    7.44
  -6  11  14    5.81    4.98
   6  11 -13   16.60    7.37
   6  11 -13   14.72    4.76
  -6 -11  13    7.57    7.54
  -6  11  13    6.79    5.61
   6  11 -12   19.45   13.60
   6  11 -12   19.25    5.48
  -6 -11  12   21.80    8.41
  -6  11  12   25.92   10.58
  -6  11  12   25.89    6.91
   6  11 -11    3.56    5.91
   6  11 -11    0.08    9.18
  -6 -11  11    3.88    3.43
  -6  11  11    4.73    4.47
  -6  11  11    1.73    6.75
   6  11 -10    0.46    3.46
   6  11 -10   -2.93    4.86
  -6  11  10    1.23    9.85
  -6  11  10   -3.26    3.98
  -6 -11  10   -2.86    3.04
   6  11  -9    9.08    4.00
   6  11  -9   13.86    5.45
  -6 -11   9   13.43    3.67
  -6  11   9    6.20    7.29
  -6  11   9    7.17    4.63
   6  11  -8   11.39    5.23
   6  11  -8   12.01    4.17
  -6 -11   8    9.68    3.76
  -6  11   8   16.58    6.97
  -6  11   8   19.21    4.66
   6  11  -7    9.58    4.48
   6  11  -7   18.36    6.51
  -6 -11   7    7.15    3.37
  -6  11   7    7.64    9.79
  -6  11   7   10.98    4.26
   6  11  -6   22.06    4.63
   6  11  -6    9.52    4.73
  -6 -11   6   21.55    3.83
  -6  11   6   13.31    7.06
  -6  11   6   13.71    4.57
   6  11  -5   14.85    4.94
  -6 -11   5   23.84    6.22
  -6  11   5   11.99    6.74
  -6  11   5   17.58    4.40
  -6  11   5   20.27    2.45
   6  11  -4    6.06    6.52
  -6 -11   4    9.50    2.98
  -6  11   4   15.51    5.35
  -6  11   4    7.79    1.49
  -6  11   4    5.85    3.38
   6  11  -3   39.50    5.98
  -6 -11   3   42.11    7.66
  -6  11   3   42.50    2.74
  -6  11   3   30.29    4.85
   6  11  -2   19.26    4.22
  -6 -11   2   12.39    3.32
  -6  11   2    9.09    3.24
  -6  11   2   11.95    2.10
   6  11  -1   28.29    4.53
  -6 -11   1   17.71    3.49
  -6  11   1   15.64    3.37
  -6  11   1   17.56    2.47
   6  11   0   12.21    7.07
  -6 -11   0   16.35    3.50
  -6  11   0    8.69    4.98
  -6  11   0   20.64    2.61
   6  11   1   28.83    5.50
   6 -11   1   31.81    5.35
  -6 -11  -1   40.29    4.34
  -6  11  -1   34.05    3.55
  -6  11  -1   29.17    3.42
   6  11   2   14.83    3.91
   6 -11   2   17.00    6.96
  -6 -11  -2   10.27    3.25
  -6  11  -2   10.88    3.94
  -6  11  -2   12.78    2.69
   6  11   3  110.77    9.46
   6 -11   3  133.70   10.84
  -6 -11  -3  116.92   12.48
  -6  11  -3  107.24    5.69
  -6  11  -3  116.31    7.36
   6  11   4   21.57    4.99
   6 -11   4   33.20    5.90
  -6 -11  -4   33.77    4.14
  -6  11  -4   22.35    4.02
  -6  11  -4   29.05    3.87
   6  11   5  103.95    9.54
   6 -11   5  123.23   11.81
  -6 -11  -5  115.71    8.19
  -6  11  -5  111.96    4.73
  -6  11  -5   97.12    7.78
   6  11   6  119.18   10.85
   6 -11   6  142.64   21.39
  -6 -11  -6  127.88    9.26
  -6  11  -6  130.73    6.09
  -6  11  -6  133.74    6.67
  -6  11  -6  149.34   14.06
   6  11   7   29.88    5.41
   6 -11   7   24.62   10.94
  -6 -11  -7   43.39    4.50
  -6  11  -7   25.06    1.35
  -6  11  -7   22.58    4.51
   6  11   8   13.99    7.81
   6 -11   8   25.82    6.13
  -6 -11  -8   19.18    6.62
  -6  11  -8   12.68    4.07
   6  11   9   32.47    6.05
   6 -11   9   30.81   12.71
  -6 -11  -9   24.83    5.36
  -6  11  -9   36.13    5.10
   6  11  10    8.98    4.29
  -6 -11 -10    4.92    3.60
  -6  11 -10    4.04    3.71
   6  11  11   20.45    6.81
   6 -11  11   36.22    9.69
  -6 -11 -11   28.45    5.82
  -6  11 -11   38.96    5.86
   6  11  12    9.32    5.32
   6 -11  12    7.69    7.84
  -6  11 -12   11.89    4.77
   6  11  13   19.14    6.89
   6 -11  13   32.10    9.21
   6  11  14    1.11    4.27
   6 -11  14    0.76    6.90
   6  12 -13    9.34    6.06
   6  12 -13   -2.56    3.86
  -6 -12  13    2.11    3.64
  -6  12  13   -1.25    8.28
  -6  12  13    5.49    7.40
   6  12 -12    7.09    4.45
   6  12 -12    7.80    6.95
  -6  12  12    0.96    5.59
  -6 -12  12   10.59    4.16
  -6  12  12   10.77    8.53
   6  12 -11   -4.97    6.08
   6  12 -11   -1.84    5.54
  -6 -12  11    3.00    5.69
  -6  12  11   -1.26    6.86
  -6  12  11   -5.70    4.15
   6  12 -10  103.32   11.28
   6  12 -10  107.57   14.74
  -6 -12  10  124.47    9.97
  -6  12  10  126.11   19.20
  -6  12  10  103.83   12.89
   6  12  -9    8.19    4.08
   6  12  -9    9.66    8.74
  -6 -12   9   10.99    3.61
  -6  12   9    3.74    7.05
  -6  12   9    0.30    4.52
   6  12  -8   13.03    5.30
   6  12  -8   10.07    7.22
  -6 -12   8   13.04    3.77
  -6  12   8   14.51    7.10
  -6  12   8    6.11    4.73
   6  12  -7   66.45    8.39
   6  12  -7   54.69    7.57
  -6 -12   7   45.42   10.13
  -6  12   7   59.94   12.09
  -6  12   7   65.98   12.25
   6  12  -6   53.68    7.07
   6  12  -6   36.66    7.09
  -6 -12   6   51.86    5.75
  -6  12   6   57.66   10.87
  -6  12   6   45.89    6.98
  -6  12   6   46.89    2.14
   6  12  -5  337.48   23.12
  -6 -12   5  322.44   19.00
  -6  12   5  300.26   20.83
  -6  12   5  368.78   31.13
  -6  12   5  313.31   11.09
   6  12  -4   -0.93    3.50
  -6 -12   4    0.91    2.75
  -6  12   4    3.13    3.08
  -6  12   4    2.50    1.46
   6  12  -3   84.75   15.50
  -6 -12   3  104.01    8.03
  -6  12   3   90.87   13.05
  -6  12   3   97.33    5.10
   6  12  -2   -1.04    3.50
  -6 -12   2    3.11    2.75
  -6  12   2    5.45    2.75
  -6  12   2    0.19    2.91
   6  12  -1   -1.20    3.41
  -6 -12   1    3.40    2.67
  -6  12   1    2.54    2.95
  -6  12   1    1.62    4.16
   6  12   0    3.02    3.72
  -6 -12   0    3.44    3.02
  -6  12   0    7.66    3.55
  -6  12   0    6.75    2.67
   6  12   1   41.27    6.60
  -6 -12  -1   42.22    8.60
  -6  12  -1   43.59    4.41
  -6  12  -1   49.08    6.55
   6  12   2   28.70    5.28
   6 -12   2   28.58    5.78
  -6 -12  -2   23.84    4.47
  -6  12  -2   29.13    3.30
  -6  12  -2   21.74    3.56
   6  12   3   -0.78    3.35
   6 -12   3    5.59    3.82
  -6 -12  -3    1.00    2.74
  -6  12  -3    4.35    3.08
  -6  12  -3    0.71    2.30
   6  12   4   28.38    5.41
   6 -12   4   32.62   10.98
  -6 -12  -4   32.46    4.74
  -6  12  -4   30.27    2.96
  -6  12  -4   21.52    4.09
   6  12   5  108.99    9.91
   6 -12   5  122.58   12.34
  -6 -12  -5  102.24    8.33
  -6  12  -5  101.13    5.24
  -6  12  -5   99.34    8.01
   6  12   6   -1.38    3.75
   6 -12   6    2.09    4.85
  -6 -12  -6   -3.49    3.22
  -6  12  -6    6.23    1.58
  -6  12  -6    6.71    2.98
   6 -12   7   99.88   13.06
   6  12   7  100.89   10.03
  -6  12  -7   77.95    4.77
  -6  12  -7   94.41    8.18
  -6  12  -7  100.45    5.54
  -6 -12  -7  101.46    8.39
   6  12   8   49.84    6.24
   6 -12   8   39.88    8.39
  -6 -12  -8   49.83    5.26
  -6  12  -8   28.10    1.37
  -6  12  -8   30.27    1.74
  -6  12  -8   47.06    5.16
   6  12   9   88.32   17.09
   6 -12   9   93.51   13.85
  -6 -12  -9  103.29    9.18
  -6  12  -9   81.53    8.94
   6  12  10   23.39    6.78
   6 -12  10   14.88    9.04
  -6 -12 -10   35.31    5.66
  -6  12 -10   24.95    8.82
   6  12  11   15.89    6.45
   6 -12  11   23.52    8.96
  -6 -12 -11   22.43    5.51
  -6  12 -11   21.98    5.59
   6  12  12    5.33    5.06
   6 -12  12    1.42    7.30
  -6  12 -12    5.94    4.36
   6  12  13   24.08    7.51
   6  13 -12   27.01    6.20
   6  13 -12   33.42    9.79
  -6  13  12   27.92   12.39
  -6 -13  12   21.64    5.85
  -6  13  12   15.79    7.15
   6  13 -11    6.75    4.65
   6  13 -11    5.12    6.87
  -6 -13  11    7.74    4.27
  -6  13  11   14.21    5.56
  -6  13  11    8.53   14.82
   6  13 -10    4.58    4.48
   6  13 -10   15.20    5.99
  -6 -13  10    4.95    6.48
  -6  13  10    2.48    8.01
  -6  13  10    4.80    5.08
   6  13  -9   13.50    4.56
   6  13  -9    7.06    5.47
  -6 -13   9    8.34    3.96
  -6  13   9   -2.95    7.78
  -6  13   9    3.79    4.95
   6  13  -8   27.44    5.75
   6  13  -8   17.03   10.54
  -6 -13   8   22.02    4.83
  -6  13   8   41.26   17.09
  -6  13   8   20.72    6.32
   6  13  -7    8.59    5.64
   6  13  -7    8.11    5.32
  -6 -13   7   19.97    4.26
  -6  13   7   31.63    8.70
  -6  13   7   17.38    5.19
   6  13  -6    2.02    4.91
   6  13  -6    8.44    4.91
  -6 -13   6    7.71    6.33
  -6  13   6   14.98    7.43
  -6  13   6   11.24    4.56
  -6  13   6   15.00    2.51
   6  13  -5   16.12    5.12
   6  13  -5    9.05    5.20
  -6 -13   5   18.85    4.01
  -6  13   5    3.96    7.23
  -6  13   5   10.90    7.60
  -6  13   5   12.90    3.16
   6  13  -4   19.84    5.38
  -6 -13   4   22.33    4.37
  -6  13   4   14.58    4.80
  -6  13   4   18.02    2.48
   6  13  -3   30.18   10.02
  -6 -13   3   37.53    4.94
  -6  13   3   24.35    5.39
  -6  13   3   28.14    5.10
   6  13  -2   21.37    6.18
  -6 -13   2   20.71    4.76
  -6  13   2   22.48    4.96
  -6  13   2   36.59    3.38
   6  13  -1   12.43    4.38
  -6 -13   1    8.50    3.59
  -6  13   1   10.81    3.37
  -6  13   1    6.88    2.43
   6  13   0   19.85    5.27
  -6 -13   0   24.34    6.98
  -6  13   0   12.68    3.99
  -6  13   0   22.69    3.13
   6  13   1   12.18    4.81
  -6 -13  -1   12.13    3.87
  -6  13  -1   10.89    3.26
  -6  13  -1   17.56    3.12
   6  13   2  124.30   11.92
  -6 -13  -2  120.72   10.06
  -6  13  -2  125.60   12.61
  -6  13  -2  125.19    7.96
   6  13   3   44.71    6.67
  -6 -13  -3   36.82    5.55
  -6  13  -3   37.03    4.06
  -6  13  -3   46.00    7.57
   6  13   4   23.45    6.17
   6 -13   4   28.55    7.62
  -6 -13  -4   30.55    5.20
  -6  13  -4   40.08    4.54
  -6  13  -4   28.15    5.56
   6  13   5   17.72    4.68
   6 -13   5   29.37    6.30
  -6 -13  -5   18.73    4.19
  -6  13  -5   10.89    2.58
  -6  13  -5   10.39    3.73
   6  13   6   28.15    9.57
   6 -13   6   30.80    8.10
  -6 -13  -6   24.64    5.13
  -6  13  -6   28.20    3.22
  -6  13  -6   29.99    4.92
   6 -13   7   29.62    8.21
   6  13   7   23.53    6.04
  -6  13  -7   26.77    2.60
  -6  13  -7   32.10    8.36
  -6 -13  -7   32.10    5.43
   6  13   8    0.04    3.66
   6 -13   8   -2.03    5.09
  -6 -13  -8    1.26    3.25
  -6  13  -8    1.64    3.10
   6  13   9    7.56    5.03
   6 -13   9    9.20    6.61
  -6 -13  -9   -4.32    6.66
  -6  13  -9    8.11    3.89
   6  13  10    4.11    7.29
   6 -13  10    6.11    5.88
  -6 -13 -10    3.86    3.61
  -6  13 -10   -3.47    3.54
   6  13  11    2.82    6.06
   6 -13  11   16.85    8.29
  -6 -13 -11   15.26    5.16
   6  13  12    6.68    5.40
   6 -13  12    3.31    7.10
  -6  13 -12    2.38    4.75
   6  14 -11   -5.05    4.14
   6  14 -11    3.07    6.28
  -6 -14  11   -1.67    3.91
  -6  14  11  -11.56    8.63
  -6  14  11   -1.08    7.68
   6  14 -10   50.61    8.46
   6  14 -10   49.23   10.81
  -6 -14  10   43.00    7.16
  -6  14  10   52.17   14.29
  -6  14  10   39.85   15.07
   6  14  -9    5.50    7.69
   6  14  -9    3.48    5.46
  -6 -14   9    3.90    3.96
  -6  14   9   17.43    7.66
  -6  14   9    0.61    8.34
   6  14  -8   -2.65    4.02
   6  14  -8    2.48    4.38
  -6 -14   8    5.95    3.38
  -6  14   8   -4.14    6.90
  -6  14   8   -1.25    4.22
   6  14  -7   10.98    4.30
   6  14  -7    5.81    7.18
  -6 -14   7    1.00    3.47
  -6  14   7   -1.21    4.28
  -6  14   7   -0.40    7.00
   6  14  -6   -1.09    4.52
   6  14  -6    8.76    7.51
  -6 -14   6    2.98    3.65
  -6  14   6   18.62    6.85
  -6  14   6    4.20    1.59
  -6  14   6    8.68    4.18
   6  14  -5   60.66    8.70
   6  14  -5   53.34    8.39
  -6 -14   5   34.37   10.30
  -6  14   5   46.48    7.33
  -6  14   5   47.61    3.67
   6  14  -4    8.55    5.03
  -6 -14   4   14.15    4.02
  -6  14   4   10.25    7.31
  -6  14   4    8.55    2.34
   6  14  -3    9.97    5.06
  -6 -14   3    6.53    6.71
  -6  14   3   10.05    4.41
  -6  14   3   16.86    4.32
   6  14  -2    0.03    4.58
  -6 -14   2    0.72    3.60
  -6  14   2    7.81    2.66
  -6  14   2   13.18    3.70
   6  14  -1   -2.04    3.84
  -6 -14   1    1.76    3.12
  -6  14   1    3.02    2.16
  -6  14   1    0.18    3.05
   6  14   0   24.38    5.36
  -6 -14   0    9.03    4.62
  -6  14   0   21.40    3.58
  -6  14   0   22.64    6.94
   6  14   1   19.75    5.36
  -6  14  -1   18.50    3.63
  -6  14  -1   18.77    6.67
   6  14   2   -3.36    3.74
  -6 -14  -2    3.21    3.21
  -6  14  -2    3.87    2.57
  -6  14  -2    1.95    2.57
   6  14   3   38.25    5.96
  -6 -14  -3   19.37    5.15
  -6  14  -3   18.59    6.26
  -6  14  -3   27.02    6.93
   6  14   4    9.87    5.04
  -6 -14  -4   19.34    4.41
  -6  14  -4   10.44    3.18
  -6  14  -4   19.65    3.85
   6  14   5   23.25    5.18
  -6 -14  -5   16.62    4.60
  -6  14  -5    9.75    4.87
  -6  14  -5   10.74    4.00
   6  14   6   13.42    5.12
   6 -14   6    5.86    6.71
  -6 -14  -6   22.75    4.70
  -6  14  -6    9.81    3.02
  -6  14  -6   13.29    4.09
   6 -14   7   48.42   11.23
   6  14   7   48.47    8.34
  -6  14  -7   28.28    6.58
  -6  14  -7   64.94    6.68
  -6 -14  -7   63.63    7.52
   6  14   8    6.17    4.74
   6 -14   8    9.34    6.59
  -6 -14  -8    6.27    4.16
  -6  14  -8    1.02    6.35
   6  14   9   27.76    7.27
   6 -14   9   28.54   10.26
  -6 -14  -9   34.98    6.30
  -6  14  -9   23.79    5.93
   6  14  10   21.79    7.26
   6 -14  10   17.53    9.81
  -6 -14 -10   26.05    6.14
  -6  14 -10   18.79    5.74
   6  14  11   12.48   11.94
   6 -14  11   15.26    9.17
  -6 -14 -11   15.34    6.03
  -6  14 -11   28.38    9.87
   6  15 -10   -3.86    4.67
   6  15 -10    1.63    5.60
  -6 -15  10    6.08    3.76
  -6  15  10    4.75    7.66
  -6  15  10   -1.63    4.47
   6  15  -9    6.79    5.15
   6  15  -9   -1.23    5.95
  -6 -15   9    6.88    4.21
  -6  15   9    5.35   15.06
  -6  15   9    9.02    5.55
   6  15  -8   15.65    6.50
   6  15  -8   27.99    7.10
  -6 -15   8   17.49    5.53
  -6  15   8   23.26   11.18
  -6  15   8   18.16    6.79
   6  15  -7   66.25   10.38
  -6 -15   7   67.39   13.51
  -6  15   7   64.03   16.54
  -6  15   7   64.02   10.03
   6  15  -6   29.72    7.11
   6  15  -6    6.73   11.48
  -6 -15   6   31.47    5.65
  -6  15   6   16.19   10.73
  -6  15   6   15.85   10.34
   6  15  -5    5.24    4.49
   6  15  -5    3.78    4.36
  -6 -15   5    3.34    3.46
  -6  15   5    5.00    3.97
  -6  15   5   -0.83    1.96
   6  15  -4    9.41    5.33
   6  15  -4    5.48    4.93
  -6 -15   4   10.49    3.89
  -6  15   4    6.60    4.58
  -6  15   4    5.13    4.06
   6  15  -3    8.03    5.42
  -6 -15   3   13.29    4.32
  -6  15   3    9.86    2.97
   6  15  -2   81.45   11.32
  -6 -15   2   85.05   14.69
  -6  15   2  101.22    7.27
  -6  15   2   83.03    9.68
   6  15  -1    5.52    4.31
  -6 -15   1    4.86    3.55
  -6  15   1    0.62    2.64
  -6  15   1    9.04    5.80
   6  15   0   -1.07    7.03
  -6 -15   0    7.58    5.99
  -6  15   0    1.19    2.74
  -6  15   0    6.86    3.46
   6  15   1   25.63    6.72
  -6 -15  -1   32.95    5.70
  -6  15  -1   27.09    5.12
  -6  15  -1   30.70    4.62
   6  15   2  148.95   15.49
  -6 -15  -2  166.28   20.94
  -6  15  -2  169.93   11.63
  -6  15  -2  166.56   11.86
   6  15   3   21.06    6.13
  -6 -15  -3   33.67    5.22
  -6  15  -3   17.16    4.02
  -6  15  -3   13.16    4.28
  -6 -15  -4   16.85    5.00
  -6  15  -4   15.31    3.55
  -6  15  -4   11.17    6.80
   6  15   5   22.56    5.85
  -6 -15  -5   14.35    5.10
  -6  15  -5   10.38    3.49
  -6  15  -5   20.70    4.47
   6  15   6   15.92    6.10
  -6 -15  -6   30.20    5.65
  -6  15  -6   17.24    6.19
  -6  15  -6   13.14    4.91
  -6  15  -7   27.90    5.59
   6  15   8   11.64    6.18
  -6 -15  -8   20.07    5.75
  -6  15  -8   13.91    8.37
   6  15   9   -0.63    4.66
  -6 -15  -9    6.40    4.01
  -6  15  -9   -0.96    3.79
   6  15  10   38.48    9.83
  -6 -15 -10   46.66    8.28
  -6  15 -10   43.95    7.59
   6  16  -9    9.96    6.61
   6  16  -9   12.80    7.13
  -6 -16   9   13.64    5.08
  -6  16   9    1.80   18.59
  -6  16   9    6.22    6.84
   6  16  -8   45.87    9.42
   6  16  -8   34.77   10.34
  -6 -16   8   57.12    7.83
  -6  16   8   50.21   15.69
  -6  16   8   34.92    9.95
   6  16  -7   23.11    6.91
   6  16  -7   14.83    7.31
  -6 -16   7   18.27    5.80
  -6  16   7   27.66   11.48
  -6  16   7   25.35    6.91
   6  16  -6    6.03    8.14
   6  16  -6    3.08    4.84
  -6 -16   6    7.62    6.18
  -6  16   6   -6.50    7.24
  -6  16   6   -0.86    4.34
   6  16  -5   39.07    9.73
   6  16  -5   53.68    9.57
  -6 -16   5   37.76    7.55
  -6  16   5   42.42   13.94
  -6  16   5   49.42    4.53
   6  16  -4   12.85    5.81
   6  16  -4   -1.29    5.39
  -6 -16   4   10.02    4.44
  -6  16   4    3.41    4.87
  -6  16   4   11.94    4.99
   6  16  -3   60.93    9.58
   6  16  -3   47.15   10.12
  -6 -16   3   42.12   12.43
  -6  16   3   50.99    8.37
  -6  16   3   54.32    5.62
   6  16  -2   22.46    6.90
  -6 -16   2   28.16    5.63
  -6  16   2   18.03    4.63
  -6  16   2   24.90    9.56
   6  16  -1    6.55    4.30
  -6 -16   1   -1.77    5.71
  -6  16   1    1.01    3.53
  -6  16   1   -0.85    2.66
   6  16   0   31.45   10.21
  -6 -16   0   19.25    5.25
  -6  16   0   15.49    5.08
  -6  16   0   14.69    4.03
   6  16   1   74.43   10.86
  -6 -16  -1   87.98    9.56
  -6  16  -1   51.78   13.80
  -6  16  -1   81.18    7.58
   6  16   2   11.57   10.12
  -6 -16  -2   27.20    5.39
  -6  16  -2   12.96    4.34
  -6  16  -2   10.47    7.24
   6  16   3    4.01    4.76
  -6  16  -3    1.06    3.41
  -6  16  -3    7.33    5.14
   6  16   4   15.41    5.72
  -6 -16  -4    9.79    4.83
  -6  16  -4    9.26    3.68
  -6  16  -4    6.88    6.79
   6  16   5    9.31    6.23
  -6  16  -5   13.18    3.81
  -6  16  -5   16.59    4.63
   6  16   6   31.74    8.14
  -6 -16  -6   47.60    7.39
  -6  16  -6   27.59    8.47
  -6  16  -6   32.36    6.51
   6  16   7    7.20    6.17
  -6  16  -7   11.84    4.95
  -6 -16  -7   14.54    5.49
  -6 -16  -8   28.02    7.12
  -6  16  -8   25.84   10.24
   6  16   9   12.24    6.31
  -6 -16  -9    7.13    5.54
  -6  16  -9    3.42    4.68
   6  17  -7   28.75   10.26
   6  17  -7   23.32    9.94
  -6 -17   7   59.95    7.82
  -6  17   7   54.04   15.30
  -6  17   7   16.02   15.88
   6  17  -6    7.47   11.28
  -6 -17   6   10.99    5.34
  -6  17   6    7.62   10.33
  -6  17   6   17.29    6.59
   6  17  -5   -6.47    5.63
   6  17  -5    6.86    5.60
  -6 -17   5    2.45    6.98
  -6  17   5    8.11    5.03
   6  17  -4   16.17    7.17
  -6 -17   4   18.63    5.81
  -6  17   4   21.31    6.31
  -6  17   4    9.33    6.38
   6  17  -3   23.90    8.34
   6  17  -3   29.56    8.85
  -6 -17   3   29.93    6.65
  -6  17   3   30.92    5.30
  -6  17   3   29.30    7.21
   6  17  -2   88.66   14.89
  -6  17   2  124.17   10.29
  -6  17   2  109.99   12.58
   6  17  -1   44.46   10.16
  -6 -17   1   65.86    8.09
  -6  17   1   46.54    8.27
  -6  17   1   49.82    6.55
   6  17   0   51.03    9.86
  -6 -17   0   56.08    8.30
  -6  17   0   55.56    6.45
  -6  17   0   41.36    8.15
   6  17   1   13.36    5.24
  -6 -17  -1    6.16    4.49
  -6  17  -1   -1.86    4.16
  -6  17  -1    3.89    3.46
   6  17   2   18.61    6.14
  -6 -17  -2    4.51    5.50
  -6  17  -2   12.19    4.46
  -6  17  -2   10.04    4.17
   6  17   3    3.93    6.38
  -6 -17  -3   19.05    5.36
  -6  17  -3   11.68    4.49
  -6  17  -3   12.90    4.45
   6  17   4   83.92   13.35
  -6 -17  -4  111.41   11.73
  -6  17  -4   88.08    9.15
  -6  17  -4   89.41   15.64
  -6 -17  -5   25.90    6.62
  -6  17  -5   15.28    4.91
  -6  17  -5   28.94    5.61
   6  17   6    1.71    4.83
  -6  17  -6    3.52    3.96
   6  17   7   12.21    6.89
  -6  17  -7   11.77    5.29
  -6 -17  -7   12.97    6.28
   6  18  -5   21.67    9.31
   6  18  -5   29.65    9.75
  -6 -18   5   27.21    7.17
  -6  18   5   24.58   13.26
   6  18  -4   26.15    9.29
   6  18  -4   23.91    9.36
  -6 -18   4   24.88    7.28
  -6  18   4   46.92    7.95
  -6  18   4   17.73    8.29
   6  18  -3    8.36    9.74
   6  18  -3    8.37    6.37
  -6 -18   3   10.26    4.86
  -6  18   3    5.32    3.75
  -6  18   3   -4.43    5.23
   6  18  -2    0.65    5.65
   6  18  -2    8.26    5.97
  -6 -18   2   -5.36    4.42
  -6  18   2    3.63    3.69
  -6  18   2   10.69    4.77
   6  18  -1    2.38    6.38
   6  18  -1    5.01    6.81
  -6 -18   1    7.40    5.19
  -6  18   1   14.86    5.43
  -6  18   1   10.83    4.03
   6  18   0   12.22    6.10
  -6 -18   0    5.85    5.12
  -6  18   0    3.85    4.91
  -6  18   0    6.70    4.01
   6  18   1   26.44    9.45
  -6 -18  -1   43.03    7.72
  -6  18  -1   36.43    6.58
  -6  18  -1   32.84    6.17
   6  18   2    9.22    5.44
  -6 -18  -2   11.17    5.30
  -6  18  -2    5.73    7.28
  -6  18  -2    2.43    4.09
  -6 -18  -3    7.43    4.95
  -6  18  -3    1.08    6.83
  -6  18  -3    4.49    6.65
   6  18   4    8.33    6.33
  -6 -18  -4   16.29    6.19
  -6  18  -4    4.82    7.61
  -6  18  -4   16.57    7.93
   6  18   5    0.34    5.01
  -6 -18  -5    2.05    5.13
  -6  18  -5    2.27    3.66
  -6  18  -5    4.53    4.00
   6  19  -1   21.51   14.45
   6  19  -1   22.97    9.11
  -6 -19   1   17.68    7.00
  -6  19   1   27.70    5.64
  -6  19   1   16.47    7.19
   6  19   0   19.96    8.60
   6  19   0    3.15    8.64
  -6 -19   0   27.32    6.89
  -6  19   0   12.32   11.02
  -6  19   0   21.61    5.58
   6  19   1   -2.53   10.78
  -6 -19  -1    7.13    5.46
  -6  19  -1    7.79    4.60
  -6  19  -1    3.56    4.36
  -7   0  16   16.74    7.54
  -7   0  15   12.12    6.50
  -7   0  14   -0.29    4.31
   7   0 -13    6.20    1.54
  -7   0  13    4.45    7.66
   7   0 -12    7.62    6.56
   7   0 -12    3.95    1.35
  -7   0  12    6.42    4.87
   7   0 -11   -0.64    1.17
   7   0 -11   -0.22    5.20
  -7   0  11    1.20    3.41
   7   0 -10   46.37    4.03
   7   0 -10   48.14    9.41
  -7   0  10   48.05    7.11
   7   0  -9    9.30    5.53
   7   0  -9   12.06    1.62
  -7   0   9   13.55    4.20
   7   0  -8   43.68    7.84
   7   0  -8   47.63    4.02
  -7   0   8   50.30    5.98
   7   0  -7   39.46   10.62
  -7   0   7   40.21    5.17
   7   0  -6   13.88    4.16
  -7   0   6   15.69    3.32
   7   0  -5    1.61    2.90
  -7   0   5    5.20    2.33
   7   0  -4   12.41    3.18
  -7   0   4   12.35    2.63
   7   0  -3    2.50    2.11
  -7   0   3   -0.58    2.94
   7   0  -2   23.20    5.11
  -7   0   2   25.80    2.73
   7   0  -1    3.63    1.73
  -7   0   1   -0.40    1.44
   7   0   0   56.55    3.83
  -7   0   0   65.24    3.41
   7   0   1  102.90    4.68
  -7   0  -1  103.26    4.07
   7   0   2   18.95    2.96
  -7   0  -2   17.25    1.54
   7   0   3    5.22    1.93
  -7   0  -3    2.24    0.97
   7   0   4   10.99    2.09
  -7   0  -4    8.91    1.64
   7   0   5   76.61    4.05
  -7   0  -5   75.35    2.34
   7   0   6   61.39    3.45
  -7   0  -6   55.50    1.99
   7   0   7   29.83    2.58
   7   0   7   35.94    4.12
  -7   0  -7   33.43    1.57
   7   0   8   72.01    6.29
   7   0   8   70.95    2.67
  -7   0  -8   79.06    3.72
   7   0   9  156.10   10.24
   7   0   9  150.59    4.50
   7   0  10   28.04    1.71
   7   0  10   28.65    7.79
   7   0  11    3.93    1.66
   7   0  11   11.68    3.31
   7   0  11    1.82    1.08
   7   0  12   12.66    2.10
   7   0  12    7.62    4.39
   7   0  12    5.72    2.24
   7   0  13   10.96    3.63
   7   0  13    9.32    4.70
   7   0  13   10.47    1.52
   7   0  14   -0.72    3.91
   7   0  15    1.45    4.38
  -7  -1  16   10.27    6.50
  -7   1  16   17.39   11.72
   7   1 -15    4.17    2.23
  -7  -1  15   24.32    5.52
  -7   1  15    6.26    6.18
   7   1 -14   37.12    3.31
  -7  -1  14   39.01   13.88
  -7   1  14   42.76    8.85
   7   1 -13    1.06    6.80
   7   1 -13    3.86    1.72
  -7  -1  13   -1.64    4.16
  -7   1  13    0.30    4.58
   7   1 -12    5.57    6.74
   7   1 -12    8.42    3.00
   7  -1 -12    6.15    1.05
  -7  -1  12    7.77    4.27
  -7   1  12    8.57    4.72
   7   1 -11   38.18    3.03
   7   1 -11   47.65    9.43
   7  -1 -11   42.55   10.62
   7  -1 -11   40.77    2.67
  -7  -1  11   39.74    6.73
  -7   1  11   27.71   11.25
   7   1 -10  238.26   34.71
   7   1 -10  253.91   14.21
   7  -1 -10  244.46   26.17
   7  -1 -10  238.10    9.09
  -7  -1  10  291.24   18.15
  -7   1  10  276.20   19.73
   7   1  -9   10.32    1.81
   7   1  -9   11.07    5.05
   7  -1  -9   14.06    8.50
   7  -1  -9    5.65    1.10
  -7  -1   9   14.23    3.71
  -7   1   9   10.36    4.02
   7  -1  -8   58.20    9.23
   7   1  -8   63.70    3.61
   7   1  -8   68.90    8.65
   7  -1  -8   65.36    3.85
  -7  -1   8   59.41    6.75
  -7   1   8   76.47    7.28
   7   1  -7  177.94   13.72
   7  -1  -7  166.64   22.99
   7  -1  -7  177.88    5.76
  -7  -1   7  175.96   11.28
  -7   1   7  194.29   12.27
   7  -1  -6   56.55    7.39
   7   1  -6   56.27    6.77
  -7  -1   6   73.62    8.87
  -7   1   6   73.44    6.07
   7  -1  -5   30.84    8.51
   7   1  -5   40.72    4.78
  -7  -1   5   38.09    3.92
  -7   1   5   35.90    4.21
   7   1  -4  260.52   14.19
   7  -1  -4  236.58   14.04
  -7   1   4  256.05   12.66
  -7  -1   4  273.20   12.33
   7   1  -3  191.94   10.62
   7  -1  -3  162.82   15.00
  -7  -1   3  198.58    8.65
  -7   1   3  199.67    9.44
   7  -1  -2  129.48    7.38
   7   1  -2  119.04    6.88
  -7  -1   2  124.96    5.85
  -7   1   2  130.31    6.31
   7   1  -1   65.31    4.51
   7  -1  -1   70.32    4.50
  -7  -1   1   74.11    3.99
  -7   1   1   70.47    5.97
   7   1   0 2135.45  150.22
   7  -1   0 2143.89  138.02
  -7  -1   0 2231.54  135.38
  -7   1   0 2199.68  141.15
   7  -1   1  446.96   17.88
   7   1   1  480.28   18.99
  -7  -1  -1  479.36   17.10
  -7   1  -1  477.88   16.74
   7   1   2  155.25    5.84
   7  -1   2  141.49    8.08
  -7  -1  -2  153.52    5.16
  -7   1  -2  143.14    6.60
   7   1   3  469.81   16.99
   7  -1   3  482.54   16.90
  -7  -1  -3  496.38   16.35
  -7   1  -3  490.94   14.89
   7  -1   4   62.90    2.54
   7   1   4   73.77    3.11
  -7  -1  -4   66.53    2.49
  -7   1  -4   71.57    3.04
   7   1   5  227.84    7.55
   7  -1   5  235.63    8.22
  -7  -1  -5  238.78    9.04
  -7   1  -5  242.09    5.91
   7  -1   6  156.82    5.21
   7  -1   6  162.95    8.84
   7   1   6  160.73    5.52
  -7  -1  -6  165.48    5.04
  -7   1  -6  160.28    5.04
   7   1   7   85.95    3.42
   7  -1   7   87.62    6.23
   7  -1   7   86.96    3.23
  -7  -1  -7   95.81    3.32
   7   1   8    7.31    1.33
   7  -1   8   11.41    3.07
   7  -1   8    8.28    1.14
  -7  -1  -8    7.12    2.02
   7   1   9   68.00    4.80
   7   1   9   72.91    6.61
   7  -1   9   68.32    2.61
   7  -1   9   68.58    6.74
   7  -1   9   76.44    4.08
   7   1  10   20.36    3.68
   7  -1  10   10.70    0.78
   7  -1  10    9.07    3.80
   7   1  10   10.99    1.67
   7  -1  10   13.66    1.11
   7   1  11   12.43    3.74
   7   1  11   11.00    2.74
   7  -1  11   10.97    1.20
   7  -1  11   14.10    4.10
   7  -1  11    6.86    1.00
   7   1  12  113.13    7.46
   7   1  12  117.34   10.31
   7  -1  12  101.02    2.74
   7  -1  12  108.01    4.40
   7  -1  12  115.34   10.75
   7   1  12  113.74    5.02
   7   1  13   15.41    3.24
   7   1  13   12.78    2.14
   7   1  13    8.56    4.66
   7  -1  13    4.43    1.29
   7  -1  13   16.56    4.68
   7  -1  13   13.00    0.96
   7   1  14   21.40    6.22
   7   1  14   33.87    5.81
   7  -1  14   30.33    6.12
   7   1  14   15.60    2.04
   7   1  15   35.44    8.11
   7  -1  15   42.59    8.58
  -7  -2  16    3.36   10.16
  -7   2  16   19.28    7.74
   7   2 -15    8.44    2.55
  -7  -2  15    5.50    5.49
  -7   2  15    4.89    6.38
   7   2 -14   13.89   10.48
   7   2 -14   18.76    3.24
  -7  -2  14   35.32    6.46
  -7   2  14   21.81   12.22
   7   2 -13    5.10   11.66
   7   2 -13    3.12    3.48
  -7  -2  13    3.07    4.22
  -7   2  13    8.70    4.98
   7   2 -12    1.26    2.86
   7   2 -12    4.23    4.93
  -7  -2  12   -3.92    3.28
  -7   2  12    0.43    3.96
   7   2 -11  121.57   16.67
   7   2 -11  128.74    7.02
  -7  -2  11  156.45   11.78
  -7   2  11  150.01   13.77
   7   2 -10   63.99    9.91
   7   2 -10   53.28    3.99
  -7  -2  10   57.60    6.87
  -7   2  10   69.28    8.24
   7   2  -9   -0.73    3.70
   7   2  -9    3.13    1.64
   7  -2  -9    8.33    4.63
   7  -2  -9   -0.16    0.60
  -7  -2   9    1.58    2.79
  -7   2   9   10.56    5.11
   7   2  -8  402.70   22.42
   7   2  -8  331.56   38.05
   7  -2  -8  384.86   32.27
  -7  -2   8  404.42   22.67
  -7   2   8  390.34   35.18
   7   2  -7   67.50    7.37
   7  -2  -7   72.68   12.92
   7  -2  -7   58.71    1.83
  -7  -2   7   49.72    5.76
  -7   2   7   67.76    6.56
   7   2  -6  122.16    9.78
   7  -2  -6  126.51   11.31
  -7  -2   6  142.24   12.47
  -7   2   6  129.99   14.26
   7   2  -5   24.74    4.36
   7  -2  -5   27.46    4.92
  -7  -2   5   30.77    3.40
  -7   2   5   22.38    6.32
   7   2  -4  160.52   10.28
   7  -2  -4  153.74   10.91
  -7  -2   4  173.49    8.44
  -7   2   4  172.27    9.02
   7  -2  -3  728.30   40.32
   7   2  -3  727.78   38.08
  -7  -2   3  771.78   35.74
  -7   2   3  781.90   37.26
   7  -2  -2  173.20   13.84
   7   2  -2  179.35    9.45
  -7  -2   2  194.70    8.19
  -7   2   2  187.04   12.29
   7  -2  -1   69.52    4.69
   7   2  -1   70.71    4.50
  -7  -2   1   66.24    6.19
  -7   2   1   70.17    4.08
   7  -2   0   97.85    5.42
   7   2   0  113.24    5.47
  -7  -2   0  108.13    4.86
  -7   2   0  111.22    4.74
   7  -2   1  224.90    8.83
   7   2   1  222.89    8.92
  -7  -2  -1  230.35    8.33
  -7   2  -1  242.34    7.94
   7  -2   2   47.76    2.72
   7   2   2   45.69    3.06
  -7  -2  -2   41.93    3.96
  -7   2  -2   48.25    2.18
   7  -2   3  149.69    5.18
   7   2   3  148.47    5.89
  -7  -2  -3  152.87    5.36
  -7   2  -3  158.88    4.25
   7   2   4  233.27    8.71
   7  -2   4  238.53    8.66
   7  -2   4  237.77   10.58
  -7  -2  -4  247.58    7.78
  -7   2  -4  247.08    7.20
   7  -2   5  230.28   14.75
   7   2   5  230.12   10.49
   7  -2   5  220.42    6.78
  -7  -2  -5  231.59    7.07
  -7   2  -5  192.06    5.16
   7   2   6  349.55   16.10
   7  -2   6  353.46   16.70
  -7  -2  -6  354.01   11.97
   7  -2   7   73.39    8.53
   7   2   7   56.52    3.04
  -7  -2  -7   60.62    2.95
   7  -2   8   79.55    6.31
   7   2   8   65.75    3.39
  -7  -2  -8   66.97    3.27
   7  -2   9   80.68   10.03
   7   2   9   52.96    5.22
  -7  -2  -9   58.02    4.96
   7   2  10   22.85    2.40
   7   2  10   20.51    4.46
   7  -2  10   23.12    4.79
   7   2  11   69.11    4.27
   7  -2  11   71.80    8.13
   7   2  11   65.33    7.48
   7   2  12  120.52   10.54
   7   2  12  117.05    9.46
   7  -2  12  110.88   11.65
   7   2  13   -1.36    1.93
   7   2  13    0.17    3.47
   7   2  13    0.75    4.92
   7  -2  13   -3.25    3.64
   7   2  14   19.29    4.02
   7   2  14    6.77    2.18
   7   2  14   10.68    4.92
   7  -2  14   14.37    5.58
   7  -2  15   13.66    6.49
   7   3 -16    0.90    3.09
  -7  -3  16   18.88    5.31
  -7   3  16   10.70   11.78
   7   3 -15   -2.32    8.89
   7   3 -15    4.41    2.90
  -7  -3  15   18.03    5.19
  -7   3  15    9.06    6.56
   7   3 -14   14.63    7.59
   7   3 -14    2.74    2.53
  -7  -3  14    5.44    4.46
  -7   3  14    3.85    5.60
   7   3 -13    5.30    7.07
   7   3 -13    6.50    2.67
  -7  -3  13   12.10    4.45
  -7   3  13   10.28    9.29
   7   3 -12  101.11    6.59
   7   3 -12   98.03   14.98
  -7  -3  12  107.59   10.31
  -7   3  12  105.22   13.36
   7   3 -11   33.67    9.14
   7   3 -11   32.81    6.22
  -7  -3  11   39.32    5.91
  -7   3  11   44.42    7.71
   7   3 -10   71.18    5.26
   7   3 -10   84.21   10.74
  -7  -3  10   73.59    7.39
  -7   3  10   77.85    9.84
   7   3  -9   53.10    8.18
   7   3  -9   51.33    4.14
  -7  -3   9   56.42    6.09
  -7   3   9   59.58    7.65
   7   3  -8  101.78   10.79
   7   3  -8   91.90    5.85
  -7  -3   8  114.49    8.13
  -7   3   8  115.00    9.84
   7   3  -7  136.68   11.02
   7  -3  -7  137.55   13.90
  -7  -3   7  134.17    8.99
  -7   3   7  146.26   16.01
   7   3  -6  204.86   14.40
   7  -3  -6  219.13   17.61
  -7  -3   6  221.57   17.45
  -7   3   6  229.65   20.07
   7  -3  -5   20.09    4.22
   7   3  -5    8.89    3.26
  -7  -3   5    8.84    2.72
  -7   3   5    8.44    3.08
   7   3  -4  112.38    8.22
   7  -3  -4  117.16   13.68
  -7  -3   4  115.51    6.85
  -7   3   4  119.67    7.36
   7   3  -3  155.85    9.18
   7  -3  -3  141.66   10.06
  -7  -3   3  164.78    7.76
  -7   3   3  164.14    8.51
   7  -3  -2  287.84   15.49
   7   3  -2  299.88   14.32
  -7  -3   2  315.45   12.86
  -7   3   2  315.60   14.06
   7   3  -1   34.79    3.52
   7  -3  -1   33.45    3.73
  -7  -3   1   42.40    3.02
  -7   3   1   37.58    3.17
   7   3   0  122.41    6.13
   7  -3   0  122.24    4.72
   7  -3   0  131.47    9.76
  -7  -3   0  128.84    5.46
  -7   3   0  129.49    7.96
   7   3   1   44.48    3.53
   7  -3   1   47.74    5.29
   7  -3   1   46.99    2.89
  -7   3  -1   51.32    4.08
  -7  -3  -1   52.64    3.01
   7   3   2 1752.88  103.15
   7  -3   2 1798.49  112.75
   7  -3   2 1878.97  118.79
  -7  -3  -2 1785.95   99.77
  -7   3  -2 1878.62   97.91
   7   3   3  619.73   26.30
   7  -3   3  652.54   24.95
   7  -3   3  625.98   27.75
  -7  -3  -3  647.90   24.76
  -7   3  -3  650.76   24.21
   7   3   4  103.52    4.70
   7  -3   4  113.56    5.89
   7  -3   4  105.40    4.70
  -7  -3  -4  113.45    6.17
  -7   3  -4  101.96    2.36
   7   3   5    3.77    2.25
   7  -3   5    8.95    1.95
  -7  -3  -5    7.64    1.21
  -7   3  -5   -0.01    0.45
   7  -3   6   76.88    5.42
   7   3   6   57.21    3.63
  -7  -3  -6   70.44    3.37
   7   3   7   39.58    2.86
   7  -3   7   44.40    4.55
  -7  -3  -7   35.05    4.25
   7   3   8   16.08    3.57
   7  -3   8   19.93    3.88
  -7  -3  -8   15.89    2.13
   7   3   9   38.20    3.05
   7  -3   9   36.20    5.39
  -7  -3  -9   33.55    2.90
   7  -3  10    0.12    3.02
   7   3  10    3.35    2.73
  -7  -3 -10   -0.10    1.59
   7   3  11    1.56    1.97
   7   3  11    1.07    3.08
   7  -3  11    3.55    3.50
   7   3  12   46.71    4.49
   7   3  12   48.71    6.67
   7  -3  12   57.09   12.71
   7   3  13    1.28    4.70
   7   3  13   13.11    2.98
   7   3  13   19.78    7.29
   7  -3  13   10.38    5.01
   7   3  14    6.97    2.58
   7   3  14   10.59    4.82
   7  -3  14   17.79    5.40
   7   3  14   13.70    4.79
   7   3  15   22.93    6.13
   7   3  15   18.24    3.36
   7  -3  15   42.00    7.89
   7   4 -16   25.45   12.21
   7   4 -16   10.34    4.53
  -7  -4  16   23.02    7.14
  -7   4  16   51.21    9.63
   7   4 -15   16.46   11.18
   7   4 -15   16.55    4.12
  -7  -4  15   30.50    6.68
  -7   4  15   28.04   14.01
   7   4 -14    2.01    8.01
   7   4 -14   10.03    3.28
  -7  -4  14   12.00    5.34
  -7   4  14   16.47    6.88
   7   4 -13   13.49    3.68
   7   4 -13   31.10   13.81
  -7  -4  13   22.05    5.55
  -7   4  13   33.04    7.48
   7   4 -12    7.69    5.82
   7   4 -12    2.79    2.57
  -7  -4  12    6.31    6.05
  -7   4  12    3.47    4.98
   7   4 -11   12.88    6.43
   7   4 -11   17.80    3.15
  -7  -4  11   14.04    4.48
  -7   4  11   15.83   10.01
   7   4 -10   21.11    3.62
   7   4 -10   24.58    6.92
  -7  -4  10   32.40    4.99
  -7   4  10   28.93    6.41
   7   4  -9   63.28    8.45
   7   4  -9   52.66    7.40
  -7  -4   9   60.89    6.28
  -7   4   9   38.43    7.90
   7   4  -8   28.85    3.39
   7   4  -8   30.16    5.93
  -7  -4   8   26.61    4.68
  -7   4   8   33.29    5.66
   7   4  -7   79.44    8.10
  -7  -4   7   67.51    6.47
  -7   4   7   67.49    7.69
   7   4  -6  173.82   12.30
  -7  -4   6  176.56   14.84
  -7   4   6  171.71   11.89
   7   4  -5  543.80   42.00
   7  -4  -5  542.76   15.54
  -7  -4   5  592.67   27.66
  -7   4   5  569.80   30.35
   7   4  -4  215.74   11.45
   7  -4  -4  185.26    4.31
  -7  -4   4  185.53   14.05
  -7   4   4  184.93   10.60
   7   4  -3  425.48   21.89
   7  -4  -3  433.98   15.01
  -7  -4   3  452.93   19.69
  -7   4   3  445.08   21.17
   7   4  -2    6.20    2.37
   7  -4  -2    2.91    3.00
   7  -4  -2    6.15    1.64
  -7   4   2    3.02    2.17
  -7  -4   2    7.27    1.96
   7   4  -1  445.69   20.10
   7  -4  -1  444.21   22.98
   7  -4  -1  440.52   18.11
  -7  -4   1  476.26   18.80
  -7   4   1  445.37   25.24
   7  -4   0   34.17    3.79
   7   4   0   34.01    3.45
   7  -4   0   40.50    3.62
  -7  -4   0   33.84    2.80
  -7   4   0   37.07    2.94
   7   4   1  112.22    5.89
   7  -4   1  116.54    4.87
  -7  -4  -1  107.80    5.14
  -7   4  -1  112.97    4.70
   7   4   2  103.69    5.46
   7  -4   2  109.51    5.19
  -7  -4  -2   99.54    4.83
  -7   4  -2  105.30    3.87
   7  -4   3    3.68    1.93
   7   4   3    7.51    2.89
  -7  -4  -3    6.69    1.51
  -7   4  -3    3.91    0.92
   7   4   4   74.74    6.53
   7  -4   4   75.25    4.89
  -7  -4  -4   72.10    3.65
  -7   4  -4   73.11    2.46
   7   4   5   23.99    2.48
   7  -4   5   27.13    3.18
  -7  -4  -5   21.65    3.45
  -7   4  -5   18.84    0.32
  -7   4  -5   21.97    0.52
   7   4   6  106.53    5.43
   7  -4   6   98.15    7.23
  -7  -4  -6  114.16    5.05
   7  -4   7  143.25    9.79
   7   4   7  133.66    9.81
  -7  -4  -7  141.64    9.11
   7  -4   8   20.82    4.53
   7   4   8   28.65    2.89
  -7  -4  -8   26.03    2.68
   7  -4   9   49.32    6.40
   7   4   9   34.66    6.09
  -7  -4  -9   46.79    3.61
   7   4  10   55.09    4.67
   7  -4  10   57.44    7.40
  -7  -4 -10   62.23    4.37
   7   4  11   10.61    2.86
   7  -4  11   12.18    4.76
   7   4  12  126.47   11.21
   7   4  12  119.82    8.34
   7  -4  12  132.20   12.47
   7   4  13   22.81    5.20
   7  -4  13   19.94   10.36
   7   4  13   15.50    6.38
   7   4  14   11.62    6.44
   7   4  14   18.44    5.34
   7   4  14   12.28    5.30
   7  -4  14   14.31    6.31
   7   4  15    1.09    4.12
   7  -4  15    2.73    5.27
   7   4  15    2.16    4.62
   7  -4  16    6.41    7.14
   7   5 -16   -0.38    9.98
   7   5 -16    2.89    4.06
  -7  -5  16   19.91    5.67
  -7   5  16    7.53   13.52
  -7   5  16    8.05    6.34
   7   5 -15    4.61    7.32
   7   5 -15    5.23    3.12
  -7  -5  15   -4.79    4.54
  -7   5  15    6.54    6.35
  -7   5  15    2.75    4.55
   7   5 -14   20.37   16.23
   7   5 -14   21.39    4.41
  -7  -5  14   33.83   10.26
  -7   5  14   20.45    8.81
   7   5 -13   16.44    3.65
   7   5 -13    8.13    8.06
  -7  -5  13   14.64    8.33
  -7   5  13   19.88   12.14
   7   5 -12   53.96   10.72
   7   5 -12   51.51    5.54
  -7  -5  12   58.57   11.88
  -7   5  12   50.28   10.32
   7   5 -11   11.57    8.31
   7   5 -11    1.62    4.33
  -7  -5  11    6.13    5.72
  -7   5  11    2.49    4.97
   7   5 -10   79.81   10.97
   7   5 -10   79.78    9.80
  -7  -5  10   75.34   12.08
  -7   5  10   72.68   10.34
   7   5  -9   71.71   10.09
   7   5  -9   75.83    6.02
  -7  -5   9   89.51    7.51
  -7   5   9  109.51   16.77
   7   5  -8   99.50   11.04
   7   5  -8   98.44    6.86
  -7  -5   8  120.63    8.25
  -7   5   8  110.41   11.17
   7   5  -7  152.37   13.98
  -7  -5   7  184.19   11.29
  -7   5   7  196.28   14.47
   7   5  -6  219.43   15.48
  -7  -5   6  232.68   18.63
  -7   5   6  230.05   15.63
   7   5  -5  127.60   10.10
   7  -5  -5  143.80    2.81
  -7  -5   5  121.22    8.34
  -7   5   5  131.17    9.93
   7   5  -4   40.14    4.70
   7  -5  -4   30.45    2.03
  -7  -5   4   45.54    5.91
  -7   5   4   41.02    4.39
   7   5  -3   44.16    5.09
   7  -5  -3   53.93    1.95
  -7  -5   3   53.88    4.24
  -7   5   3   50.57    4.85
   7   5  -2    9.15    2.56
   7  -5  -2    8.65    1.17
  -7  -5   2    8.78    2.16
  -7   5   2    5.04    2.53
   7   5  -1  484.22   23.30
   7  -5  -1  491.45   17.20
  -7   5   1  481.58   22.20
  -7  -5   1  508.04   21.08
   7   5   0   32.97    3.31
   7  -5   0   23.68    2.17
  -7  -5   0   30.42    2.67
  -7   5   0   29.62    2.76
   7  -5   1    7.68    1.61
   7   5   1    6.82    3.54
  -7   5  -1    5.21    2.68
  -7  -5  -1    3.38    1.82
   7   5   2  482.28   21.26
   7  -5   2  467.30   19.43
  -7  -5  -2  474.14   18.92
  -7   5  -2  477.48   21.32
   7   5   3  128.73    6.66
   7  -5   3  124.47    6.80
  -7  -5  -3  130.48    5.83
  -7   5  -3  131.54    4.06
   7  -5   4  232.35   16.37
   7   5   4  236.93   10.43
  -7  -5  -4  232.70   12.89
  -7   5  -4  232.24    5.29
  -7   5  -4  236.64    5.42
   7   5   5  360.63   15.91
   7  -5   5  376.18   18.38
  -7  -5  -5  372.40   14.96
   7  -5   6   15.46    3.17
   7   5   6    9.77    2.27
  -7  -5  -6    9.07    2.08
   7   5   7   12.91    2.52
   7  -5   7   13.19    3.77
  -7  -5  -7   13.71    3.72
   7   5   8   34.29    3.69
   7  -5   8   33.48    8.83
  -7  -5  -8   35.50    3.34
   7   5   9  116.30    7.27
   7  -5   9  101.11   10.74
  -7  -5  -9  128.30    6.84
   7  -5  10    9.18    3.96
   7   5  10    0.91    2.52
  -7  -5 -10    6.31    2.30
   7   5  11   10.24    3.18
   7  -5  11   14.47    7.50
   7   5  12   32.01    7.57
   7   5  12   31.21    5.83
   7  -5  12   33.96    7.08
   7   5  13   -0.91    4.46
   7   5  13    3.89    5.70
   7  -5  13   -3.59    4.30
   7   5  14   28.50    7.03
   7  -5  14   23.09   12.93
   7   5  14   26.17    6.05
   7   5  15   -3.33    5.18
   7   5  15    0.45    4.16
   7  -5  15    2.15    4.91
   7   5  16    3.02    5.85
   7   5  16    0.33    5.09
   7  -5  16   10.81    6.83
   7   6 -15   29.65   11.95
   7   6 -15   33.44    5.70
  -7  -6  15   40.01   12.27
  -7   6  15   26.45    7.65
  -7   6  15   26.81   10.80
   7   6 -14   -4.25    2.94
   7   6 -14    4.42    5.99
  -7  -6  14   -2.59    3.82
  -7   6  14    7.82    5.51
  -7   6  14    2.83    3.93
   7   6 -13   -5.77    5.11
   7   6 -13    0.94    2.74
  -7  -6  13    0.03    3.27
  -7   6  13   -0.41    3.47
  -7   6  13    3.60    5.03
   7   6 -12   14.55    7.36
   7   6 -12   12.08    4.10
  -7  -6  12   24.91    4.85
  -7   6  12   15.04    7.20
   7   6 -11  117.41    8.97
   7   6 -11   93.98   14.40
  -7  -6  11  105.78    9.88
  -7   6  11  124.33   14.75
   7   6 -10  146.33   15.89
   7   6 -10  151.41   10.30
  -7  -6  10  178.09   18.13
  -7   6  10  164.92   16.86
   7   6  -9   59.25    8.71
   7   6  -9   51.63    5.37
  -7  -6   9   58.25    6.41
  -7   6   9   50.46    8.86
   7   6  -8  154.87   21.91
   7   6  -8  137.57    9.23
  -7  -6   8  163.14   10.54
  -7   6   8  148.94   14.25
   7   6  -7  158.64   13.67
  -7  -6   7  166.93   10.80
  -7   6   7  162.88   21.79
   7   6  -6  318.82   21.14
  -7   6   6  344.68   22.72
   7   6  -5  384.19   22.69
  -7  -6   5  391.76   19.68
  -7   6   5  386.61   23.53
   7   6  -4    3.33    3.08
   7  -6  -4    5.68    1.55
  -7  -6   4   12.10    4.16
  -7   6   4   15.01    3.13
   7   6  -3   45.77    4.62
   7  -6  -3   42.18    2.12
  -7  -6   3   45.45    3.95
  -7   6   3   38.57    4.73
   7   6  -2   73.37    9.06
   7  -6  -2   67.50    3.02
  -7  -6   2   72.02    4.70
  -7   6   2   75.61    5.47
   7   6  -1    4.60    2.44
   7  -6  -1    1.98    1.35
  -7  -6   1    5.62    1.90
  -7   6   1    2.30    2.16
   7   6   0  725.33   36.42
   7  -6   0  743.87   31.34
  -7  -6   0  745.95   33.78
  -7   6   0  737.48   34.87
   7   6   1  182.54    9.20
   7  -6   1  172.94    7.59
  -7  -6  -1  161.82   11.07
  -7   6  -1  160.66    7.31
   7   6   2   97.09    5.83
   7  -6   2   91.73    8.11
  -7  -6  -2   93.23    5.07
  -7   6  -2   92.67    4.14
  -7   6  -2   89.73    4.89
   7  -6   3  334.72   20.92
   7   6   3  323.45   14.92
  -7   6  -3  328.51   10.59
  -7  -6  -3  307.59   13.31
  -7   6  -3  330.26    9.66
   7  -6   4    2.35    2.53
   7   6   4    5.63    2.25
  -7  -6  -4    4.36    1.85
  -7   6  -4    5.32    1.40
  -7   6  -4    5.01    1.11
   7   6   5   86.66    5.33
   7  -6   5   99.21    6.54
  -7  -6  -5   76.29    4.69
  -7   6  -5   71.74    1.23
  -7   6  -5   80.07    1.32
   7   6   6  132.96    7.49
   7  -6   6  137.93    9.83
  -7  -6  -6  131.29    6.83
   7  -6   7   49.11    5.54
   7   6   7   32.50    3.95
  -7  -6  -7   33.42    5.64
   7   6   8    4.77    4.12
   7  -6   8    2.72    3.66
  -7  -6  -8    6.04    2.26
   7  -6   9  203.46   25.77
   7   6   9  208.74   11.94
  -7  -6  -9  212.29   11.07
   7   6  10   90.41    7.57
   7  -6  10  107.05   11.47
  -7  -6 -10  106.11    7.00
   7   6  11   56.74    9.50
   7  -6  11   60.20    8.76
  -7  -6 -11   56.50    5.54
   7   6  12   21.79    7.18
   7  -6  12   20.80    6.45
   7   6  13   46.07    6.17
   7   6  13   43.97    7.28
   7  -6  13   44.38    9.22
   7   6  14   53.85    6.51
   7  -6  14   67.91   11.11
   7   6  15    2.97    6.89
   7   6  15    1.83    5.61
   7  -6  15   10.72    6.08
   7   7 -15   17.90    9.51
   7   7 -15   19.55    5.13
  -7  -7  15   17.37    6.15
  -7   7  15    6.67    6.53
  -7   7  15   17.31    9.26
   7   7 -14    2.79    3.58
   7   7 -14    5.86    7.01
  -7  -7  14    5.02    4.47
  -7   7  14    3.86    6.57
   7   7 -13   36.82   10.42
   7   7 -13   42.31    5.87
  -7  -7  13   33.78    6.89
  -7   7  13   37.46    7.33
  -7   7  13   22.00   16.83
   7   7 -12   30.59    8.91
   7   7 -12   27.65    5.19
  -7  -7  12   37.23    6.04
  -7   7  12   29.15    6.51
  -7   7  12   38.13    9.57
   7   7 -11   22.82    4.66
   7   7 -11   20.78    7.42
  -7  -7  11   24.37    5.21
  -7   7  11   27.93    5.63
  -7   7  11   23.38    8.05
   7   7 -10   33.10   14.44
   7   7 -10   49.23    5.48
  -7  -7  10   56.47    6.41
  -7   7  10   38.06    7.23
  -7   7  10   50.92    9.57
   7   7  -9   12.83    5.78
   7   7  -9   18.18    3.66
  -7   7   9   16.68    6.39
   7   7  -8   69.09   10.74
   7   7  -8   89.68    7.47
  -7  -7   8  107.59    7.87
  -7   7   8  103.48   11.59
   7   7  -7    7.35    4.00
  -7  -7   7    5.49    3.00
  -7   7   7    4.58    4.33
   7   7  -6   14.41    4.50
  -7  -7   6   14.52    5.52
  -7   7   6   15.78    4.78
   7   7  -5   68.58   11.68
  -7  -7   5   76.16    6.01
  -7   7   5   78.98   12.75
   7   7  -4   56.98    5.67
   7  -7  -4   46.24    3.42
  -7  -7   4   55.90    7.44
  -7   7   4   51.72   10.29
   7   7  -3   50.93    5.43
   7  -7  -3   53.48    2.75
  -7  -7   3   45.25    4.49
  -7   7   3   53.21    5.64
   7   7  -2   -0.05    2.55
   7  -7  -2    2.49    2.35
  -7  -7   2    3.93    2.04
  -7   7   2    3.19    2.54
   7   7  -1   67.13    5.61
   7  -7  -1   60.61    3.75
  -7  -7   1   77.46    7.33
  -7   7   1   56.49    8.44
  -7   7   1   62.98    3.98
   7   7   0   97.40    6.74
   7  -7   0   86.89    4.84
  -7  -7   0   97.87    5.62
  -7   7   0   96.53    5.81
  -7   7   0   86.84    4.42
   7  -7   1   40.06    3.45
   7   7   1   38.47    6.63
  -7   7  -1   36.51    3.27
  -7  -7  -1   34.50    3.47
  -7   7  -1   35.30    2.44
   7   7   2  314.65   15.95
   7  -7   2  337.35   15.78
  -7  -7  -2  320.85   14.35
  -7   7  -2  303.41   16.57
  -7   7  -2  331.96   11.10
   7   7   3   20.12    3.30
   7  -7   3   19.82    3.32
  -7  -7  -3   17.59    2.72
  -7   7  -3   17.11    3.05
  -7   7  -3   23.66    2.44
   7   7   4   12.65    2.95
   7  -7   4   11.92    3.32
  -7  -7  -4   11.96    2.51
  -7   7  -4   14.44    1.31
  -7   7  -4   14.79    1.07
   7   7   5  172.78   10.19
   7  -7   5  197.02   11.92
  -7  -7  -5  185.32   12.95
  -7   7  -5  179.28    4.16
   7  -7   6   54.87    5.85
   7   7   6   37.40    4.55
  -7  -7  -6   49.53    6.49
   7   7   7   86.03    6.84
   7  -7   7   93.45    9.30
  -7  -7  -7   94.88    6.24
   7   7   8   19.53    4.01
   7  -7   8   26.56    5.49
  -7  -7  -8   28.18    3.52
   7   7   9   92.42    7.76
   7  -7   9  107.07   11.39
  -7  -7  -9  103.89    7.06
   7  -7  10    7.52    8.73
   7   7  10   12.45    3.49
  -7  -7 -10    9.62    3.13
   7  -7  11   31.09    6.72
   7   7  11   24.26    7.43
  -7  -7 -11   18.37    4.10
   7  -7  12   -1.24    4.26
   7   7  12    1.87    4.75
   7   7  13    9.75    4.28
   7  -7  13   13.90    6.20
   7   7  14   10.81    4.10
   7   7  15   -7.38    3.75
   7  -7  15   -0.72    7.05
   7   8 -15    0.13    7.57
   7   8 -15    7.58    7.25
  -7  -8  15    6.11    5.02
  -7   8  15   -0.98    7.92
  -7   8  15   12.45    5.67
   7   8 -14    6.46    4.02
   7   8 -14    8.52    6.85
  -7  -8  14    3.68    4.29
  -7   8  14   -0.31    4.86
   7   8 -13   36.92   15.09
   7   8 -13   31.93    5.62
  -7  -8  13   35.28    6.28
  -7   8  13   17.53   10.34
  -7   8  13   17.80    6.84
   7   8 -12    4.91    6.30
   7   8 -12   11.21    3.73
  -7  -8  12    6.54    3.92
  -7   8  12   -4.99    6.53
  -7   8  12    6.28    4.65
   7   8 -11   13.01    3.90
   7   8 -11   15.54    6.21
  -7  -8  11    9.40    4.23
  -7   8  11    4.05   11.10
   7   8 -10    6.84    6.48
   7   8 -10   17.07    3.99
  -7  -8  10   15.83    4.34
  -7   8  10   20.90    4.82
  -7   8  10   23.24    7.21
   7   8  -9   61.67    6.69
   7   8  -9   72.28   10.16
  -7  -8   9   75.28    7.14
  -7   8   9   56.33    8.37
  -7   8   9  104.22   11.09
   7   8  -8   38.10   11.43
   7   8  -8   27.43    4.90
  -7  -8   8   44.93    5.04
  -7   8   8   46.05    7.87
  -7   8   8   29.15    5.82
   7   8  -7    2.56    4.05
  -7  -8   7    5.25    2.95
  -7   8   7    5.16    3.23
  -7   8   7   -1.79    7.48
   7   8  -6   54.20    7.04
  -7  -8   6   37.17    5.26
  -7   8   6   50.05    7.68
  -7   8   6   57.73    5.45
   7   8  -5   17.44    4.70
  -7  -8   5   24.65    3.67
  -7   8   5   20.96    5.56
  -7   8   5   21.08    3.78
   7   8  -4    8.35    3.75
  -7  -8   4   14.72    3.01
  -7   8   4    7.64    4.20
  -7   8   4   11.33    2.86
   7   8  -3  125.97    9.78
   7  -8  -3  140.59    7.99
  -7  -8   3  120.46    7.87
  -7   8   3  132.23   10.24
  -7   8   3  115.72    7.37
   7   8  -2   38.04    8.39
   7  -8  -2   50.04    3.29
  -7  -8   2   51.63    7.02
  -7   8   2   46.83    5.34
  -7   8   2   39.23    3.89
   7   8  -1   27.94    4.00
   7  -8  -1   23.38    2.77
  -7  -8   1   21.86    3.31
  -7   8   1   24.45    3.78
  -7   8   1   19.71    2.67
   7   8   0   42.44    4.63
   7  -8   0   37.07    5.79
  -7  -8   0   33.51    3.63
  -7   8   0   30.88    3.99
  -7   8   0   28.25    2.89
   7   8   1    1.52    2.27
   7  -8   1    0.80    1.90
  -7  -8  -1    3.12    1.91
  -7   8  -1   -2.64    1.88
  -7   8  -1   -1.83    2.15
   7   8   2   77.41    6.18
   7  -8   2   77.12    5.99
  -7  -8  -2   80.52    5.30
  -7   8  -2   71.25    7.24
  -7   8  -2   69.64    5.45
   7   8   3   55.94    5.61
   7  -8   3   61.63    5.62
  -7  -8  -3   59.44    4.73
  -7   8  -3   53.84    3.52
  -7   8  -3   64.12    2.81
  -7   8  -3   67.12    4.45
   7   8   4   64.22    5.59
   7  -8   4   65.18    6.18
  -7   8  -4   60.83    3.57
  -7  -8  -4   61.13    4.85
  -7   8  -4   60.23    2.86
  -7   8  -4   67.37    4.88
   7  -8   5  129.18    9.96
   7   8   5  113.80   13.29
  -7  -8  -5  134.37    7.42
  -7   8  -5  126.41    2.97
   7   8   6   14.66    3.24
   7  -8   6   10.95    4.16
  -7  -8  -6   11.66    2.97
   7  -8   7   26.42    5.58
   7   8   7   23.03    4.14
  -7  -8  -7   22.91    3.70
   7  -8   8  178.21   15.42
   7   8   8  170.99   11.73
  -7  -8  -8  179.85   10.49
   7  -8   9    0.51    4.06
   7   8   9   -0.03    2.89
  -7  -8  -9    3.30    2.47
   7   8  10   22.66    4.82
   7  -8  10   18.22    6.79
  -7  -8 -10   30.63    4.21
   7   8  11   71.65   12.08
   7  -8  11   68.16   10.46
  -7  -8 -11   60.62    6.64
   7   8  12    4.26    6.50
   7  -8  12    9.43    6.09
   7   8  13    4.29    3.86
   7  -8  13    1.46    5.75
   7   8  14   15.17    4.76
   7  -8  14   17.31    8.22
   7   8  15   26.66    9.53
   7   9 -14    7.44    7.22
   7   9 -14   13.09    7.37
  -7  -9  14    4.70    4.52
  -7   9  14    6.62    7.84
  -7   9  14    2.61    5.55
   7   9 -13    7.50    7.95
   7   9 -13    6.12    4.90
  -7  -9  13   19.59    4.88
  -7   9  13   21.36    8.56
   7   9 -12  113.21   16.33
   7   9 -12  119.25   10.20
  -7  -9  12  124.51   11.15
  -7   9  12   88.39   12.73
   7   9 -11    4.72    3.82
   7   9 -11   10.29   10.05
  -7  -9  11    9.56    3.93
  -7   9  11    4.99    6.85
  -7   9  11   12.70    4.66
   7   9 -10    4.11    5.41
   7   9 -10    3.70    3.34
  -7  -9  10    2.88    3.52
  -7   9  10   17.36    6.10
  -7   9  10    7.72    4.04
   7   9  -9    6.91    3.36
   7   9  -9    9.96    5.07
  -7  -9   9    0.91    3.39
  -7   9   9    7.06    9.19
  -7   9   9    9.14    3.89
   7   9  -8  151.51   14.86
   7   9  -8  171.35   17.16
  -7  -9   8  158.30   16.63
  -7   9   8  157.97   17.60
  -7   9   8  133.13   12.36
   7   9  -7   27.94    4.56
   7   9  -7   18.19    5.92
  -7  -9   7   27.22    4.30
  -7   9   7   23.13    7.06
  -7   9   7   24.02    4.73
   7   9  -6  105.74   10.70
  -7  -9   6  123.20    8.64
  -7   9   6  121.27   12.60
  -7   9   6  110.66    9.24
   7   9  -5   12.24    7.74
  -7  -9   5   23.91    3.54
  -7   9   5   12.62    8.69
  -7   9   5   13.30    3.80
   7   9  -4   -2.35    2.94
  -7  -9   4    0.47    2.24
  -7   9   4   -0.22    3.52
  -7   9   4   -0.91    2.29
   7   9  -3   14.52    3.81
  -7  -9   3   11.50    2.83
  -7   9   3    6.96    4.28
  -7   9   3    5.26    2.76
   7   9  -2   71.89    7.62
   7  -9  -2   80.76    7.65
  -7  -9   2   84.01    6.07
  -7   9   2   86.08    7.99
  -7   9   2   62.68    5.53
   7   9  -1  393.45   23.15
   7  -9  -1  375.62   24.87
  -7  -9   1  389.53   19.55
  -7   9   1  386.73   22.91
  -7   9   1  396.03   18.16
   7   9   0  105.22   11.86
   7  -9   0   70.09    5.83
  -7  -9   0   82.62    6.05
  -7   9   0   78.97    6.51
  -7   9   0   74.03    4.86
  -7   9   0   74.65    4.28
   7   9   1   93.57    8.19
   7  -9   1  106.90    7.33
  -7  -9  -1  100.61   10.73
  -7   9  -1   82.21    6.88
  -7   9  -1  102.13    7.97
  -7   9  -1  102.65    5.59
   7   9   2  263.86   15.96
   7  -9   2  298.00   16.37
  -7  -9  -2  271.12   14.30
  -7   9  -2  251.97   18.42
  -7   9  -2  275.68   10.86
  -7   9  -2  280.88   12.59
   7   9   3   63.61    5.99
   7  -9   3   54.15    6.26
  -7  -9  -3   49.68    4.99
  -7   9  -3   53.63    3.93
  -7   9  -3   53.27    3.05
  -7   9  -3   58.38    4.54
   7   9   4   94.82    7.61
   7  -9   4  116.37   13.78
  -7   9  -4   83.93    4.22
  -7  -9  -4   97.78    6.44
  -7   9  -4   92.49    3.55
  -7   9  -4   82.81    6.31
   7   9   5   82.25   11.08
   7  -9   5   75.82   12.77
  -7  -9  -5   74.80    5.72
  -7   9  -5   85.43    3.77
  -7   9  -5   70.57    3.06
  -7   9  -5   78.37    6.05
   7   9   6  122.14    8.91
   7  -9   6  141.53   16.83
  -7  -9  -6  125.57    7.60
  -7   9  -6  106.56    1.81
  -7   9  -6  110.66    2.62
  -7   9  -6  121.38    7.98
   7   9   7  115.92    9.72
   7  -9   7  142.85   19.30
  -7  -9  -7  135.18    8.82
  -7   9  -7  126.05    9.23
   7   9   8  108.47    9.40
   7  -9   8  131.29   20.43
  -7  -9  -8  108.24    8.04
   7   9   9   42.28    5.78
   7  -9   9   42.33    8.11
  -7  -9  -9   33.48    4.92
   7   9  10   14.18    5.00
   7  -9  10   21.20    7.11
  -7  -9 -10   24.05    4.19
   7   9  11   12.62    4.63
   7  -9  11   16.83    6.99
  -7  -9 -11   14.42    6.83
   7   9  12    5.83    7.62
   7  -9  12   15.02    6.77
   7   9  13    2.73    6.49
   7  -9  13    0.56    5.92
   7   9  14    7.39    7.24
   7  10 -14   12.20   13.72
   7  10 -14    9.81    8.93
  -7 -10  14    7.52    8.42
  -7  10  14   11.71    9.34
  -7  10  14   13.41    6.42
   7  10 -13   11.39    6.98
   7  10 -13    6.12    4.39
  -7 -10  13    8.43    7.02
  -7  10  13    1.12    4.78
   7  10 -12    4.28    5.95
   7  10 -12   -1.20    3.56
  -7 -10  12    2.13    6.20
  -7  10  12    7.89    4.67
  -7  10  12    7.10    6.73
   7  10 -11   15.20    4.48
   7  10 -11    8.78    7.05
  -7 -10  11   12.06    4.58
  -7  10  11   14.02    5.51
  -7  10  11   12.04    7.97
   7  10 -10   24.80    5.55
   7  10 -10   19.38    8.41
  -7 -10  10   39.33    5.54
  -7  10  10   39.08    6.67
  -7  10  10   44.11   16.26
   7  10  -9    1.27    5.71
   7  10  -9    3.14    8.04
  -7 -10   9    5.20    3.33
  -7  10   9    2.59    5.95
  -7  10   9    8.44    6.39
   7  10  -8   94.41   11.73
   7  10  -8   93.07    8.63
  -7 -10   8   97.47    8.43
  -7  10   8  100.13   13.68
  -7  10   8   86.53   15.59
   7  10  -7  173.37   13.54
   7  10  -7  170.83   16.13
  -7 -10   7  185.47   12.17
  -7  10   7  206.93   19.27
  -7  10   7  188.74   20.91
   7  10  -6   10.78    4.89
  -7 -10   6   13.08    3.65
  -7  10   6   14.00    6.06
  -7  10   6   17.95    4.22
   7  10  -5  152.81   11.91
  -7 -10   5  169.47   15.18
  -7  10   5  136.51   14.78
  -7  10   5  130.04   10.54
   7  10  -4   18.75    4.65
  -7 -10   4   16.33    3.62
  -7  10   4   13.81    5.30
  -7  10   4   13.84    3.75
   7  10  -3  273.93   25.45
  -7 -10   3  243.51   20.05
  -7  10   3  241.10   18.70
  -7  10   3  213.65   13.11
   7  10  -2  100.55    9.05
  -7 -10   2   91.73    7.02
  -7  10   2   93.85    9.80
  -7  10   2   88.22    6.68
  -7  10   2   93.11    4.43
   7  10  -1    9.25    4.26
   7 -10  -1   13.26    5.19
  -7 -10   1   13.29    3.23
  -7  10   1   13.18    6.64
  -7  10   1   13.08    2.90
  -7  10   1   12.41    2.06
   7  10   0   34.00    5.45
   7 -10   0   32.40    4.70
  -7 -10   0   32.93    4.30
  -7  10   0   34.12    7.95
  -7  10   0   33.45    3.64
  -7  10   0   33.63    5.12
   7  10   1   15.04    4.47
   7 -10   1   14.09    3.89
  -7 -10  -1   22.58    3.48
  -7  10  -1   18.93    3.76
  -7  10  -1   16.42    2.68
  -7  10  -1   18.64    4.46
   7  10   2   27.67    4.99
   7 -10   2   35.13    4.98
  -7 -10  -2   26.89    4.14
  -7  10  -2   25.47    4.13
  -7  10  -2   35.20    2.99
  -7  10  -2   35.61    5.57
   7  10   3   46.09   10.03
   7 -10   3   60.62    6.67
  -7 -10  -3   49.82    5.09
  -7  10  -3   48.60    4.59
  -7  10  -3   58.75    7.28
  -7  10  -3   55.38    3.33
   7  10   4    1.11    2.97
   7 -10   4    7.52    5.47
  -7 -10  -4    1.68    3.94
  -7  10  -4    1.39    2.81
  -7  10  -4    1.74    1.31
  -7  10  -4    0.87    3.63
   7  10   5   22.72    6.97
   7 -10   5   24.63    5.39
  -7 -10  -5   18.89    3.55
  -7  10  -5   19.69    3.15
  -7  10  -5   16.91    2.64
  -7  10  -5   18.11    3.58
   7  10   6   55.13    7.00
   7 -10   6   58.05    8.67
  -7 -10  -6   73.21    5.89
  -7  10  -6   60.63    2.93
  -7  10  -6   58.48    5.98
   7  10   7   28.95    5.09
   7 -10   7   30.99    6.81
  -7 -10  -7   27.25    4.39
  -7  10  -7   27.43    4.60
   7 -10   8   23.34    7.07
   7  10   8   20.29    5.18
  -7 -10  -8   22.96    4.37
  -7  10  -8   30.86    4.75
   7  10   9   24.34    5.75
   7 -10   9   39.67    7.86
  -7 -10  -9   33.85    4.92
  -7  10  -9   25.25    5.24
   7  10  10    5.13    3.84
  -7 -10 -10    1.65    3.20
   7  10  11   55.21    7.91
   7 -10  11   44.74   11.01
  -7 -10 -11   50.81   10.77
   7  10  12   11.28    8.11
   7 -10  12    3.26    6.96
  -7 -10 -12    9.88    4.63
   7  10  13    9.64    9.00
   7 -10  13   11.35    7.10
   7 -10  14   13.81    9.01
   7  11 -13    1.50    5.89
   7  11 -13    4.59    5.84
  -7 -11  13   -0.18    3.64
  -7  11  13   -4.66    7.18
  -7  11  13    0.16    4.26
   7  11 -12   -0.45    3.64
   7  11 -12    5.05    9.86
  -7 -11  12    3.12    3.76
  -7  11  12    7.72    6.96
   7  11 -11    4.92    3.83
   7  11 -11    3.83    5.92
  -7 -11  11    1.36    6.15
  -7  11  11    0.52    4.46
   7  11 -10  142.96   12.72
   7  11 -10  161.97   18.34
  -7 -11  10  164.17   12.85
  -7  11  10  123.91   14.78
  -7  11  10  170.67   22.05
   7  11  -9   -1.58    6.10
   7  11  -9    6.73    5.18
  -7 -11   9    3.57    3.48
  -7  11   9    5.19    6.44
  -7  11   9    9.31    4.20
   7  11  -8    2.81    4.21
   7  11  -8    2.17    3.33
  -7 -11   8   -0.07    3.03
  -7  11   8   11.72    5.45
  -7  11   8   -0.41    3.64
   7  11  -7    5.11    4.24
   7  11  -7   10.92    7.64
  -7 -11   7    5.80    5.92
  -7  11   7    9.99    6.17
  -7  11   7   12.34    4.32
   7  11  -6  170.08   15.13
  -7 -11   6  184.98   12.15
  -7  11   6  200.06   19.00
  -7  11   6  149.74   13.31
   7  11  -5   17.47    5.37
  -7 -11   5   29.51    4.34
  -7  11   5   17.52    6.90
  -7  11   5   14.14    7.71
   7  11  -4   67.30    8.17
  -7 -11   4   62.42    6.30
  -7  11   4   74.74    9.47
  -7  11   4   51.20    6.74
   7  11  -3    9.63    3.96
  -7 -11   3    8.60    3.05
  -7  11   3    5.02    8.12
  -7  11   3    4.82    3.03
  -7  11   3    4.67    1.62
   7  11  -2   15.15    4.26
  -7 -11   2    9.96    3.30
  -7  11   2   16.52    5.13
  -7  11   2    7.28    5.19
  -7  11   2    7.44    1.96
   7  11  -1   31.11    5.72
  -7 -11   1   27.33    4.26
  -7  11   1   34.50    6.45
  -7  11   1   33.10    3.93
  -7  11   1   21.81    2.79
   7  11   0  263.18   18.38
   7 -11   0  277.93   16.82
  -7 -11   0  250.99   15.10
  -7  11   0  263.67   19.38
  -7  11   0  247.43   13.45
  -7  11   0  280.77   12.13
   7  11   1   52.59    7.10
   7 -11   1   61.26    6.59
  -7 -11  -1   53.74    5.59
  -7  11  -1   65.67    6.73
  -7  11  -1   58.72    7.06
  -7  11  -1   41.35    4.29
   7  11   2   48.70    6.63
   7 -11   2   48.36    6.73
  -7 -11  -2   46.48    5.39
  -7  11  -2   43.77    5.88
  -7  11  -2   51.78    3.97
  -7  11  -2   50.12    4.40
   7  11   3   42.41    9.88
   7 -11   3   42.66   10.66
  -7 -11  -3   40.19    5.09
  -7  11  -3   42.92    8.17
  -7  11  -3   42.12    3.41
  -7  11  -3   44.86    4.38
   7  11   4  114.50   10.84
   7 -11   4  141.03   12.05
  -7 -11  -4  123.94    8.86
  -7  11  -4  116.45    7.28
  -7  11  -4  127.69    5.67
  -7  11  -4  142.09    8.36
   7  11   5   81.51   13.28
   7 -11   5   97.51    9.96
  -7 -11  -5   82.25    7.21
  -7  11  -5   78.24    7.22
  -7  11  -5   80.86    3.87
  -7  11  -5   79.01    6.76
   7  11   6   28.71    5.42
   7 -11   6   29.60    6.64
  -7 -11  -6   31.96    7.20
  -7  11  -6   27.76    1.72
  -7  11  -6   24.45    1.98
  -7  11  -6   29.73    7.14
   7  11   7   11.35    4.95
   7 -11   7   22.02    6.24
  -7 -11  -7   18.51    4.08
  -7  11  -7   18.38    4.12
   7  11   8   62.40   13.09
   7 -11   8   74.53   10.40
  -7 -11  -8   58.34    7.16
  -7  11  -8   69.76    7.11
   7  11   9   72.85    9.62
   7 -11   9   88.68   12.32
  -7 -11  -9   80.97    8.08
  -7  11  -9   77.34    8.51
   7 -11  10    2.86    6.47
   7  11  10   10.35    4.84
  -7 -11 -10    9.71    3.99
  -7  11 -10   10.03    4.23
   7  11  11   18.72    6.12
   7 -11  11   13.10    8.29
  -7 -11 -11   26.63    8.28
   7  11  12   -1.28    4.49
   7 -11  12    7.15    6.32
  -7 -11 -12    3.65    4.17
   7  11  13   13.51    6.13
   7  12 -12    3.61    4.95
   7  12 -12    6.94    8.18
  -7 -12  12   17.46    4.89
  -7  12  12   18.99    5.83
   7  12 -11    2.75    4.62
   7  12 -11   19.65    6.88
  -7 -12  11    6.36    4.29
  -7  12  11   10.77    8.16
  -7  12  11    8.76    5.51
   7  12 -10    5.21    7.16
   7  12 -10    7.33   10.38
  -7 -12  10   -0.10    6.75
  -7  12  10   12.73    7.59
  -7  12  10    8.91    5.09
   7  12  -9   31.84    6.65
   7  12  -9   38.12    8.96
  -7 -12   9   37.26    6.25
  -7  12   9   57.57   11.15
  -7  12   9   36.77    7.54
   7  12  -8   20.28    7.36
   7  12  -8   32.12    6.15
  -7 -12   8   21.01    5.29
  -7  12   8   43.12    9.69
  -7  12   8   32.87    6.31
   7  12  -7   23.60    5.62
   7  12  -7   21.86    6.08
  -7 -12   7   14.96    4.56
  -7  12   7   17.24    8.26
  -7  12   7   21.89    5.50
   7  12  -6   14.85    5.23
   7  12  -6   14.02    5.38
  -7 -12   6   18.77    6.81
  -7  12   6   10.43    6.91
  -7  12   6   15.35    4.94
   7  12  -5   15.21    5.11
  -7 -12   5   19.09    4.04
  -7  12   5   13.28   10.63
  -7  12   5    5.92    4.49
   7  12  -4   32.63    7.33
  -7 -12   4   37.33    5.52
  -7  12   4   36.52    9.67
  -7  12   4   37.47    9.64
  -7  12   4   44.76    2.87
   7  12  -3   33.92    6.70
  -7 -12   3   41.54    5.40
  -7  12   3   34.30    8.65
  -7  12   3   30.09    5.46
  -7  12   3   40.54    3.07
   7  12  -2   10.56    6.90
  -7 -12   2    2.32    3.24
  -7  12   2    4.22    5.06
  -7  12   2    6.62    3.16
  -7  12   2    6.95    1.94
   7  12  -1   12.88    4.77
  -7 -12   1    7.58    3.54
  -7  12   1   15.96    5.60
  -7  12   1    7.87    3.44
  -7  12   1   15.01    2.48
   7  12   0   22.77    5.32
  -7 -12   0   27.43    7.11
  -7  12   0   12.59    5.84
  -7  12   0   16.11    5.93
  -7  12   0   24.93    3.20
   7  12   1   13.16    7.28
   7 -12   1    9.73    4.34
  -7 -12  -1   11.45    3.63
  -7  12  -1    6.01    4.63
  -7  12  -1   13.44    4.45
  -7  12  -1    9.26    2.63
   7  12   2   25.76    5.83
   7 -12   2   26.65    6.20
  -7 -12  -2   26.27    4.83
  -7  12  -2   31.58    5.40
  -7  12  -2   36.50    3.91
  -7  12  -2   26.86    5.74
   7  12   3   29.26    9.71
   7 -12   3   52.52    6.98
  -7  12  -3   31.13    5.36
  -7  12  -3   33.70    3.53
  -7  12  -3   37.51    4.34
   7  12   4   55.00    8.26
   7 -12   4   86.44    9.70
  -7 -12  -4   56.56    6.87
  -7  12  -4   69.82    6.59
  -7  12  -4   66.52    4.47
  -7  12  -4   81.85    6.20
   7  12   5   32.47    8.38
   7 -12   5   16.95    6.39
  -7 -12  -5   26.36    4.34
  -7  12  -5   15.72    3.07
  -7  12  -5   17.43    3.77
  -7  12  -5   21.83    4.06
   7  12   6    7.65    3.68
   7 -12   6   11.99    4.94
  -7 -12  -6    6.43    3.18
  -7  12  -6    1.89    1.49
  -7  12  -6    2.00    1.75
  -7  12  -6    7.17    3.07
   7  12   7   21.75    4.80
   7 -12   7   24.49    6.23
  -7 -12  -7   23.96    6.65
  -7  12  -7   16.02    1.10
  -7  12  -7   -0.17    1.95
   7  12   8   17.33   10.15
   7 -12   8   15.03    7.88
  -7 -12  -8   32.50    5.13
  -7  12  -8   24.01    5.10
   7  12   9    5.13    4.14
   7 -12   9    3.41    5.47
  -7 -12  -9   -1.83    3.49
  -7  12  -9    4.83    3.53
   7  12  10    4.14    4.99
   7 -12  10    5.58    6.77
  -7 -12 -10    5.09    4.06
  -7  12 -10   12.59    4.37
   7  12  11   -2.07    4.75
   7 -12  11    4.37    6.40
  -7 -12 -11    8.44    6.32
   7  12  12    3.77    5.28
   7 -12  12   13.30    6.81
  -7 -12 -12    2.45    4.52
   7  13 -12   -3.99    3.90
   7  13 -12    1.09    6.45
  -7 -13  12   -0.28    3.85
  -7  13  12    4.07   13.10
  -7  13  12    0.47    4.43
   7  13 -11   -1.74    4.39
   7  13 -11    4.51    6.33
  -7 -13  11    4.60    4.02
  -7  13  11    3.76    7.65
  -7  13  11    5.04    7.47
   7  13 -10   54.46   16.92
   7  13 -10   89.28   14.20
  -7 -13  10  102.18   10.07
  -7  13  10   45.20   18.98
  -7  13  10   92.72   17.57
   7  13  -9   -1.23    3.96
   7  13  -9   -7.08    8.34
  -7 -13   9    5.92    3.58
  -7  13   9    5.61   10.89
  -7  13   9   -1.56    7.12
   7  13  -8   11.08    5.99
   7  13  -8   12.37    5.12
  -7 -13   8    9.83    4.33
  -7  13   8    4.73    7.74
  -7  13   8    9.37    5.30
   7  13  -7   -1.83    9.40
   7  13  -7   21.68    6.10
  -7 -13   7   12.75    4.63
  -7  13   7   18.23    8.31
  -7  13   7   21.03    5.47
   7  13  -6   32.05    6.83
   7  13  -6   20.39    6.21
  -7 -13   6   23.08    5.12
  -7  13   6   31.66    8.53
  -7  13   6   22.41    5.86
   7  13  -5   30.76   10.80
  -7 -13   5   28.26    5.22
  -7  13   5   35.60    9.50
  -7  13   5   23.27    6.01
   7  13  -4   30.16    7.04
  -7 -13   4   47.31    5.65
  -7  13   4   23.75    9.58
  -7  13   4   29.47    5.97
  -7  13   4   32.32    2.97
   7  13  -3    6.99    4.03
  -7 -13   3    2.70    5.04
  -7  13   3    3.04    5.22
  -7  13   3    1.05    3.21
  -7  13   3    0.95    1.75
   7  13  -2   15.52    5.67
  -7 -13   2   17.05    4.45
  -7  13   2   16.84    4.34
  -7  13   2   23.69    6.98
  -7  13   2   16.74    2.86
   7  13  -1   16.75    5.91
  -7 -13   1   17.32    7.19
  -7  13   1   23.03    4.19
  -7  13   1   16.01    6.76
  -7  13   1   20.84    3.21
   7  13   0  109.27   11.58
  -7 -13   0  107.14    9.48
  -7  13   0  114.78   13.63
  -7  13   0  110.64    8.76
  -7  13   0  110.93   11.52
   7  13   1   15.82    7.68
  -7 -13  -1    8.02    3.86
  -7  13  -1    5.63    4.89
  -7  13  -1   11.76    3.18
  -7  13  -1    9.31    4.95
   7  13   2    6.24    4.57
   7 -13   2   10.67    4.77
  -7 -13  -2    5.40    3.78
  -7  13  -2    7.01    4.27
  -7  13  -2    7.56    2.78
  -7  13  -2   10.69    4.83
   7  13   3    7.61    5.35
   7 -13   3   -3.17    3.86
  -7 -13  -3   -5.96    2.86
  -7  13  -3    3.57    3.07
  -7  13  -3   -0.35    3.20
  -7  13  -3    1.91    2.35
   7  13   4   57.82    7.84
   7 -13   4   65.64    9.93
  -7 -13  -4   77.01   11.13
  -7  13  -4   49.99    6.76
  -7  13  -4   64.02    6.12
  -7  13  -4   55.17    4.55
   7  13   5   98.55   10.26
   7 -13   5  100.11   21.27
  -7 -13  -5   91.50    8.91
  -7  13  -5   93.56    7.67
  -7  13  -5   92.34    5.55
  -7  13  -5   92.77    8.18
   7  13   6   32.12    6.05
   7 -13   6   34.43   12.84
  -7 -13  -6   39.18    5.61
  -7  13  -6   16.01    3.47
  -7  13  -6   35.75    3.11
  -7  13  -6   28.84    5.13
   7  13   7    2.74    4.20
   7 -13   7    2.35    5.55
  -7 -13  -7    4.56    3.73
  -7  13  -7    4.45    1.34
  -7  13  -7    3.22    2.44
  -7  13  -7    6.72    3.45
   7  13   8   28.35    7.00
   7 -13   8   36.62    9.56
  -7 -13  -8   35.30    6.17
  -7  13  -8   32.21    9.38
   7 -13   9   53.23   11.78
  -7 -13  -9   62.13    7.59
  -7  13  -9   40.19    7.23
   7  13  10    0.00    5.12
   7 -13  10   -4.18    6.97
  -7 -13 -10    4.42    4.13
  -7  13 -10   10.89    4.18
   7  13  11   51.84    9.80
   7 -13  11   42.08   11.84
  -7 -13 -11   31.51   13.10
  -7  13 -11   50.65    7.99
   7  13  12    3.89    5.97
  -7 -13 -12    9.24    5.02
   7  14 -11    5.12    5.45
   7  14 -11    4.31    7.51
  -7 -14  11    4.77    4.70
  -7  14  11   14.40    9.81
  -7  14  11   13.89    5.55
   7  14 -10   33.40    7.27
   7  14 -10   19.34    9.64
  -7 -14  10   37.00    6.38
  -7  14  10   23.94   12.26
  -7  14  10   22.49    8.62
   7  14  -9   33.40    7.77
   7  14  -9   27.78    9.37
  -7 -14   9   37.11    6.88
  -7  14   9   31.24   12.93
  -7  14   9   45.10    8.41
   7  14  -8   37.88   15.51
   7  14  -8   24.26    8.36
  -7 -14   8   51.30    7.15
  -7  14   8   33.78   12.63
  -7  14   8   49.86    8.54
   7  14  -7   73.85   10.24
   7  14  -7   42.58   10.42
  -7 -14   7   55.02   13.33
  -7  14   7   77.43   14.04
  -7  14   7   62.69    9.44
   7  14  -6   25.46    5.79
   7  14  -6    5.36    5.24
  -7 -14   6    5.18    4.55
  -7  14   6   23.70   13.40
  -7  14   6    1.63    7.97
   7  14  -5    7.96    4.93
   7  14  -5   -4.53    5.27
  -7 -14   5    6.77    3.81
  -7  14   5    5.58    7.05
  -7  14   5   11.43    4.39
  -7  14   5    5.23    1.85
   7  14  -4   -1.30    4.34
  -7 -14   4    1.23    3.40
  -7  14   4    2.66    5.94
  -7  14   4    3.57    3.63
  -7  14   4    1.44    2.96
   7  14  -3   96.00   12.84
  -7 -14   3  114.26   10.83
  -7  14   3  121.47   17.63
  -7  14   3  118.03   11.32
  -7  14   3  126.95    6.94
   7  14  -2   76.57    9.33
  -7 -14   2   48.20   11.92
  -7  14   2   60.86   11.83
  -7  14   2   48.28    7.33
  -7  14   2   63.03    5.07
   7  14  -1   15.69    5.28
  -7 -14   1    9.52    4.18
  -7  14   1   -0.94    6.80
  -7  14   1   14.43    6.57
  -7  14   1   13.17    4.94
   7  14   0   49.40    8.19
  -7 -14   0   46.44   11.03
  -7  14   0   47.33    6.34
  -7  14   0   56.07    5.66
   7  14   1    7.10   10.24
  -7 -14  -1   30.30    5.55
  -7  14  -1   19.29    4.67
  -7  14  -1   34.99    4.30
   7  14   2   56.23    7.87
  -7 -14  -2   49.34    6.47
  -7  14  -2   44.47    5.20
  -7  14  -2   38.00    5.44
   7  14   3    8.62    7.94
  -7 -14  -3    8.21    4.20
  -7  14  -3    3.42    4.74
  -7  14  -3   12.93    2.98
  -7  14  -3    9.78    5.67
   7  14   4   12.57    4.76
   7 -14   4    7.13    5.97
  -7 -14  -4   11.06    4.17
  -7  14  -4   -1.52    4.21
  -7  14  -4    8.51    4.32
  -7  14  -4   15.89    5.80
   7  14   5   37.59    7.77
   7 -14   5   49.36   10.46
  -7 -14  -5   47.40   11.42
  -7  14  -5   36.30    6.18
  -7  14  -5   46.73    4.33
  -7  14  -5   60.38    6.16
   7  14   6   15.37    4.46
   7 -14   6   12.38    6.17
  -7 -14  -6    4.38    4.13
  -7  14  -6    1.23    4.43
  -7  14  -6    4.86    2.35
  -7  14  -6    3.09    3.79
   7  14   7    3.63    4.02
   7 -14   7   -0.14    5.63
  -7 -14  -7   -0.27    3.71
  -7  14  -7    2.03    3.31
   7  14   8   42.41    7.82
   7 -14   8   27.73   10.78
  -7  14  -8   36.64    6.40
   7 -14   9   35.05   10.86
  -7 -14  -9   33.27    6.87
  -7  14  -9   30.28   10.94
   7  14  10    1.36    5.81
   7 -14  10   12.84    8.02
  -7 -14 -10   10.14    4.64
  -7  14 -10    1.99    4.57
   7  14  11   75.07   14.21
   7 -14  11   87.77   16.47
  -7 -14 -11   67.28   11.07
  -7  14 -11   86.25   11.05
   7  15 -10    6.76    5.26
  -7 -15  10    2.16    4.18
  -7  15  10   -1.92   14.31
  -7  15  10   -1.83    5.45
   7  15  -9   23.13    7.06
   7  15  -9   17.52    8.12
  -7 -15   9   17.18    6.08
  -7  15   9   20.02   10.98
  -7  15   9   20.50    7.64
   7  15  -8   53.42   10.14
   7  15  -8   45.38   10.88
  -7 -15   8   57.78    8.65
  -7  15   8   72.28   15.16
  -7  15   8   51.87   10.12
   7  15  -7   30.05    8.59
   7  15  -7   26.44    8.75
  -7 -15   7   34.86    6.77
  -7  15   7   41.94   11.73
  -7  15   7   32.41    7.95
   7  15  -6    7.78    5.94
  -7 -15   6   11.04    7.68
  -7  15   6   19.98    8.74
  -7  15   6    5.52    5.43
   7  15  -5    7.50    4.73
   7  15  -5    2.56    4.96
  -7 -15   5    4.12    3.58
  -7  15   5    5.31    6.75
  -7  15   5    3.59    4.14
  -7  15   5   -0.54    1.78
   7  15  -4   -1.86    7.90
  -7 -15   4    7.21    3.65
  -7  15   4    4.97    7.18
  -7  15   4    1.65    4.05
  -7  15   4    1.33    2.12
   7  15  -3   10.71    5.70
  -7 -15   3   17.40    4.63
  -7  15   3   12.56    7.90
  -7  15   3   15.70    4.93
  -7  15   3    9.15    2.94
   7  15  -2   -0.08    5.23
  -7 -15   2   11.53    4.18
  -7  15   2   17.36    6.97
  -7  15   2    8.91    7.04
  -7  15   2    2.68    4.78
   7  15  -1   17.82    6.01
  -7 -15   1   16.83    7.99
  -7  15   1    3.96    4.76
  -7  15   1   18.88    3.93
   7  15   0   15.18    5.01
  -7 -15   0   11.08    4.22
  -7  15   0    2.94    3.17
  -7  15   0    3.70    3.85
   7  15   1    2.54    7.39
  -7 -15  -1   11.49    6.27
  -7  15  -1   -1.90    5.50
  -7  15  -1    3.27    3.06
   7  15   2   38.28    7.83
  -7 -15  -2   43.86    6.61
  -7  15  -2   25.38    8.62
  -7  15  -2   33.55    5.48
   7  15   3   45.84    8.80
  -7 -15  -3   53.07    7.31
  -7  15  -3   30.78    8.99
  -7  15  -3   55.92    6.18
   7  15   4   32.94    6.36
  -7 -15  -4   26.72    5.45
  -7  15  -4    0.49    5.67
  -7  15  -4   14.76    3.74
  -7  15  -4   27.99    7.71
   7  15   5   17.05    6.41
  -7 -15  -5   27.11    5.81
  -7  15  -5   19.98    5.24
  -7  15  -5   13.68    5.84
  -7  15  -5   22.40    5.04
  -7  15  -6   21.98    4.87
  -7  15  -6   26.21    3.88
  -7  15  -6   31.34    5.75
   7  15   7   31.71    8.19
  -7 -15  -7   37.63    7.47
  -7  15  -7   39.05    6.71
   7  15   8    3.99    5.21
   7 -15   8    2.92    7.17
  -7 -15  -8   -2.11    4.50
  -7  15  -8   11.54    4.03
   7  15   9   10.27    6.82
   7 -15   9   15.31    9.60
  -7 -15  -9   18.88    5.90
  -7  15  -9   16.24    8.72
   7  16  -8   15.06    6.83
   7  16  -8    5.49    6.83
  -7 -16   8   11.83    5.24
  -7  16   8    3.81    9.52
  -7  16   8    4.41   10.47
   7  16  -7   19.28    7.75
   7  16  -7   12.47   13.12
  -7 -16   7   19.01    5.96
  -7  16   7    4.24   17.00
  -7  16   7   23.86   11.15
   7  16  -6   16.04    6.76
   7  16  -6   15.74    6.71
  -7 -16   6   11.23    5.25
  -7  16   6   11.04    9.82
  -7  16   6    5.62    6.06
   7  16  -5   21.63    7.48
   7  16  -5   25.63    8.01
  -7 -16   5   13.88    9.77
  -7  16   5   26.54   11.00
  -7  16   5   19.62    6.72
   7  16  -4   20.85   11.71
   7  16  -4   19.62    8.04
  -7 -16   4   24.19    5.73
  -7  16   4   37.60   10.33
  -7  16   4   27.27    6.36
  -7  16   4   15.16    3.57
   7  16  -3   16.15    6.57
  -7 -16   3    9.79    5.14
  -7  16   3   23.05    8.93
  -7  16   3   22.20    5.58
  -7  16   3   11.66    3.62
   7  16  -2    1.62    5.23
  -7 -16   2    8.36    4.09
  -7  16   2    2.35    7.19
  -7  16   2    0.27    4.29
  -7  16   2    5.58    5.13
   7  16  -1   27.21    8.13
  -7 -16   1   36.71    6.60
  -7  16   1   23.15    6.30
  -7  16   1   31.21    5.34
   7  16   0    3.87    4.86
  -7 -16   0   -0.54    6.79
  -7  16   0    0.91    3.89
  -7  16   0    6.19    3.20
   7  16   1    5.31    5.45
  -7 -16  -1   15.03    4.61
  -7  16  -1    6.57    4.10
  -7  16  -1    3.44    3.59
   7  16   2   26.99    6.91
  -7 -16  -2   20.15    9.72
  -7  16  -2   20.52    4.78
  -7  16  -2   17.45    4.88
   7  16   3   79.21   12.92
  -7 -16  -3  101.41   11.09
  -7  16  -3   97.12    9.23
  -7  16  -3   87.93    8.62
   7  16   4   27.26    7.18
  -7 -16  -4   36.04    6.38
  -7  16  -4   14.07    4.54
  -7  16  -4   24.73    8.54
   7  16   5   28.04    6.56
  -7 -16  -5   14.92    5.81
  -7  16  -5   12.52    5.57
  -7  16  -5   15.32    3.83
  -7  16  -5   20.67    8.22
   7  16   6   33.57    8.28
  -7 -16  -6   38.06    7.28
  -7  16  -6   24.63    6.32
  -7  16  -7    2.63    4.03
   7  16   8   12.72    7.25
  -7 -16  -8   15.64    6.64
  -7  16  -8   15.56    5.31
   7  17  -6   50.25    9.68
   7  17  -6    6.75    8.67
  -7 -17   6   26.11    6.79
  -7  17   6   27.29   12.63
  -7  17   6   18.50    8.05
   7  17  -5    4.26    5.97
  -7 -17   5    4.95    4.51
  -7  17   5   -1.45    8.19
  -7  17   5    1.97    5.13
   7  17  -4    1.21    8.80
   7  17  -4   -3.93    6.07
  -7 -17   4    2.15    6.84
  -7  17   4   -1.58    7.74
  -7  17   4    3.70    4.73
  -7  17   4    4.09    2.64
   7  17  -3    2.07    5.30
   7  17  -3   -2.75    5.90
  -7 -17   3    1.94    4.22
  -7  17   3    7.60    7.31
  -7  17   3    2.47    4.57
  -7  17   3    3.47    5.00
   7  17  -2   -1.82    4.91
  -7 -17   2    1.76    3.87
  -7  17   2    1.29    4.00
  -7  17   2   -0.33    5.04
   7  17  -1    8.41    6.08
  -7 -17   1    2.89    8.14
  -7  17   1    6.73    4.77
  -7  17   1    7.60    4.07
   7  17   0   20.31    7.80
  -7 -17   0   26.61    6.61
  -7  17   0   20.56    6.16
  -7  17   0   24.72    5.22
   7  17   1   15.66    6.66
  -7 -17  -1   16.44    9.10
  -7  17  -1   11.75    4.90
  -7  17  -1   12.31    4.39
   7  17   2   13.27    6.58
  -7 -17  -2   20.60    5.75
  -7  17  -2   15.66    7.59
  -7  17  -2    7.01    4.48
   7  17   3   18.86    6.37
  -7 -17  -3   11.06    8.93
  -7  17  -3    4.47    6.87
  -7  17  -3    7.07    4.44
  -7 -17  -4   10.11    5.13
  -7  17  -4    6.01    3.79
  -7  17  -4    6.16    4.30
   7  17   5   32.58    6.63
  -7  17  -5    7.46    6.27
  -7  17  -5   12.25    4.33
  -7  17  -5   25.38    8.81
   7  17   6   -3.28    5.92
  -7 -17  -6   -7.54    5.38
  -7  17  -6   -3.14    4.36
   7  18  -4   -5.41   11.90
   7  18  -4   15.32    8.23
  -7 -18   4   11.57    5.68
  -7  18   4    7.31   10.16
  -7  18   4    6.91    9.93
   7  18  -3    1.30    5.48
   7  18  -3    5.16    6.08
  -7 -18   3    4.74    4.25
  -7  18   3    7.56    8.09
  -7  18   3   -3.85    4.54
  -7  18   3   -1.74    3.09
   7  18  -2    3.01    6.68
   7  18  -2    6.64    7.39
  -7 -18   2    8.10    5.23
  -7  18   2   -0.11    9.57
  -7  18   2   10.52    5.36
  -7  18   2    6.48    6.79
   7  18  -1   35.56   10.09
  -7 -18   1   36.00    7.83
  -7  18   1   39.45    7.75
  -7  18   1   22.05    6.59
   7  18   0   48.38   12.10
  -7 -18   0   60.83   15.35
  -7  18   0   35.36   13.59
  -7  18   0   62.12    8.78
   7  18   1   33.67    8.84
  -7 -18  -1   43.69    8.32
  -7  18  -1   40.41    6.85
  -7  18  -1   29.06    6.94
   7  18   2    4.63    5.49
  -7 -18  -2    3.94    5.22
  -7  18  -2    1.60    4.34
  -7  18  -2   10.43    4.11
   7  18   3    4.38    6.47
  -7 -18  -3   17.24    6.68
  -7  18  -3   15.21    4.91
  -7  18  -3    9.35    4.84
   7  18   4   -2.50    4.73
  -7 -18  -4    1.74    4.61
  -7  18  -4    1.37    3.22
  -7  18  -4   -2.11    5.96
  -8   0  15   21.41    8.05
  -8   0  14   99.51   14.10
   8   0 -13   12.61   14.82
   8   0 -13   62.17    4.92
  -8   0  13   72.70    9.90
   8   0 -12    6.34    7.07
   8   0 -12    5.71    1.48
  -8   0  12    6.42    4.70
   8   0 -11   48.34    4.33
   8   0 -11   54.45   19.37
  -8   0  11   40.52    7.78
   8   0 -10  120.91    7.54
   8   0 -10  111.01   16.12
  -8   0  10  131.59   11.49
   8   0  -9    2.30    9.88
   8   0  -9    9.68    2.88
  -8   0   9   17.39    4.36
   8   0  -8   17.23    5.52
   8   0  -8   10.40    1.84
  -8   0   8   13.89    3.95
   8   0  -7  271.64   32.76
  -8   0   7  304.93   18.53
   8   0  -6   23.60    5.66
  -8   0   6   35.38    4.47
   8   0  -5   18.29    4.44
  -8   0   5   20.95    3.61
   8   0  -4  246.19   15.56
  -8   0   4  276.81   18.59
   8   0  -3   45.00    5.00
  -8   0   3   52.03    4.11
   8   0  -2  512.05   25.55
  -8   0   2  530.62   22.54
   8   0  -1  486.91   23.22
  -8   0   1  503.23   20.84
   8   0   0  640.87   37.58
  -8   0   0  687.48   28.76
   8   0   1   33.75    3.01
  -8   0  -1   32.56    2.46
   8   0   2  289.32   11.42
  -8   0  -2  302.96   10.41
   8   0   3  207.59   10.94
  -8   0  -3  220.54    7.03
   8   0   4  436.63   16.07
  -8   0  -4  447.72   14.51
   8   0   5   58.87    2.78
  -8   0  -5   64.22    3.50
   8   0   6   86.61    3.36
  -8   0  -6   97.02    3.15
   8   0   7   -1.16    1.53
  -8   0  -7    1.25    1.37
   8   0   8  368.39   12.00
   8   0   8  406.98   22.44
  -8   0  -8  369.11   11.71
   8   0   9   24.55    2.52
   8   0   9   18.82    4.48
   8   0  10    3.84    1.07
   8   0  10    4.67    3.40
   8   0  11   48.05    5.09
   8   0  11   33.49    6.56
   8   0  11   40.58    3.25
   8   0  12   38.44    4.53
   8   0  12   38.51    2.05
   8   0  12   49.34    6.56
   8   0  13    8.17    4.50
   8   0  14  151.75   24.83
  -8  -1  16   26.72    7.71
  -8   1  16    8.22    8.59
  -8  -1  15   12.28    5.93
  -8   1  15    2.52    6.48
   8   1 -14    1.93    8.37
   8   1 -14    2.45    3.15
  -8  -1  14   11.47    5.17
  -8   1  14    4.81    8.92
   8   1 -13   -0.39    6.83
   8   1 -13    1.35    1.70
  -8  -1  13    4.67    4.18
  -8   1  13    3.52    4.55
   8   1 -12   29.28   13.55
   8   1 -12   30.00    3.98
   8  -1 -12   16.40    1.99
  -8   1  12   24.96    6.51
   8   1 -11   18.13    8.24
   8   1 -11   20.70    2.64
   8  -1 -11   22.87    9.14
   8  -1 -11   21.82    2.17
  -8  -1  11   14.56    9.43
  -8   1  11   23.92    6.18
   8   1 -10   75.40    6.84
   8   1 -10   71.53   11.60
   8  -1 -10   78.90   13.40
   8  -1 -10   65.58    2.55
  -8  -1  10   67.08   13.63
  -8   1  10  102.85    9.14
   8   1  -9   68.44   11.65
   8   1  -9   88.98    4.64
   8  -1  -9   75.72    4.69
   8  -1  -9   69.06   12.03
  -8  -1   9  112.14   14.21
  -8   1   9   87.71    8.79
   8   1  -8   71.30    9.23
   8   1  -8   65.22    3.95
   8  -1  -8   54.45    9.88
   8  -1  -8   59.73    2.85
  -8  -1   8   54.74   10.50
  -8   1   8   55.67    7.21
   8  -1  -7  218.42   18.77
   8   1  -7  209.84   17.96
  -8  -1   7  228.79   14.07
  -8   1   7  213.47   14.94
   8   1  -6  109.31   10.18
   8  -1  -6   91.77   10.76
  -8   1   6  119.10    8.81
  -8  -1   6  118.08    8.28
   8   1  -5    4.33    3.28
   8  -1  -5    0.29    3.41
  -8   1   5    5.52    2.81
  -8  -1   5    9.22    2.65
   8   1  -4   75.85    7.09
   8  -1  -4   76.14    7.61
  -8  -1   4   90.08    8.73
  -8   1   4   85.92    9.16
   8   1  -3   96.46    6.99
   8  -1  -3   92.05   11.00
  -8   1   3   84.33    5.90
  -8  -1   3   97.13    5.68
   8   1  -2   19.47    5.51
   8  -1  -2   19.98    3.57
  -8  -1   2   25.76    2.85
  -8   1   2   25.41    4.69
   8  -1  -1   93.51    9.33
   8   1  -1   91.24    6.22
  -8  -1   1   96.94    7.77
  -8   1   1  104.94    5.30
   8  -1   0   62.10    4.39
   8   1   0   64.34    4.42
  -8  -1   0   69.88    5.79
  -8   1   0   58.81    3.60
   8  -1   1  114.91    9.00
   8   1   1  122.91    6.18
  -8  -1  -1  129.09    5.36
  -8   1  -1  133.72    5.36
   8   1   2  211.01   12.34
   8  -1   2  205.36    8.39
  -8  -1  -2  216.25    7.61
  -8   1  -2  211.39    7.21
   8   1   3    4.45    1.55
   8  -1   3    3.03    2.29
  -8  -1  -3    4.04    1.24
  -8   1  -3    4.10    1.06
   8  -1   4  106.49    4.18
   8   1   4   99.69    4.50
  -8  -1  -4  106.85    3.84
  -8   1  -4  107.25    3.31
   8   1   5  162.48    6.25
   8  -1   5  156.58    7.36
  -8  -1  -5  166.29    5.33
  -8   1  -5  165.25    4.33
   8  -1   6    1.84    0.95
   8  -1   6    0.23    2.32
   8   1   6    3.08    2.00
  -8  -1  -6    2.42    1.09
  -8   1  -6    2.13    0.77
   8   1   7  218.20    7.69
   8  -1   7  211.58    7.63
   8  -1   7  238.66   13.53
  -8  -1  -7  223.57    7.54
  -8   1  -7  218.80    7.21
   8   1   8   28.49    2.17
   8  -1   8   27.64    4.67
   8  -1   8   26.96    1.28
  -8  -1  -8   29.99    3.14
   8   1   9   34.20    5.02
   8  -1   9   27.87    8.17
   8   1   9   36.65    3.77
   8  -1   9   28.86    1.80
  -8  -1  -9   34.51    3.30
   8   1  10   45.23    2.79
   8   1  10   41.92    9.76
   8  -1  10   51.18    2.55
   8  -1  10   43.96    6.38
   8  -1  10   42.17    1.85
   8   1  11    9.24    4.22
   8  -1  11    4.50    7.21
   8   1  11   11.49    1.77
   8   1  12   49.32    5.75
   8   1  12   54.06    5.07
   8   1  12   61.24    7.47
   8  -1  12   62.32    7.72
   8   1  13    5.48    2.57
   8   1  13    8.34    4.27
   8  -1  13    3.19    6.81
   8   1  13    2.61    1.61
   8  -1  14   23.69    6.52
   8   1  14   17.05    6.39
  -8  -2  16    6.96    5.29
  -8   2  16   -4.31    6.25
   8   2 -15    2.27    9.84
   8   2 -15    2.49    4.22
  -8  -2  15   16.93    5.66
  -8   2  15   16.82    7.00
   8   2 -14    1.48    7.43
   8   2 -14    1.50    2.04
  -8  -2  14    2.25    7.34
  -8   2  14   -1.59    4.93
   8   2 -13    8.52    7.72
   8   2 -13    8.91    2.55
  -8  -2  13   20.24    5.40
  -8   2  13    8.67    5.93
   8   2 -12   34.96    3.52
   8   2 -12   39.54   10.07
  -8  -2  12   37.45    7.06
  -8   2  12   42.37   13.30
   8   2 -11   -0.40    5.24
   8   2 -11    0.03    1.94
  -8  -2  11    1.85    3.53
  -8   2  11    6.56    4.15
   8   2 -10   35.84    3.12
   8   2 -10   39.55    7.59
   8  -2 -10   15.51    8.69
   8  -2 -10   19.55    0.98
  -8  -2  10   44.07    5.26
  -8   2  10   45.64    5.96
   8   2  -9   86.56   11.47
   8   2  -9   79.50    5.25
   8  -2  -9   87.66   13.76
  -8  -2   9   92.32    8.63
  -8   2   9   90.34    9.54
   8   2  -8   45.12    8.04
   8   2  -8   34.46    3.80
   8  -2  -8   27.80    9.81
   8  -2  -8   52.18    2.65
  -8  -2   8   59.22    6.27
  -8   2   8   49.43    6.63
   8   2  -7  198.93   16.13
   8  -2  -7  176.63   17.32
  -8  -2   7  178.42   18.42
  -8   2   7  196.22   13.77
   8   2  -6   67.60    7.54
   8  -2  -6   59.55    8.21
  -8  -2   6   64.23    5.79
  -8   2   6   63.29    6.57
   8   2  -5   77.21   11.78
   8  -2  -5   69.60   12.52
  -8  -2   5   67.55    5.91
  -8   2   5   87.11    6.69
   8  -2  -4  372.83   22.97
   8   2  -4  380.47   21.95
  -8  -2   4  392.90   18.78
  -8   2   4  393.57   26.59
   8   2  -3   17.02    3.60
   8  -2  -3   20.55    3.89
  -8  -2   3   20.90    2.96
  -8   2   3   14.89    3.07
   8   2  -2   77.66    5.95
   8  -2  -2   70.67    6.18
  -8   2   2   87.88    5.18
  -8  -2   2   80.23    4.93
   8   2  -1   56.06    4.69
   8  -2  -1   52.85    4.69
  -8  -2   1   60.36    3.94
  -8   2   1   54.32    3.95
   8   2   0   69.27    4.86
   8  -2   0   79.53    4.99
  -8  -2   0   68.94    4.14
  -8   2   0   75.21    4.05
   8   2   1  103.89    5.52
   8  -2   1   94.81    5.31
  -8  -2  -1   93.42    4.59
  -8   2  -1  112.28    4.37
   8  -2   2   62.75    3.79
   8   2   2   62.56    3.91
  -8  -2  -2   68.95    3.47
  -8   2  -2   74.53    4.75
   8  -2   3  260.81    9.48
   8   2   3  251.52   13.94
  -8  -2  -3  249.31    9.24
  -8   2  -3  259.67    9.98
   8   2   4  167.58    7.17
   8  -2   4  166.84    8.20
   8  -2   4  172.11    8.84
  -8  -2  -4  170.31    6.05
  -8   2  -4  171.36    4.65
   8  -2   5   73.02    4.03
   8   2   5   75.39    3.93
   8  -2   5   69.69    5.57
  -8  -2  -5   77.50    3.31
  -8   2  -5   75.09    2.92
   8   2   6   21.48    2.11
   8  -2   6   18.26    3.45
   8  -2   6   18.79    1.88
  -8  -2  -6   18.68    1.85
   8   2   7   65.89    5.46
   8  -2   7   62.27    6.05
   8  -2   7   64.46    2.27
  -8  -2  -7   63.19    3.32
   8  -2   8  140.22   10.31
   8   2   8  133.71    5.89
  -8  -2  -8  138.83    5.66
   8   2   9   61.19    5.66
   8  -2   9   73.40    7.16
  -8  -2  -9   61.93    5.41
   8   2  10   73.31    7.00
   8  -2  10   51.81    7.17
   8   2  10   53.46    3.64
  -8  -2 -10   54.77    3.44
   8   2  11   17.18    4.01
   8   2  11   20.93    7.72
   8  -2  11   15.46    5.07
   8   2  12   -0.10    2.90
   8   2  12   -1.71    3.48
   8  -2  12   -3.87    3.64
   8   2  13    9.70    3.97
   8   2  13    8.04    4.46
   8   2  13    4.76    2.15
   8  -2  13    5.30    4.57
   8   2  14   44.07   13.58
   8  -2  14   49.28   14.41
  -8  -3  16   14.80   10.15
  -8   3  16    5.35    7.68
   8   3 -15    7.88    8.43
   8   3 -15    2.18    4.24
  -8  -3  15    0.62    4.86
  -8   3  15    4.95    9.54
   8   3 -14    0.87   12.13
   8   3 -14   -0.73    4.39
  -8  -3  14   15.21    4.82
  -8   3  14   -2.83    5.90
   8   3 -13   -1.01    2.21
   8   3 -13   -1.04    6.06
  -8  -3  13   -1.91    3.91
  -8   3  13    4.27    4.73
   8   3 -12   73.97   13.54
   8   3 -12   73.29    5.89
  -8  -3  12   77.93    8.94
  -8   3  12   74.06   11.55
   8   3 -11   24.86    8.52
   8   3 -11   25.01    3.42
  -8  -3  11   24.41    5.39
  -8   3  11   28.52    7.00
   8   3 -10   27.53    7.24
   8   3 -10   17.47    3.33
  -8  -3  10   29.59    5.00
  -8   3  10   28.04    9.79
   8   3  -9    3.66    4.22
   8   3  -9    2.10    1.99
  -8  -3   9   -3.27    2.94
  -8   3   9    1.33    3.68
   8   3  -8    9.01    4.32
   8   3  -8    3.97    2.11
   8  -3  -8   -3.35    5.58
  -8  -3   8    3.91    3.16
  -8   3   8    3.07    3.84
   8   3  -7  309.17   23.19
   8  -3  -7  322.65   28.25
  -8  -3   7  316.58   26.64
  -8   3   7  342.40   21.49
   8   3  -6   53.32    7.78
   8  -3  -6   65.08    9.59
  -8  -3   6   70.69    6.06
  -8   3   6   69.39    7.09
   8   3  -5   64.30    7.10
   8  -3  -5   69.91   14.08
  -8  -3   5   67.09    5.89
  -8   3   5   73.72    6.60
   8   3  -4  187.47   12.57
   8  -3  -4  170.84   13.47
  -8  -3   4  189.67   10.10
  -8   3   4  218.89   16.58
   8   3  -3   22.62    3.98
   8  -3  -3   18.55    4.33
  -8  -3   3   29.62    3.19
  -8   3   3   19.27    3.36
   8   3  -2   68.74    5.89
   8  -3  -2   67.62    6.47
  -8  -3   2   86.75    5.13
  -8   3   2   83.12    5.33
   8  -3  -1  361.12   24.89
   8   3  -1  352.52   17.57
  -8  -3   1  364.30   15.04
  -8   3   1  369.34   16.13
   8  -3   0   70.25    5.05
   8   3   0   64.85    4.96
  -8  -3   0   72.39    4.09
  -8   3   0   73.42    6.29
   8  -3   1  250.96   11.78
   8   3   1  273.64   11.80
   8  -3   1  262.82   10.70
  -8  -3  -1  264.93   10.37
  -8   3  -1  283.66   13.56
   8  -3   2   88.22    4.75
   8   3   2   88.72    5.18
   8  -3   2   95.70    5.18
  -8  -3  -2   92.18    4.45
  -8   3  -2   90.63    3.64
   8   3   3   24.92    2.98
   8  -3   3   25.46    5.21
   8  -3   3   33.10    2.55
  -8  -3  -3   37.30    4.11
  -8   3  -3   35.23    1.75
   8   3   4   96.89    5.26
   8  -3   4   96.42    6.19
   8  -3   4   97.83    4.08
  -8  -3  -4  108.39    4.56
  -8   3  -4   95.02    3.77
   8   3   5  192.12    8.42
   8  -3   5  195.53    8.04
   8  -3   5  197.87   10.51
  -8  -3  -5  184.04   10.15
   8  -3   6   -1.31    2.41
   8   3   6    2.57    1.62
  -8  -3  -6   -0.74    1.44
  -8   3  -6    2.41    0.28
   8   3   7  354.84   19.81
   8  -3   7  380.48   21.15
  -8  -3  -7  366.17   14.54
   8   3   8   20.96    2.66
   8  -3   8   23.02    7.56
  -8  -3  -8   27.03    4.07
   8  -3   9  208.16   15.00
   8   3   9  201.52   13.25
  -8  -3  -9  203.84    8.86
   8   3  10  106.69    6.09
   8  -3  10  118.14   10.65
  -8  -3 -10  108.51    8.61
   8   3  11   59.00    7.95
   8  -3  11   77.12    8.69
   8   3  11   64.25    4.84
   8   3  12  115.68   10.85
   8  -3  12  106.42   11.36
   8   3  12  106.19    6.87
   8   3  13   23.29    5.62
   8  -3  13   11.88    6.01
   8   3  13   16.43    5.38
   8   3  14    3.98    4.27
   8   3  14    0.14    4.30
   8   3  14   -0.20    3.23
   8  -3  14    7.62    4.67
   8   4 -16    6.62    9.88
   8   4 -16    5.51    3.54
  -8  -4  16   14.49    5.98
  -8   4  16   -4.01    8.05
   8   4 -15   -7.25   13.65
   8   4 -15    2.25    3.08
  -8  -4  15    3.40    5.00
  -8   4  15    3.64    6.09
   8   4 -14   20.56    8.14
   8   4 -14    5.90    3.15
  -8  -4  14    7.55    5.37
  -8   4  14    5.60    6.59
   8   4 -13   15.54    3.52
   8   4 -13   12.48    8.44
  -8  -4  13   10.60    5.84
  -8   4  13   14.43   11.89
   8   4 -12   11.66    7.08
   8   4 -12    8.56    5.45
  -8  -4  12    6.67    4.77
  -8   4  12   19.40    6.16
   8   4 -11   17.83    3.46
   8   4 -11    8.87    6.85
  -8  -4  11   12.69    4.86
  -8   4  11   12.18    6.41
   8   4 -10    7.69    4.93
   8   4 -10    2.01    2.46
  -8  -4  10    2.51    3.57
  -8   4  10    5.30    4.40
   8   4  -9   15.25    7.08
   8   4  -9   26.84    3.72
  -8  -4   9   30.87    5.12
  -8   4   9   30.49    6.52
   8   4  -8    4.28    2.88
   8   4  -8   22.88    5.32
  -8  -4   8   23.51    4.14
  -8   4   8   19.59    4.88
   8   4  -7   68.33    8.36
  -8  -4   7   60.09    6.70
  -8   4   7   54.95   11.70
   8   4  -6  158.07   19.38
   8  -4  -6  137.18    3.16
  -8  -4   6  148.81    9.38
  -8   4   6  143.03   16.90
   8   4  -5   67.56    6.97
   8  -4  -5   59.46    1.71
  -8  -4   5   71.64    5.63
  -8   4   5   75.49    9.90
   8   4  -4   22.31    4.39
   8  -4  -4   25.70    5.28
   8  -4  -4   19.89    1.24
  -8  -4   4   25.71    3.43
  -8   4   4   29.19    3.87
   8   4  -3  161.89   10.07
   8  -4  -3  142.43   11.80
   8  -4  -3  147.85    4.54
  -8  -4   3  167.85    8.58
  -8   4   3  147.91    9.06
   8  -4  -2   24.67    1.70
   8  -4  -2   16.36    4.55
  -8  -4   2   22.75    3.01
  -8   4   2   26.19    3.31
   8   4  -1   17.54    2.84
   8  -4  -1   11.51    3.37
   8  -4  -1    9.88    1.52
  -8  -4   1   10.27    2.34
  -8   4   1   11.56    2.49
   8   4   0   60.33    4.58
   8  -4   0   52.37    3.16
   8  -4   0   55.73    5.18
  -8  -4   0   57.64    3.83
  -8   4   0   59.64    3.95
   8   4   1  273.07   13.31
   8  -4   1  282.27   14.34
   8  -4   1  272.05   11.25
  -8  -4  -1  266.72   11.19
  -8   4  -1  293.84   11.14
   8   4   2  851.59   42.02
   8  -4   2  881.84   44.44
   8  -4   2  859.27   48.92
  -8  -4  -2  835.51   38.17
  -8   4  -2  885.31   42.82
   8  -4   3  564.14   25.07
   8   4   3  525.61   31.07
  -8  -4  -3  517.52   21.38
  -8   4  -3  532.75   17.59
   8   4   4   26.06    3.04
   8  -4   4   32.91    3.39
  -8  -4  -4   20.32    3.89
  -8   4  -4   25.23    1.26
   8   4   5  247.36   11.35
   8  -4   5  253.37   13.29
  -8  -4  -5  266.38   10.14
   8   4   6   48.14    6.23
   8  -4   6   48.48    5.37
  -8  -4  -6   49.00    3.36
   8   4   7   98.77    5.66
   8  -4   7   99.48    8.34
  -8  -4  -7   96.29    5.14
   8   4   8   45.64    5.93
   8  -4   8   46.12    5.92
  -8  -4  -8   39.76    3.60
   8   4   9   42.36    3.94
   8  -4   9   40.52    6.67
  -8  -4  -9   47.22    3.77
   8  -4  10   -3.30    3.26
   8   4  10    2.43    1.91
  -8  -4 -10   -1.11    1.73
   8   4  11   32.34    6.47
   8  -4  11   39.92   10.32
   8   4  12   82.57    6.44
   8   4  12   73.77    9.58
   8  -4  12   92.86   10.70
   8   4  13   56.12    6.20
   8   4  13   71.80    8.80
   8  -4  13   63.39    9.73
   8   4  14   16.92    3.25
   8   4  14   18.32    9.64
   8  -4  14   31.09    6.98
   8   4  14    1.14    6.64
   8   5 -15   18.11    8.72
   8   5 -15    6.74    3.73
  -8  -5  15    3.27    5.68
  -8   5  15   18.40   12.11
   8   5 -14    7.70    3.83
   8   5 -14    7.77   14.00
  -8  -5  14   21.76    5.65
  -8   5  14    6.22    7.75
   8   5 -13   19.32    9.33
   8   5 -13   20.38    4.49
  -8  -5  13   23.87    6.00
  -8   5  13   20.77    8.35
   8   5 -12    8.03    6.22
   8   5 -12    4.71    3.11
  -8  -5  12    7.51    4.17
  -8   5  12   -0.48    5.60
   8   5 -11    6.37    3.10
   8   5 -11    2.79    9.34
  -8  -5  11    5.41    3.85
  -8   5  11    4.71    8.67
   8   5 -10   70.01   12.07
   8   5 -10   69.44    6.60
  -8  -5  10   85.86    8.44
  -8   5  10  116.40   11.43
   8   5  -9   78.57   11.65
   8   5  -9   92.00    7.00
  -8  -5   9  102.47    8.71
  -8   5   9   86.72   11.29
   8   5  -8    4.63    2.60
   8   5  -8    6.10    4.57
  -8  -5   8    2.28    3.33
  -8   5   8    9.09    4.15
   8   5  -7   73.83    9.17
  -8  -5   7   65.86    6.71
  -8   5   7   68.88    8.24
   8   5  -6  149.56   13.44
  -8  -5   6  153.07    9.99
  -8   5   6  150.53   11.90
   8   5  -5  201.33   13.24
   8  -5  -5  145.43    4.99
  -8  -5   5  226.49   11.10
  -8   5   5  203.34   12.21
   8   5  -4   45.70    4.87
   8  -5  -4   28.49    1.43
  -8  -5   4   36.02    6.36
  -8   5   4   33.25    4.47
   8   5  -3    6.09    5.38
   8  -5  -3    7.82    1.18
  -8  -5   3    6.99    2.58
  -8   5   3    9.97    2.87
   8   5  -2  317.46   16.82
   8  -5  -2  307.34   10.29
  -8  -5   2  309.99   14.60
  -8   5   2  307.61   15.44
   8   5  -1   36.36    4.52
   8  -5  -1   45.89    2.61
  -8  -5   1   45.52    3.75
  -8   5   1   38.92    6.38
   8   5   0   62.32    5.28
   8  -5   0   61.07    3.45
  -8  -5   0   62.86    6.60
  -8   5   0   60.07    4.33
   8   5   1   47.04    4.69
   8  -5   1   54.81    3.69
  -8  -5  -1   57.05    6.22
  -8   5  -1   61.56    3.70
   8   5   2   26.55    3.41
   8  -5   2   24.89    2.97
  -8  -5  -2   27.83    2.78
  -8   5  -2   21.97    2.16
   8   5   3  114.23    6.82
   8  -5   3  113.38    6.73
  -8  -5  -3  108.42    5.61
  -8   5  -3  108.08    5.50
   8  -5   4   75.96    5.86
   8   5   4   73.68    5.31
  -8  -5  -4   84.45    4.56
  -8   5  -4   80.38    2.43
  -8   5  -4   75.61    2.21
   8  -5   5  501.99   25.70
   8   5   5  472.28   29.79
  -8  -5  -5  448.94   20.04
  -8   5  -5  506.09   13.42
   8  -5   6  190.84   17.92
   8   5   6  178.65    9.54
  -8  -5  -6  189.03   12.13
   8   5   7   43.35    6.31
   8  -5   7   36.62    5.59
  -8  -5  -7   39.70    3.42
   8   5   8    2.76    2.00
   8  -5   8   -0.54    3.11
  -8  -5  -8   -0.86    1.87
   8  -5   9   87.46   14.98
   8   5   9   85.23    6.46
  -8  -5  -9   98.00    9.22
   8   5  10   64.31    5.52
   8  -5  10   52.94    9.14
  -8  -5 -10   69.14    5.20
   8   5  11   23.12    4.34
   8  -5  11   26.21    6.65
  -8  -5 -11   34.91    3.96
   8   5  12    4.47    2.93
   8  -5  12    2.11    7.44
   8   5  13   30.00    5.01
   8   5  13   29.39    6.71
   8  -5  13   37.11    8.09
   8   5  14   28.53    4.53
   8  -5  14   40.09    8.66
   8   5  15   -2.12    5.32
   8   5  15    0.83    2.55
   8  -5  15    6.93    8.98
   8   6 -15    6.52    8.66
   8   6 -15    1.66    3.91
  -8  -6  15   18.37    9.02
  -8   6  15   16.73    7.72
  -8   6  15    5.83    5.72
   8   6 -14   -1.91    3.23
   8   6 -14   -5.44    6.77
  -8  -6  14   24.76    7.35
  -8   6  14    1.97    6.17
  -8   6  14    2.75    4.35
   8   6 -13   16.78    5.97
   8   6 -13    4.33    3.08
  -8  -6  13  -11.52    4.04
  -8   6  13    7.96    9.31
   8   6 -12   13.39    7.78
   8   6 -12   16.08    4.06
  -8  -6  12   10.71    5.13
  -8   6  12   16.86    7.12
   8   6 -11    3.61    2.98
   8   6 -11   -0.41    5.44
  -8  -6  11    4.16    6.03
  -8   6  11    2.45    5.10
   8   6 -10   32.96    8.98
   8   6 -10   44.26    5.13
  -8  -6  10   49.84   10.23
  -8   6  10   37.05    8.78
   8   6  -9   36.30   11.83
   8   6  -9   30.61    4.34
  -8  -6   9   27.32    5.35
  -8   6   9   26.37   11.58
   8   6  -8   21.77    3.70
   8   6  -8   20.01    6.31
  -8  -6   8   16.47    4.45
  -8   6   8   20.49    9.84
   8   6  -7   76.43   10.16
  -8  -6   7   87.64    7.73
  -8   6   7   85.45    9.65
   8   6  -6  115.30   10.96
  -8  -6   6  103.28   12.81
  -8   6   6  108.75   10.22
   8   6  -5   36.16    9.62
   8  -6  -5   36.35    1.42
  -8  -6   5   41.52    4.57
  -8   6   5   38.14    5.77
   8   6  -4   84.43    8.29
   8  -6  -4   94.36    4.74
  -8  -6   4   92.14   10.59
  -8   6   4   94.48    8.00
   8   6  -3   -0.31    2.88
   8  -6  -3    2.02    1.81
  -8  -6   3    6.70    2.31
  -8   6   3    1.04    2.69
   8   6  -2   25.02    4.19
   8  -6  -2   24.68    2.09
  -8  -6   2   35.76    3.50
  -8   6   2   30.25    4.02
   8   6  -1   34.70    4.82
   8  -6  -1   38.77    2.66
  -8  -6   1   38.42    6.19
  -8   6   1   45.45    6.23
   8   6   0  131.09   13.99
   8  -6   0  144.27    6.49
  -8  -6   0  145.71    7.47
  -8   6   0  140.94    7.58
   8   6   1  157.28    9.81
   8  -6   1  172.22    7.89
  -8  -6  -1  164.62    8.44
  -8   6  -1  172.68   11.22
   8   6   2  181.93   10.27
   8  -6   2  167.56    8.67
  -8  -6  -2  180.07    8.46
  -8   6  -2  177.53   10.12
   8  -6   3   91.32    5.84
   8   6   3   80.24    6.10
  -8   6  -3   86.16    3.57
  -8  -6  -3   77.24    5.14
  -8   6  -3   89.48    4.60
   8   6   4   -2.77    2.07
   8  -6   4   -2.15    2.11
  -8  -6  -4    3.78    2.78
  -8   6  -4   -0.54    0.79
  -8   6  -4    0.64    1.16
   8   6   5   81.51    5.96
   8  -6   5   88.80    6.99
  -8  -6  -5   63.61    5.01
  -8   6  -5   77.06    2.04
   8   6   6  103.67    7.18
   8  -6   6  113.15   13.56
  -8  -6  -6  109.08    6.18
   8   6   7   14.75    3.25
   8  -6   7   11.14    4.41
  -8  -6  -7   18.52    2.74
   8  -6   8    7.18    4.04
   8   6   8    4.05    2.79
  -8  -6  -8    8.37    2.43
   8   6   9   19.81    3.43
   8  -6   9   14.74    5.39
  -8  -6  -9   14.58    3.24
   8   6  10   48.96    5.46
   8  -6  10   53.98   12.49
  -8  -6 -10   56.43    8.21
   8   6  11   75.59    7.36
   8  -6  11   81.27   11.51
  -8  -6 -11   90.55    6.84
   8  -6  12    7.46    5.65
   8   6  12   11.08    3.78
   8   6  13   14.75    7.77
   8   6  13   25.12    5.97
   8  -6  13   18.37    7.21
   8   6  14   23.48    7.37
   8   6  15    0.96    3.20
   8  -6  15    9.60    6.18
   8   7 -15    9.80    7.36
   8   7 -15    7.09    8.46
  -8  -7  15    3.11    5.50
  -8   7  15    5.84    9.53
  -8   7  15    7.93    8.07
   8   7 -14   13.35    8.50
   8   7 -14   14.11   16.79
  -8  -7  14   30.78    6.69
  -8   7  14   13.99    6.75
  -8   7  14   17.61    9.61
   8   7 -13   22.66    7.75
   8   7 -13    6.56    6.86
  -8  -7  13    7.95    5.16
  -8   7  13    7.44    5.19
  -8   7  13   13.96    7.60
   8   7 -12   30.39    9.88
   8   7 -12   26.84    5.48
  -8  -7  12   41.09    6.68
  -8   7  12   33.54    7.12
  -8   7  12   33.41    9.57
   8   7 -11    2.59    3.18
   8   7 -11    0.45    8.87
  -8  -7  11    6.16    3.81
  -8   7  11   -3.11    8.84
   8   7 -10  104.95   14.64
   8   7 -10  107.97    8.61
  -8  -7  10  130.35   10.68
  -8   7  10   94.67   15.24
   8   7  -9  146.98   16.29
   8   7  -9  133.37   10.20
  -8  -7   9  180.03   18.23
  -8   7   9  164.58   16.57
   8   7  -8   56.61    6.20
   8   7  -8   66.47    9.51
  -8  -7   8   70.25    6.94
  -8   7   8   62.83    9.81
   8   7  -7  110.90   18.91
  -8  -7   7  109.54    8.98
  -8   7   7  124.98   11.84
   8   7  -6   56.84    7.49
  -8  -7   6   40.92    5.49
  -8   7   6   48.46    7.04
   8   7  -5   95.40    9.95
  -8  -7   5   97.71    7.24
  -8   7   5  102.83   15.19
   8   7  -4    7.00    3.78
   8  -7  -4    8.86    1.35
  -8  -7   4    6.43    2.88
  -8   7   4    2.39    6.03
   8   7  -3   53.81    6.40
   8  -7  -3   49.85    4.70
  -8  -7   3   67.82    5.27
  -8   7   3   53.95    9.76
   8   7  -2   64.43    9.84
   8  -7  -2   54.86    5.39
  -8  -7   2   60.22    8.00
  -8   7   2   64.74    9.12
   8   7  -1   42.55    5.57
   8  -7  -1   54.15    3.48
  -8  -7   1   52.43    4.40
  -8   7   1   38.47    4.73
   8   7   0   29.88    4.51
   8  -7   0   43.04    5.34
  -8  -7   0   37.27    3.66
  -8   7   0   28.31    2.94
  -8   7   0   38.97    3.84
   8   7   1  273.25   15.76
   8  -7   1  291.16   13.36
  -8  -7  -1  282.15   13.69
  -8   7  -1  294.02   11.05
  -8   7  -1  268.12   17.46
   8   7   2  219.84   12.96
   8  -7   2  223.02   11.61
  -8  -7  -2  231.82   11.00
  -8   7  -2  216.95    9.30
  -8   7  -2  228.93    8.16
   8   7   3  683.59   35.95
   8  -7   3  686.95   35.18
  -8  -7  -3  665.33   32.59
  -8   7  -3  653.91   32.45
  -8   7  -3  666.18   29.44
   8   7   4  314.14   16.94
   8  -7   4  310.91   17.30
  -8  -7  -4  316.41   15.08
  -8   7  -4  338.05   12.10
  -8   7  -4  309.62    9.92
   8  -7   5   68.65    6.99
   8   7   5   74.20    6.09
  -8  -7  -5   64.60    5.16
  -8   7  -5   68.40    2.14
   8   7   6   36.84    4.57
   8  -7   6   47.76    5.69
  -8  -7  -6   33.10    3.83
   8   7   7   35.59    4.55
   8  -7   7   26.19    9.63
  -8  -7  -7   35.63    3.97
   8   7   8   25.96    8.04
   8  -7   8   42.93    7.24
  -8  -7  -8   45.96    4.50
   8  -7   9  183.71   16.63
   8   7   9  170.24   11.63
  -8  -7  -9  186.63   11.24
   8   7  10    5.68    3.30
   8  -7  10    5.85    4.87
  -8  -7 -10    8.35    3.04
   8  -7  11   -1.03    4.43
   8   7  11    0.86    2.96
  -8  -7 -11    4.91    4.45
   8   7  12   23.06    8.97
   8  -7  12   35.25    8.16
   8   7  13   39.18   11.81
   8  -7  13   59.99   10.48
   8   7  14   17.90    8.48
   8  -7  14   30.97    8.74
   8   7  15   -0.54    5.20
   8   8 -14   17.00    8.26
   8   8 -14    5.10    4.95
  -8  -8  14   13.17    5.17
  -8   8  14    2.93    8.30
  -8   8  14    8.44    5.89
   8   8 -13   25.72    7.61
   8   8 -13    3.44    7.53
  -8  -8  13    3.99    5.00
  -8   8  13    9.79    7.56
   8   8 -12   18.94    9.93
   8   8 -12   33.51    9.32
  -8  -8  12   38.32    6.63
  -8   8  12   33.05   16.52
  -8   8  12   29.25    7.28
   8   8 -11    9.44    4.35
   8   8 -11    8.68    6.94
  -8  -8  11   17.87    4.78
  -8   8  11   15.19    5.26
  -8   8  11   14.36    7.43
   8   8 -10    1.19    3.11
   8   8 -10   -1.64    5.19
  -8  -8  10    8.67    3.50
  -8   8  10    5.78    3.93
  -8   8  10    5.76    5.72
   8   8  -9   36.28   14.61
   8   8  -9   53.64    5.76
  -8  -8   9   41.07    6.37
  -8   8   9   46.35    9.47
  -8   8   9   43.66    6.74
   8   8  -8   26.69    5.27
   8   8  -8   27.55    7.83
  -8  -8   8   54.97    5.45
  -8   8   8   33.67   13.18
  -8   8   8   29.97    6.04
   8   8  -7  113.09   11.48
  -8  -8   7   90.74    8.28
  -8   8   7   88.64   11.93
  -8   8   7   99.39    8.91
   8   8  -6   11.23    5.34
  -8  -8   6   21.34    4.10
  -8   8   6   18.79    4.13
  -8   8   6   20.11    5.57
   8   8  -5   33.36    5.48
  -8  -8   5   26.34    4.28
  -8   8   5   25.64    5.67
  -8   8   5   22.72    4.31
   8   8  -4   33.16    5.43
   8  -8  -4   28.56    2.29
  -8  -8   4   21.78    4.02
  -8   8   4   22.00    5.25
  -8   8   4   21.11    4.00
   8   8  -3   19.25    4.45
   8  -8  -3   17.32    2.20
  -8  -8   3   21.43    3.41
  -8   8   3   16.89    3.25
  -8   8   3    9.25    4.36
   8   8  -2   95.41    9.79
   8  -8  -2  128.80    6.15
  -8  -8   2  118.73    7.69
  -8   8   2  105.50    6.92
  -8   8   2  108.85    8.99
   8   8  -1   54.81    6.69
   8  -8  -1   66.86    4.40
  -8  -8   1   67.97    5.44
  -8   8   1   53.46    5.81
  -8   8   1   61.37    7.10
   8   8   0  173.15   11.87
   8  -8   0  179.35    9.35
  -8  -8   0  170.97    9.80
  -8   8   0  162.60    9.97
  -8   8   0  179.75    8.20
   8   8   1  132.93    9.55
  -8  -8  -1  132.09    7.79
  -8   8  -1  111.99   10.91
  -8   8  -1  116.97    5.77
   8   8   2  564.97   31.24
   8  -8   2  540.66   28.73
  -8  -8  -2  578.81   36.19
  -8   8  -2  531.49   24.41
  -8   8  -2  551.21   27.59
   8   8   3  433.87   23.77
   8  -8   3  431.73   23.47
  -8  -8  -3  414.16   20.98
  -8   8  -3  397.92   16.36
  -8   8  -3  432.20   15.72
   8   8   4   39.18    4.97
   8  -8   4   46.06    5.19
  -8   8  -4   35.76    1.94
  -8  -8  -4   34.78    4.17
  -8   8  -4   36.20    3.65
   8   8   5  200.00   13.29
   8  -8   5  237.81   15.23
  -8  -8  -5  220.87   11.97
  -8   8  -5  220.50    6.70
   8   8   6   23.09    4.53
   8  -8   6   31.68    5.71
  -8  -8  -6   30.02    3.75
   8  -8   7   18.04    5.97
   8   8   7   23.58    4.48
  -8  -8  -7   32.50    3.80
   8   8   8  129.47    9.91
   8  -8   8  132.56   20.74
  -8  -8  -8  133.67    8.78
   8   8   9   31.71    5.69
   8  -8   9   53.05    7.83
  -8  -8  -9   43.30    5.04
   8  -8  10  134.67   14.65
   8   8  10  118.14   10.52
  -8  -8 -10  133.41    9.94
   8   8  11   14.18    4.68
   8  -8  11   22.58    6.68
  -8  -8 -11   15.78    4.17
   8   8  12    9.87    7.15
   8  -8  12    5.18    6.49
  -8  -8 -12   12.52    4.00
   8   8  13   11.10    7.99
   8   8  14   31.90    9.11
   8  -8  14   17.40   10.13
   8   9 -14   -6.21    6.92
   8   9 -14    7.55    4.15
  -8  -9  14   -2.50    4.17
  -8   9  14    3.87    7.08
   8   9 -13   12.70    6.83
   8   9 -13    0.87    4.05
  -8  -9  13    5.08    4.25
  -8   9  13    2.17    7.09
  -8   9  13    0.55    4.42
   8   9 -12   19.18   11.01
   8   9 -12   32.27   10.05
  -8  -9  12   52.03    6.96
  -8   9  12   43.78   10.92
  -8   9  12   17.91    7.78
   8   9 -11   13.65    7.79
   8   9 -11    5.01   13.11
  -8  -9  11   17.96    5.45
  -8   9  11   37.02    8.68
  -8   9  11   19.02    5.83
   8   9 -10   25.45    4.83
   8   9 -10   21.89    8.17
  -8  -9  10   27.61    5.33
  -8   9  10    4.16   13.93
  -8   9  10   26.46    6.14
   8   9  -9   17.02    4.12
   8   9  -9    2.02    6.18
  -8  -9   9   10.98    4.26
  -8   9   9   24.95    6.84
  -8   9   9    2.67    7.59
   8   9  -8   29.30    6.07
   8   9  -8   42.49    8.37
  -8  -9   8   47.25    5.92
  -8   9   8   43.50   10.48
  -8   9   8   44.73    8.86
   8   9  -7   37.25   15.26
  -8  -9   7   70.63    7.00
  -8   9   7   77.53   10.29
  -8   9   7   65.72    7.54
   8   9  -6    1.52    4.48
  -8  -9   6    6.54    3.25
  -8   9   6   12.13    4.71
  -8   9   6    3.56    5.48
   8   9  -5   73.11    9.30
  -8  -9   5   98.95   11.31
  -8   9   5   56.23   15.50
  -8   9   5   91.88   11.69
   8   9  -4   29.52    5.54
  -8  -9   4   25.66    4.24
  -8   9   4   37.06    5.91
  -8   9   4   25.52    4.34
   8   9  -3   90.00   14.39
   8  -9  -3  101.64    8.29
  -8  -9   3   81.78   11.05
  -8   9   3  104.58    9.57
  -8   9   3   75.55    6.93
   8   9  -2   77.10    8.42
   8  -9  -2   72.86    7.84
  -8  -9   2   80.17    6.26
  -8   9   2   78.82    7.85
  -8   9   2   61.56    5.60
   8   9  -1   61.26    7.54
   8  -9  -1   71.01    5.22
  -8  -9   1   57.90    5.70
  -8   9   1   66.15    6.79
  -8   9   1   66.79    7.94
   8   9   0   74.95    7.72
   8  -9   0   70.36    5.79
  -8  -9   0   59.87    9.03
  -8   9   0   72.18    9.67
  -8   9   0   68.68    4.83
   8   9   1   48.68    6.36
   8  -9   1   48.09    5.28
  -8  -9  -1   43.13    4.79
  -8   9  -1   50.86    4.70
  -8   9  -1   47.88    3.70
   8   9   2   62.05    5.97
   8  -9   2   47.17    5.43
  -8  -9  -2   45.75    4.83
  -8   9  -2   42.89    4.26
  -8   9  -2   45.63    3.41
   8   9   3  263.08   25.19
   8  -9   3  285.96   17.33
  -8  -9  -3  267.05   14.43
  -8   9  -3  294.01   10.81
  -8   9  -3  258.91   11.84
   8   9   4   27.01    4.62
   8  -9   4   32.85    4.99
  -8  -9  -4   21.69    3.78
  -8   9  -4   22.50    2.28
  -8   9  -4   26.30    1.89
   8   9   5   63.12   11.22
   8  -9   5   74.86    8.11
  -8  -9  -5   60.96    9.04
  -8   9  -5   70.21    2.39
  -8   9  -5   71.13    2.77
   8  -9   6  107.36   10.43
   8   9   6   96.21    8.79
  -8  -9  -6  105.69   11.55
   8   9   7  145.07   10.49
   8  -9   7  118.13   13.03
  -8  -9  -7  119.72   13.53
   8   9   8   52.58    6.78
   8  -9   8   62.60    8.98
  -8  -9  -8   55.20    5.77
   8   9   9   10.31    4.26
   8  -9   9   17.70    5.64
  -8  -9  -9   10.52    3.61
   8   9  10    5.21    3.93
  -8  -9 -10    8.47    3.53
   8   9  11   12.75    4.71
   8  -9  11   16.26    7.17
  -8  -9 -11   11.54    4.24
   8  -9  12   10.12    5.93
   8   9  12    1.75    6.80
  -8  -9 -12    0.69    3.60
   8   9  13   -2.27    7.02
   8  -9  13    6.88    5.81
   8   9  14    5.11    6.84
   8  -9  14    2.91    7.22
   8  10 -13   19.35    9.46
   8  10 -13    7.97    5.72
  -8 -10  13   29.01    9.63
  -8  10  13   29.69   10.66
  -8  10  13   16.95    6.35
   8  10 -12    6.06    8.20
   8  10 -12   15.92    8.43
  -8 -10  12   14.26    8.81
  -8  10  12   23.05    8.90
   8  10 -11   13.58    5.43
   8  10 -11   17.20    8.94
  -8 -10  11   32.83    5.89
  -8  10  11   29.56    6.53
   8  10 -10    5.74    3.95
   8  10 -10    7.10    6.28
  -8 -10  10   13.21    4.35
  -8  10  10   14.03    6.96
  -8  10  10    3.82    4.79
   8  10  -9   16.15    6.52
   8  10  -9   11.83    4.46
  -8 -10   9   14.07    4.46
  -8  10   9   18.23    7.28
  -8  10   9    9.57    4.90
   8  10  -8   42.94    7.03
   8  10  -8   37.84    8.73
  -8 -10   8   53.59    6.24
  -8  10   8   41.39    9.77
  -8  10   8   43.86    6.88
   8  10  -7    3.48    4.93
  -8 -10   7    8.89    5.88
  -8  10   7    9.73    9.38
  -8  10   7    7.56    3.88
   8  10  -6    7.55    4.65
  -8 -10   6    8.54    3.56
  -8  10   6   10.02    5.57
  -8  10   6    9.36    3.87
   8  10  -5   32.22    6.30
  -8 -10   5   32.86    4.72
  -8  10   5   31.02    7.03
  -8  10   5   19.22    4.96
   8  10  -4   24.31    5.53
  -8 -10   4   23.43    4.27
  -8  10   4   23.63    6.21
  -8  10   4   16.36    7.08
   8  10  -3   12.47    4.49
  -8 -10   3   12.77    3.36
  -8  10   3    7.73    4.67
  -8  10   3    6.60    3.26
   8  10  -2   16.38    6.64
   8 -10  -2    1.88    2.76
  -8 -10   2    2.68    3.06
  -8  10   2   17.01    3.99
  -8  10   2    8.05    2.86
   8  10  -1   18.85    4.95
   8 -10  -1   17.35    3.58
  -8 -10   1   12.96    3.59
  -8  10   1   23.62    4.46
  -8  10   1   14.59    5.32
   8  10   0  191.44   15.23
   8 -10   0  215.80   12.20
  -8 -10   0  193.31   11.94
  -8  10   0  194.84   13.08
  -8  10   0  179.34    9.96
   8  10   1    6.32    6.69
   8 -10   1    8.72    3.66
  -8 -10  -1   10.73    3.29
  -8  10  -1    9.68    3.36
  -8  10  -1   12.67    2.50
   8  10   2  106.29    9.75
   8 -10   2   99.11    9.11
  -8 -10  -2  113.52   11.97
  -8  10  -2  106.02   11.31
  -8  10  -2  102.14    5.73
   8  10   3   27.11    5.35
   8 -10   3   38.87    5.57
  -8 -10  -3   29.16    4.30
  -8  10  -3   30.82    3.41
  -8  10  -3   27.93    2.70
   8 -10   4   22.27    5.90
   8  10   4   39.35    5.35
  -8 -10  -4   29.67    4.39
  -8  10  -4   28.42    2.84
  -8  10  -4   30.65    2.33
   8  10   5    3.42    3.75
   8 -10   5    2.50    4.45
  -8 -10  -5    8.69    3.02
  -8  10  -5    7.91    1.24
  -8  10  -5    8.06    1.47
   8  10   6   26.23    5.60
   8 -10   6   37.63    7.13
  -8 -10  -6   36.45    4.61
  -8  10  -6   29.64    1.69
  -8  10  -6   36.65    1.60
   8  10   7   12.34    4.50
   8 -10   7   13.27    5.72
  -8 -10  -7   14.51    3.70
   8  10   8   35.12    6.59
   8 -10   8   45.42    8.48
  -8 -10  -8   48.36    8.81
   8  10   9   22.00    5.68
   8 -10   9   25.05    7.82
  -8 -10  -9   27.73    4.75
   8  10  10   19.09    6.12
   8 -10  10   36.37    8.48
  -8 -10 -10   28.34    5.16
   8  10  11   -5.25    3.85
   8 -10  11    1.09    5.43
  -8 -10 -11    6.00    3.47
   8  10  12   14.65   10.85
  -8 -10 -12   28.12    6.21
   8  10  13    5.42    8.43
   8  11 -13    8.09    4.91
   8  11 -13    2.55    7.87
  -8 -11  13   11.61    4.99
  -8  11  13    9.03    9.06
  -8  11  13    1.06    5.44
   8  11 -12    7.86    8.53
   8  11 -12   20.76   13.92
  -8 -11  12   12.84    5.37
  -8  11  12   13.29    5.79
   8  11 -11    0.34    3.59
   8  11 -11    0.18    5.91
  -8 -11  11   -1.33    3.76
  -8  11  11   -4.13    6.43
  -8  11  11    8.35    4.44
   8  11 -10   18.12    5.54
   8  11 -10   17.13    8.37
  -8 -11  10   10.30    9.18
  -8  11  10   42.46    9.32
  -8  11  10   23.40    6.48
   8  11  -9   -4.28    4.94
   8  11  -9   -0.13    3.57
  -8 -11   9    4.43    3.42
  -8  11   9    9.11    5.50
  -8  11   9   -2.87    3.91
   8  11  -8   20.05    6.19
   8  11  -8   39.23   12.18
  -8 -11   8   29.86    5.20
  -8  11   8   38.10    9.04
  -8  11   8   18.69    5.94
   8  11  -7   34.21    7.19
   8  11  -7   36.60    8.00
  -8 -11   7   50.28    6.03
  -8  11   7   34.08    9.65
  -8  11   7   39.37    6.63
   8  11  -6   25.85    6.39
  -8 -11   6   24.47    4.91
  -8  11   6   26.45    7.67
  -8  11   6   22.37    5.47
   8  11  -5   43.37    7.51
  -8 -11   5   58.87    6.09
  -8  11   5   40.77    8.88
  -8  11   5   34.57    6.59
   8  11  -4   10.89    4.42
  -8 -11   4    2.04    3.40
  -8  11   4    2.20    5.06
  -8  11   4   10.21    3.46
   8  11  -3    0.03    3.96
  -8 -11   3    2.97    3.06
  -8  11   3   15.09    7.10
  -8  11   3    2.80    3.02
   8  11  -2    2.11    4.38
  -8 -11   2   12.93    5.40
  -8  11   2    7.59    7.17
  -8  11   2    8.97    3.22
   8  11  -1    9.40    6.10
   8 -11  -1    2.37    2.89
  -8 -11   1   -2.58    2.85
  -8  11   1    7.48    5.85
  -8  11   1    4.19    4.06
   8  11   0  170.15   13.70
   8 -11   0  150.52   11.37
  -8 -11   0  150.17   10.84
  -8  11   0  145.28   19.23
  -8  11   0  149.52    9.37
   8  11   1   27.47    5.72
   8 -11   1   33.38    5.31
  -8 -11  -1   27.10    4.64
  -8  11  -1   24.11    7.70
  -8  11  -1   26.07    3.62
  -8  11  -1   29.08    3.57
   8  11   2   54.49    7.61
   8 -11   2   52.30    7.30
  -8 -11  -2   56.72    6.08
  -8  11  -2   55.23    5.83
  -8  11  -2   57.65    4.43
  -8  11  -2   62.41    5.33
   8  11   3   57.17    7.75
   8 -11   3   68.14    7.94
  -8 -11  -3   61.42    6.37
  -8  11  -3   56.09    5.48
  -8  11  -3   62.06    4.22
  -8  11  -3   65.67    5.65
   8  11   4   37.86    6.65
   8 -11   4   43.40    7.34
  -8 -11  -4   39.92    8.69
  -8  11  -4   41.57    3.86
  -8  11  -4   43.69    3.09
  -8  11  -4   51.96    5.11
   8  11   5   70.16    7.59
   8 -11   5   64.68    8.78
  -8 -11  -5   63.38    6.30
  -8  11  -5   58.25    4.76
  -8  11  -5   52.52    3.56
  -8  11  -5   66.78    6.20
   8  11   6    3.32    3.34
   8 -11   6    2.89    6.65
  -8 -11  -6    0.35    2.66
  -8  11  -6    0.84    0.76
  -8  11  -6   -0.06    0.87
  -8  11  -6    1.48    2.73
   8  11   7    2.65    3.71
   8 -11   7    1.27    7.57
  -8 -11  -7    3.15    3.12
   8  11   8   19.83    5.54
  -8 -11  -8   19.82    4.73
   8 -11   9   -2.14    4.94
   8  11   9    1.42    3.78
  -8 -11  -9    3.31    5.09
   8  11  10    6.61    5.04
   8 -11  10   15.11    6.66
  -8 -11 -10    8.72    4.17
   8  11  11    5.54    4.11
   8 -11  11  -11.81    5.50
  -8 -11 -11   -0.61    3.58
   8  11  12   12.02   11.37
   8 -11  12   23.67    8.74
  -8 -11 -12   25.48    6.36
   8  12 -12   -1.02    6.37
   8  12 -12    2.25    6.12
  -8 -12  12    0.88    3.80
  -8  12  12   -1.01    7.31
  -8  12  12   -0.63    4.21
   8  12 -11    3.13    5.49
   8  12 -11   15.64   13.85
  -8 -12  11   22.72    5.41
  -8  12  11   27.38    9.38
  -8  12  11   10.30    5.84
   8  12 -10    7.14    4.52
   8  12 -10    4.21    6.62
  -8 -12  10    7.81    4.48
  -8  12  10    4.85    7.65
  -8  12  10    9.89    8.85
   8  12  -9   -0.23    5.50
   8  12  -9   -2.89    4.27
  -8 -12   9    0.36    6.25
  -8  12   9   25.41    6.77
  -8  12   9    2.61    7.15
   8  12  -8    1.47    7.38
   8  12  -8   -1.79    5.28
  -8 -12   8    8.67    3.85
  -8  12   8    5.99    6.60
  -8  12   8    1.81    7.08
   8  12  -7   42.90    8.18
   8  12  -7   22.49   14.32
  -8 -12   7   51.93    6.54
  -8  12   7   51.81   11.09
  -8  12   7   39.18    7.63
   8  12  -6  114.44   13.94
  -8 -12   6  137.39   11.57
  -8  12   6  152.58   16.90
  -8  12   6  126.27   12.24
   8  12  -5   62.64    8.50
  -8 -12   5   68.63    7.03
  -8  12   5   55.90   17.86
  -8  12   5   37.12    7.66
   8  12  -4  130.24   13.42
  -8 -12   4  146.40   11.00
  -8  12   4  139.12   16.11
  -8  12   4  116.40   11.27
   8  12  -3    6.31    4.55
  -8 -12   3    1.33    5.43
  -8  12   3    6.54    4.92
  -8  12   3    0.71    5.41
   8  12  -2   14.19    4.82
  -8 -12   2    4.69    3.74
  -8  12   2   10.06    5.17
  -8  12   2   10.96    3.64
   8  12  -1   79.14    9.82
  -8 -12   1   72.47    7.46
  -8  12   1   63.42    9.48
  -8  12   1   80.28    7.06
   8  12   0  155.60   15.32
   8 -12   0  171.09   13.45
  -8 -12   0  166.50   12.01
  -8  12   0  172.55   14.04
  -8  12   0  159.46   10.40
  -8  12   0  161.09    9.12
   8  12   1   14.38    5.22
   8 -12   1   20.92    8.13
  -8 -12  -1   15.94    4.08
  -8  12  -1   15.07    4.52
  -8  12  -1   11.13    3.20
  -8  12  -1   17.54    3.27
   8  12   2   17.96    5.61
   8 -12   2   25.06    5.46
  -8 -12  -2   23.91    6.95
  -8  12  -2   15.02    7.10
  -8  12  -2   15.53    3.23
  -8  12  -2   19.71    3.52
   8  12   3   63.03    8.86
   8 -12   3   84.15    9.72
  -8 -12  -3   76.41    7.60
  -8  12  -3   77.77    6.66
  -8  12  -3   68.69    5.06
  -8  12  -3   73.80    6.50
   8  12   4   24.52    5.93
   8 -12   4   22.52   10.81
  -8 -12  -4   27.18    4.78
  -8  12  -4   19.94    3.71
  -8  12  -4   26.99    2.87
  -8  12  -4   28.99    4.40
   8  12   5   59.41    7.94
   8 -12   5   63.88    9.52
  -8 -12  -5   73.21   11.01
  -8  12  -5   55.38    4.30
  -8  12  -5   57.65    3.59
  -8  12  -5   68.46    6.45
   8  12   6   67.20    9.47
   8 -12   6   91.17   11.56
  -8 -12  -6   89.57    8.23
  -8  12  -6   95.98    4.09
  -8  12  -6   69.68    5.66
  -8  12  -6   84.57    8.40
   8  12   7   23.29    7.15
   8 -12   7   43.95    8.31
  -8 -12  -7   38.88    5.75
  -8  12  -7   36.31    5.75
   8  12   8   15.17    5.34
   8 -12   8   13.20    6.68
  -8 -12  -8   11.62    4.56
   8  12   9    7.35    5.27
   8 -12   9   15.51    6.74
  -8 -12  -9   10.92    7.15
   8  12  10    1.76    5.14
   8 -12  10    5.60    6.75
  -8 -12 -10   10.36    4.22
   8  12  11   48.82    9.92
  -8 -12 -11   57.80    8.14
   8  12  12   -0.14    4.77
  -8 -12 -12    2.49    4.26
   8  13 -11    2.47    4.28
   8  13 -11   -0.79    6.25
  -8 -13  11    0.07    4.13
  -8  13  11   -5.83    7.66
  -8  13  11    4.51    4.48
   8  13 -10   -0.63    5.05
   8  13 -10    1.61   11.48
  -8 -13  10   14.73    4.72
  -8  13  10    3.58   13.77
  -8  13  10    7.10    5.92
   8  13  -9   17.14    6.65
  -8 -13   9    3.26    4.65
  -8  13   9    6.08    5.44
  -8  13   9   10.15    8.02
   8  13  -8    6.33    5.16
   8  13  -8   -7.50    5.89
  -8 -13   8   11.29    4.35
  -8  13   8    8.43    5.06
  -8  13   8   11.02    7.36
   8  13  -7   45.78    8.01
   8  13  -7   25.40    7.83
  -8 -13   7   28.09    6.03
  -8  13   7   31.22   10.41
  -8  13   7   31.51    6.94
   8  13  -6    1.03    4.98
   8  13  -6    2.94    4.72
  -8 -13   6    4.60    3.57
  -8  13   6   -5.07    9.91
  -8  13   6    3.27    6.48
   8  13  -5   44.72    7.57
  -8 -13   5   36.39    6.08
  -8  13   5   32.84    9.78
  -8  13   5   30.76    6.75
   8  13  -4   75.33   10.43
  -8 -13   4   77.64    8.15
  -8  13   4   75.71   12.50
  -8  13   4   63.06    8.57
   8  13  -3  125.20   22.31
  -8 -13   3  132.36   11.21
  -8  13   3  136.22   16.18
  -8  13   3  122.72   11.26
   8  13  -2    3.76    3.97
  -8 -13   2   -0.86    3.13
  -8  13   2   -3.17    4.45
  -8  13   2    3.91    3.07
   8  13  -1   60.52    9.31
  -8 -13   1   62.97    7.36
  -8  13   1   70.53    9.66
  -8  13   1   67.18    7.05
  -8  13   1   64.33    5.19
   8  13   0    5.66    4.63
  -8 -13   0    7.29    3.66
  -8  13   0    1.35    4.42
  -8  13   0    7.45    3.26
  -8  13   0    5.45    2.71
   8  13   1   19.10    5.78
   8 -13   1   19.08    6.06
  -8 -13  -1   20.31    4.86
  -8  13  -1   17.33    5.40
  -8  13  -1   16.09    3.92
  -8  13  -1   26.68    3.93
   8  13   2   81.06    9.66
   8 -13   2   79.27   10.18
  -8 -13  -2   70.36    8.11
  -8  13  -2   78.93    8.40
  -8  13  -2   66.16    9.57
  -8  13  -2   69.15    6.67
   8  13   3   19.26    5.28
   8 -13   3   20.34    6.22
  -8 -13  -3   20.39    7.50
  -8  13  -3   11.84    4.34
  -8  13  -3   14.02    3.14
  -8  13  -3   18.51    3.94
   8  13   4   21.93    5.06
   8 -13   4    9.95    6.03
  -8 -13  -4   13.88    4.29
  -8  13  -4   10.78    3.50
  -8  13  -4   13.10    2.66
  -8  13  -4   10.24    3.85
   8  13   5    0.74    4.28
   8 -13   5    2.90    5.42
  -8 -13  -5    9.24    3.84
  -8  13  -5    6.70    1.97
  -8  13  -5    3.38    4.34
  -8  13  -5    6.16    3.50
   8  13   6    9.30    3.89
   8 -13   6   -5.36    5.02
  -8 -13  -6   -3.59    5.59
  -8  13  -6    1.19    1.59
  -8  13  -6    1.37    2.64
  -8  13  -6    2.16    3.31
   8  13   7   47.35    8.02
   8 -13   7   41.74   10.35
  -8 -13  -7   61.13    7.03
  -8  13  -7   33.70    6.80
   8 -13   8   39.27   10.22
  -8 -13  -8   31.17    6.71
  -8  13  -8   47.54    6.71
   8  13   9    8.34    5.06
   8 -13   9    5.12    6.60
  -8 -13  -9    2.39    4.11
   8  13  10    6.76    5.62
   8 -13  10    5.36    7.81
  -8 -13 -10    7.61    7.51
   8  13  11    6.60    5.44
   8 -13  11    3.34    6.70
  -8 -13 -11    2.25    4.36
   8  14 -10    1.14    4.83
   8  14 -10    3.07    6.19
  -8 -14  10    4.41    4.25
  -8  14  10    3.16    8.39
  -8  14  10   -0.81    5.28
   8  14  -9    7.54    5.85
   8  14  -9    9.57   12.01
  -8 -14   9    8.39    5.15
  -8  14   9   21.21    9.02
  -8  14   9    9.06    6.16
   8  14  -8   11.95    6.52
   8  14  -8   18.71    7.15
  -8 -14   8   13.26    5.22
  -8  14   8   -2.53    8.97
  -8  14   8   13.46    6.07
   8  14  -7   24.52    6.87
   8  14  -7   15.57    6.80
  -8 -14   7    9.70    5.18
  -8  14   7   17.58   14.60
  -8  14   7    9.51    5.88
   8  14  -6    6.42    6.24
   8  14  -6    1.81    9.01
  -8 -14   6    5.19    4.40
  -8  14   6   20.01    7.61
  -8  14   6   11.69    5.14
   8  14  -5    4.74    5.40
  -8 -14   5   11.71    4.15
  -8  14   5    5.78    7.02
  -8  14   5    4.25    4.74
   8  14  -4   12.28    4.96
  -8 -14   4   -3.72    3.73
  -8  14   4    6.21    6.04
  -8  14   4    4.99    4.07
   8  14  -3    6.57    7.92
  -8 -14   3    7.89    3.83
  -8  14   3    3.63    5.80
  -8  14   3    0.13    3.90
   8  14  -2   12.12    5.90
  -8 -14   2   21.66    4.70
  -8  14   2    4.63    6.85
  -8  14   2    6.68    7.47
  -8  14   2   11.95    3.04
   8  14  -1    9.31    5.30
  -8 -14   1    6.46    4.24
  -8  14   1    7.67    9.07
  -8  14   1    5.88    4.02
  -8  14   1   12.89    3.03
   8  14   0   27.37    8.15
  -8 -14   0   51.13    6.29
  -8  14   0   34.55   13.00
  -8  14   0   36.26    9.51
  -8  14   0   35.71    8.22
   8  14   1    3.88    4.92
  -8 -14  -1   12.02    4.20
  -8  14  -1    4.87    7.63
  -8  14  -1    5.92    3.45
  -8  14  -1    5.62    5.46
   8  14   2   13.34    5.24
  -8 -14  -2   12.11    4.35
  -8  14  -2    5.82    4.46
  -8  14  -2    5.58    3.31
  -8  14  -2   10.35    5.58
   8  14   3   11.94    4.80
   8 -14   3   -0.53    5.67
  -8 -14  -3   11.49    4.13
  -8  14  -3    7.88    4.08
  -8  14  -3    1.62    4.78
  -8  14  -3    9.54    5.75
   8  14   4   23.11    5.59
   8 -14   4   13.18    7.09
  -8 -14  -4   14.64    8.16
  -8  14  -4   14.40    4.22
  -8  14  -4   12.47    3.05
  -8  14  -4   12.78    6.88
   8  14   5   13.98    8.75
   8 -14   5   24.29    7.02
  -8 -14  -5   13.21    4.78
  -8  14  -5   14.79    3.42
  -8  14  -5    9.51    2.67
  -8  14  -5    6.77    4.39
   8  14   6   27.44    7.03
   8 -14   6   29.98    9.26
  -8 -14  -6   26.45    6.08
  -8  14  -6   26.85    5.77
   8  14   7   17.05    5.93
   8 -14   7   12.80   12.94
  -8  14  -7   13.13    5.16
  -8 -14  -8   11.25    5.02
  -8  14  -8   11.92    4.84
   8  14   9   11.32    6.19
  -8 -14  -9    9.36    5.00
  -8  14  -9   10.70    5.01
   8  14  10   11.98    7.13
   8  15  -9   17.41    6.51
   8  15  -9    6.31   10.60
  -8 -15   9   -1.46    8.50
  -8  15   9    3.09    9.07
  -8  15   9    4.44   10.55
   8  15  -8   62.39   12.49
   8  15  -8   61.03   12.97
  -8 -15   8   64.87    9.86
  -8  15   8  104.43   16.16
  -8  15   8    8.77   18.17
   8  15  -7   47.83   10.11
   8  15  -7   35.65   10.25
  -8 -15   7   61.59    8.01
  -8  15   7   33.17   13.53
  -8  15   7   23.50    8.79
   8  15  -6   12.51    6.18
   8  15  -6    7.04    5.41
  -8 -15   6    3.15    4.26
  -8  15   6    2.88    7.43
  -8  15   6    2.84    5.03
   8  15  -5    1.72    6.13
   8  15  -5   -7.12    5.39
  -8 -15   5    5.94    4.25
  -8  15   5   11.38    7.08
  -8  15   5   11.69    4.74
   8  15  -4   10.36    5.92
  -8 -15   4    2.58    4.46
  -8  15   4    9.18    7.25
  -8  15   4   12.18    4.92
   8  15  -3   46.53    9.56
  -8 -15   3   55.74    7.58
  -8  15   3   48.62   11.50
  -8  15   3   46.74    7.90
  -8  15   3   45.09    4.82
   8  15  -2    4.72    5.49
  -8 -15   2    3.22    4.43
  -8  15   2   10.51   12.07
  -8  15   2    9.20    4.46
  -8  15   2    8.57    2.92
   8  15  -1   37.94    8.22
  -8 -15   1   35.69    6.63
  -8  15   1   38.90   17.07
  -8  15   1   32.15    6.40
  -8  15   1   31.40    8.29
   8  15   0    3.57    4.73
  -8 -15   0    4.29    3.74
  -8  15   0    1.82    8.73
  -8  15   0    0.36    3.43
  -8  15   0    1.67    5.00
   8  15   1   21.33    6.06
  -8 -15  -1   17.29    5.11
  -8  15  -1    5.78   10.74
  -8  15  -1    7.66    4.34
  -8  15  -1   15.88    4.26
   8  15   2   18.43    6.43
  -8 -15  -2   17.33    5.36
  -8  15  -2   14.12    9.52
  -8  15  -2   16.24    4.19
  -8  15  -2   16.04    4.31
   8  15   3   29.87    7.02
  -8 -15  -3   36.45    5.85
  -8  15  -3   22.46    5.95
  -8  15  -3   18.71    4.88
  -8  15  -3   15.40    4.37
   8  15   4    0.75    4.23
  -8 -15  -4   -7.45    3.77
  -8  15  -4   -0.49    3.32
  -8  15  -4    0.86    3.96
  -8  15  -4    1.96    3.19
   8  15   5    2.57    7.26
   8 -15   5    0.54    5.69
  -8  15  -5    1.20    4.73
  -8  15  -5    1.01    2.19
  -8  15  -5    0.71    5.59
   8  15   6    6.50    5.70
   8 -15   6   17.24    7.44
  -8 -15  -6    7.10    4.96
  -8  15  -6    9.09    4.59
   8  15   7   41.79    8.27
   8 -15   7   22.33   11.48
  -8 -15  -7   31.99    7.33
  -8  15  -7   36.44    7.06
   8  15   8   10.96    6.44
   8 -15   8    5.02    8.20
  -8  15  -8   11.10    5.05
   8 -15   9   16.14    9.74
  -8 -15  -9   20.82    5.91
  -8  15  -9    6.32    5.58
   8  16  -7   -1.60    6.96
   8  16  -7   -5.18    7.28
  -8 -16   7    7.84    4.81
  -8  16   7   20.87    8.55
  -8  16   7    5.58    6.43
   8  16  -6   18.65    8.08
   8  16  -6   11.25    7.39
  -8 -16   6    8.00    5.83
  -8  16   6   26.78    9.91
  -8  16   6   21.48   10.76
   8  16  -5   11.49    6.99
   8  16  -5   -0.23   10.56
  -8 -16   5    6.37    4.84
  -8  16   5   13.08    8.24
  -8  16   5    5.59    5.32
   8  16  -4    5.66    5.05
  -8 -16   4    0.81    6.31
  -8  16   4    4.12    6.21
  -8  16   4   -4.39    4.08
   8  16  -3   28.02    8.31
  -8 -16   3   36.44    6.57
  -8  16   3   12.35   17.62
  -8  16   3   25.69    6.86
  -8  16   3   23.61    4.30
   8  16  -2   44.28    9.94
  -8 -16   2   52.72    7.96
  -8  16   2   36.13    7.97
  -8  16   2   36.86   22.60
  -8  16   2   45.57    5.71
   8  16  -1   18.93    8.16
  -8 -16   1   25.94    6.50
  -8  16   1   39.07   10.28
  -8  16   1   25.49    6.23
  -8  16   1   19.87    7.90
   8  16   0   49.77    9.91
  -8 -16   0   65.28    8.11
  -8  16   0   29.82   11.46
  -8  16   0   28.67    7.50
  -8  16   0   56.01    6.73
   8  16   1    3.71    4.86
  -8 -16  -1   -3.10    3.99
  -8  16  -1    5.49    5.19
  -8  16  -1   -3.29    3.37
  -8  16  -1   -2.31    3.32
   8  16   2   34.53    8.39
  -8 -16  -2   45.36    7.12
  -8  16  -2   18.14   14.03
  -8  16  -2   31.95    5.69
  -8  16  -2   24.63    5.71
   8  16   3    5.86    5.86
  -8 -16  -3    9.45    4.97
  -8  16  -3    5.36    8.73
  -8  16  -3    6.42    3.71
  -8  16  -3    9.01    4.08
   8  16   4   -4.22    4.77
  -8 -16  -4    4.53    4.10
  -8  16  -4   -2.21    3.73
  -8  16  -4    3.45    2.83
  -8  16  -4    0.07    3.45
   8  16   5  110.30   14.20
  -8 -16  -5   94.08   12.71
  -8  16  -5  116.97   17.71
   8  16   6   -1.22    4.88
  -8  16  -6    3.78    6.23
   8  16   7   14.92    8.82
  -8 -16  -7   31.70    7.73
  -8  16  -7   30.12    6.70
   8  17  -5   20.70    9.60
   8  17  -5   -0.77   13.71
  -8 -17   5   24.04    6.50
  -8  17   5   19.10   10.34
  -8  17   5    8.74    6.90
   8  17  -4    3.77    6.54
   8  17  -4    5.27    7.39
  -8 -17   4   -2.78    4.63
  -8  17   4   11.80    7.64
  -8  17   4    7.87    5.16
   8  17  -3   21.38    8.74
  -8 -17   3   30.97   10.73
  -8  17   3   21.60    7.05
  -8  17   3   28.78   19.89
  -8  17   3   20.42    4.48
   8  17  -2   41.60   10.49
  -8 -17   2   43.09    8.12
  -8  17   2   46.99   14.07
  -8  17   2   35.06   13.16
  -8  17   2   32.15    5.97
   8  17  -1   29.42    8.31
  -8 -17   1   26.57    6.87
  -8  17   1   23.09   11.39
  -8  17   1   15.33    6.46
  -8  17   1   25.07    8.55
   8  17   0    3.72    6.26
  -8 -17   0    2.20    5.12
  -8  17   0    7.93    7.43
  -8  17   0    0.42    7.03
  -8  17   0   12.02    4.13
   8  17   1   10.89    5.24
  -8 -17  -1    6.86    4.88
  -8  17  -1    6.56    6.53
  -8  17  -1    5.62    4.22
  -8  17  -1   -3.15    4.38
   8  17   2   16.28    7.52
  -8 -17  -2   37.81    7.02
  -8  17  -2   13.16    8.63
  -8  17  -2   27.34    5.67
  -8  17  -2   21.39    5.60
   8  17   3   57.17   16.72
  -8 -17  -3   53.89    9.84
  -8  17  -3   43.86   18.89
  -8  17  -3   60.03    7.51
  -8  17  -3   54.96    7.99
   8  17   4   34.30    8.49
  -8  17  -4   25.88    7.66
  -8  17  -4   19.91    9.07
  -8  17  -4   41.81    6.56
   8  17   5   45.53   10.72
  -8 -17  -5   41.69    9.26
  -8  17  -5   40.08    7.70
  -8 -18   2    3.73    5.08
   8  18  -1    3.48    7.49
  -8 -18   1   15.20    5.62
  -8  18   1   11.00    9.76
  -8  18   1   -0.42    9.19
  -8  18   1    6.93    7.50
   8  18   0   24.24    9.66
  -8 -18   0   21.98    7.56
  -8  18   0   14.18   10.89
  -8  18   0   21.45    6.43
  -8  18   0   31.93    6.48
   8  18   1   17.57    7.29
  -8 -18  -1    7.38   11.90
  -8  18  -1    5.36    9.20
  -8  18  -1   18.62    5.55
  -8  18  -1   22.70    6.13
  -8 -18  -2    7.09    6.08
  -9   0  15   -4.98    6.00
  -9   0  14   -0.64    7.85
   9   0 -13    8.71    6.92
   9   0 -13   -0.59    1.17
  -9   0  13   -2.43    4.34
   9   0 -12   10.44    8.72
   9   0 -12   10.91    2.90
  -9   0  12   15.89    5.70
   9   0 -11   29.03   13.16
   9   0 -11   15.47    3.32
  -9   0  11   17.66    5.89
   9   0 -10    6.03    6.23
   9   0 -10    3.77    2.83
  -9   0  10    7.28    4.24
   9   0  -9    6.71    3.13
   9   0  -9   20.14    9.68
  -9   0   9    6.38    4.22
   9   0  -8   10.94    5.08
  -9   0   8    2.69    3.74
   9   0  -7   28.85   12.03
  -9   0   7   37.49    5.62
   9   0  -6    3.31    3.63
  -9   0   6   -4.16    4.59
   9   0  -5   -1.05    5.50
  -9   0   5   -2.27    2.69
   9   0  -4    1.85    3.00
  -9   0   4    1.54    2.39
   9   0  -3    8.91    5.52
  -9   0   3   10.68    4.37
   9   0  -2   -4.90    2.67
  -9   0   2   -2.99    2.10
   9   0  -1    8.88    2.80
  -9   0   1    9.46    2.31
   9   0   0    6.17    2.48
  -9   0   0    6.03    1.88
   9   0   1    0.66    1.77
  -9   0  -1    0.45    1.46
   9   0   2    0.45    1.65
  -9   0  -2   -0.05    1.26
   9   0   3    2.39    1.69
  -9   0  -3    3.48    1.31
   9   0   4   42.49    3.05
  -9   0  -4   41.80    3.81
   9   0   5   49.64    3.18
  -9   0  -5   57.29    2.61
   9   0   6    0.89    2.11
  -9   0  -6   -1.77    1.07
   9   0   7    4.07    1.26
  -9   0  -7    0.33    1.83
   9   0   8   13.36    1.53
   9   0   8   13.73    3.99
  -9   0  -8   10.31    1.37
   9   0   9   12.24    2.17
   9   0   9   20.68    6.56
  -9   0  -9    7.43    1.22
   9   0  10    0.64    0.98
   9   0  10   -1.17    3.28
   9   0  11   28.71    1.72
   9   0  11   40.69    5.94
   9   0  11   30.58    2.85
   9   0  12    0.09    2.06
   9   0  12    1.38    0.72
   9   0  12    5.71    3.59
   9   0  13   15.56    5.78
   9   0  14   28.15    7.72
  -9  -1  15    3.94    6.13
  -9   1  15    7.84    6.33
   9   1 -14    2.42    9.36
  -9  -1  14   13.75    5.58
  -9   1  14    2.88    6.13
   9   1 -13   11.62    6.90
   9   1 -13    1.36    2.64
  -9  -1  13   -6.69    4.14
  -9   1  13    2.18    4.40
   9   1 -12    5.89    1.84
   9   1 -12   12.72    6.27
   9  -1 -12    6.94    7.10
   9  -1 -12   -0.05    1.28
  -9  -1  12    6.30    4.23
  -9   1  12    0.90    7.59
   9   1 -11  112.18   17.07
   9   1 -11  119.61    6.05
   9  -1 -11  137.49   18.54
   9  -1 -11   99.89    3.44
  -9  -1  11  120.83   11.92
  -9   1  11  130.86   20.81
   9   1 -10   74.09    7.19
   9   1 -10   63.63   12.34
   9  -1 -10  100.15   14.11
   9  -1 -10   59.84    2.77
  -9  -1  10   73.31    8.59
  -9   1  10   75.43    8.98
   9   1  -9  174.73   19.63
   9   1  -9  162.06    8.69
   9  -1  -9  168.63   20.47
   9  -1  -9  168.77    8.82
  -9  -1   9  189.58   13.78
  -9   1   9  192.28   14.71
   9  -1  -8    5.86    1.63
   9   1  -8    6.84    5.07
   9  -1  -8    8.77    5.62
  -9  -1   8    7.68    3.69
  -9   1   8    7.81    4.00
   9  -1  -7   72.83   10.12
   9   1  -7   68.03    9.82
  -9  -1   7   53.89    7.27
  -9   1   7   84.71   12.29
   9   1  -6   38.72    7.31
   9  -1  -6   36.60    7.66
  -9  -1   6   51.21    5.41
  -9   1   6   38.84    5.68
   9   1  -5   37.16   10.60
   9  -1  -5   31.53    6.31
  -9  -1   5   47.40    5.01
  -9   1   5   48.54    5.31
   9   1  -4  423.92   26.82
   9  -1  -4  447.45   28.05
  -9  -1   4  470.89   23.58
  -9   1   4  472.19   24.54
   9  -1  -3   19.68    7.20
   9   1  -3   26.95    4.45
  -9  -1   3   28.70    5.80
  -9   1   3   26.79    5.59
   9   1  -2   23.36    4.01
   9  -1  -2   15.61    4.03
  -9  -1   2   27.26    3.25
  -9   1   2   23.90    3.15
   9  -1  -1   39.66    4.67
   9   1  -1   48.24    4.57
  -9  -1   1   41.99    3.66
  -9   1   1   45.17    3.62
   9   1   0   80.05    8.84
   9  -1   0   75.34    5.44
  -9  -1   0   72.18    4.50
  -9   1   0   82.33    4.69
   9  -1   1   14.72    2.52
   9   1   1    6.43    2.59
  -9  -1  -1   13.33    2.16
  -9   1  -1   11.70    2.04
   9   1   2   49.12    3.69
   9  -1   2   44.22    3.52
  -9   1  -2   46.25    2.84
  -9  -1  -2   37.30    2.96
   9   1   3  349.13   14.98
   9  -1   3  339.98   14.26
  -9  -1  -3  362.48   12.95
  -9   1  -3  355.25   12.14
   9   1   4   12.06    2.11
   9  -1   4   13.11    3.17
  -9  -1  -4   11.00    1.71
  -9   1  -4   14.40    1.42
   9   1   5   21.58    3.79
   9  -1   5   25.75    2.18
  -9  -1  -5   24.69    2.06
  -9   1  -5   27.55    1.64
   9   1   6   59.19    3.51
   9  -1   6   65.41    3.12
   9  -1   6   74.00    6.44
  -9  -1  -6   70.17    3.13
  -9   1  -6   65.14    2.38
   9   1   7   54.34    3.28
   9  -1   7   50.89    2.49
   9  -1   7   60.86    6.22
  -9  -1  -7   50.72    2.92
  -9   1  -7   58.42    2.15
   9   1   8   15.21    1.95
   9  -1   8   20.02    1.96
   9  -1   8   14.97    4.17
  -9  -1  -8   11.60    2.80
  -9   1  -8    7.53    1.56
   9   1   9  230.91   11.87
   9   1   9  256.89   16.41
   9  -1   9  214.15    5.74
   9  -1   9  254.79   16.64
  -9  -1  -9  234.66   11.20
   9   1  10  291.74   30.46
   9  -1  10  285.70    8.69
   9  -1  10  301.42    8.12
   9  -1  10  276.87   20.33
   9   1  10  270.61   10.75
   9   1  11   21.90    2.19
   9   1  11   20.22    5.22
   9  -1  11   25.36    5.36
   9   1  12   13.82    3.22
   9   1  12   20.31    5.11
   9  -1  12   13.89    5.27
   9   1  12   13.92    3.48
   9   1  13    5.69    4.90
   9  -1  13   11.39    5.01
   9   1  14   55.42    9.72
   9  -1  14   50.45    9.67
   9   2 -15   10.11   11.92
  -9  -2  15   21.79    7.27
  -9   2  15   12.80   13.77
   9   2 -14   -2.82    8.79
   9   2 -14    3.09    2.30
  -9  -2  14   15.98    5.25
  -9   2  14   -1.89    5.92
   9   2 -13    0.94    3.50
   9   2 -13   -5.68    6.51
  -9  -2  13    6.43    4.19
  -9   2  13   -0.86    4.94
   9   2 -12   88.82   16.01
   9   2 -12   86.84    6.06
  -9  -2  12   75.97   16.79
  -9   2  12   90.89   12.62
   9   2 -11   -1.41    6.14
   9   2 -11    7.23    3.76
  -9  -2  11    0.83    6.69
  -9   2  11    5.97    4.94
   9   2 -10   -1.54    5.22
   9   2 -10    1.57    2.05
   9  -2 -10    1.73    6.21
   9  -2 -10    1.41    0.73
  -9  -2  10    0.16    5.60
  -9   2  10    4.16    3.90
   9   2  -9   79.42    8.41
   9   2  -9   80.94   11.60
   9  -2  -9   76.35   13.94
  -9  -2   9   73.31    8.02
  -9   2   9   59.84    8.99
   9   2  -8   18.59    9.79
   9  -2  -8    7.02   12.08
   9  -2  -8   15.12    2.44
  -9  -2   8   14.26    4.23
  -9   2   8   19.09    4.83
   9   2  -7  220.73   18.68
   9  -2  -7  199.66   20.06
  -9  -2   7  217.08   13.93
  -9   2   7  192.09   14.80
   9   2  -6   20.52    5.59
   9  -2  -6   13.96    6.11
  -9  -2   6   25.35    4.12
  -9   2   6   22.12    4.53
   9   2  -5   83.06    8.96
   9  -2  -5   90.19    9.48
  -9  -2   5   93.04   11.30
  -9   2   5   93.08    7.77
   9   2  -4   97.22    8.77
   9  -2  -4   84.20    8.93
  -9   2   4   89.11    7.27
  -9  -2   4   99.80    7.20
   9   2  -3   14.08    4.30
   9  -2  -3   19.67    4.64
  -9  -2   3   31.87    5.86
  -9   2   3   31.32    3.67
   9  -2  -2  201.04   12.93
   9   2  -2  193.01   12.66
  -9  -2   2  216.45   10.67
  -9   2   2  228.39   11.16
   9   2  -1  193.29   11.25
   9  -2  -1  199.46   11.43
  -9  -2   1  199.88    9.71
  -9   2   1  205.33    9.45
   9   2   0  195.86   15.78
   9  -2   0  208.19   11.05
  -9  -2   0  216.19    9.31
  -9   2   0  204.16   13.03
   9   2   1   84.88    5.42
   9  -2   1   72.49    5.12
  -9  -2  -1   73.35    4.34
  -9   2  -1   79.41    6.59
   9   2   2  301.62   13.96
   9  -2   2  280.02   13.27
  -9  -2  -2  316.54   12.31
  -9   2  -2  333.99   11.69
   9   2   3   64.88    6.25
   9  -2   3   55.48    3.73
  -9  -2  -3   63.11    5.44
  -9   2  -3   63.37    4.31
   9   2   4  122.68    6.38
   9  -2   4  127.80    5.54
   9  -2   4  130.43    8.02
  -9  -2  -4  134.70    5.55
  -9   2  -4  135.16    4.17
   9  -2   5   75.90    3.42
   9  -2   5   71.03    6.39
   9   2   5   68.51    4.48
  -9  -2  -5   84.66    3.84
  -9   2  -5   79.81    3.79
   9  -2   6  631.85   34.79
   9   2   6  613.89   34.38
   9  -2   6  596.56   22.34
  -9  -2  -6  637.55   30.59
  -9   2  -6  662.81   21.38
   9   2   7  311.93   13.08
   9  -2   7  324.31   19.19
   9  -2   7  326.60   11.49
  -9  -2  -7  324.56   12.63
   9  -2   8   75.86   12.27
   9   2   8   67.38    6.35
  -9  -2  -8   69.59    3.94
   9  -2   9   16.48    4.07
   9   2   9    9.48    2.05
  -9  -2  -9    5.81    1.87
   9   2  10    1.27    1.78
   9   2  10    2.50    3.52
   9  -2  10    1.11    6.05
  -9  -2 -10    2.49    2.54
   9   2  11   14.37    4.19
   9   2  11   20.79    8.45
   9  -2  11   26.42    5.31
   9   2  12   57.28    7.89
   9  -2  12   42.13    8.24
   9   2  12   53.55    3.95
   9   2  13    0.30    3.27
   9   2  13    2.52    1.84
   9   2  13   -0.50    4.13
   9  -2  13   -0.63    4.28
   9   2  14   35.53    7.95
   9  -2  14   31.18    7.99
   9   3 -15    9.74   12.61
  -9  -3  15   17.24   12.52
  -9   3  15   25.18    8.79
   9   3 -14   17.39   10.28
   9   3 -14   15.77    3.45
  -9  -3  14   13.79   10.89
  -9   3  14   19.02    7.77
   9   3 -13   39.86    4.72
   9   3 -13   39.06   12.59
  -9  -3  13   52.98    8.22
  -9   3  13   31.88   15.89
   9   3 -12   11.56    8.06
   9   3 -12   11.12    5.57
  -9  -3  12   19.06    5.33
  -9   3  12   12.66    6.87
   9   3 -11   11.46    3.41
   9   3 -11   19.69   12.12
  -9  -3  11    8.62    4.98
  -9   3  11   22.31    5.96
   9   3 -10   32.57    8.51
   9   3 -10   18.87    3.87
  -9  -3  10   54.57    5.91
  -9   3  10   29.71    6.92
   9   3  -9   33.24    3.97
   9   3  -9   31.45    8.05
  -9  -3   9   38.51    9.38
  -9   3   9   26.55    6.95
   9   3  -8    3.50    4.05
   9  -3  -8   12.35    4.98
   9  -3  -8   -0.10    0.44
  -9  -3   8   -9.95    4.82
  -9   3   8    0.80    3.25
   9   3  -7  250.70   22.23
   9  -3  -7  283.11   27.40
  -9  -3   7  301.40   18.08
  -9   3   7  251.70   19.25
   9   3  -6  185.94   23.77
   9  -3  -6  169.53   17.91
  -9  -3   6  183.36   12.02
  -9   3   6  171.62   12.78
   9   3  -5   10.62    4.52
   9  -3  -5   13.03    4.83
  -9  -3   5    9.53    5.82
  -9   3   5   13.14    3.80
   9   3  -4    1.33    3.08
   9  -3  -4   -0.36    3.33
  -9  -3   4    1.78    2.40
  -9   3   4    2.63    2.68
   9   3  -3   18.38    7.26
   9  -3  -3   16.28    4.78
  -9  -3   3   23.59    5.63
  -9   3   3   25.63    3.62
   9   3  -2   26.75    4.33
   9  -3  -2   18.06    7.84
  -9  -3   2   32.77    3.59
  -9   3   2   30.50    3.61
   9  -3  -1    9.26    3.38
   9   3  -1   11.80    3.18
  -9  -3   1   14.92    2.60
  -9   3   1   13.98    2.61
   9   3   0  251.77   18.98
   9  -3   0  252.44   13.88
  -9  -3   0  258.97   11.65
  -9   3   0  283.95   16.94
   9  -3   1  312.70   15.55
   9  -3   1  311.53   13.62
   9   3   1  322.12   15.70
  -9  -3  -1  313.63   13.24
  -9   3  -1  337.81   17.38
   9  -3   2   91.70    5.60
   9   3   2   88.90    5.81
   9  -3   2   82.19    5.49
  -9  -3  -2   93.09    4.85
  -9   3  -2   98.30    4.35
   9   3   3    0.55    3.09
   9  -3   3   -0.27    1.62
   9  -3   3    2.34    1.96
  -9  -3  -3    1.43    1.51
  -9   3  -3   -0.30    1.81
   9   3   4    3.43    1.83
   9  -3   4    4.04    2.34
   9  -3   4   -5.18    2.17
  -9  -3  -4    0.77    2.41
  -9   3  -4    1.01    0.87
   9   3   5   13.09    2.27
   9  -3   5    6.94    1.55
   9  -3   5    9.69    2.91
  -9  -3  -5    9.59    1.85
  -9   3  -5    8.36    0.95
   9   3   6   18.77    4.42
   9  -3   6   19.48    1.38
   9  -3   6   13.92    6.46
  -9  -3  -6   18.01    3.75
   9   3   7  349.12   16.05
   9  -3   7  370.41   22.47
  -9  -3  -7  385.12   15.42
   9   3   8   54.31    6.26
   9  -3   8   55.72    6.38
  -9  -3  -8   42.71    3.61
   9   3   9    6.50    2.15
   9  -3   9    5.37    3.73
  -9  -3  -9    5.23    3.29
   9   3  10   99.34    6.17
   9  -3  10  111.96   11.24
  -9  -3 -10  110.41    5.91
   9   3  11   11.28    5.01
   9   3  11   26.41    5.24
   9  -3  11   28.27    9.13
   9   3  12  117.30   10.98
   9   3  12  122.00   18.27
   9  -3  12  106.40   13.00
   9   3  13   44.22    8.29
   9  -3  13   46.22    8.67
   9   3  13   44.09    4.55
   9  -3  14   23.50    7.43
   9   4 -15   13.86   15.45
   9   4 -15    3.52    5.94
  -9  -4  15   11.02    6.28
  -9   4  15    9.21   12.48
   9   4 -14   17.63    4.45
   9   4 -14   10.06   10.69
  -9  -4  14   15.00    7.04
  -9   4  14   34.22    8.56
   9   4 -13   17.14    9.69
   9   4 -13   15.65    4.13
  -9  -4  13   23.43    6.70
  -9   4  13   22.13    7.93
   9   4 -12   14.60    9.97
   9   4 -12   28.32    4.57
  -9  -4  12   30.78    6.62
  -9   4  12   40.03    8.58
   9   4 -11    6.90    3.47
   9   4 -11   11.93    6.67
  -9  -4  11    8.36    4.86
  -9   4  11   19.14    5.77
   9   4 -10   38.13    9.08
   9   4 -10   36.52    7.68
  -9  -4  10   33.83    6.65
  -9   4  10   49.65   13.18
   9   4  -9   -3.28    2.31
   9   4  -9    1.39    4.56
  -9  -4   9    6.11    3.28
  -9   4   9   -5.11    3.92
   9   4  -8  169.32   17.69
  -9  -4   8  186.40   13.64
  -9   4   8  175.62   15.45
   9   4  -7   24.19    9.30
   9  -4  -7   16.36    0.63
   9  -4  -7   14.31    0.65
  -9  -4   7   18.82    4.17
  -9   4   7   19.63    4.83
   9   4  -6  152.43   13.11
   9  -4  -6  121.08    2.98
  -9  -4   6  139.79    9.53
  -9   4   6  150.63   10.97
   9   4  -5   27.92    5.65
   9  -4  -5   24.34    6.82
   9  -4  -5   25.89    1.39
  -9  -4   5   27.94    4.29
  -9   4   5   26.66    5.11
   9   4  -4  170.89   19.04
   9  -4  -4  174.42   15.24
   9  -4  -4  152.96    4.92
  -9  -4   4  177.44   10.39
  -9   4   4  160.32   16.40
   9   4  -3   20.73    4.30
   9  -4  -3   19.50    5.19
   9  -4  -3   17.58    2.70
  -9  -4   3   28.11    3.59
  -9   4   3   17.57    3.69
   9  -4  -2  106.89   10.10
   9  -4  -2  105.52    6.44
   9   4  -2  117.68    8.54
  -9  -4   2  107.59    7.08
  -9   4   2  119.36    7.35
   9   4  -1   39.00    4.19
   9  -4  -1   26.33    4.98
   9  -4  -1   28.17    2.45
  -9  -4   1   29.46    3.50
  -9   4   1   29.43    3.50
   9   4   0  260.83   14.12
   9  -4   0  247.83   15.58
   9  -4   0  270.47   11.05
  -9  -4   0  261.51   11.96
  -9   4   0  272.52   12.49
   9   4   1  111.29    6.84
   9  -4   1  105.23    7.59
   9  -4   1  105.72    5.66
  -9  -4  -1   97.15    8.57
  -9   4  -1   94.27    5.42
   9   4   2   13.80    2.88
   9  -4   2    8.89    2.86
   9  -4   2   12.07    2.50
  -9  -4  -2   12.77    2.22
  -9   4  -2    8.02    3.06
   9   4   3   92.80    9.51
   9  -4   3   78.15    9.36
   9  -4   3   83.82    5.53
  -9  -4  -3   88.48    5.02
  -9   4  -3   89.55    3.70
   9  -4   4   78.78    6.21
   9   4   4   81.94    5.54
  -9  -4  -4   76.48    4.61
  -9   4  -4   79.72    4.06
   9   4   5  166.80    7.89
   9  -4   5  159.31    9.42
  -9  -4  -5  152.59    9.82
  -9   4  -5  125.09    3.20
   9   4   6  305.42   14.48
   9  -4   6  299.16   17.74
  -9  -4  -6  295.19   12.37
  -9   4  -6  289.93    5.66
   9   4   7   17.87    3.01
   9  -4   7   17.58    4.54
  -9  -4  -7   20.79    2.62
   9   4   8    6.79    2.41
   9  -4   8    8.30    3.95
  -9  -4  -8    7.32    2.28
   9   4   9   62.20    8.00
   9  -4   9   63.41   13.48
  -9  -4  -9   69.38    4.97
   9  -4  10   46.32    6.81
   9   4  10   41.90    4.23
  -9  -4 -10   22.82    6.25
   9  -4  11    5.37    5.13
   9   4  11   13.38    3.11
  -9  -4 -11   13.93    2.91
   9   4  12   36.66    7.94
   9  -4  12   49.17   13.74
   9   4  12   48.51    5.10
   9   4  13   31.97    7.63
   9   4  13   26.58    7.21
   9  -4  13   39.07    8.03
   9  -4  14   -2.54    4.97
   9   4  14    2.52    3.49
   9   5 -15   27.90   10.78
   9   5 -15   10.02    4.59
  -9  -5  15   23.91    7.01
  -9   5  15    7.37    9.10
   9   5 -14    2.26    3.45
   9   5 -14   -1.40    7.99
  -9  -5  14   13.35    5.28
  -9   5  14    4.69    6.69
   9   5 -13    9.29    8.01
   9   5 -13    8.71    3.70
  -9  -5  13    4.41    5.15
  -9   5  13    3.07   10.94
   9   5 -12   24.93    8.40
   9   5 -12   10.07    7.07
  -9  -5  12   18.13    5.61
  -9   5  12   21.39    7.59
   9   5 -11    1.59    9.54
   9   5 -11    7.44    5.15
  -9  -5  11    3.67    4.12
  -9   5  11    4.40    5.40
   9   5 -10    7.02    5.48
   9   5 -10    1.43    2.89
  -9  -5  10    1.93    3.81
  -9   5  10    7.52    4.84
   9   5  -9    5.03    2.91
   9   5  -9    2.16    5.31
  -9  -5   9    6.17    3.74
  -9   5   9    9.14    4.89
   9   5  -8   30.26   13.80
  -9  -5   8   48.43    6.23
  -9   5   8   41.48    7.75
   9   5  -7  154.87   15.67
  -9  -5   7  177.24   17.65
  -9   5   7  142.33   13.36
   9   5  -6   21.61    5.49
   9  -5  -6   16.36    0.75
  -9  -5   6   20.16    4.02
  -9   5   6   22.68    4.65
   9   5  -5   16.66    6.52
   9  -5  -5    4.19    0.91
  -9  -5   5    9.26    3.02
  -9   5   5    4.00    3.45
   9   5  -4   66.93    7.38
   9  -5  -4   55.03    2.40
  -9  -5   4   68.52    5.77
  -9   5   4   56.99    6.37
   9   5  -3   38.58    5.63
   9  -5  -3   33.53    3.42
  -9  -5   3   35.95    4.35
  -9   5   3   38.48    4.78
   9   5  -2  119.45    9.19
   9  -5  -2  126.68    5.04
  -9  -5   2  126.64    7.86
  -9   5   2  142.65    8.62
   9   5  -1  350.98   19.26
   9  -5  -1  335.53   13.02
  -9  -5   1  353.56   16.37
  -9   5   1  333.70   17.04
   9   5   0   18.61    3.32
   9  -5   0    9.74    2.12
  -9  -5   0   14.91    2.67
  -9   5   0    9.12    2.63
   9   5   1   94.24    7.18
   9  -5   1   96.75    5.69
  -9  -5  -1   94.96    5.84
  -9   5  -1  105.46    5.53
   9  -5   2  156.53    8.64
   9   5   2  173.78   14.74
  -9  -5  -2  160.97    8.07
  -9   5  -2  164.03    6.83
   9   5   3  287.11   15.25
   9  -5   3  305.95   21.74
  -9  -5  -3  321.11   18.97
  -9   5  -3  298.93   10.14
   9   5   4   65.19    5.36
   9  -5   4   72.03    5.91
  -9  -5  -4   67.35    7.26
  -9   5  -4   64.82    2.45
   9   5   5  383.87   19.44
   9  -5   5  386.55   21.57
  -9  -5  -5  385.70   16.97
  -9   5  -5  370.71    9.62
   9   5   6   -2.92    2.14
   9  -5   6    6.88    2.84
  -9  -5  -6   -3.05    1.82
   9   5   7  282.87   14.76
   9  -5   7  303.84   28.24
  -9  -5  -7  292.37   13.58
   9   5   8   57.03    5.28
   9  -5   8   68.57    7.69
  -9  -5  -8   62.88    4.95
   9   5   9  189.07   11.30
   9  -5   9  191.04   16.20
  -9  -5  -9  208.21   11.01
   9   5  10    4.10    2.79
   9  -5  10    3.27    7.00
  -9  -5 -10    6.41    2.61
   9   5  11   17.52    6.02
   9  -5  11   16.00    6.00
  -9  -5 -11   14.67    5.59
   9   5  12   71.41    6.96
   9  -5  12   70.99   10.92
   9   5  13   29.04    4.88
   9   5  13   18.65    6.94
   9  -5  13   31.24   13.03
   9   5  14   23.30    4.33
   9  -5  14   48.42    8.64
   9   6 -14   65.94   18.41
   9   6 -14   65.31   14.84
  -9  -6  14   96.16   19.82
  -9   6  14   99.59   16.59
   9   6 -13    9.14    7.01
   9   6 -13    2.24    6.18
  -9  -6  13    6.91    7.75
  -9   6  13   -0.21    6.58
   9   6 -12    3.22    3.70
   9   6 -12   11.40    6.87
  -9  -6  12    2.97    7.49
  -9   6  12    5.24    6.08
   9   6 -11   25.12    8.80
   9   6 -11   22.69    4.91
  -9  -6  11   30.15   10.05
  -9   6  11   36.72    8.23
   9   6 -10   43.47    9.93
   9   6 -10   47.82    5.95
  -9  -6  10   56.79    7.64
  -9   6  10   43.12   16.18
   9   6  -9   44.43    5.82
   9   6  -9   58.19   10.16
  -9  -6   9   58.74    7.39
  -9   6   9   67.37    9.50
   9   6  -8   22.51    6.20
  -9  -6   8   11.11    4.39
  -9   6   8   12.13    5.65
   9   6  -7    0.87    5.10
  -9  -6   7   11.42    3.73
  -9   6   7    9.63    4.57
   9   6  -6  199.19   25.91
   9  -6  -6  184.18    3.43
  -9  -6   6  199.28   12.45
  -9   6   6  196.25   14.80
   9   6  -5   77.53    9.22
   9  -6  -5   70.13    2.48
  -9  -6   5   78.72    6.47
  -9   6   5   65.64    7.59
   9   6  -4   26.84    4.90
   9  -6  -4   14.86    2.59
  -9  -6   4   21.00    6.12
  -9   6   4   21.51    4.34
   9   6  -3   34.94    9.96
   9  -6  -3   45.75    4.12
  -9  -6   3   44.52    4.71
  -9   6   3   42.83    5.54
   9   6  -2   68.97    7.51
   9  -6  -2   74.59    3.82
  -9  -6   2   85.88    6.13
  -9   6   2   72.37   10.29
   9   6  -1   11.81    3.72
   9  -6  -1   13.72    2.20
  -9  -6   1   21.10    3.18
  -9   6   1   15.08    3.17
   9   6   0  467.92   26.21
   9  -6   0  462.17   20.05
  -9  -6   0  478.52   22.69
  -9   6   0  457.26   22.44
   9   6   1   84.96    7.24
   9  -6   1   82.15    8.47
  -9  -6  -1   77.33    5.78
  -9   6  -1   92.09    5.38
   9   6   2   54.80    5.04
   9  -6   2   44.87    6.84
  -9   6  -2   39.18    3.29
  -9  -6  -2   47.35    4.13
   9   6   3  110.50    8.11
   9  -6   3  112.62    8.07
  -9  -6  -3  124.32    6.93
  -9   6  -3  114.39    4.84
   9   6   4  397.37   21.52
   9  -6   4  430.84   22.91
  -9  -6  -4  414.51   19.54
  -9   6  -4  391.13   12.46
  -9   6  -4  403.20   15.46
   9  -6   5  542.65   30.44
   9   6   5  492.69   27.09
  -9  -6  -5  538.57   24.92
  -9   6  -5  505.38   14.28
   9   6   6   78.45    6.34
   9  -6   6   79.88    8.06
  -9  -6  -6   78.06    5.47
   9   6   7    9.00    3.12
   9  -6   7   13.71    4.05
  -9  -6  -7    8.68    4.25
   9  -6   8    3.03    4.24
   9   6   8    8.29    2.94
  -9  -6  -8    6.84    2.65
   9  -6   9   36.67    7.08
   9   6   9   35.90    7.46
  -9  -6  -9   33.17    4.45
   9   6  10   18.56    4.27
   9  -6  10   27.83    6.22
  -9  -6 -10   27.33    4.08
   9   6  11  117.60    9.76
   9  -6  11  149.96   21.86
  -9  -6 -11  120.43    9.11
   9  -6  12   10.08    7.07
   9   6  12   15.47    4.58
  -9  -6 -12   25.54    4.18
   9   6  13   15.10    5.04
   9  -6  13   32.18    7.63
   9   6  14    7.83    3.47
   9  -6  14    0.28   11.20
   9   7 -14    8.69   15.60
   9   7 -14   25.74    5.30
  -9  -7  14    9.97    6.32
  -9   7  14    2.09    9.00
  -9   7  14    4.16    6.63
   9   7 -13    2.01    7.39
   9   7 -13    0.83    4.05
  -9  -7  13    4.20    4.86
  -9   7  13    5.48    6.80
  -9   7  13    9.61    5.01
   9   7 -12    2.34    3.97
   9   7 -12    4.00    6.91
  -9  -7  12    9.69    4.75
  -9   7  12    5.11    6.41
   9   7 -11    4.69    9.37
   9   7 -11    4.14    3.29
  -9  -7  11    3.12    4.27
  -9   7  11    0.33    5.74
   9   7 -10   77.73   12.28
   9   7 -10   61.43    7.22
  -9  -7  10   73.31   13.87
  -9   7  10   80.64   12.37
   9   7  -9    7.75    3.47
   9   7  -9    1.38    6.00
  -9  -7   9   12.19    4.08
  -9   7   9    6.58    5.74
   9   7  -8   38.21   13.64
  -9  -7   8   35.65    5.93
  -9   7   8   41.27    7.85
   9   7  -7   70.25   10.52
  -9  -7   7   75.46    7.67
  -9   7   7   68.19   14.93
   9   7  -6   27.68    6.49
  -9  -7   6   22.50    7.58
  -9   7   6   29.41    9.82
   9   7  -5    6.03    4.15
   9  -7  -5    3.81    1.76
  -9  -7   5    4.14    2.93
  -9   7   5    7.70    6.02
   9   7  -4   32.91    5.51
   9  -7  -4   17.75    3.28
  -9  -7   4   23.28    4.06
  -9   7   4   18.52    8.14
   9   7  -3   32.09    5.91
  -9  -7   3   35.77    4.60
  -9   7   3   33.53    8.32
   9   7  -2    2.62    3.17
   9  -7  -2    3.81    1.62
  -9  -7   2   -1.09    4.03
  -9   7   2   -2.79    2.72
   9   7  -1   34.08    8.27
   9  -7  -1   33.13    3.04
  -9  -7   1   29.40    3.98
  -9   7   1   32.02    4.23
   9   7   0   32.77    5.97
   9  -7   0   45.31    3.96
  -9  -7   0   51.95    4.64
  -9   7   0   45.95    4.59
   9   7   1  144.49   10.88
   9  -7   1  147.01    8.63
  -9  -7  -1  149.17    8.85
  -9   7  -1  162.82    8.45
   9   7   2  116.16   14.28
   9  -7   2  124.76    7.81
  -9  -7  -2  119.19    7.53
  -9   7  -2  113.82    6.09
  -9   7  -2  112.96    7.53
   9   7   3   21.72    3.98
   9  -7   3   13.18    3.59
  -9  -7  -3   18.39    5.14
  -9   7  -3   16.17    2.86
  -9   7  -3   15.69    2.07
   9   7   4   60.26    5.81
   9  -7   4   63.02    6.32
  -9  -7  -4   53.80    7.89
  -9   7  -4   57.55    2.49
  -9   7  -4   53.61    2.55
   9  -7   5   45.41    5.59
   9   7   5   39.83    5.05
  -9  -7  -5   38.36    6.80
  -9   7  -5   35.78    1.92
   9   7   6   41.16    8.64
   9  -7   6   61.89    6.77
  -9  -7  -6   41.23    7.41
   9   7   7    6.21    3.19
   9  -7   7    9.90    4.23
  -9  -7  -7    7.68    2.63
   9   7   8   15.95    3.89
   9  -7   8   15.42    5.52
  -9  -7  -8   19.58    3.45
   9   7   9    6.20    3.45
   9  -7   9   12.87    7.94
  -9  -7  -9    9.53    3.16
   9   7  10    2.99    3.23
   9  -7  10    5.04    4.65
  -9  -7 -10    3.52    2.96
   9   7  11    4.18    3.31
   9  -7  11   -2.90    4.83
  -9  -7 -11    4.13    3.03
   9   7  12   32.93    5.89
   9  -7  12   27.96    8.89
  -9  -7 -12   31.68    5.43
   9   7  13   14.06    4.96
   9   7  14    3.96    3.58
   9  -7  14    4.56    6.52
   9   8 -14    8.27    8.98
   9   8 -14    9.79    5.28
  -9  -8  14   11.43    5.73
  -9   8  14   -1.64   14.05
   9   8 -13   20.49   12.35
   9   8 -13    4.51    4.47
  -9  -8  13   10.71    4.97
  -9   8  13    1.96    5.30
  -9   8  13   -0.62    7.40
   9   8 -12   15.06    5.02
   9   8 -12   11.26    8.78
  -9  -8  12   18.86    5.77
  -9   8  12   13.21    8.09
  -9   8  12   14.36    6.17
   9   8 -11    9.24    6.21
   9   8 -11    4.91    3.67
  -9  -8  11    7.96    4.35
  -9   8  11   -2.32    4.50
  -9   8  11    6.13    6.29
   9   8 -10   41.39    8.91
   9   8 -10   27.86    5.41
  -9  -8  10   31.07    6.15
  -9   8  10   34.06    6.67
  -9   8  10   22.89   14.79
   9   8  -9   47.58    6.51
   9   8  -9   40.05   10.52
  -9  -8   9   55.56    7.34
  -9   8   9   66.25   10.42
   9   8  -8   99.94   14.85
  -9  -8   8  138.56   10.61
  -9   8   8   95.81   14.84
   9   8  -7   93.72   13.45
  -9  -8   7  121.73    9.99
  -9   8   7  124.82   13.46
   9   8  -6   19.76    9.59
  -9  -8   6   14.96    4.22
  -9   8   6   19.24    5.54
   9   8  -5   54.69    8.59
  -9  -8   5   50.54    5.91
  -9   8   5   63.32    7.57
   9   8  -4   37.31    6.56
   9  -8  -4   35.27    4.26
  -9  -8   4   34.85    4.91
  -9   8   4   35.26    6.05
   9   8  -3   10.34    7.09
   9  -8  -3   10.39    2.19
  -9  -8   3   12.10    3.40
  -9   8   3   13.06    4.11
   9   8  -2   43.65    6.25
   9  -8  -2   40.66    3.52
  -9  -8   2   36.46    4.67
  -9   8   2   38.09    4.38
  -9   8   2   46.51    5.56
   9   8  -1   10.12    4.45
   9  -8  -1   10.12    2.76
  -9  -8   1   12.81    3.37
  -9   8   1   20.56    2.83
  -9   8   1   15.78    3.67
   9   8   0   24.09    5.22
   9  -8   0   31.81    3.77
  -9  -8   0   34.88    6.55
  -9   8   0   30.59    3.28
  -9   8   0   32.78    6.42
   9   8   1  151.62   11.84
   9  -8   1  174.65    9.84
  -9  -8  -1  154.92    9.64
  -9   8  -1  146.91    8.81
  -9   8  -1  159.40    7.57
   9   8   2   84.41    8.01
   9  -8   2   82.35    7.08
  -9  -8  -2   89.65    6.35
  -9   8  -2   83.46    5.32
  -9   8  -2   77.90    4.43
   9   8   3   42.87    5.50
   9  -8   3   33.70    5.12
  -9  -8  -3   32.42    4.29
  -9   8  -3   39.25    2.98
  -9   8  -3   33.62    2.62
   9   8   4  294.63   18.54
   9  -8   4  334.99   19.97
  -9  -8  -4  292.56   15.77
  -9   8  -4  309.76   10.33
  -9   8  -4  300.48   10.81
   9  -8   5   78.12    8.08
   9   8   5   79.16    7.22
  -9  -8  -5   72.89    6.06
  -9   8  -5   72.48    2.12
   9   8   6   64.15    7.00
   9  -8   6   83.75    8.61
  -9  -8  -6   74.58    5.92
   9   8   7   66.41    7.25
   9  -8   7   70.78    9.34
  -9  -8  -7   75.31    6.01
   9  -8   8   -1.70    4.37
   9   8   8    9.44    5.47
  -9  -8  -8    5.55    2.83
   9   8   9    2.85    3.52
   9  -8   9   10.32    4.82
  -9  -8  -9    5.61    3.13
   9  -8  10   -1.70    7.93
   9   8  10    2.55    3.52
  -9  -8 -10    5.24    3.16
   9   8  11    4.31    3.59
   9  -8  11    0.55    5.16
  -9  -8 -11    1.63    3.19
   9   8  12    3.29    7.02
   9  -8  12    6.17    6.27
  -9  -8 -12    7.14    3.98
   9   8  13   11.51    8.89
   9  -8  13   18.67    7.44
   9   8  14    5.61    6.21
   9  -8  14   -4.42   11.07
   9   9 -13   42.38   13.09
   9   9 -13   30.97    7.87
  -9  -9  13   56.85    8.45
  -9   9  13   49.68   13.77
  -9   9  13   35.04    8.42
   9   9 -12   10.55    5.11
   9   9 -12    2.34    8.23
  -9  -9  12   12.23    5.48
  -9   9  12   11.05    8.17
  -9   9  12   20.32    6.02
   9   9 -11   -1.66    6.39
   9   9 -11    4.56    3.78
  -9  -9  11    5.01    4.22
  -9   9  11   -2.09    7.37
  -9   9  11    7.49   10.80
   9   9 -10   22.09    8.31
   9   9 -10   17.28    5.17
  -9  -9  10   20.74    5.86
  -9   9  10   32.91    8.69
  -9   9  10   27.94    6.21
   9   9  -9   18.98    7.66
   9   9  -9   12.39    6.83
  -9  -9   9   11.66    4.84
  -9   9   9   20.29    7.38
  -9   9   9   17.95    5.27
   9   9  -8    6.60   10.66
   9   9  -8   19.26    4.87
  -9  -9   8   13.05    4.68
  -9   9   8   11.44    4.81
  -9   9   8   14.60    6.52
   9   9  -7   72.15    9.74
  -9  -9   7   49.77    6.73
  -9   9   7   63.37    9.56
  -9   9   7   33.44    7.16
   9   9  -6   18.31    5.92
  -9  -9   6   18.16    4.33
  -9   9   6   15.55    4.40
  -9   9   6   10.71    9.71
   9   9  -5   69.02   14.91
  -9  -9   5   64.69    7.08
  -9   9   5   68.59   15.13
  -9   9   5   74.38    7.37
   9   9  -4   46.40    8.30
   9  -9  -4   58.52    3.83
  -9  -9   4   56.73    6.12
  -9   9   4   52.76    7.84
  -9   9   4   55.91    6.19
   9   9  -3  255.97   19.19
   9  -9  -3  253.92   12.16
  -9  -9   3  270.08   15.49
  -9   9   3  264.09   18.68
  -9   9   3  250.60   22.02
   9   9  -2  218.83   17.89
   9  -9  -2  240.08   11.59
  -9  -9   2  228.17   14.03
  -9   9   2  239.69   24.27
  -9   9   2  218.52   12.60
   9   9  -1   57.99    8.13
   9  -9  -1   70.35    5.49
  -9  -9   1   63.37    9.45
  -9   9   1   51.98    6.33
  -9   9   1   61.27    5.12
   9   9   0    2.99    3.89
   9  -9   0    8.49    4.50
  -9  -9   0    6.50    2.92
  -9   9   0    8.99    3.07
  -9   9   0    6.22    3.91
   9   9   1   80.99   13.28
   9  -9   1   79.00    6.73
  -9  -9  -1   76.32    6.59
  -9   9  -1   79.53    6.14
  -9   9  -1   76.53    5.05
   9   9   2  173.37   13.11
   9  -9   2  166.58   11.38
  -9  -9  -2  156.19   10.18
  -9   9  -2  159.71    8.88
  -9   9  -2  167.62    7.69
   9   9   3   98.10    9.25
   9  -9   3  112.57    9.13
  -9  -9  -3  102.52   11.50
  -9   9  -3   97.15    8.51
  -9   9  -3   96.42    7.48
   9   9   4   32.46    5.62
   9  -9   4   25.11    5.80
  -9  -9  -4   32.18    4.44
  -9   9  -4   36.15    2.32
  -9   9  -4   36.06    2.67
   9   9   5    7.08    3.33
   9  -9   5   12.11    3.81
  -9   9  -5    4.86    1.00
  -9  -9  -5    3.45    2.80
  -9   9  -5    3.82    0.95
   9   9   6   20.76    4.09
   9  -9   6   11.27    4.82
  -9  -9  -6    8.78    3.43
   9   9   7    5.66    3.84
   9  -9   7    6.97    4.83
  -9  -9  -7    8.73    3.12
   9   9   8   17.33    4.74
   9  -9   8   21.38    6.11
  -9  -9  -8   14.53    3.96
   9   9   9   20.21    4.72
   9  -9   9   13.12    6.35
  -9  -9  -9   13.39    4.18
   9   9  10    5.36    3.53
   9  -9  10   -4.06    4.89
  -9  -9 -10    0.71    3.09
   9   9  11   21.59    6.85
   9  -9  11   39.74    9.06
  -9  -9 -11   40.46    6.00
   9   9  12    6.64    9.46
  -9  -9 -12   19.28    5.32
   9   9  13    7.98    8.00
   9  -9  13    5.51    6.67
   9  10 -13    6.01    8.39
   9  10 -13    5.83    4.77
  -9 -10  13    5.32    8.61
  -9  10  13    9.24    8.57
   9  10 -12   11.80    5.76
   9  10 -12   22.34    9.14
  -9 -10  12   36.67   10.01
  -9  10  12   10.50    5.74
   9  10 -11    6.31    4.98
   9  10 -11   10.84    8.62
  -9 -10  11   17.97    9.30
  -9  10  11   20.73    8.94
  -9  10  11   27.19    6.11
   9  10 -10   13.05    5.93
   9  10 -10   -0.57    5.98
  -9 -10  10   -1.34    3.83
  -9  10  10    1.58    6.02
  -9  10  10    0.89    4.15
   9  10  -9   11.15    8.10
   9  10  -9   18.76    9.23
  -9 -10   9   29.53    5.53
  -9  10   9   30.65    8.80
  -9  10   9   19.19    6.07
   9  10  -8   61.33   10.38
   9  10  -8   61.27    8.41
  -9 -10   8   53.36    7.48
  -9  10   8   63.33   19.05
  -9  10   8   55.47    8.08
   9  10  -7    6.79    8.54
  -9 -10   7    7.54    3.90
  -9  10   7   10.01    5.77
  -9  10   7    5.14    4.07
   9  10  -6   36.46    7.47
  -9 -10   6   28.43    5.37
  -9  10   6   30.51    7.67
  -9  10   6   28.18    5.70
   9  10  -5   12.77    4.56
  -9 -10   5    2.01    3.51
  -9  10   5    2.56    4.77
  -9  10   5    5.48    3.57
   9  10  -4   16.11    5.26
  -9 -10   4   11.74    6.49
  -9  10   4   14.71    5.22
  -9  10   4   13.62    3.99
   9  10  -3   -4.27    3.33
   9 -10  -3   -1.27    1.94
  -9 -10   3    7.31    2.64
  -9  10   3   -0.09    3.26
  -9  10   3   -2.00    2.47
   9  10  -2  117.40   12.50
   9 -10  -2  128.11    8.17
  -9 -10   2  119.65   14.57
  -9  10   2  125.83   11.14
  -9  10   2  113.94    8.66
   9  10  -1   20.50    8.51
   9 -10  -1   18.97    3.54
  -9 -10   1   14.30    3.84
  -9  10   1   20.09    4.55
  -9  10   1   13.70    3.43
   9  10   0  145.36   12.98
   9 -10   0  142.54   15.17
  -9 -10   0  163.63   10.20
  -9  10   0  132.48   10.59
  -9  10   0  127.44    8.48
   9  10   1   31.48    5.36
   9 -10   1   17.26    4.63
  -9 -10  -1   19.98    6.74
  -9  10  -1   17.91    6.50
  -9  10  -1   23.45    3.27
   9  10   2  227.90   17.63
   9 -10   2  233.71   16.39
  -9 -10  -2  232.25   14.00
  -9  10  -2  233.62   11.08
  -9  10  -2  216.50   12.21
   9  10   3   60.85    7.17
   9 -10   3   55.19    7.41
  -9 -10  -3   60.52    5.97
  -9  10  -3   44.02    4.35
  -9  10  -3   61.48    5.76
   9  10   4   19.89    4.67
   9 -10   4   13.32    7.45
  -9 -10  -4   17.72    3.64
  -9  10  -4    9.94    3.07
  -9  10  -4   12.61    2.24
   9  10   5   72.46    7.74
   9 -10   5   60.87   13.59
  -9 -10  -5   58.85   10.09
  -9  10  -5   64.16    2.72
  -9  10  -5   59.95    4.42
   9  10   6    1.37    3.83
   9 -10   6   10.65    7.03
  -9 -10  -6    5.49    3.04
   9  10   7   39.94   11.16
   9 -10   7   41.24   13.01
  -9 -10  -7   45.45    5.69
   9  10   8    9.44    4.46
  -9 -10  -8    9.18    3.65
   9  10   9    7.45    5.18
   9 -10   9   24.66    7.01
  -9 -10  -9   14.90    4.17
   9  10  10   32.66    7.26
   9 -10  10   48.02   10.17
  -9 -10 -10   38.84    6.52
   9  10  11   -0.58    6.95
   9 -10  11   -7.16    6.01
  -9 -10 -11    6.41    3.77
   9  10  12    2.26    7.80
   9 -10  12    7.83    6.23
  -9 -10 -12    2.95    4.47
   9  11 -12    2.75    4.28
   9  11 -12   -0.05    6.66
  -9 -11  12   -4.52    4.31
  -9  11  12   21.30    7.53
  -9  11  12   -0.96    4.41
   9  11 -11   55.16    8.50
   9  11 -11   56.62   14.05
  -9 -11  11   73.22    9.46
  -9  11  11   70.61   14.78
  -9  11  11   41.36    9.33
   9  11 -10    8.46    8.90
   9  11 -10   24.51    8.27
  -9 -11  10   20.74    9.25
  -9  11  10   23.50   14.47
  -9  11  10   11.06    6.34
   9  11  -9   -2.70   10.31
   9  11  -9   10.01    4.67
  -9 -11   9   12.54    4.35
  -9  11   9   -4.73    6.93
  -9  11   9    1.71    4.93
   9  11  -8   16.11    6.74
   9  11  -8   15.74    5.79
  -9 -11   8   13.07    4.71
  -9  11   8   14.97    7.64
  -9  11   8    4.41    8.58
   9  11  -7    6.43    5.87
  -9 -11   7    9.12    4.25
  -9  11   7   13.34    6.72
  -9  11   7   13.32    4.56
   9  11  -6    4.37    8.69
  -9 -11   6   12.79    6.77
  -9  11   6   11.72    6.15
  -9  11   6    8.50    4.35
   9  11  -5  227.19   21.25
  -9 -11   5  245.56   17.25
  -9  11   5  273.96   23.49
  -9  11   5  226.53   17.41
   9  11  -4    2.45    4.50
  -9 -11   4    6.11    3.61
  -9  11   4   11.56    8.17
  -9  11   4    8.47    3.69
   9  11  -3   31.89    9.39
  -9 -11   3   14.52    4.34
  -9  11   3   15.75    8.91
  -9  11   3   16.61    4.13
   9  11  -2   28.95    6.71
   9 -11  -2   23.88    4.61
  -9 -11   2   32.30    4.95
  -9  11   2   22.09    9.53
  -9  11   2   24.42    7.50
   9  11  -1   31.85    6.68
   9 -11  -1   22.75    4.82
  -9 -11   1   32.73    5.13
  -9  11   1   40.99    9.43
  -9  11   1   29.78    4.55
   9  11   0    5.74    5.08
   9 -11   0   16.45    6.41
  -9 -11   0   11.45    3.78
  -9  11   0   13.48    4.08
  -9  11   0   10.69    5.07
   9  11   1  124.44   12.54
   9 -11   1  127.19   11.17
  -9 -11  -1  130.66   10.24
  -9  11  -1  123.13    9.78
  -9  11  -1  129.81    8.07
   9  11   2   75.90   14.93
   9 -11   2   78.14    8.64
  -9 -11  -2   71.54    7.14
  -9  11  -2   83.20   10.56
  -9  11  -2   72.79    5.54
   9  11   3   31.36    6.21
   9 -11   3   22.58   10.46
  -9 -11  -3   45.52    5.20
  -9  11  -3   28.59    5.36
  -9  11  -3   30.86    4.03
   9  11   4   43.08    6.43
   9 -11   4   32.55    6.92
  -9 -11  -4   30.03    5.13
  -9  11  -4   27.68    3.29
  -9  11  -4   34.16    2.79
   9  11   5    5.23    4.49
   9 -11   5   14.04    5.16
  -9 -11  -5   13.51    3.70
  -9  11  -5    8.86    1.48
  -9  11  -5    7.66    1.83
   9  11   6   15.49    4.78
   9 -11   6    8.52    5.57
  -9 -11  -6   13.92    3.96
  -9  11  -6   12.39    0.90
  -9  11  -6    6.19    1.33
   9  11   7    6.23    7.46
   9 -11   7    7.79    5.46
  -9 -11  -7    8.11    6.05
   9  11   8   11.53    5.73
   9 -11   8   20.83    7.08
  -9 -11  -8   20.39    4.64
   9  11   9   16.36    5.88
   9 -11   9   11.86    7.75
  -9 -11  -9   18.45    4.64
   9  11  10   17.20    6.52
   9 -11  10   30.98    8.89
  -9 -11 -10   23.47    5.39
   9  11  11    3.95    7.16
  -9 -11 -11   -2.05    3.76
  -9 -11 -12    1.40    4.21
   9  12 -11    4.45    7.58
   9  12 -11    3.23    7.14
  -9 -12  11    3.35    4.61
   9  12 -10   10.90    5.53
   9  12 -10   11.69    8.01
  -9 -12  10   12.57    5.38
  -9  12  10   13.21    8.91
  -9  12  10    9.20    6.04
   9  12  -9   31.13    7.16
   9  12  -9   23.29    9.01
  -9 -12   9   23.44    6.38
  -9  12   9   23.09   10.16
  -9  12   9   23.76    6.96
   9  12  -8   24.50   14.53
   9  12  -8   32.82    8.00
  -9 -12   8   32.85   10.35
  -9  12   8   21.21   10.31
  -9  12   8   33.17    7.03
   9  12  -7   -6.33    4.62
   9  12  -7    4.35    4.59
  -9 -12   7   -2.97    3.38
  -9  12   7    1.82    3.75
  -9  12   7   11.50    5.43
   9  12  -6    2.70    4.96
  -9 -12   6    9.02    3.78
  -9  12   6    8.82   10.14
  -9  12   6   -1.50    4.04
   9  12  -5    3.67    9.66
  -9  12   5   18.24    6.84
  -9  12   5   11.81    7.95
   9  12  -4   10.16    5.34
  -9 -12   4   12.10    4.20
  -9  12   4    9.01    6.34
  -9  12   4    9.56    4.38
   9  12  -3   28.23    6.48
  -9 -12   3   18.23    5.00
  -9  12   3   22.29    6.77
  -9  12   3   25.53    5.05
   9  12  -2   48.05    8.61
  -9 -12   2   55.45    7.09
  -9  12   2   47.26   10.36
  -9  12   2   60.67    8.60
   9  12  -1   15.06    5.39
   9 -12  -1   11.95    4.40
  -9 -12   1   15.76    4.29
  -9  12   1   14.11    5.23
  -9  12   1   10.75    3.88
   9  12   0   -0.05    6.12
   9 -12   0    1.83    5.44
  -9 -12   0   -0.48    3.07
  -9  12   0    2.53    3.49
  -9  12   0    0.82    4.24
   9  12   1   23.42    6.00
   9 -12   1   23.77    5.58
  -9 -12  -1   20.18    7.91
  -9  12  -1   15.75    7.78
  -9  12  -1   21.87    3.78
   9  12   2   24.94    9.55
   9 -12   2   30.72    6.21
  -9 -12  -2   29.01    4.87
  -9  12  -2   23.27    4.58
  -9  12  -2   18.71    3.58
   9  12   3   17.00    5.11
   9 -12   3   14.67    5.33
  -9 -12  -3   17.72    4.29
  -9  12  -3   10.23    3.49
  -9  12  -3   12.73    4.58
   9  12   4   40.91   12.69
   9 -12   4   61.29    8.97
  -9  12  -4   56.41    4.07
  -9  12  -4   53.19    4.74
   9  12   5    5.62    3.64
   9 -12   5    4.12    4.35
  -9 -12  -5   -2.61    3.15
  -9  12  -5    0.33    2.26
  -9  12  -5    0.93    1.67
   9  12   6   11.37    5.20
   9 -12   6   15.19    6.17
  -9 -12  -6    8.65    4.26
   9  12   7    7.35    7.25
   9 -12   7    5.66    5.26
  -9 -12  -7    1.87    3.59
   9  12   8    1.10    4.02
   9 -12   8   -4.96    4.95
  -9 -12  -8    5.43    5.23
   9  12   9    3.51    4.70
   9 -12   9    0.61    6.06
  -9 -12  -9    3.69    3.77
   9  12  10   27.49    7.79
   9 -12  10   33.37    9.97
  -9 -12 -10   26.23    6.22
   9  12  11   -1.27    4.38
   9 -12  11    0.62    6.22
  -9 -12 -11    0.75    3.77
   9  13 -10    8.80    6.21
   9  13 -10    9.83    8.28
  -9 -13  10    9.92    5.62
  -9  13  10   14.73    9.96
  -9  13  10   18.82    6.87
   9  13  -9   11.46    6.30
   9  13  -9    5.40    7.62
  -9 -13   9   12.65    5.34
  -9  13   9   14.68    8.59
  -9  13   9    8.74    5.88
   9  13  -8   11.14    6.66
  -9 -13   8    1.67    5.09
  -9  13   8   22.39    8.13
  -9  13   8   15.44    5.70
   9  13  -7    3.89    4.72
   9  13  -7   -0.32    4.68
  -9  13   7   -6.97    9.53
  -9  13   7   -0.80    3.91
   9  13  -6    0.91    5.47
  -9 -13   6    3.67    4.18
  -9  13   6    4.48    6.77
  -9  13   6   12.46    4.71
   9  13  -5   61.12   10.97
  -9 -13   5   73.73    8.95
  -9  13   5   62.53    9.43
  -9  13   5   96.92   13.67
   9  13  -4    1.67    4.30
  -9 -13   4   -1.49    5.66
  -9  13   4    3.92    5.03
  -9  13   4   -3.06    5.78
   9  13  -3    4.25    4.44
  -9 -13   3    0.20    3.38
  -9  13   3    1.64    4.84
  -9  13   3   -0.12    3.39
   9  13  -2   24.29   11.81
  -9 -13   2   30.67    9.38
  -9  13   2   32.23    7.63
  -9  13   2   30.13    5.67
   9  13  -1   83.70   11.22
  -9 -13   1   83.15    9.10
  -9  13   1   80.59   11.01
  -9  13   1   87.39    8.40
   9  13   0   26.81    6.78
   9 -13   0   21.55    6.16
  -9 -13   0   30.05    8.65
  -9  13   0   20.87    6.14
  -9  13   0   25.41    4.61
   9  13   1   16.94    5.84
   9 -13   1   12.35    5.74
  -9 -13  -1   22.18    4.64
  -9  13  -1   12.45    3.76
  -9  13  -1   13.60    5.08
   9  13   2   22.42    5.94
   9 -13   2   26.13   10.23
  -9 -13  -2   20.52    5.16
  -9  13  -2   17.35    8.08
  -9  13  -2   18.78    3.75
   9  13   3   18.87    5.61
   9 -13   3    8.95    6.17
  -9 -13  -3   23.22    4.87
  -9  13  -3   14.64    3.98
  -9  13  -3   14.26    3.20
   9  13   4   49.17   16.15
   9 -13   4   75.61   11.97
  -9 -13  -4   76.46    8.87
  -9  13  -4   82.23   10.28
  -9  13  -4   81.01    5.50
   9  13   5    9.67    4.56
   9 -13   5   11.88    5.53
  -9 -13  -5    3.28    6.53
  -9  13  -5    3.47    1.83
  -9  13  -5    3.99    3.76
   9  13   6    5.43    5.22
   9 -13   6    7.53    6.68
  -9 -13  -6   13.89    4.53
  -9 -13  -7    2.15    3.67
   9  13   8    4.29    4.62
  -9 -13  -8    0.04    3.78
   9  13   9    9.17    6.71
  -9 -13  -9   19.91    5.37
   9  13  10   31.95    9.64
  -9 -13 -10   48.09    7.67
   9  14  -9   25.94    8.00
   9  14  -9   29.93   10.52
  -9 -14   9   13.09    6.68
  -9  14   9   31.63   11.52
  -9  14   9    9.97   12.42
   9  14  -8   56.48   11.61
   9  14  -8   42.95   12.42
  -9 -14   8   62.41    9.18
  -9  14   8   69.97   24.50
  -9  14   8   46.39   16.75
   9  14  -7    5.39    9.36
   9  14  -7   -2.83    5.96
  -9 -14   7    4.79    4.13
  -9  14   7   17.05    7.32
  -9  14   7   -1.72    4.93
   9  14  -6   -0.83    4.71
  -9 -14   6    5.80    5.80
  -9  14   6    4.38    5.72
  -9  14   6   -4.76    4.04
   9  14  -5    1.98    5.41
  -9 -14   5    9.24    4.41
  -9  14   5   10.18    7.02
  -9  14   5    4.74    4.85
   9  14  -4   39.24   13.13
  -9 -14   4   38.05    6.52
  -9  14   4   39.09    9.69
  -9  14   4   18.11    6.90
   9  14  -3    5.87    5.61
  -9 -14   3    3.74    6.98
  -9  14   3    7.12    6.33
  -9  14   3    5.43    4.22
   9  14  -2   80.94   10.78
  -9 -14   2   65.97    8.79
  -9  14   2   78.90   11.38
  -9  14   2   55.03    8.48
   9  14  -1   19.60    6.80
  -9 -14   1   21.21    8.87
  -9  14   1   24.11    6.82
  -9  14   1   15.87    8.15
   9  14   0   25.00    7.19
  -9 -14   0   21.84    5.67
  -9  14   0   18.34    6.68
  -9  14   0   26.65    5.05
   9  14   1   19.98    6.89
  -9 -14  -1    2.26    9.11
  -9  14  -1   21.10    6.07
  -9  14  -1   26.44    4.62
   9  14   2   41.39    7.53
   9 -14   2   35.02    8.28
  -9 -14  -2   36.11    6.37
  -9  14  -2   31.18    6.39
  -9  14  -2   24.61    4.88
   9  14   3   41.51    8.24
   9 -14   3   42.92    9.46
  -9 -14  -3   57.28    7.14
  -9  14  -3   33.06    4.90
  -9  14  -3   39.90   10.33
   9  14   4   -5.13    6.99
   9 -14   4   -5.17    5.06
  -9 -14  -4    2.31    3.69
  -9  14  -4    0.28    2.72
  -9  14  -4   -2.95    3.54
   9  14   5   68.44    9.99
  -9 -14  -5   58.06    8.82
   9  14   6   25.17    6.81
   9 -14   6   19.23    8.62
  -9 -14  -6   17.78    9.73
   9 -14   7   98.91   17.20
  -9 -14  -7  102.96   11.81
   9  14   8    1.94    5.68
   9 -14   8    5.94    6.95
  -9 -14  -8    7.51    4.57
   9  14   9   -3.61    5.93
   9 -14   9   13.60    7.26
   9  15  -8   13.00    8.19
   9  15  -8   17.38    8.91
  -9 -15   8   13.32    9.67
  -9  15   8    9.81   10.38
  -9  15   8    6.57    6.99
   9  15  -7   29.95    9.49
   9  15  -7   22.42    8.55
  -9 -15   7   24.31    6.95
  -9  15   7   26.11   11.25
  -9  15   7   15.28    7.76
   9  15  -6    3.08    6.24
   9  15  -6   -2.09    5.52
  -9 -15   6    0.64    4.04
  -9  15   6   12.20    6.88
  -9  15   6   -5.01    7.75
   9  15  -5    0.87    5.85
  -9 -15   5    2.20    4.58
  -9  15   5    6.68    7.44
  -9  15   5   13.95    5.02
   9  15  -4   -1.08    8.09
  -9 -15   4   -2.01    3.79
  -9  15   4   -3.37    5.88
  -9  15   4    2.54    3.95
   9  15  -3   12.38    7.51
  -9 -15   3   21.00    5.80
  -9  15   3    6.76   14.55
  -9  15   3   17.64    5.79
   9  15  -2   30.95    8.93
  -9 -15   2   35.13   11.74
  -9  15   2   23.62   15.99
  -9  15   2   42.01    6.84
   9  15  -1   18.62    7.53
  -9 -15   1   28.91    6.19
  -9  15   1   34.24   13.08
  -9  15   1   19.21    5.70
   9  15   0    9.34    5.33
  -9 -15   0    7.62    6.76
  -9  15   0   -1.20    8.07
  -9  15   0    0.75    3.63
   9  15   1   28.48    8.07
  -9 -15  -1   33.63    6.45
  -9  15  -1   25.27    7.09
  -9  15  -1   21.68    5.41
   9  15   2   40.35    8.25
  -9  15  -2   28.49    6.88
  -9  15  -2   25.38    8.57
  -9  15  -2   30.25    6.10
   9  15   3   60.29   10.33
  -9 -15  -3   60.52    8.84
  -9  15  -3   56.93    8.27
  -9  15  -3   51.02    6.38
  -9  15  -3   64.29    7.58
   9  15   4   33.03   13.76
   9 -15   4   45.20   10.10
  -9 -15  -4   48.91    7.43
  -9  15  -4   25.30    9.10
  -9  15  -4   29.90    4.46
  -9  15  -4   35.49    6.35
   9  15   5    1.84    4.84
   9 -15   5    3.99    6.04
  -9 -15  -5   -6.89    4.18
  -9  15  -5   -2.77    3.78
   9  15   6   14.62    6.24
   9 -15   6   11.01    8.29
  -9 -15  -6   10.84    5.55
   9  15   7   12.96    7.17
   9 -15   7   15.14    9.07
   9 -15   8   -2.46    7.84
  -9 -15  -8    3.77    4.95
   9  16  -6   -6.21    6.74
   9  16  -6    2.26    5.81
  -9 -16   6   -1.65    4.23
  -9  16   6    9.12    6.90
  -9  16   6    1.73    4.83
   9  16  -5   -3.08    7.12
   9  16  -5    4.16    5.89
  -9 -16   5    4.56    4.38
  -9  16   5    1.26    7.12
  -9  16   5   -0.47    4.76
   9  16  -4   15.74    8.51
  -9 -16   4   18.19    6.14
  -9  16   4    3.55   16.66
  -9  16   4   19.52    6.55
   9  16  -3    1.29    5.51
  -9 -16   3   11.92    4.66
  -9  16   3   -3.11   12.18
  -9  16   3   -2.85    4.54
   9  16  -2   60.98   11.32
  -9 -16   2   52.06    9.03
  -9  16   2   52.62   14.11
  -9  16   2   46.71   14.05
   9  16  -1   19.31    6.34
  -9 -16   1    5.01    8.08
  -9  16   1    4.34    6.55
  -9  16   1    3.12    4.82
   9  16   0    7.73    6.31
  -9 -16   0   11.24    5.45
  -9  16   0   11.80   11.28
  -9  16   0   15.06    4.88
   9  16   1   12.66    6.89
  -9 -16  -1    9.79    8.94
  -9  16  -1   16.20   10.19
  -9  16  -1    9.36    7.47
  -9  16  -1    8.64    4.59
   9  16   2   45.92    9.14
  -9 -16  -2   38.31    7.55
  -9  16  -2   28.64    7.73
  -9  16  -2   24.70    6.12
  -9  16  -2   39.77    6.77
   9  16   3    8.82    5.18
  -9 -16  -3    4.36    7.68
  -9  16  -3    0.94    4.56
  -9  16  -3    3.72    5.60
  -9  16  -3    3.20    3.99
   9  16   4   32.62    9.70
  -9 -16  -4   43.47    8.09
  -9  16  -4   32.77    7.00
   9  16   5   -0.82    5.17
  -9 -16  -5   -1.65    7.77
  -9  16  -5    2.64    3.84
   9  16   6   10.19    6.50
  -9 -16  -6    7.26    5.75
  -9  16  -6    4.49    4.86
   9  17  -3   17.24    8.53
  -9 -17   3    9.45    6.25
  -9  17   3   13.63   10.10
  -9  17   3   16.51    6.43
   9  17  -2   -6.89    5.92
  -9 -17   2    0.71    4.54
  -9  17   2   -6.89    7.18
  -9  17   2    2.13    4.48
   9  17  -1    0.46    5.22
  -9 -17   1   14.04    4.70
  -9  17   1    1.01    6.34
  -9  17   1   -5.87    4.06
   9  17   0    6.10    5.57
  -9 -17   0   17.55    8.76
  -9  17   0    7.10    6.43
  -9  17   0    5.30    4.18
  -9  17   0   -1.85    4.07
   9  17   1   -0.45    5.35
  -9 -17  -1    4.68    5.13
  -9  17  -1   -2.07    8.93
  -9  17  -1   -0.59    3.91
  -9  17  -1    5.94    4.22
   9  17   2    1.60    8.51
  -9 -17  -2   11.04    5.12
  -9  17  -2    3.83    8.58
  -9  17  -2    0.91    3.88
  -9  17  -2   -1.60    4.19
   9  17   3    3.53    4.95
  -9 -17  -3    1.44    4.87
  -9  17  -3   -2.17    4.51
  -9  17  -3   -0.16    3.34
  -9  17  -3    3.81    3.85
 -10   0  15   12.74    7.33
 -10   0  14   22.21    8.01
  10   0 -13    8.34   10.48
 -10   0  13   17.53    6.63
  10   0 -12   13.93    8.21
  10   0 -12    4.95    2.55
 -10   0  12    8.47    5.14
  10   0 -11   35.62   11.43
  10   0 -11   41.40    4.88
 -10   0  11   38.08   12.42
  10   0 -10    2.92    3.13
  10   0 -10    7.01    6.30
 -10   0  10   16.06    7.18
  10   0  -9  696.51   39.33
  10   0  -9  529.92   55.29
 -10   0   9  625.60   59.68
  10   0  -8   28.67    7.75
 -10   0   8   20.76    5.32
  10   0  -7  346.65   47.82
 -10   0   7  408.64   25.64
  10   0  -6  181.44   18.18
 -10   0   6  213.78   14.50
  10   0  -5  331.73   38.32
 -10   0   5  371.54   21.38
  10   0  -4  418.35   28.06
 -10   0   4  427.31   23.08
  10   0  -3   18.23    7.71
 -10   0   3   22.24    3.66
  10   0  -2   -4.25    2.90
 -10   0   2   -1.21    2.38
  10   0  -1  234.46   14.52
 -10   0   1  252.22   12.46
  10   0   0  112.75    8.21
 -10   0   0  128.95    6.82
  10   0   1   41.36    4.37
 -10   0  -1   41.50    3.52
  10   0   2    0.08    2.07
 -10   0  -2    2.52    1.56
  10   0   3   30.01    3.39
 -10   0  -3   27.55    2.51
  10   0   4  341.97   20.60
 -10   0  -4  367.17   17.43
  10   0   5   84.05    4.91
 -10   0  -5   91.41    4.00
  10   0   6    9.85    2.05
 -10   0  -6   13.20    2.53
  10   0   7    9.56    2.75
 -10   0  -7    5.63    1.45
  10   0   8   51.21    6.53
  10   0   8   42.63    2.80
 -10   0  -8   42.50    2.46
  10   0   9  315.30   31.85
  10   0   9  274.96   10.10
 -10   0  -9  283.15    9.33
  10   0  10    2.60    1.10
  10   0  10    8.69    3.71
  10   0  11    6.10    1.90
  10   0  11   18.77    7.50
  10   0  11    9.93    1.83
  10   0  12    5.48    4.54
  10   0  13  106.02   20.72
 -10  -1  15    0.29    9.65
 -10   1  15    7.32   10.37
  10   1 -14    4.35    9.68
 -10  -1  14   20.26    9.91
 -10   1  14    2.06    6.35
  10   1 -13   22.15   10.24
 -10  -1  13   13.98    6.33
 -10   1  13   10.03    6.78
  10   1 -12   12.22    8.32
  10   1 -12    6.62    2.44
  10  -1 -12   25.42    9.52
 -10  -1  12   22.96    5.72
 -10   1  12   15.84    6.01
  10   1 -11   30.56   10.88
  10   1 -11   31.31    5.91
  10  -1 -11   50.19   12.04
  10  -1 -11   33.43    3.07
 -10  -1  11   49.32    7.43
 -10   1  11   49.07    7.82
  10   1 -10   65.98   12.33
  10   1 -10   62.02    4.87
  10  -1 -10   74.24   22.89
  10  -1 -10   57.58    4.91
 -10  -1  10   65.89    8.72
 -10   1  10   73.24    9.27
  10   1  -9   35.44   10.71
  10   1  -9   50.35    4.29
  10  -1  -9   23.29   10.67
  10  -1  -9   36.93    2.91
 -10  -1   9   60.99    7.02
 -10   1   9   37.23    7.48
  10   1  -8   73.07   10.81
  10  -1  -8   41.93   11.14
 -10  -1   8   50.95    7.65
 -10   1   8   70.13    8.15
  10  -1  -7   93.21   12.66
  10   1  -7   88.92   12.36
 -10  -1   7   91.66   13.80
 -10   1   7   85.32    9.40
  10  -1  -6   39.41    8.31
  10   1  -6   48.78    8.08
 -10  -1   6   39.15    5.48
 -10   1   6   46.49    5.93
  10  -1  -5    2.53    4.21
  10   1  -5    1.86    4.10
 -10  -1   5    4.81    2.95
 -10   1   5   10.46    5.32
  10   1  -4   15.77    5.13
  10  -1  -4   23.22    5.23
 -10  -1   4   27.31    6.60
 -10   1   4   21.44    4.08
  10   1  -3   22.93    5.17
  10  -1  -3   30.09    5.42
 -10  -1   3   28.33    4.27
 -10   1   3   32.55    4.13
  10  -1  -2  335.56   21.36
  10   1  -2  344.64   21.63
 -10  -1   2  381.69   25.52
 -10   1   2  402.11   18.44
  10   1  -1   69.02    9.83
  10  -1  -1   64.63    6.18
 -10  -1   1   56.18    4.95
 -10   1   1   60.55    4.89
  10   1   0   40.46    4.96
  10  -1   0   41.25    7.47
 -10  -1   0   43.61    4.06
 -10   1   0   48.15    3.93
  10   1   1  214.61   17.94
  10  -1   1  206.34   11.77
 -10  -1  -1  223.89   10.00
 -10   1  -1  232.44   10.06
  10  -1   2   13.00    2.55
  10   1   2    8.88    2.63
 -10  -1  -2    8.17    2.02
 -10   1  -2    7.56    3.29
  10   1   3  127.80   10.69
  10  -1   3  116.57   10.34
 -10  -1  -3  122.85    8.39
 -10   1  -3  134.77    5.36
  10   1   4    6.86    2.15
  10  -1   4    5.15    2.02
 -10   1  -4    7.76    1.43
 -10  -1  -4    4.81    1.76
  10  -1   5   97.87    5.26
  10   1   5   92.89    8.91
 -10  -1  -5  108.29    4.93
 -10   1  -5  110.98    4.17
  10   1   6   44.48    3.46
  10  -1   6   56.40    5.99
  10  -1   6   40.41    3.01
 -10  -1  -6   52.00    4.50
 -10   1  -6   46.67    2.29
  10  -1   7   31.36    2.42
  10  -1   7   34.09    5.38
  10   1   7   31.29    2.91
 -10  -1  -7   34.15    4.04
 -10   1  -7   31.49    1.90
  10   1   8    4.92    1.51
  10  -1   8    1.38    1.13
  10  -1   8    1.46    3.33
 -10  -1  -8    2.11    2.39
 -10   1  -8    0.76    0.89
  10   1   9    2.81    3.99
  10   1   9    3.74    1.64
  10  -1   9    4.52    1.60
  10  -1   9    0.37    3.77
 -10  -1  -9    3.91    1.50
  10   1  10   25.58    5.35
  10   1  10   20.31    2.27
  10  -1  10   16.43    5.45
 -10  -1 -10   20.84    2.11
  10   1  11   11.77    5.04
  10   1  11   14.65    1.96
  10  -1  11   11.61    5.06
  10   1  12   31.24   10.73
  10  -1  12   25.92    6.80
  10  -1  13    0.15    4.52
  10   1  13    3.32    4.41
  10  -1  14   10.29   10.09
  10   2 -15  -14.68    9.95
 -10  -2  15    3.44    5.42
 -10   2  15   -0.42    5.64
  10   2 -14   25.74   13.51
 -10  -2  14   25.12    8.08
 -10   2  14   31.97    9.07
  10   2 -13    0.41    2.13
  10   2 -13   -3.74    6.83
 -10  -2  13   -6.69    4.43
 -10   2  13    0.17    8.29
  10   2 -12   31.14   11.77
  10   2 -12   32.61    6.87
 -10  -2  12   37.16    7.42
 -10   2  12   37.74   14.45
  10   2 -11    5.67    2.73
  10   2 -11   10.09    6.94
 -10  -2  11    7.86    4.55
 -10   2  11    3.25    5.29
  10   2 -10    4.30    5.06
  10   2 -10    2.47    3.73
  10  -2 -10   16.83    5.91
  10  -2 -10   -0.12    0.54
 -10  -2  10   -2.63    3.48
 -10   2  10    7.53    3.85
  10   2  -9   15.20    7.86
  10   2  -9   18.45    3.65
  10  -2  -9   22.15    9.27
  10  -2  -9   22.35    2.64
 -10  -2   9   24.23    5.28
 -10   2   9   29.01    5.95
  10   2  -8  102.71   25.22
  10  -2  -8  105.58   26.57
 -10  -2   8  130.14   11.35
 -10   2   8  133.75   12.58
  10   2  -7   16.40    6.60
  10  -2  -7   26.60    6.93
 -10  -2   7   19.65    4.62
 -10   2   7   13.82    5.10
  10   2  -6   64.79   15.74
  10  -2  -6   68.95   10.50
 -10  -2   6   79.20   11.71
 -10   2   6   78.85   12.49
  10   2  -5  107.76   11.48
  10  -2  -5   97.80   12.15
 -10  -2   5  114.04    9.01
 -10   2   5  116.19    9.03
  10   2  -4    6.78    4.24
  10  -2  -4   15.48    4.60
 -10  -2   4   12.42    3.45
 -10   2   4    7.26    3.40
  10   2  -3   92.25    8.20
  10  -2  -3   76.40    8.74
 -10   2   3   83.21    6.94
 -10  -2   3   79.43    6.68
  10   2  -2   27.94    4.65
  10  -2  -2   17.72    4.71
 -10  -2   2   26.72    3.71
 -10   2   2   25.73    3.70
  10  -2  -1   45.59    5.43
  10   2  -1   48.07    5.49
 -10  -2   1   47.34    4.45
 -10   2   1   41.78    4.27
  10  -2   0  123.36    9.03
  10   2   0  138.16    9.15
 -10  -2   0  137.67    7.34
 -10   2   0  141.69    7.27
  10   2   1   60.90    7.94
  10  -2   1   50.11    8.02
 -10   2  -1   54.94    3.99
 -10  -2  -1   51.40    4.10
  10   2   2   22.94    3.24
  10  -2   2    9.73    3.05
 -10  -2  -2   24.31    2.51
 -10   2  -2   18.28    3.85
  10   2   3   59.65    4.53
  10  -2   3   51.03    4.22
 -10  -2  -3   48.81    3.64
 -10   2  -3   56.37    3.13
  10   2   4   80.93    5.61
  10  -2   4   79.77    4.90
  10  -2   4   82.08    7.01
 -10  -2  -4  101.39    4.75
 -10   2  -4   91.47    3.66
  10   2   5   78.37    5.16
  10  -2   5   88.44    7.40
  10  -2   5   85.48    4.55
 -10  -2  -5   85.41    4.59
 -10   2  -5   87.10    3.41
  10  -2   6   65.30    5.35
  10  -2   6   77.97   10.90
  10   2   6   67.09    4.43
 -10  -2  -6   63.04    3.77
 -10   2  -6   65.52    2.50
  10   2   7   24.59    2.97
  10  -2   7   26.05    1.80
  10  -2   7   17.54    4.92
 -10  -2  -7   25.02    4.18
  10  -2   8   22.91    4.87
  10  -2   8   20.08    1.67
  10   2   8   15.85    2.65
 -10  -2  -8   13.75    3.97
 -10   2  -8   16.74    1.08
  10   2   9  170.17   12.53
  10  -2   9  176.64   15.16
 -10  -2  -9  179.72    8.14
  10   2  10    7.06    1.95
  10   2  10    4.45    3.80
  10  -2  10    2.05    3.89
 -10  -2 -10    0.37    1.73
  10   2  11   53.06    4.13
  10   2  11   59.71    8.47
  10  -2  11   64.48    8.55
  10   2  12   45.15    3.87
  10   2  12   43.94    8.01
  10  -2  12   45.53    8.29
  10   2  13   13.60    9.84
  10  -2  13   16.90    6.49
  10  -2  14   -0.44    4.64
 -10  -3  15    9.32    6.78
  10   3 -14    7.26    8.09
  10   3 -14    1.53    4.41
 -10  -3  14    4.72    5.53
 -10   3  14    4.46    6.34
  10   3 -13   16.28    9.53
  10   3 -13    9.78    3.61
 -10  -3  13   19.88    6.34
 -10   3  13   23.82    7.47
  10   3 -12    4.27    7.28
  10   3 -12    6.21    3.00
 -10  -3  12    1.17    4.83
 -10   3  12    8.42    5.72
  10   3 -11   12.61   10.22
  10   3 -11    3.84    4.66
 -10  -3  11    1.44    4.21
 -10   3  11    1.19    4.94
  10   3 -10   10.12    6.27
  10   3 -10    3.25    3.19
 -10  -3  10    9.99    4.57
 -10   3  10    8.10    4.94
  10   3  -9   58.92   17.10
  10   3  -9   58.73    5.31
  10  -3  -9    8.03   12.38
 -10  -3   9   57.95    7.54
 -10   3   9   44.27    8.39
  10   3  -8  140.53   16.44
  10  -3  -8  125.79   19.33
 -10  -3   8  131.38   11.97
 -10   3   8  135.85   13.04
  10   3  -7    5.34    4.96
  10  -3  -7   -0.96    5.95
 -10  -3   7    4.99    3.73
 -10   3   7    9.98    3.93
  10   3  -6   30.27    7.88
  10  -3  -6   17.69   14.77
 -10  -3   6   38.03    5.80
 -10   3   6   54.04    6.07
  10   3  -5   75.53    9.69
  10  -3  -5   72.50   10.43
 -10  -3   5   84.30    7.31
 -10   3   5   81.07    7.72
  10   3  -4   42.32   10.87
  10  -3  -4   25.80    6.94
 -10  -3   4   37.00    5.10
 -10   3   4   50.65    5.38
  10   3  -3   80.59    8.95
  10  -3  -3   80.93    9.36
 -10  -3   3  100.61    7.13
 -10   3   3   84.38   11.79
  10  -3  -2  331.88   31.94
  10   3  -2  317.09   20.43
 -10  -3   2  345.55   18.22
 -10   3   2  362.59   18.31
  10   3  -1   27.78    4.82
  10  -3  -1   31.96    4.88
 -10  -3   1   28.51    3.83
 -10   3   1   42.04    6.22
  10  -3   0   19.64    4.05
  10   3   0   19.86    4.03
 -10  -3   0   21.82    3.19
 -10   3   0   24.83    3.08
  10  -3   1  334.07   18.91
  10  -3   1  357.44   16.78
 -10  -3  -1  380.30   16.62
 -10   3  -1  366.79   15.55
  10  -3   2   73.31    5.88
  10  -3   2   83.54    5.92
  10   3   2   76.67    6.19
 -10  -3  -2   82.95    5.06
 -10   3  -2   88.51    4.67
  10   3   3  404.35   20.65
  10  -3   3  443.72   21.64
  10  -3   3  453.32   23.04
 -10  -3  -3  447.70   19.57
 -10   3  -3  472.03   17.40
  10   3   4   11.82    2.79
  10  -3   4   15.23    3.94
  10  -3   4    8.40    3.32
 -10  -3  -4   15.72    2.30
 -10   3  -4   13.26    1.51
  10   3   5  104.91    6.26
  10  -3   5   86.49    4.94
  10  -3   5  102.22    7.97
 -10  -3  -5   95.02    5.28
 -10   3  -5   98.32    4.81
  10   3   6  198.12   10.29
  10  -3   6  201.72   13.80
  10  -3   6  201.22    7.60
 -10  -3  -6  206.19    8.97
  10   3   7    9.10    2.45
  10  -3   7    6.37    3.89
 -10  -3  -7    9.11    2.12
 -10   3  -7    8.80    0.75
  10   3   8   21.41    2.98
  10  -3   8   15.99    4.98
 -10  -3  -8   17.53    2.82
  10  -3   9   78.04   15.17
  10   3   9   69.65    8.52
 -10  -3  -9   79.30    5.21
  10  -3  10    9.37    4.66
  10   3  10   10.81    2.63
 -10  -3 -10    5.05    3.97
  10   3  11   13.07    2.87
  10   3  11    5.51    4.97
  10  -3  11    8.30    5.40
 -10  -3 -11   11.76    2.60
  10   3  12  130.17   21.02
  10  -3  12  125.45   14.03
  10   3  12  119.87    7.99
  10   3  13   -0.98    4.93
  10  -3  13   14.96    5.34
  10  -3  14  -12.36    7.12
  10   4 -14    1.98    3.14
  10   4 -14   -1.02    7.90
 -10  -4  14    0.73    5.30
 -10   4  14    4.83    6.27
  10   4 -13   -2.66    8.63
  10   4 -13   14.71    3.92
 -10  -4  13    6.90    5.74
 -10   4  13   -0.46   11.52
  10   4 -12   16.04    6.77
  10   4 -12    3.10    8.54
 -10  -4  12   15.88    5.69
 -10   4  12   10.87    7.16
  10   4 -11   11.88    6.48
  10   4 -11    2.78    3.30
 -10  -4  11    5.31    4.51
 -10   4  11    3.66    5.48
  10   4 -10   30.55   11.48
  10   4 -10    9.13    3.68
 -10  -4  10   13.34    5.09
 -10   4  10   13.42    5.87
  10   4  -9   54.58   11.36
  10   4  -9   54.91    5.77
 -10  -4   9   58.90   13.54
 -10   4   9   73.56    9.61
  10   4  -8   37.28    8.48
 -10  -4   8   31.52    5.93
 -10   4   8   34.98    7.09
  10   4  -7  255.89   21.44
  10  -4  -7  202.82    6.22
 -10  -4   7  271.54   16.72
 -10   4   7  283.16   18.59
  10   4  -6  116.21   14.10
  10  -4  -6  131.44   16.04
  10  -4  -6  117.01    5.05
 -10  -4   6  156.44   10.40
 -10   4   6  135.29   11.58
  10   4  -5   29.63   11.36
  10  -4  -5   25.52    8.20
  10  -4  -5   34.16    1.92
 -10  -4   5   44.91    8.44
 -10   4   5   44.01    5.61
  10   4  -4  194.56   16.13
  10  -4  -4  163.64   17.83
  10  -4  -4  175.73    9.01
 -10  -4   4  217.09   12.48
 -10   4   4  197.02   13.40
  10   4  -3   75.18    7.74
  10  -4  -3   77.63    9.01
  10  -4  -3   50.73    5.06
 -10   4   3   74.52    6.42
  10   4  -2   76.30   10.90
  10  -4  -2   55.56    7.57
  10  -4  -2   45.26    5.23
 -10  -4   2   54.46    5.18
 -10   4   2   50.00    5.38
  10   4  -1  157.27   11.41
  10  -4  -1  171.20   11.27
  10  -4  -1  177.80   13.41
 -10  -4   1  167.22    9.47
 -10   4   1  159.88   14.09
  10   4   0    5.90    3.40
  10  -4   0   10.15    2.39
  10  -4   0   10.37    6.28
 -10   4   0   13.99    2.63
 -10  -4   0   14.02    2.74
  10  -4   1   13.25    2.49
  10   4   1   11.31    3.25
  10  -4   1    8.25    3.62
 -10  -4  -1   12.91    4.15
 -10   4  -1    7.28    2.30
  10   4   2   54.83    5.07
  10  -4   2   56.85    4.63
  10  -4   2   43.76    5.49
 -10  -4  -2   53.52    6.88
 -10   4  -2   51.08    3.51
  10  -4   3  158.30    9.75
  10   4   3  173.77   14.73
  10  -4   3  160.79    9.86
 -10  -4  -3  164.45    8.27
 -10   4  -3  164.29    6.37
  10   4   4  124.68    8.45
  10  -4   4  129.45    9.19
 -10   4  -4  129.07    4.50
 -10  -4  -4  140.07    7.13
  10   4   5  151.15   13.83
  10  -4   5  163.07   11.20
 -10  -4  -5  157.18    8.15
 -10   4  -5  166.62    6.58
  10  -4   6  109.45    9.02
  10   4   6   99.05    6.76
 -10  -4  -6   99.98    8.91
  10   4   7  159.61   14.02
  10  -4   7  166.56   19.49
 -10  -4  -7  160.40    8.20
  10  -4   8    6.24    3.80
  10   4   8    4.65    2.43
 -10  -4  -8    1.61    2.20
  10   4   9    0.34    2.25
  10  -4   9    3.97    3.54
 -10  -4  -9   -1.95    3.45
  10   4  10   73.01    9.86
  10  -4  10   60.32    9.82
 -10  -4 -10   79.98    5.80
  10  -4  11   85.41   12.33
  10   4  11  102.08    7.58
 -10  -4 -11  117.98   10.99
  10   4  12   89.90    7.10
  10   4  12   69.89   10.71
  10  -4  12   85.54   12.22
  10   4  13    1.58    8.80
  10   4  13    6.21    3.32
  10  -4  13   17.99    6.00
  10  -4  14   -0.95    5.36
  10   5 -14   45.08   14.63
  10   5 -14   28.64   11.36
 -10  -5  14   42.65    9.85
 -10   5  14   51.38   12.36
  10   5 -13   -0.25    8.29
  10   5 -13    2.76    3.90
 -10  -5  13   13.91    5.41
 -10   5  13    8.88    6.84
  10   5 -12    2.66    3.46
  10   5 -12   13.14    6.31
 -10  -5  12    0.46    4.21
 -10   5  12   -6.33    5.56
  10   5 -11   29.87   20.18
  10   5 -11   53.81    6.78
 -10  -5  11   64.44    8.51
 -10   5  11   49.78   10.78
  10   5 -10    9.60    7.69
  10   5 -10   12.69    4.08
 -10  -5  10   25.61    5.41
 -10   5  10   14.38   10.75
  10   5  -9   49.58   10.49
  10   5  -9   55.53    5.92
 -10  -5   9   57.41    7.81
 -10   5   9   49.00   15.76
  10   5  -8    8.35    5.63
 -10  -5   8    2.55    6.50
 -10   5   8    5.43    4.55
  10   5  -7   20.83    6.30
 -10  -5   7   16.84    4.39
 -10   5   7    8.37    5.09
  10   5  -6  161.84   24.84
  10  -5  -6  141.76    5.41
 -10  -5   6  202.43   12.26
 -10   5   6  173.58   13.85
  10   5  -5   80.43    9.85
  10  -5  -5   66.95    2.71
 -10  -5   5   68.77    7.20
 -10   5   5   70.44   12.66
  10   5  -4   46.49    7.44
  10  -5  -4   44.49    4.05
 -10  -5   4   60.78    5.58
 -10   5   4   45.56    6.30
  10   5  -3   48.87   11.77
  10  -5  -3   51.64    2.99
 -10  -5   3   56.37    5.72
 -10   5   3   58.04    6.10
  10   5  -2    0.50    3.12
  10  -5  -2   -0.24    1.49
 -10  -5   2    5.66    2.32
 -10   5   2    2.48    2.63
  10   5  -1   55.31    7.08
  10  -5  -1   70.69    4.21
 -10  -5   1   71.80    5.68
 -10   5   1   65.85    5.78
  10   5   0  268.60   16.55
  10  -5   0  259.64   12.26
 -10  -5   0  275.65   14.07
 -10   5   0  282.32   14.01
  10   5   1  188.13   12.27
  10  -5   1  199.15   10.43
 -10  -5  -1  196.25   10.55
 -10   5  -1  205.54   10.02
  10   5   2   16.96    6.50
  10  -5   2   18.51    3.39
 -10  -5  -2   21.93    3.17
 -10   5  -2   19.56    2.54
  10   5   3  203.96   12.41
  10  -5   3  205.11   11.90
 -10  -5  -3  205.37   10.49
 -10   5  -3  201.93   11.15
  10   5   4   81.84    6.77
  10  -5   4   83.36   11.32
 -10  -5  -4   77.96    5.60
 -10   5  -4   84.48    4.96
  10   5   5   10.95    2.93
  10  -5   5   11.64    3.47
 -10  -5  -5    7.98    3.92
 -10   5  -5    5.45    1.55
  10   5   6  124.93    8.25
  10  -5   6  108.31   10.34
 -10  -5  -6  122.64    7.04
  10  -5   7   56.75    6.36
  10   5   7   36.19    4.83
 -10  -5  -7   39.99    4.06
  10   5   8  115.64   12.55
  10  -5   8  115.75   11.19
 -10  -5  -8  103.50    7.00
  10   5   9    6.52    2.98
  10  -5   9    6.20    4.49
 -10  -5  -9    9.80    4.62
  10   5  10   51.35    5.65
  10  -5  10   52.36    8.34
 -10  -5 -10   49.63    5.40
  10   5  11   26.24    4.53
  10  -5  11   21.41    7.39
 -10  -5 -11   29.03    4.22
  10  -5  12   -0.86    4.83
  10   5  12    2.20    4.88
 -10  -5 -12    2.44    2.70
  10   5  13   -0.82    4.88
  10  -5  13    1.72    4.78
  10  -5  14   65.80   13.46
  10   6 -14    4.88    9.11
  10   6 -14    4.25    3.93
 -10  -6  14   -1.91    5.45
 -10   6  14    4.59    7.02
  10   6 -13    3.21    7.86
  10   6 -13    2.96    4.13
 -10  -6  13    2.81    5.27
 -10   6  13   15.50    6.92
  10   6 -12    2.27    4.07
  10   6 -12   11.74    7.12
 -10  -6  12    1.51    4.82
 -10   6  12   10.98    6.56
  10   6 -11    5.62    9.08
  10   6 -11   28.85    5.00
 -10  -6  11   26.13    6.33
 -10   6  11   15.41    8.49
  10   6 -10   -0.51    8.20
  10   6 -10   -2.45    2.83
 -10  -6  10   -0.43    3.65
 -10   6  10    5.26    4.88
  10   6  -9   14.64    7.13
  10   6  -9    9.10    4.05
 -10  -6   9   23.15    5.13
 -10   6   9   20.47    6.47
  10   6  -8    5.72    5.46
 -10  -6   8    4.49    3.88
 -10   6   8    3.33    4.66
  10   6  -7   41.72   15.42
 -10  -6   7   50.00   10.94
 -10   6   7   49.70    7.83
  10   6  -6   86.98   11.31
  10  -6  -6   80.50    2.46
 -10  -6   6   84.82    8.03
 -10   6   6   82.32    9.43
  10   6  -5   40.80    7.85
  10  -6  -5   41.53    2.18
 -10  -6   5   45.68    5.66
 -10   6   5   40.36    6.41
  10   6  -4   16.72    9.12
  10  -6  -4   19.52    1.88
 -10  -6   4   14.77    6.57
 -10   6   4   17.56    4.41
  10   6  -3   -2.83    3.53
  10  -6  -3    0.84    1.38
 -10  -6   3    2.77    2.60
 -10   6   3    7.85    3.06
  10   6  -2   64.08    7.04
  10  -6  -2   52.29    3.60
 -10  -6   2   53.75    5.39
 -10   6   2   69.23    9.68
  10   6  -1   52.82    6.46
  10  -6  -1   45.15    5.74
 -10  -6   1   45.14    4.90
 -10   6   1   45.79    5.13
  10   6   0   74.40    7.31
  10  -6   0   71.15    5.07
 -10  -6   0   65.82    5.74
 -10   6   0   84.63    5.93
  10   6   1  189.95   19.47
  10  -6   1  179.77    9.84
 -10  -6  -1  185.72   10.62
 -10   6  -1  174.95    9.44
  10   6   2  137.83   10.13
  10  -6   2  124.22    8.28
 -10  -6  -2  135.73    8.20
 -10   6  -2  135.56    6.64
  10   6   3   10.86    3.65
  10  -6   3   14.38    3.58
 -10  -6  -3   16.30    3.10
 -10   6  -3   12.19    3.22
  10   6   4   70.13    6.83
  10  -6   4   67.77   11.28
 -10  -6  -4   80.89    5.98
 -10   6  -4   80.43    4.98
 -10   6  -4   72.89    3.12
  10   6   5   56.13    5.68
  10  -6   5   50.81    6.52
 -10  -6  -5   54.84    4.76
 -10   6  -5   50.83    2.76
  10   6   6  107.59    8.88
  10  -6   6  128.26   10.72
 -10  -6  -6  121.50    7.54
  10   6   7   10.35    5.71
  10  -6   7   16.61    4.75
 -10  -6  -7   13.10    3.00
  10  -6   8   27.04    6.18
  10   6   8   21.36    4.38
 -10  -6  -8   31.02    3.90
  10   6   9    2.04    2.94
  10  -6   9    3.48    4.17
 -10  -6  -9    4.22    4.44
  10   6  10   14.37    7.12
  10  -6  10   22.27    6.25
 -10  -6 -10   19.40    6.49
  10  -6  11   -8.39    4.69
  10   6  11    7.42    3.10
 -10  -6 -11    0.33    2.78
  10   6  12    1.20    3.40
  10  -6  12    3.10    9.12
 -10  -6 -12    5.12    3.18
  10   6  13    2.67    3.45
  10  -6  13   -0.36    5.14
  10   6  14    5.09    3.15
  10  -6  14    2.56    6.57
  10   7 -13    9.83    6.69
  10   7 -13   -2.86    3.58
 -10  -7  13    0.63    4.37
 -10   7  13   -1.82    5.99
  10   7 -12    5.95    4.33
  10   7 -12    9.54    7.31
 -10  -7  12    6.27    5.35
 -10   7  12    5.36    7.10
  10   7 -11   31.54   10.07
  10   7 -11   25.11    5.56
 -10  -7  11   34.00   11.43
 -10   7  11   36.51    9.49
  10   7 -10   18.37    7.18
  10   7 -10    6.93    4.11
 -10  -7  10   14.61    8.04
 -10   7  10   14.76    6.80
  10   7  -9    7.76    3.18
  10   7  -9    0.89    5.32
 -10  -7   9   -5.67    3.57
 -10   7   9    2.80    8.29
  10   7  -8    2.69    5.09
 -10  -7   8    4.02    3.56
 -10   7   8   -0.78    4.52
  10   7  -7    7.34    5.39
 -10  -7   7    4.24    3.82
 -10   7   7    8.16    4.77
  10   7  -6  116.81   13.26
 -10  -7   6  114.52   15.41
 -10   7   6  115.15   11.99
  10   7  -5   20.57    6.64
  10  -7  -5   23.61    1.91
 -10  -7   5   25.24    4.53
 -10   7   5   22.98    5.32
  10   7  -4  114.46   11.50
  10  -7  -4   93.94    4.53
 -10  -7   4   98.51    8.45
 -10   7   4  104.20    9.66
  10   7  -3   53.22   12.65
  10  -7  -3   61.60    3.77
 -10  -7   3   56.33    6.23
 -10   7   3   54.42   11.37
  10   7  -2    7.17    3.95
  10  -7  -2    6.19    1.97
 -10  -7   2    5.14    4.83
 -10   7   2    5.30    3.33
  10   7  -1   57.66    7.63
  10  -7  -1   67.59    4.76
 -10  -7   1   75.07    6.05
 -10   7   1   72.21    6.52
  10   7   0  379.34   35.61
  10  -7   0  405.09   26.62
 -10  -7   0  403.99   21.02
 -10   7   0  404.31   29.76
  10   7   1  343.25   22.71
  10  -7   1  347.47   24.71
 -10  -7  -1  348.48   25.26
 -10   7  -1  353.71   17.28
  10   7   2  151.20   11.66
  10  -7   2  165.08    9.82
 -10  -7  -2  160.10    9.47
 -10   7  -2  162.21    7.12
 -10   7  -2  146.66    7.89
  10   7   3  352.47   21.28
  10  -7   3  351.57   20.03
 -10  -7  -3  345.05   18.43
 -10   7  -3  355.85   13.30
 -10   7  -3  344.99   14.24
  10  -7   4    6.17    6.14
  10   7   4   18.37    3.67
 -10   7  -4   12.27    1.50
 -10  -7  -4    8.44    3.00
 -10   7  -4    8.33    1.48
  10  -7   5   11.48    5.50
  10   7   5    9.33    3.13
 -10  -7  -5   13.67    2.53
 -10   7  -5   -0.06    0.76
 -10   7  -5    9.67    1.35
  10   7   6   26.23    7.50
  10  -7   6   33.42    5.64
 -10  -7  -6   23.04    3.84
  10   7   7   -0.70    2.81
  10  -7   7    3.26    3.73
 -10  -7  -7    2.81    2.38
  10   7   8   89.33    8.14
  10  -7   8   91.55   10.67
 -10  -7  -8   89.34    7.23
  10  -7   9   32.80    7.08
  10   7   9   22.89    8.50
 -10  -7  -9   38.56    7.62
  10  -7  10   33.36   12.18
  10   7  10   26.62    5.23
 -10  -7 -10   25.35    7.81
  10   7  11    4.05    3.57
  10  -7  11    8.59    5.26
 -10  -7 -11    0.00    3.28
  10  -7  12    0.90    6.86
  10   7  12   17.31    4.50
 -10  -7 -12    6.63    4.09
  10   7  13    4.17    4.21
  10  -7  13    5.61    9.35
  10   8 -13    6.83   13.87
  10   8 -13    3.47    4.93
 -10  -8  13    8.57    5.58
 -10   8  13    4.42    5.37
 -10   8  13   22.74    8.73
  10   8 -12   11.35    5.27
  10   8 -12    6.95    8.97
 -10  -8  12   19.16    6.00
 -10   8  12   11.24   13.24
 -10   8  12   10.92    5.55
  10   8 -11   18.22    8.36
  10   8 -11   13.21    4.78
 -10  -8  11   22.51    5.74
 -10   8  11    8.18    8.39
 -10   8  11   17.43    6.10
  10   8 -10    8.31   10.44
  10   8 -10    1.56    3.81
 -10  -8  10    8.25    4.38
 -10   8  10    9.01    6.26
  10   8  -9   38.63    6.31
  10   8  -9   34.11    9.93
 -10  -8   9   51.22   11.20
 -10   8   9   34.22    9.71
  10   8  -8   80.17   13.52
 -10  -8   8  108.33   10.12
 -10   8   8   94.33   13.64
  10   8  -7   13.83   11.16
 -10  -8   7   20.97    4.82
 -10   8   7   11.44    6.15
  10   8  -6   66.38   10.13
 -10  -8   6   60.02    7.21
 -10   8   6   54.77    8.75
  10   8  -5    6.92    4.74
  10  -8  -5    5.42    2.33
 -10  -8   5    4.20    3.32
 -10   8   5    2.39    4.04
  10   8  -4   85.58   10.90
  10  -8  -4   85.53    7.03
 -10  -8   4   87.51    8.09
 -10   8   4   82.81    9.29
  10   8  -3  108.31   11.69
  10  -8  -3   96.91    8.68
 -10  -8   3  125.38   13.82
 -10   8   3  112.40   10.00
  10   8  -2   23.09    5.55
  10  -8  -2   29.82    3.27
 -10  -8   2   26.72    4.44
 -10   8   2   18.08    4.88
  10   8  -1   48.22    8.01
  10  -8  -1   68.94    5.03
 -10  -8   1   67.41    6.10
 -10   8   1   62.98    6.54
  10   8   0   19.80    4.88
  10  -8   0   17.22    3.36
 -10  -8   0   21.06    6.09
 -10   8   0   17.51    3.01
 -10   8   0   17.94    3.72
  10   8   1  197.49   24.44
  10  -8   1  200.50   18.85
 -10  -8  -1  215.71   12.37
 -10   8  -1  206.44   14.24
 -10   8  -1  212.36   11.70
  10   8   2  108.94    9.78
  10  -8   2   98.44   12.46
 -10  -8  -2   97.30    7.50
 -10   8  -2  103.94    5.41
 -10   8  -2   98.20    6.24
  10   8   3  368.78   32.54
  10  -8   3  332.35   20.54
 -10  -8  -3  338.09   18.37
 -10   8  -3  348.03   13.77
 -10   8  -3  340.13   14.73
  10   8   4   52.09    6.75
  10  -8   4   59.86    6.66
 -10  -8  -4   54.40    5.57
 -10   8  -4   50.42    2.90
 -10   8  -4   59.06    2.95
  10   8   5   36.10    6.87
  10  -8   5   30.97    7.38
 -10  -8  -5   20.27    5.54
 -10   8  -5   -0.31    1.74
 -10   8  -5   23.05    1.81
  10   8   6   -2.40    3.19
  10  -8   6   -0.13    6.38
  10   8   7   53.07    6.45
  10  -8   7   35.44    7.86
 -10  -8  -7   47.75    8.21
  10   8   8   27.25    8.65
  10  -8   8   31.33    7.18
 -10  -8  -8   28.98    7.50
  10   8   9    3.31    3.25
  10  -8   9   -3.79    4.46
 -10  -8  -9    2.69    4.67
  10   8  10   61.88    8.28
  10  -8  10   65.49   11.18
 -10  -8 -10   76.05   11.90
  10  -8  11   16.90   11.56
  10   8  11   13.71    5.07
 -10  -8 -11   14.36    7.34
  10   8  12   56.50    8.43
  10  -8  12   54.03   10.74
 -10  -8 -12   42.18   12.21
  10   8  13   18.38   10.37
  10  -8  13   25.14    8.52
  10   9 -12   -1.29    3.78
  10   9 -12    7.35   10.32
 -10  -9  12    3.14    4.20
 -10   9  12   -5.93    6.06
 -10   9  12   -1.90    6.57
  10   9 -11    2.74    7.55
  10   9 -11    3.22    4.47
 -10  -9  11    7.60    5.08
 -10   9  11   17.95    5.28
 -10   9  11    4.96    7.25
  10   9 -10   23.38    8.48
  10   9 -10    9.56    5.64
 -10  -9  10   25.40    5.79
 -10   9  10   19.57    6.26
 -10   9  10   17.14    8.45
  10   9  -9   57.17    8.19
  10   9  -9   27.45   18.24
 -10  -9   9   48.92    7.95
 -10   9   9   58.26   11.50
 -10   9   9   60.06    8.44
  10   9  -8    8.32    5.68
 -10  -9   8    6.75    3.91
 -10   9   8    1.53    9.07
 -10   9   8   -0.55    4.07
  10   9  -7   30.13    9.14
 -10  -9   7   48.98    6.47
 -10   9   7   41.14    6.60
 -10   9   7   31.97   14.73
  10   9  -6    4.71    7.02
 -10  -9   6    0.86    3.06
 -10   9   6   -2.50    4.12
 -10   9   6   -1.63    3.10
  10   9  -5   -1.78    4.16
 -10  -9   5   -0.66    3.03
 -10   9   5    4.80    3.99
 -10   9   5    2.88    3.16
  10   9  -4   19.47    6.34
  10  -9  -4   21.39    2.71
 -10  -9   4   28.19    4.64
 -10   9   4   24.50    5.77
 -10   9   4   15.34    4.59
  10   9  -3   27.75    6.36
  10  -9  -3   22.69    3.26
 -10  -9   3   25.58    4.82
 -10   9   3   27.48    4.53
 -10   9   3   29.97    5.64
  10   9  -2   68.43    9.44
  10  -9  -2   80.65    6.01
 -10  -9   2   74.85    7.46
 -10   9   2   72.36    6.64
  10   9  -1   68.55    8.74
  10  -9  -1   78.66    9.04
 -10  -9   1   61.46    6.86
 -10   9   1   74.26    7.08
 -10   9   1   60.82    5.68
  10   9   0    7.39    4.53
  10  -9   0    9.53    3.15
 -10  -9   0   11.04    3.32
 -10   9   0   10.17    3.35
 -10   9   0    7.33    2.75
  10   9   1   27.22    5.41
  10  -9   1   20.44    4.24
 -10  -9  -1   21.84    4.15
 -10   9  -1   20.26    6.04
 -10   9  -1   21.73    3.15
  10   9   2   17.48    5.13
  10  -9   2   22.73    7.12
 -10  -9  -2   22.63    6.51
 -10   9  -2   18.43    3.28
 -10   9  -2   19.80    4.54
  10   9   3   10.73    4.25
  10  -9   3   10.21    3.86
 -10  -9  -3    9.31    3.33
 -10   9  -3    8.69    2.38
 -10   9  -3    8.71    2.06
  10   9   4    0.67    3.50
  10  -9   4    1.14    3.50
 -10  -9  -4    1.17    2.84
 -10   9  -4    3.00    2.26
 -10   9  -4    3.57    2.39
  10   9   5  129.56   11.37
  10  -9   5  127.11   12.25
 -10  -9  -5  140.74    9.64
 -10   9  -5  125.89    3.96
  10   9   6   55.50    7.40
  10  -9   6   54.81    8.80
 -10  -9  -6   62.23    6.24
  10   9   7   22.32    9.26
  10  -9   7   32.10   11.22
 -10  -9  -7   28.83    4.64
  10   9   8    6.46    3.87
 -10  -9  -8    4.62    3.25
  10   9   9   28.84    6.50
  10  -9   9   43.97    8.45
 -10  -9  -9   33.45    8.91
  10  -9  10    1.37    5.96
  10   9  10    7.18    4.42
 -10  -9 -10    7.52    6.17
  10   9  11    2.52    4.18
  10  -9  11    2.12    5.67
 -10  -9 -11    0.36    5.96
  10   9  12   19.57    8.49
  10  -9  12   -0.13    6.64
 -10  -9 -12   12.32    8.12
  10  10 -12   14.35    6.22
  10  10 -12   24.59   11.34
 -10 -10  12   23.09   10.92
 -10  10  12   23.24   10.69
 -10  10  12   15.86    6.45
  10  10 -11    1.54    4.77
  10  10 -11   10.19   12.41
 -10 -10  11   18.61    8.44
 -10  10  11   15.19    7.47
 -10  10  11    2.33    5.82
  10  10 -10    9.63    6.88
  10  10 -10    5.31    4.50
 -10 -10  10    4.94    4.61
 -10  10  10    3.62    5.02
  10  10  -9   25.73    7.90
  10  10  -9   31.44   10.30
 -10 -10   9   41.68    7.15
 -10  10   9   67.40   10.89
 -10  10   9   34.18    7.68
  10  10  -8    0.10    7.00
  10  10  -8   17.53   13.41
 -10 -10   8   34.68    5.89
 -10  10   8   38.57    8.72
 -10  10   8   27.72    6.11
  10  10  -7   40.65    8.87
 -10 -10   7   29.31    6.47
 -10  10   7   39.85    9.32
 -10  10   7   41.53   10.44
  10  10  -6   12.50    6.15
 -10 -10   6   13.86    4.36
 -10  10   6   12.92    6.44
 -10  10   6   11.07    4.63
  10  10  -5    4.79    9.76
 -10 -10   5   15.90    4.35
 -10  10   5   12.48    5.77
 -10  10   5   13.16    4.51
  10  10  -4   98.42   12.79
 -10 -10   4  109.83   15.18
 -10  10   4  119.33   12.25
 -10  10   4  110.89    9.84
  10  10  -3   67.60    9.76
  10 -10  -3   73.02    5.86
 -10 -10   3   79.35    7.82
 -10  10   3   67.95    7.18
 -10  10   3   66.21    9.06
  10  10  -2   15.96    5.82
  10 -10  -2   18.74    3.63
 -10 -10   2   23.37    7.17
 -10  10   2   22.69    5.02
 -10  10   2   13.42    3.94
  10  10  -1   12.59    5.39
  10 -10  -1   10.85    5.76
 -10 -10   1    8.08    3.90
 -10  10   1   18.06    4.34
 -10  10   1   13.17    3.42
  10  10   0   32.78   12.15
  10 -10   0   49.25    6.00
 -10 -10   0   51.35    5.95
 -10  10   0   51.81    9.85
 -10  10   0   47.30    4.90
  10  10   1   38.77    7.95
  10 -10   1   67.40    6.98
 -10 -10  -1   51.49    6.04
 -10  10  -1   54.47    5.74
 -10  10  -1   55.28    4.86
  10  10   2   20.79    8.77
  10 -10   2   31.91    7.65
 -10 -10  -2   19.89    4.24
 -10  10  -2   15.84    5.74
 -10  10  -2   15.40    3.03
  10  10   3  114.40   12.95
  10 -10   3  145.41   11.88
 -10 -10  -3  150.67   10.28
 -10  10  -3  122.76    7.87
 -10  10  -3  139.59    7.14
  10  10   4   88.73   14.84
  10 -10   4   87.20    9.25
 -10 -10  -4   78.55   11.53
 -10  10  -4   77.71    6.32
 -10  10  -4   64.10    6.78
  10  10   5   89.20    9.65
  10 -10   5   90.82   10.44
 -10 -10  -5   98.34    8.25
 -10  10  -5   84.19    3.27
 -10  10  -5   82.67    5.00
  10  10   6   12.88    4.63
  10 -10   6    9.26    5.04
 -10 -10  -6    7.81    3.69
  10  10   7    0.31    7.07
  10 -10   7    6.05    5.10
 -10 -10  -7    6.85    3.50
  10 -10   8   10.26    6.26
  10  10   8    5.29    5.22
 -10 -10  -8   18.65    4.14
  10  10   9    9.60    4.64
  10 -10   9    8.83    5.98
 -10 -10  -9    4.60    4.05
  10  10  10    5.20    4.75
 -10 -10 -10    5.41    6.67
  10  10  11   10.59   10.05
 -10 -10 -11   19.73    9.03
  10 -10  12   -0.08    6.38
 -10 -10 -12   -5.30    4.54
  10  11 -11   17.21    6.22
  10  11 -11   17.40   10.14
 -10 -11  11   24.86    6.88
  10  11 -10    0.93   11.99
  10  11 -10    4.02    5.15
 -10 -11  10    6.46    5.13
 -10  11  10   12.66    7.70
  10  11  -9   10.13   11.04
  10  11  -9   20.76    8.24
 -10 -11   9   14.32    9.20
 -10  11   9   11.00    8.88
 -10  11   9   22.24    6.22
  10  11  -8   -0.28    4.62
  10  11  -8   -1.92    5.20
 -10 -11   8   -0.48    3.68
 -10  11   8    1.21    5.65
 -10  11   8    3.83    3.85
  10  11  -7    3.49    9.19
 -10 -11   7    5.46    3.91
 -10  11   7    3.28    5.93
 -10  11   7    2.07    3.99
  10  11  -6    7.39    7.10
 -10 -11   6   22.41    5.20
 -10  11   6   26.91    7.52
 -10  11   6   17.63    5.52
  10  11  -5   14.78    5.55
 -10 -11   5    7.66    4.34
 -10  11   5   14.70    9.90
 -10  11   5    6.79    7.33
  10  11  -4   16.96    5.36
 -10 -11   4    3.43    4.00
 -10  11   4    3.67    8.21
 -10  11   4    7.72    4.01
  10  11  -3    7.29    4.40
  10 -11  -3    6.30    2.93
 -10 -11   3    2.99    5.93
 -10  11   3   -2.55    6.98
 -10  11   3    0.94    3.49
  10  11  -2   10.61    5.46
  10 -11  -2   10.98    5.86
 -10 -11   2   13.60    4.14
 -10  11   2    6.14    3.82
 -10  11   2   15.59    7.71
  10  11  -1    8.82    4.84
  10 -11  -1    7.62    3.48
 -10 -11   1    3.78    3.70
 -10  11   1    7.12    4.05
 -10  11   1    5.38    3.28
  10  11   0   82.81   10.19
  10 -11   0   85.03    8.35
 -10 -11   0   88.33    8.61
 -10  11   0   77.03    8.62
 -10  11   0   86.92    7.23
  10  11   1   83.64   10.58
  10 -11   1   94.85    9.67
 -10 -11  -1   98.09    8.69
 -10  11  -1   84.00    8.38
 -10  11  -1  102.65    7.18
  10  11   2   59.38    8.36
  10 -11   2   62.88    8.06
 -10 -11  -2   64.38   11.02
 -10  11  -2   55.07    5.81
 -10  11  -2   54.77    5.01
  10  11   3   54.67    8.80
  10 -11   3   77.38    8.87
 -10 -11  -3   78.22    7.21
 -10  11  -3   30.59    8.45
 -10  11  -3   64.70    4.78
  10  11   4   24.07    5.59
  10 -11   4   19.08    6.29
 -10 -11  -4   18.88    4.71
 -10  11  -4   18.49    4.00
 -10  11  -4   24.66    4.72
  10  11   5   11.55    4.76
  10 -11   5   16.33    5.25
 -10 -11  -5    6.75    3.81
 -10  11  -5    7.24    1.46
 -10  11  -5    8.26    2.66
  10  11   6   15.75    5.66
  10 -11   6   20.27    6.62
 -10 -11  -6   16.26    4.56
  10  11   7   20.48    6.53
  10 -11   7   18.95    7.63
 -10 -11  -7   31.30    5.30
  10  11   8    0.79    4.40
  10 -11   8    8.62    5.57
 -10 -11  -8    1.83    3.52
  10  11   9    0.22    4.72
  10 -11   9    3.61    5.93
 -10 -11  -9    5.61    3.68
  10  11  10    2.17    5.15
  10 -11  10    5.37    6.95
 -10 -11 -10    8.12    4.38
  10 -11  11    0.33    6.28
  10  12 -10   17.93    9.90
  10  12 -10   17.17    7.50
 -10 -12  10   25.18    6.64
 -10  12  10   27.85   11.09
 -10  12  10   18.27    7.59
  10  12  -9   49.41   17.72
  10  12  -9   26.74    9.40
 -10 -12   9   38.54    7.52
 -10  12   9   52.28   11.99
 -10  12   9   32.41    8.46
  10  12  -8   -2.30    5.39
  10  12  -8   -4.55    5.76
 -10 -12   8    2.11    6.48
 -10  12   8   -4.66    6.25
 -10  12   8   -1.27    4.36
  10  12  -7    3.72    6.26
 -10 -12   7   12.30    4.64
 -10  12   7    9.74   11.57
 -10  12   7    3.32    4.90
  10  12  -6  143.57   19.70
 -10 -12   6  177.42   14.85
 -10  12   6  177.04   21.36
 -10  12   6  151.45   15.56
  10  12  -5   37.60    9.01
 -10 -12   5   38.53    7.06
 -10  12   5   40.48    9.98
 -10  12   5   43.64    7.19
  10  12  -4    2.44    4.98
 -10 -12   4    4.44    3.82
 -10  12   4    4.45    5.10
 -10  12   4    7.88    6.37
  10  12  -3   15.08    6.01
 -10 -12   3    9.38    4.62
 -10  12   3   20.26    5.77
 -10  12   3   13.49    4.61
  10  12  -2   24.24    6.88
  10 -12  -2    5.24    4.99
 -10 -12   2   35.04    5.54
 -10  12   2   30.19    5.14
 -10  12   2   26.36    6.57
  10  12  -1   92.56   12.16
  10 -12  -1  100.80    9.52
 -10 -12   1   86.82    9.24
 -10  12   1   78.05   10.36
 -10  12   1   84.62   13.44
  10  12   0   17.69    6.49
  10 -12   0   21.68    5.71
 -10 -12   0   32.14    5.24
 -10  12   0   17.84    8.63
 -10  12   0   20.80    4.59
  10  12   1   -0.30    4.19
  10 -12   1    0.62    3.93
 -10 -12  -1    1.83    3.50
 -10  12  -1    4.09    3.29
 -10  12  -1    2.55    2.66
  10  12   2    2.21    5.04
  10 -12   2   13.41    4.80
 -10 -12  -2   11.21    4.24
 -10  12  -2   13.09    3.66
 -10  12  -2    7.21    2.98
  10  12   3    5.89    4.52
  10 -12   3    5.39    4.64
 -10 -12  -3    9.43    6.36
 -10  12  -3    2.92    2.85
 -10  12  -3    6.04    2.49
  10  12   4   27.72    6.09
  10 -12   4   34.50    6.68
 -10 -12  -4   28.37    5.30
 -10  12  -4   17.83    4.60
 -10  12  -4   16.80    3.39
  10  12   5  150.78   13.69
  10 -12   5  186.00   15.53
 -10 -12  -5  145.99   11.83
 -10  12  -5  123.19    5.43
 -10  12  -5  116.54    6.05
  10  12   6    4.68    9.04
  10 -12   6    4.66    6.16
 -10 -12  -6   13.77    4.37
  10  12   7    2.91    4.73
 -10 -12  -7    5.64    6.38
  10  12   8    4.84    5.25
 -10 -12  -8    6.91    4.21
  10  12   9   23.06    7.64
 -10 -12  -9   28.27    6.05
  10  12  10   22.59    7.65
  10 -12  10   31.36   10.40
 -10 -12 -10   20.08    6.42
  10  13  -9   24.03    8.38
  10  13  -9   32.78    9.36
 -10 -13   9   15.83    6.66
 -10  13   9    8.94    7.47
  10  13  -8   13.12    7.72
  10  13  -8   10.11    7.95
 -10 -13   8   10.63    5.65
 -10  13   8   22.25    9.02
 -10  13   8   14.57    6.42
  10  13  -7    2.73    6.19
  10  13  -7   -1.99    5.88
 -10 -13   7    4.96    4.35
 -10  13   7    6.88    6.81
 -10  13   7    4.25    4.94
  10  13  -6   -3.68    8.05
 -10 -13   6    5.77    3.77
 -10  13   6   -0.14    4.14
 -10  13   6   -7.01    5.65
  10  13  -5    7.15    5.28
 -10 -13   5   -0.42    3.97
 -10  13   5   -1.66    5.73
 -10  13   5    4.17    4.20
  10  13  -4    7.95    5.10
 -10 -13   4    0.15    4.12
 -10  13   4    2.54    5.71
 -10  13   4    4.39    4.08
  10  13  -3   33.34    9.69
 -10 -13   3   54.45    7.62
 -10  13   3   65.18    9.90
 -10  13   3   45.24   12.40
  10  13  -2   29.85    7.67
 -10 -13   2   33.15    5.93
 -10  13   2   20.64    7.28
 -10  13   2   20.77    5.77
  10  13  -1   -4.02    8.59
 -10 -13   1    8.74    4.29
 -10  13   1   10.24    4.87
 -10  13   1    3.92    3.81
  10  13   0    3.60    4.42
  10 -13   0   -3.99    3.92
 -10 -13   0   -1.51    3.44
 -10  13   0   -0.84    3.72
 -10  13   0   -0.30    2.97
  10  13   1   19.66   10.59
  10 -13   1   16.76   10.17
 -10 -13  -1   22.63    5.31
 -10  13  -1   21.13    8.76
 -10  13  -1   18.41    4.34
  10  13   2   17.17    6.94
  10 -13   2   26.99    7.05
 -10 -13  -2   27.99    5.83
 -10  13  -2   17.70    5.14
 -10  13  -2   28.76    4.18
  10  13   3    5.25    5.39
  10 -13   3   19.77    5.64
 -10 -13  -3    5.78    4.54
 -10  13  -3    9.81    5.80
 -10  13  -3    7.94    2.90
  10  13   4    6.89    4.63
  10 -13   4    9.54    8.65
 -10 -13  -4   -3.24    3.99
 -10  13  -4    4.98    3.60
 -10  13  -4    4.32    2.59
  10  13   5   21.55    7.62
 -10 -13  -5   39.74    6.38
  10  13   6   34.55   15.20
  10 -13   6   31.39   10.46
 -10 -13  -6   56.60    7.43
  10  13   7   50.75    9.24
  10 -13   7   53.99   10.81
 -10 -13  -7   31.58    7.34
  10  13   8   -0.23    4.32
  10 -13   8    5.38    5.27
 -10 -13  -8   -2.20    3.65
  10  13   9    4.99    5.65
  10 -13   9    1.24    7.19
 -10 -13  -9    4.79    4.38
  10  14  -8   11.45   11.79
  10  14  -8    9.40   11.52
 -10 -14   8    3.99    4.99
 -10  14   8    3.38    6.53
 -10  14   8    6.89    8.09
  10  14  -7    7.50    8.19
  10  14  -7    9.45    7.99
 -10 -14   7   19.24    5.59
 -10  14   7    8.47    8.92
 -10  14   7    3.98   10.52
  10  14  -6    9.85    5.87
 -10 -14   6    3.51    4.57
 -10  14   6   -4.60    7.09
 -10  14   6    7.01    8.42
  10  14  -5    4.08    4.97
 -10 -14   5    0.79    3.77
 -10  14   5    4.60    5.67
 -10  14   5   -7.22    4.07
  10  14  -4   19.96    7.14
 -10 -14   4   12.45    5.52
 -10  14   4   13.29    7.79
 -10  14   4   16.79    5.74
  10  14  -3   -0.40    8.03
 -10 -14   3   -0.09    3.79
 -10  14   3    2.35    5.17
 -10  14   3    1.09    3.78
  10  14  -2   14.52    7.21
 -10 -14   2   20.29    5.61
 -10  14   2   18.36    6.76
 -10  14   2   13.28    5.30
  10  14  -1   28.36    7.17
 -10 -14   1   15.70    5.68
 -10  14   1   15.15    5.29
 -10  14   1   20.09    6.51
  10  14   0   27.16    7.37
 -10 -14   0   24.33    5.92
 -10  14   0   24.13    6.43
 -10  14   0   14.28    4.97
  10  14   1   84.99   17.79
  10 -14   1   64.19   10.65
 -10 -14  -1   73.98    9.02
 -10  14  -1   59.75    8.96
 -10  14  -1   45.15   11.59
  10  14   2    2.03    4.72
  10 -14   2    3.09    4.95
 -10 -14  -2    1.11    3.97
 -10  14  -2    2.97    5.95
 -10  14  -2   -0.09    4.89
  10  14   3   31.25   11.03
  10 -14   3   23.82   11.98
 -10 -14  -3   27.00    9.24
 -10  14  -3   14.62    4.52
 -10  14  -3   13.18    3.71
  10  14   4   13.61    5.63
  10 -14   4   21.01    6.47
 -10 -14  -4   16.82    4.77
 -10  14  -4    4.14    2.76
 -10  14  -4    2.69    5.16
  10  14   5   26.55    6.50
  10 -14   5   15.63    7.53
 -10 -14  -5    6.21    5.55
  10  14   6    3.00    8.97
  10 -14   6    0.75    6.73
 -10 -14  -6    7.57    4.60
  10  14   7    5.01    5.87
  10 -14   7    3.81    7.16
 -10 -14  -7    8.14    4.84
  10  14   8    5.78    6.43
  10 -14   8    7.49    8.33
 -10 -14  -8    3.81    4.80
  10  15  -6    4.55    7.93
  10  15  -6    3.88    6.61
 -10 -15   6    1.72    4.84
 -10  15   6    9.78    7.98
 -10  15   6    4.00    5.41
  10  15  -5   -0.63   10.99
 -10 -15   5    3.34    4.79
 -10  15   5   12.13    7.09
 -10  15   5    2.00    8.57
  10  15  -4   -0.30    5.65
 -10 -15   4    0.56    7.05
 -10  15   4    3.21    4.29
 -10  15   4   -2.03   10.79
  10  15  -3   -3.12    5.61
 -10 -15   3    1.83    4.30
 -10  15   3    0.54   10.18
 -10  15   3    5.51    4.29
  10  15  -2   25.35    8.76
 -10 -15   2   29.70    6.50
 -10  15   2   16.74   14.70
 -10  15   2   15.76   10.40
  10  15  -1   15.02    6.74
 -10 -15   1   13.75    5.61
 -10  15   1   14.84   10.50
 -10  15   1   10.57    4.92
  10  15   0    7.38    6.17
 -10 -15   0    5.24    4.83
 -10  15   0    7.81    5.31
 -10  15   0   10.59    6.91
  10  15   1   25.52    8.16
 -10 -15  -1   25.16    6.56
 -10  15  -1   25.26    6.73
 -10  15  -1   22.60    5.49
  10  15   2   82.68   12.57
 -10 -15  -2   96.98   10.86
 -10  15  -2   70.75   10.47
 -10  15  -2   65.90    8.25
  10  15   3   39.25   14.66
  10 -15   3   37.22    9.89
 -10 -15  -3   42.34    7.54
 -10  15  -3   22.96    9.68
 -10  15  -3   23.68    8.46
  10  15   4    6.32    5.07
  10 -15   4   -3.31    6.07
 -10 -15  -4    2.62    4.40
  10  15   5   27.23    8.68
  10 -15   5   26.23   10.16
 -10 -15  -5   28.27    7.23
  10  15   6   27.70    9.08
  10 -15   6   37.62   11.16
 -10 -15  -6   29.77   12.44
  10  16  -4   26.68    9.60
 -10 -16   4   30.12    7.40
 -10  16   4   30.20   12.00
 -10  16   4   18.09    7.57
  10  16  -3    4.11    6.43
 -10 -16   3   -3.22    7.67
 -10  16   3    9.53    6.77
 -10  16   3    0.67    4.64
  10  16  -2   11.20    6.09
 -10 -16   2    4.39    5.40
 -10  16   2   10.31    6.94
 -10  16   2    1.03    4.92
  10  16  -1    3.24    5.40
 -10 -16   1    2.06    4.79
 -10  16   1   -0.62    6.27
 -10  16   1    6.52    4.05
  10  16   0   14.60    7.04
 -10 -16   0   18.26    6.16
 -10  16   0    6.25   11.95
 -10  16   0   15.73    5.04
  10  16   1   19.59    7.22
 -10 -16  -1   17.34    6.40
 -10  16  -1   17.74    6.35
 -10  16  -1   11.83    5.21
  10  16   2   -4.25    5.55
 -10 -16  -2   18.89    5.30
 -10  16  -2    3.70    4.91
 -10  16  -2    0.88    3.85
  10  16   3    7.11    6.34
 -10 -16  -3    7.88    5.50
 -10  16  -3    6.20    7.41
 -10  16  -3    2.78    3.54
  10  16   4    8.81    6.91
 -10 -16  -4    9.21    6.25
 -11   0  14    1.75    5.48
  11   0 -13    9.92    9.26
 -11   0  13    2.73    5.83
  11   0 -12   15.96   10.11
 -11   0  12   12.52    6.52
  11   0 -11   -5.92    7.13
  11   0 -11    4.05    1.87
 -11   0  11   10.18    4.71
  11   0 -10    8.08    5.77
  11   0 -10   -0.29    1.83
 -11   0  10    0.97    3.90
  11   0  -9    5.17   10.90
  11   0  -9    4.88    2.64
 -11   0   9   16.48    4.63
  11   0  -8    3.29    5.54
 -11   0   8    1.44    3.74
  11   0  -7   44.15   15.36
 -11   0   7   37.45    6.52
  11   0  -6    4.67    5.01
 -11   0   6    5.51    5.93
  11   0  -5   -0.25    4.54
 -11   0   5   -5.99    3.14
  11   0  -4   42.05    7.57
 -11   0   4   46.53    5.48
  11   0  -3   -1.00    3.55
 -11   0   3   -2.83    4.42
  11   0  -2    3.64    2.87
 -11   0   2   -2.47    2.36
  11   0  -1    4.51    3.04
 -11   0   1    0.82    2.39
  11   0   0    4.78    4.79
 -11   0   0    1.73    3.79
  11   0   1    0.62    2.41
 -11   0  -1   -2.15    3.17
  11   0   2    1.80    2.41
 -11   0  -2    0.04    2.87
  11   0   3   62.83    8.41
 -11   0  -3   67.27    4.10
  11   0   4  153.79    8.88
 -11   0  -4  167.50    6.96
  11   0   5    5.49    2.01
 -11   0  -5   -0.31    1.59
  11   0   6    7.88    2.30
 -11   0  -6    8.43    1.70
  11   0   7    2.22    2.58
 -11   0  -7   -0.56    1.36
  11   0   8   -1.91    3.23
  11   0   8   -1.43    2.41
 -11   0  -8    1.65    2.03
  11   0   9   25.81    3.56
  11   0   9   33.81    9.55
 -11   0  -9   23.89    2.07
  11   0  10    4.98    1.46
  11   0  10    6.61    4.38
  11   0  11    5.61    7.55
  11   0  12   -1.40    4.35
  11   0  13    4.20    8.45
  11   1 -14   -5.62    9.27
 -11  -1  14    3.08    5.31
 -11   1  14    3.04    5.56
  11   1 -13   -8.03    8.28
 -11  -1  13    0.06    4.90
 -11   1  13    0.89    8.43
  11   1 -12    3.28    8.39
  11   1 -12    4.95    2.36
  11  -1 -12    6.38    9.26
 -11  -1  12   17.04    5.45
 -11   1  12   17.05    9.72
  11   1 -11   15.81    3.14
  11   1 -11   22.81    9.02
  11  -1 -11    8.26   10.12
 -11  -1  11   11.47    5.85
 -11   1  11   15.83    6.50
  11   1 -10   61.21   13.85
  11   1 -10   72.40    5.98
  11  -1 -10   67.03    3.96
  11  -1 -10   21.32   25.44
 -11  -1  10   81.00    9.51
 -11   1  10   84.21   10.39
  11   1  -9   10.17    7.51
  11   1  -9    4.05    3.28
  11  -1  -9   14.97    7.63
  11  -1  -9   14.19    3.89
 -11  -1   9   19.18    4.97
 -11   1   9   23.84    5.42
  11   1  -8   -3.04    5.17
  11  -1  -8   10.56    5.51
 -11  -1   8   -1.81    3.46
 -11   1   8    3.94    6.22
  11   1  -7  103.36   14.04
  11  -1  -7   87.04   14.20
 -11  -1   7  112.28   10.09
 -11   1   7   92.61   16.10
  11  -1  -6  101.65   13.47
  11   1  -6  101.29   12.78
 -11  -1   6  105.90    9.66
 -11   1   6  105.78    9.27
  11  -1  -5   10.33    7.74
  11   1  -5    5.17    4.92
 -11  -1   5    7.16    5.71
 -11   1   5    7.72    3.46
  11   1  -4  226.97   19.27
  11  -1  -4  263.46   20.41
 -11  -1   4  266.07   16.09
 -11   1   4  256.60   15.66
  11   1  -3   29.69    6.42
  11  -1  -3   27.60    6.58
 -11   1   3   38.63    4.82
 -11  -1   3   47.11    5.02
  11   1  -2   22.79    8.10
  11  -1  -2   19.28    4.97
 -11  -1   2   21.88    3.95
 -11   1   2   25.73    3.95
  11   1  -1  124.52   10.36
  11  -1  -1  110.02   10.10
 -11  -1   1  119.76   12.80
 -11   1   1  135.07    8.32
  11   1   0  140.65   16.22
  11  -1   0  135.99   10.45
 -11  -1   0  152.04    8.77
 -11   1   0  143.68    8.32
  11   1   1   81.01    7.14
  11  -1   1   64.47   10.65
 -11  -1  -1   85.16    5.65
 -11   1  -1   95.80    8.56
  11   1   2  155.11    9.72
  11  -1   2  146.82    9.19
 -11  -1  -2  154.80    7.58
 -11   1  -2  144.14    7.23
  11   1   3  136.67    8.17
  11  -1   3  118.27    7.74
 -11  -1  -3  143.27    9.72
 -11   1  -3  128.74    6.08
  11   1   4  172.91   10.50
  11  -1   4  197.00   10.13
 -11  -1  -4  208.05    8.76
 -11   1  -4  198.82    7.83
  11  -1   5   80.97    8.02
  11   1   5   83.35    8.64
 -11  -1  -5   86.39    7.25
 -11   1  -5   81.31    6.16
  11   1   6   34.62    3.37
  11  -1   6   26.69    5.58
  11  -1   6   23.39    4.96
 -11  -1  -6   36.47    2.78
 -11   1  -6   28.74    2.26
  11   1   7    6.68    2.21
  11  -1   7    6.14    3.04
  11  -1   7    6.21    3.88
 -11  -1  -7    5.61    1.93
 -11   1  -7    7.49    1.50
  11  -1   8   70.40    7.81
  11  -1   8   47.94    3.22
  11   1   8   49.54    6.55
 -11  -1  -8   69.11    3.87
 -11   1  -8   51.18    2.51
  11   1   9   22.86    4.76
  11  -1   9   12.00    2.39
  11  -1   9   20.44    4.64
  11   1   9   14.30    3.55
 -11  -1  -9   17.37    1.98
 -11   1  -9    0.42    1.64
  11   1  10   17.99    5.46
  11  -1  10   24.87    8.94
  11   1  10   14.84    3.61
 -11  -1 -10   12.51    2.03
  11   1  11   -1.54    3.61
  11  -1  11    1.44    3.87
  11   1  12    5.75    9.20
  11  -1  12   18.03    9.39
  11   1  13   75.73   10.89
  11  -1  13   59.27   11.28
  11   2 -14    2.35    9.58
 -11  -2  14   -0.96    5.41
 -11   2  14    7.26    6.16
  11   2 -13   54.27   15.32
 -11  -2  13   53.03    9.91
 -11   2  13   44.06   11.33
  11   2 -12    7.26    7.82
  11   2 -12    2.98    2.71
 -11  -2  12    7.55    4.99
 -11   2  12    6.29    5.69
  11   2 -11    4.17    6.12
  11   2 -11   -0.51    4.11
  11  -2 -11   -1.72    7.14
 -11  -2  11    0.85    4.08
 -11   2  11    0.96    4.54
  11   2 -10    1.68    6.17
  11   2 -10    5.07    2.85
  11  -2 -10    0.03    1.27
  11  -2 -10    9.85    7.16
 -11  -2  10   11.08    4.12
 -11   2  10   19.99    4.46
  11   2  -9    8.43    5.82
  11  -2  -9    4.10    1.43
  11  -2  -9    4.47    6.94
 -11  -2   9    7.89    4.07
 -11   2   9    1.71    4.51
  11   2  -8   22.37    8.94
  11  -2  -8   18.51    9.36
 -11  -2   8   33.19    9.99
 -11   2   8   35.61    6.45
  11   2  -7  163.39   19.07
  11  -2  -7  146.17   20.09
 -11  -2   7  177.93   14.42
 -11   2   7  183.83   14.36
  11   2  -6   24.43    8.01
  11  -2  -6   22.44    8.18
 -11  -2   6   36.66    5.65
 -11   2   6   34.27    5.76
  11   2  -5   -2.66    4.32
  11  -2  -5    9.50    4.64
 -11  -2   5    5.93    3.24
 -11   2   5    3.05    3.29
  11   2  -4  192.34   16.90
  11  -2  -4  199.74   17.46
 -11  -2   4  198.65   12.67
 -11   2   4  195.60   19.08
  11   2  -3   63.22    7.94
  11  -2  -3   50.40    8.12
 -11  -2   3   62.96    5.97
 -11   2   3   55.74    6.13
  11  -2  -2   56.97   13.49
  11   2  -2   86.52   13.81
 -11  -2   2   82.76    6.86
 -11   2   2   83.78    6.90
  11  -2  -1   59.01    6.96
  11   2  -1   49.22    6.83
 -11  -2   1   66.66    5.63
 -11   2   1   62.23    5.34
  11  -2   0   27.00    4.46
  11   2   0   21.58    7.63
 -11   2   0   26.62    3.50
 -11  -2   0   21.63    3.57
  11  -2   1  132.37    9.55
  11   2   1  135.30    9.55
 -11   2  -1  143.42    7.54
 -11  -2  -1  132.94    7.95
  11  -2   2    9.97    5.05
  11   2   2   13.25    5.41
 -11  -2  -2    8.74    2.52
 -11   2  -2   11.99    2.28
  11   2   3   45.80    5.36
  11  -2   3   55.06    7.63
 -11  -2  -3   62.68    4.16
 -11   2  -3   57.46    3.67
  11  -2   4    1.63    3.63
  11   2   4    6.59    2.56
  11  -2   4    4.94    3.15
 -11  -2  -4   12.14    3.36
 -11   2  -4    4.62    1.53
  11   2   5  191.57   10.68
  11  -2   5  221.97   14.42
  11  -2   5  187.57   14.74
 -11  -2  -5  213.16    9.53
 -11   2  -5  212.77    7.73
  11  -2   6   21.31    2.70
  11   2   6   18.20    3.25
  11  -2   6   15.79    8.00
 -11  -2  -6   19.94    4.30
 -11   2  -6   27.36    2.83
  11  -2   7   37.66    4.47
  11   2   7   31.32    6.15
  11  -2   7   31.53    6.19
 -11  -2  -7   43.32    3.33
 -11   2  -7   40.89    3.09
  11   2   8   17.38    2.51
  11  -2   8   15.40    1.36
  11  -2   8   16.90    4.73
 -11  -2  -8   16.64    2.54
 -11   2  -8    4.18    1.41
  11  -2   9   32.88    6.25
  11   2   9   26.93    3.25
 -11  -2  -9   27.41    5.09
  11   2  10   50.27    7.69
  11  -2  10   48.24    7.49
  11   2  10   41.06    3.83
 -11  -2 -10   35.32    5.73
  11   2  11   27.38    6.48
  11  -2  11   32.88    6.85
  11   2  11   16.71    2.99
 -11  -2 -11   27.01    2.90
  11  -2  12   38.39    7.62
  11   2  12   19.90    7.27
  11   2  13   36.01   13.40
  11  -2  13   32.23   14.08
  11   3 -14    0.27   10.40
 -11  -3  14   16.77    6.69
 -11   3  14    3.47    7.53
  11   3 -13    1.11    7.03
  11   3 -13   -0.15    2.53
 -11  -3  13   -0.36    4.53
 -11   3  13   -0.86    8.82
  11   3 -12   30.94    7.40
  11   3 -12   23.12   10.36
 -11  -3  12   13.63    6.74
 -11   3  12   15.49    8.01
  11   3 -11   17.00    8.16
  11   3 -11    8.59    3.71
 -11  -3  11   10.15    5.56
 -11   3  11   12.14    6.36
  11   3 -10    1.75    6.98
  11   3 -10    8.54    6.05
 -11  -3  10   17.14    5.14
 -11   3  10    3.38    5.62
  11   3  -9    0.99    8.72
  11  -3  -9    1.55    1.03
  11  -3  -9    0.93    0.58
  11  -3  -9    7.86    6.31
 -11  -3   9    6.21    3.85
 -11   3   9    7.30    4.17
  11   3  -8   62.57   12.04
  11  -3  -8   57.12   13.59
 -11  -3   8   66.05    8.63
 -11   3   8   63.17    9.26
  11   3  -7    6.04   10.72
  11  -3  -7   16.45    7.95
 -11  -3   7   12.88    8.25
 -11   3   7   19.35    5.14
  11   3  -6   76.26   10.95
  11  -3  -6   53.11   20.21
 -11  -3   6   78.94    7.75
 -11   3   6   61.81    8.37
  11   3  -5   44.49    8.83
  11  -3  -5   35.98    9.62
 -11  -3   5   69.89    6.61
 -11   3   5   54.43   10.65
  11   3  -4   39.33    7.20
  11  -3  -4   31.95    7.68
 -11  -3   4   37.05    8.62
 -11   3   4   42.76    5.49
  11   3  -3   10.13    4.81
  11  -3  -3   11.42    5.10
 -11  -3   3   16.61    3.66
 -11   3   3   14.05    3.87
  11   3  -2   35.01    6.65
  11  -3  -2   36.57   10.94
 -11   3   2   53.60    8.01
  11  -3  -1    3.98    3.56
  11   3  -1    3.19    3.54
 -11  -3   1    3.41    2.76
 -11   3   1    9.08    2.71
  11   3   0    6.61    3.63
  11  -3   0   13.33    3.62
 -11  -3   0    8.52    2.77
 -11   3   0    7.44    2.56
  11   3   1   23.19    4.47
  11  -3   1   26.71    4.33
  11  -3   1   24.08    3.60
 -11  -3  -1   20.37    3.46
 -11   3  -1   29.98    3.28
  11   3   2   17.10    3.82
  11  -3   2   13.21    3.61
  11  -3   2   14.91    3.48
 -11  -3  -2   21.83    2.87
 -11   3  -2   17.41    2.55
  11   3   3  216.27   12.78
  11  -3   3  201.40   12.35
  11  -3   3  224.64   13.53
 -11  -3  -3  228.51   11.07
 -11   3  -3  241.65    9.50
  11   3   4    5.40    2.68
  11  -3   4    1.90    3.95
  11  -3   4    2.98    5.05
 -11  -3  -4    7.92    2.15
 -11   3  -4    4.38    1.45
  11  -3   5   14.29    2.52
  11  -3   5    9.71    3.76
  11   3   5    3.76    2.87
 -11  -3  -5   10.86    3.97
 -11   3  -5   11.76    2.43
  11   3   6  179.84   10.30
  11  -3   6  193.67   13.95
  11  -3   6  198.54   13.02
 -11  -3  -6  194.01    9.31
 -11   3  -6  193.81    7.96
  11   3   7   21.67    5.92
  11  -3   7   28.12    5.60
 -11  -3  -7   28.81    3.18
  11   3   8    8.82    2.63
  11  -3   8   12.25    4.23
 -11  -3  -8    3.91    2.48
  11   3   9   23.70    3.89
  11  -3   9   18.19   10.18
 -11  -3  -9   36.48    3.72
  11   3  10   48.70    5.18
  11  -3  10   69.06    9.18
 -11  -3 -10   56.66    4.80
  11   3  11   53.50    8.00
  11   3  11   48.25    7.41
  11  -3  11   40.06    8.33
 -11  -3 -11   22.29    6.57
  11   3  12    4.72    8.56
  11  -3  12    9.08    5.63
  11  -3  13    9.62    6.54
  11   4 -14   -1.60    8.59
 -11  -4  14    2.18    5.70
 -11   4  14   -6.79    6.39
  11   4 -13    6.46    9.85
  11   4 -13   15.85    4.55
 -11  -4  13   11.77   10.55
 -11   4  13   10.86    7.99
  11   4 -12    3.84    3.54
  11   4 -12   -3.19    7.49
 -11  -4  12    4.36    7.91
 -11   4  12    6.11    5.85
  11   4 -11    0.79    7.44
  11   4 -11   11.99    3.83
 -11  -4  11    8.51    8.34
 -11   4  11   -0.11    6.04
  11   4 -10    6.75    7.26
  11   4 -10    9.08   13.73
 -11  -4  10   22.86    5.68
 -11   4  10   16.00    6.54
  11   4  -9   -0.94    6.25
 -11  -4   9    8.57    4.38
 -11   4   9    7.95    4.95
  11   4  -8    0.14    9.85
  11  -4  -8    7.98    0.61
  11  -4  -8    8.99    0.72
 -11  -4   8   10.16    4.48
 -11   4   8    8.53    4.88
  11   4  -7  135.62   15.68
  11  -4  -7  112.00    3.39
 -11  -4   7  139.69   11.46
 -11   4   7  140.34   12.24
  11   4  -6   75.66   11.04
  11  -4  -6   63.54    2.80
  11  -4  -6   83.31   12.37
 -11  -4   6   81.49   12.33
 -11   4   6   81.61    8.22
  11   4  -5   15.27    6.18
  11  -4  -5   12.65    2.82
  11  -4  -5   21.41    7.01
 -11  -4   5   21.69    4.44
 -11   4   5   19.27    4.61
  11   4  -4    2.02    3.73
  11  -4  -4    1.41    2.15
  11  -4  -4   -0.19    4.35
 -11  -4   4   -0.54    2.78
 -11   4   4    0.19    2.89
  11   4  -3    9.89    4.82
  11  -4  -3    9.23    1.98
  11  -4  -3    8.42    5.52
 -11  -4   3   11.27    3.44
 -11   4   3   20.39    3.86
  11   4  -2   -3.60    3.49
  11  -4  -2    2.46    1.70
  11  -4  -2   -0.51    3.95
 -11  -4   2    4.48    2.60
 -11   4   2    1.98    2.77
  11  -4  -1  301.61   19.71
  11   4  -1  287.76   29.32
  11  -4  -1  325.61   33.89
 -11  -4   1  314.38   16.72
 -11   4   1  313.01   17.27
  11  -4   0  118.62   16.98
  11   4   0  124.27    9.87
  11  -4   0  121.49   10.70
 -11  -4   0  116.76    7.82
 -11   4   0  116.07    7.62
  11   4   1  104.49   13.47
  11  -4   1  115.55    7.16
  11  -4   1  105.64   15.32
 -11  -4  -1  118.11   11.08
 -11   4  -1  100.27    6.29
  11   4   2   64.19    6.94
  11  -4   2   76.74    7.41
  11  -4   2   70.92    6.11
 -11  -4  -2   74.70    8.59
 -11   4  -2   81.51    4.78
  11   4   3   51.45    5.28
  11  -4   3   46.29    5.43
  11  -4   3   42.39    5.50
 -11   4  -3   55.23    5.28
  11   4   4   66.79    6.12
  11  -4   4   57.01   10.94
  11  -4   4   55.00    5.91
 -11  -4  -4   72.34    5.16
 -11   4  -4   74.95    3.40
  11   4   5   25.31    6.91
  11  -4   5   27.23    5.22
 -11  -4  -5   25.17    3.69
 -11   4  -5   35.81    2.95
  11  -4   6   40.09    6.13
  11   4   6   46.45    4.75
 -11  -4  -6   34.69    3.98
  11  -4   7   64.03    7.93
  11   4   7   63.46    5.93
 -11  -4  -7   69.75    7.84
  11   4   8   12.58    3.24
  11  -4   8   16.59    4.69
 -11  -4  -8    9.75    2.97
  11  -4   9    9.79    4.92
  11   4   9    7.07    3.15
 -11  -4  -9   13.48    3.12
  11   4  10   50.68    5.62
  11  -4  10   59.88   14.28
 -11  -4 -10   58.56    8.52
  11   4  11   44.24    5.48
  11  -4  11   50.13    9.23
 -11  -4 -11   47.64    4.91
  11   4  12    0.55    4.80
  11   4  12    3.69    4.78
  11  -4  12    5.00    5.13
  11  -4  13   29.07   14.66
  11   5 -13    7.33    8.98
  11   5 -13    5.88    4.16
 -11  -5  13    5.68    5.49
 -11   5  13    3.92   12.41
  11   5 -12    7.69    4.76
  11   5 -12    3.85    8.58
 -11  -5  12   11.15    5.90
 -11   5  12   22.00    7.41
  11   5 -11    1.53    6.07
  11   5 -11   -5.42    5.39
 -11  -5  11    1.75    4.09
 -11   5  11   -1.48    5.06
  11   5 -10   12.62    7.81
  11   5 -10    6.60    6.79
 -11  -5  10   14.35    5.51
 -11   5  10   16.80    6.66
  11   5  -9   23.91   13.70
 -11  -5   9   30.95   10.36
 -11   5   9   25.67    7.79
  11   5  -8    1.08    4.76
 -11  -5   8   -2.99    3.42
 -11   5   8    1.84    3.85
  11   5  -7   52.85    9.28
  11  -5  -7   35.56    1.21
 -11  -5   7   62.39    6.52
 -11   5   7   36.62    7.31
  11   5  -6   -4.01    4.69
  11  -5  -6    1.04    0.94
 -11  -5   6    4.82    3.27
 -11   5   6   -0.18    3.60
  11   5  -5   85.61   11.05
  11  -5  -5   73.65    3.38
 -11  -5   5   94.20   12.54
 -11   5   5   77.98    8.87
  11   5  -4   13.69    8.53
  11  -5  -4    8.25    1.71
 -11  -5   4   13.65    3.76
 -11   5   4   19.68    6.74
  11   5  -3   92.49    9.79
  11  -5  -3   74.34    4.33
 -11  -5   3   75.75   11.40
 -11   5   3   92.73    7.81
  11   5  -2  204.60   16.62
  11  -5  -2  206.41    9.43
 -11  -5   2  228.22   13.26
 -11   5   2  238.37   14.28
  11   5  -1   10.70    4.19
  11  -5  -1    7.33    2.33
 -11  -5   1   11.46    3.09
 -11   5   1    8.46    5.12
  11   5   0   46.46    6.18
  11  -5   0   51.31    4.09
 -11  -5   0   41.23    4.77
 -11   5   0   41.64    4.61
  11   5   1  141.10   10.86
  11  -5   1  146.07    8.82
 -11  -5  -1  140.52    8.48
 -11   5  -1  146.62    7.94
  11   5   2   37.42    5.54
  11  -5   2   50.68    5.14
 -11  -5  -2   49.15    4.69
 -11   5  -2   46.35    3.70
  11   5   3   51.07    5.60
  11  -5   3   46.06    5.68
 -11  -5  -3   48.54    4.79
 -11   5  -3   58.34    5.56
  11  -5   4   91.27   13.47
  11   5   4   89.52    8.05
 -11  -5  -4   99.24    6.82
 -11   5  -4  102.51    4.34
  11  -5   5   11.84    4.45
  11   5   5   12.00    3.78
 -11  -5  -5   18.95    3.24
 -11   5  -5   17.25    1.38
  11   5   6  256.51   14.84
  11  -5   6  277.52   18.70
 -11  -5  -6  286.30   13.70
 -11   5  -6  228.18    7.37
 -11   5  -6  258.51    7.22
  11   5   7   48.53    5.17
  11  -5   7   32.37    7.12
 -11  -5  -7   43.03    7.04
  11  -5   8   93.10   16.72
  11   5   8   93.05    7.64
 -11  -5  -8   94.90    6.91
  11   5   9   -0.36    4.51
  11  -5   9    0.06    3.93
 -11  -5  -9   -2.28    2.62
  11  -5  10   27.90    6.66
  11   5  10   21.22    4.51
 -11  -5 -10   24.55    7.11
  11  -5  11   14.69   10.38
  11   5  11   18.51    4.07
 -11  -5 -11   10.48    3.68
  11  -5  12   17.62    7.85
  11   5  12   26.91    4.91
 -11  -5 -12   18.62    4.59
  11   5  13    9.43    3.20
  11  -5  13   15.90    6.53
  11   6 -13   19.24   10.28
  11   6 -13   16.38    5.53
 -11  -6  13    7.14    6.86
 -11   6  13   25.56    9.71
  11   6 -12    4.41    7.32
  11   6 -12    0.93    7.89
 -11  -6  12    9.01    5.23
 -11   6  12    2.78    6.85
  11   6 -11   11.42    7.77
  11   6 -11    5.51    7.02
 -11  -6  11   12.20    5.35
 -11   6  11    5.69    6.92
  11   6 -10    2.14   12.55
  11   6 -10    4.90    6.61
 -11  -6  10   18.50    5.17
 -11   6  10    2.17    6.44
  11   6  -9   92.66   15.28
 -11  -6   9  109.29   11.36
 -11   6   9   84.92   13.56
  11   6  -8   -4.05    4.78
 -11  -6   8    1.18    3.55
 -11   6   8   -0.58    6.88
  11   6  -7   63.41   11.85
 -11  -6   7   79.21    8.48
 -11   6   7   66.25   15.64
  11   6  -6    4.51    6.05
  11  -6  -6   13.02    2.14
 -11  -6   6   12.53    4.39
 -11   6   6   14.21    8.02
  11   6  -5   71.18   10.50
  11  -6  -5   61.21    3.13
 -11  -6   5   76.74    7.31
 -11   6   5   69.50    8.22
  11   6  -4   22.03    6.38
  11  -6  -4   24.43    2.20
 -11  -6   4   13.52    4.56
 -11   6   4   17.44    5.11
  11   6  -3    8.61    7.87
  11  -6  -3    9.36    2.05
 -11  -6   3   12.41    3.54
 -11   6   3    9.17    3.85
  11   6  -2  118.55   11.97
  11  -6  -2  115.19    6.41
 -11  -6   2  133.96    9.13
 -11   6   2  129.90    9.97
  11   6  -1  459.36   30.12
  11  -6  -1  445.70   21.02
 -11  -6   1  461.37   24.63
 -11   6   1  464.65   25.64
  11   6   0   87.88    8.52
  11  -6   0   69.22    5.63
 -11  -6   0   83.71    6.44
 -11   6   0   71.06    6.37
  11   6   1    8.42    3.79
  11  -6   1   10.82    2.90
 -11  -6  -1    7.41    2.97
 -11   6  -1   10.31    2.66
  11   6   2    8.15    4.05
  11  -6   2   14.00    3.60
 -11  -6  -2   16.00    3.33
 -11   6  -2   17.31    2.59
  11   6   3   25.27    4.58
  11  -6   3   24.92    4.36
 -11  -6  -3   20.01    3.66
 -11   6  -3   16.56    4.04
  11   6   4  345.12   21.06
  11  -6   4  341.01   21.43
 -11  -6  -4  337.36   25.11
 -11   6  -4  336.36   12.41
  11   6   5  114.74    9.34
  11  -6   5  138.15   16.83
 -11   6  -5  121.62    3.98
 -11  -6  -5  124.01   12.52
 -11   6  -5  118.67    3.83
  11   6   6   57.86    6.31
  11  -6   6   65.18    7.80
 -11  -6  -6   53.50    5.54
  11   6   7   10.84    6.01
  11  -6   7    6.43    4.63
 -11  -6  -7   11.96    3.09
  11   6   8    7.58    3.72
  11  -6   8   15.63    4.97
 -11  -6  -8    9.08    3.14
  11  -6   9   35.10   11.86
  11   6   9   36.01    5.42
 -11  -6  -9   29.99    4.92
  11   6  10   84.68    8.44
  11  -6  10   70.42   11.80
 -11  -6 -10   81.23    8.06
  11   6  11   10.42    6.61
  11  -6  11   10.31    5.69
 -11  -6 -11    2.23    6.03
  11   6  12    0.11    6.04
  11  -6  12    4.22    5.66
 -11  -6 -12    4.31    3.52
  11   6  13   43.06   10.34
  11  -6  13   82.25   11.91
  11   7 -13   22.43   10.30
  11   7 -13   11.41   10.71
 -11   7  13    8.50    9.64
  11   7 -12    5.49    8.02
  11   7 -12    6.71    7.71
 -11  -7  12    6.74    8.87
 -11   7  12    9.73   11.87
  11   7 -11    7.40    7.50
  11   7 -11   11.81    6.80
 -11  -7  11    4.51    8.19
 -11   7  11    0.14    6.78
  11   7 -10   19.37    8.97
  11   7 -10   14.52    8.82
 -11  -7  10   30.34    6.31
 -11   7  10   18.15    8.61
  11   7  -9    8.92   10.54
  11   7  -9    2.73    4.14
 -11  -7   9    4.89    4.33
 -11   7   9    9.98    5.95
  11   7  -8   26.55    8.92
 -11  -7   8   29.00    6.25
 -11   7   8   29.66    8.19
  11   7  -7   12.54    6.36
 -11  -7   7   14.27    4.65
 -11   7   7    8.22    5.50
  11   7  -6   13.83    5.47
  11  -7  -6    5.29    1.77
 -11  -7   6   15.81    4.05
 -11   7   6    3.38    4.73
  11   7  -5   10.34    5.41
  11  -7  -5    5.26    1.58
 -11  -7   5   10.28    3.69
 -11   7   5    6.67    4.48
  11   7  -4   79.02   19.16
  11  -7  -4   85.39    4.69
 -11  -7   4   92.73    8.51
 -11   7   4  103.54    9.85
  11   7  -3   37.11    7.67
  11  -7  -3   42.23    3.35
 -11  -7   3   37.69    5.70
 -11   7   3   46.25    6.34
  11   7  -2    2.09    3.53
  11  -7  -2   -1.96    1.84
 -11  -7   2    1.82    4.31
 -11   7   2   -1.08    2.89
  11   7  -1   55.70    7.69
  11  -7  -1   53.01    7.29
 -11  -7   1   61.49    5.85
 -11   7   1   56.54    6.34
  11   7   0   29.32    6.34
  11  -7   0   39.58    4.31
 -11  -7   0   44.85    5.00
 -11   7   0   42.67    7.64
  11   7   1   62.81    7.45
  11  -7   1   60.75    5.56
 -11  -7  -1   58.58    9.32
 -11   7  -1   57.09    5.26
  11   7   2  181.70   13.68
  11  -7   2  186.47   11.31
 -11  -7  -2  165.75   10.60
 -11   7  -2  169.56    9.05
  11   7   3   71.00    7.71
  11  -7   3   74.46    6.84
 -11  -7  -3   72.83    6.38
 -11   7  -3   61.89    3.92
 -11   7  -3   74.12    6.81
  11   7   4    8.18    3.41
  11  -7   4    1.57    3.43
 -11  -7  -4    4.69    2.81
 -11   7  -4    4.59    1.50
 -11   7  -4    2.37    2.33
  11  -7   5   87.04    8.57
  11   7   5   69.29    7.67
 -11  -7  -5   88.93    6.51
 -11   7  -5   64.16    2.60
 -11   7  -5   79.71    4.15
  11   7   6    5.75    3.61
  11  -7   6    8.63    7.25
 -11  -7  -6    8.23    3.09
  11   7   7   78.58    8.53
  11  -7   7  100.01   10.57
 -11  -7  -7   89.46    7.27
  11   7   8   10.33    4.03
  11  -7   8   11.60    5.17
 -11  -7  -8    7.86    3.29
  11  -7   9   12.25    5.87
 -11  -7  -9   14.03    3.88
  11   7  10   11.40    4.35
  11  -7  10   13.12    6.03
 -11  -7 -10    8.62    4.12
  11   7  11   31.83    6.24
  11  -7  11   33.51    9.17
 -11  -7 -11   31.27    5.99
  11   7  12    7.92    4.26
  11  -7  12    1.79    5.93
 -11  -7 -12    3.88    6.44
  11   8 -12    9.95    7.52
  11   8 -12    3.90    6.98
 -11  -8  12    2.39    4.74
 -11   8  12   -0.41    4.49
 -11   8  12   -1.07    7.24
  11   8 -11    7.92    7.94
  11   8 -11    4.02    7.87
 -11  -8  11    8.91    5.45
 -11   8  11   14.18    7.63
  11   8 -10    2.52    6.34
  11   8 -10    2.65    6.28
 -11  -8  10   -2.27    4.14
 -11   8  10    9.84    5.86
  11   8  -9   21.13    9.27
  11   8  -9   24.48    6.51
 -11  -8   9   27.51   10.20
 -11   8   9   25.44    8.59
  11   8  -8    5.33   10.23
 -11  -8   8    9.86    4.26
 -11   8   8   -3.09    5.73
  11   8  -7   11.69    6.13
 -11  -8   7    5.98    4.28
 -11   8   7    7.51    8.57
  11   8  -6    5.63    5.18
 -11  -8   6    2.59    3.76
 -11   8   6    7.90    7.39
  11   8  -5   50.10    9.16
  11  -8  -5   42.06    4.69
 -11  -8   5   50.42    6.46
 -11   8   5   48.38   12.61
  11   8  -4   17.74    7.08
  11  -8  -4   22.01    2.83
 -11  -8   4   31.27    4.92
 -11   8   4   14.91    5.69
  11   8  -3   55.33   14.00
  11  -8  -3   50.45    4.34
 -11  -8   3   50.50   10.43
 -11   8   3   64.60    7.34
  11   8  -2   34.39    6.66
  11  -8  -2   33.67    3.77
 -11  -8   2   28.88    5.11
 -11   8   2   30.04    5.42
  11   8  -1   30.22    6.79
  11  -8  -1   41.58    4.46
 -11  -8   1   49.70    5.32
 -11   8   1   37.31    5.78
  11   8   0   12.81    4.68
  11  -8   0   10.86    5.03
 -11  -8   0    9.66    3.58
 -11   8   0   11.50    3.44
  11   8   1   97.81   10.17
  11  -8   1   96.91    7.67
 -11  -8  -1   86.53    7.78
 -11   8  -1   93.25    6.10
 -11   8  -1  100.97   11.07
  11   8   2   67.07    8.90
  11  -8   2   73.48    7.32
 -11  -8  -2   85.97    6.97
 -11   8  -2   75.48    5.73
 -11   8  -2   77.53    5.06
  11   8   3   77.09    8.61
  11  -8   3   83.01    8.09
 -11  -8  -3   74.79    7.16
 -11   8  -3   78.26    4.64
 -11   8  -3   80.29    7.72
  11   8   4   37.42    5.78
  11  -8   4   31.76    5.67
 -11  -8  -4   25.14    7.67
 -11   8  -4   33.47    2.53
 -11   8  -4   29.81    2.42
  11  -8   5   -0.17    3.40
  11   8   5   -1.24    5.17
 -11  -8  -5    0.41    2.53
 -11   8  -5   -0.44    1.50
 -11   8  -5   -0.36    1.41
  11  -8   6   10.88    5.78
  11   8   6   21.73    4.96
 -11  -8  -6   20.53    4.13
  11   8   7   10.53    4.71
  11  -8   7   11.30    9.04
 -11  -8  -7   18.32    3.87
  11   8   8   11.28    7.36
  11  -8   8    6.36    5.88
 -11  -8  -8   15.32    3.82
  11   8   9   -0.10    3.36
  11  -8   9   -3.57    4.52
 -11  -8  -9    0.65    2.90
  11   8  10   -5.70    3.44
  11  -8  10    6.25    4.73
 -11  -8 -10    1.83    3.01
  11   8  11   20.40    5.81
  11  -8  11   16.41    8.07
 -11  -8 -11   18.79    5.43
  11   8  12   17.56    5.73
 -11  -8 -12   14.21    5.33
  11   9 -12    9.40    9.89
 -11  -9  12   19.07    7.49
 -11   9  12   26.16   10.57
 -11   9  12   16.16    6.57
  11   9 -11    1.80    6.49
  11   9 -11    5.57    6.47
 -11  -9  11    5.35    4.24
 -11   9  11   -0.63    6.78
 -11   9  11   -5.06    4.14
  11   9 -10   24.07    9.71
  11   9 -10   17.99    6.62
 -11  -9  10   28.47    6.43
 -11   9  10   15.87    6.63
 -11   9  10   20.95   15.27
  11   9  -9   19.90    7.96
  11   9  -9   17.92    5.78
 -11  -9   9    9.50    5.25
 -11   9   9    8.00    5.52
 -11   9   9    8.09    7.50
  11   9  -8   14.77    8.58
 -11  -9   8   26.01    9.82
 -11   9   8   19.98    6.11
 -11   9   8   29.60    8.18
  11   9  -7   -4.40    8.56
 -11  -9   7    3.99    3.54
 -11   9   7    0.13    3.63
 -11   9   7   -0.43    4.86
  11   9  -6   -3.81    5.12
 -11  -9   6   -1.35    3.57
 -11   9   6    4.49    4.51
 -11   9   6    7.61    3.68
  11   9  -5   17.99    5.41
  11  -9  -5    7.86    1.93
 -11  -9   5    7.18    4.07
 -11   9   5    7.55    3.99
 -11   9   5    2.80    5.06
  11   9  -4  128.14   15.08
  11  -9  -4  125.03   10.76
 -11  -9   4  139.08   11.05
 -11   9   4  121.84   11.16
 -11   9   4  125.71   13.11
  11   9  -3   32.94    7.92
  11  -9  -3   48.30    4.53
 -11  -9   3   59.81    6.25
 -11   9   3   32.25    7.15
 -11   9   3   34.90    6.02
  11   9  -2   99.62   17.94
  11  -9  -2   81.81   10.33
 -11  -9   2   94.45    8.70
 -11   9   2   96.31   15.13
 -11   9   2   89.97    7.88
  11   9  -1   15.62    5.68
  11  -9  -1   17.22    3.73
 -11  -9   1   17.42    4.39
 -11   9   1   19.84    4.58
 -11   9   1   21.58    3.86
  11   9   0   24.39    8.66
  11  -9   0   15.32    6.09
 -11  -9   0   15.76    4.03
 -11   9   0   13.89    3.25
 -11   9   0   11.81    3.92
  11   9   1   10.94    4.89
  11  -9   1    9.86    3.75
 -11  -9  -1    7.56    3.63
 -11   9  -1   10.19    3.25
 -11   9  -1   11.15    2.80
  11   9   2   98.62   16.97
  11  -9   2  104.49    9.39
 -11  -9  -2  103.12    8.53
 -11   9  -2  104.80    6.35
 -11   9  -2   90.84   11.30
  11   9   3   36.10    7.17
  11  -9   3   49.95    6.62
 -11  -9  -3   46.85    5.68
 -11   9  -3   42.60    3.74
 -11   9  -3   51.48    6.17
  11   9   4   33.40   10.27
  11  -9   4   35.18    6.29
 -11  -9  -4   25.53    5.25
 -11   9  -4   24.75    4.33
 -11   9  -4   36.41    2.79
  11   9   5   15.56    5.13
  11  -9   5   20.61    5.37
 -11  -9  -5   30.41    4.29
 -11   9  -5    4.91    2.30
 -11   9  -5   18.56    1.44
  11   9   6   56.23    7.89
  11  -9   6   53.80    8.95
 -11  -9  -6   45.45   10.10
  11   9   7   18.90    8.85
  11  -9   7   15.76    6.70
 -11  -9  -7   28.66    7.31
  11   9   8   23.86    5.81
  11  -9   8   20.60    7.27
 -11  -9  -8   25.28    4.94
  11   9   9    4.01    4.48
  11  -9   9    2.42    9.53
 -11  -9  -9    6.76    3.73
  11   9  10   22.69    6.74
 -11  -9 -10   28.51    5.97
  11   9  11   24.74    6.19
  11  -9  11   18.33    7.64
 -11  -9 -11   12.43    5.78
  11  10 -11   -0.28    5.42
  11  10 -11   -1.36    8.44
 -11 -10  11   10.51    5.34
 -11  10  11   16.27    8.55
 -11  10  11   10.91    6.02
  11  10 -10    4.83    7.37
  11  10 -10    7.29    5.57
 -11 -10  10    4.84    4.99
 -11  10  10    5.11    7.17
  11  10  -9    9.56   11.04
  11  10  -9    8.25    5.62
 -11 -10   9    6.69    4.65
 -11  10   9   -5.01    7.99
 -11  10   9    3.31    6.75
  11  10  -8    8.73    7.46
 -11 -10   8   20.43    5.29
 -11  10   8    8.83    5.52
 -11  10   8    6.73    7.31
  11  10  -7    7.62    7.01
 -11 -10   7   16.33    5.02
 -11  10   7   11.05    6.77
 -11  10   7    9.08    5.00
  11  10  -6    4.56    8.59
 -11 -10   6    2.11    3.62
 -11  10   6    5.67    4.72
 -11  10   6   -1.55    3.67
  11  10  -5   14.51    6.08
 -11 -10   5   11.57    4.51
 -11  10   5    6.04    5.71
 -11  10   5   16.96    7.60
  11  10  -4   44.91    7.94
  11 -10  -4   32.16    3.99
 -11 -10   4   37.27    9.70
 -11  10   4   31.12    7.24
 -11  10   4   33.10    9.71
  11  10  -3   24.17    7.75
  11 -10  -3   29.74    7.42
 -11 -10   3   46.42    6.10
 -11  10   3   35.64    6.84
 -11  10   3   34.80    5.70
  11  10  -2   22.25    6.53
  11 -10  -2   26.74    4.34
 -11 -10   2   29.65    5.40
 -11  10   2   24.55    5.98
 -11  10   2   29.89    4.81
  11  10  -1   27.06    5.87
  11 -10  -1   13.88    4.29
 -11 -10   1   30.52    4.77
 -11  10   1   15.88    5.08
 -11  10   1   20.33    4.15
  11  10   0   16.87    5.39
  11 -10   0   19.84    4.54
 -11 -10   0   29.40    7.19
 -11  10   0   15.95    7.11
 -11  10   0   11.91    3.77
  11  10   1   88.95   10.84
  11 -10   1   95.48    8.87
 -11 -10  -1   85.79    8.63
 -11  10  -1   94.56    8.12
 -11  10  -1   86.09   10.49
  11  10   2   43.23    7.63
  11 -10   2   41.12    7.02
 -11 -10  -2   46.04    6.29
 -11  10  -2   42.96    5.13
 -11  10  -2   55.67    4.57
  11  10   3    4.99    3.86
  11 -10   3    5.05    3.66
 -11 -10  -3   -1.36    5.13
 -11  10  -3    0.75    3.29
 -11  10  -3    1.45    2.14
  11  10   4   12.43    4.91
  11 -10   4    4.45    4.76
 -11 -10  -4    9.81    3.84
 -11  10  -4    5.97    1.92
 -11  10  -4   10.55    2.10
  11  10   5   20.84    5.51
  11 -10   5   19.88    5.80
 -11 -10  -5   14.49    4.49
 -11  10  -5   16.46    2.45
 -11  10  -5   12.49    2.43
  11  10   6   -0.62    4.63
  11 -10   6    8.96    4.88
 -11 -10  -6    6.44    3.61
  11  10   7   -0.66    4.29
  11 -10   7    2.93    4.96
 -11 -10  -7    5.90    3.45
  11  10   8    4.02    4.84
  11 -10   8   10.94    5.78
 -11 -10  -8    7.84    6.86
  11  10   9   13.61    5.89
  11 -10   9   18.67    7.28
 -11 -10  -9    9.35    8.05
  11  10  10   22.17    7.02
  11 -10  10   13.80    9.49
 -11 -10 -10   26.08    5.96
  11 -10  11   11.75   15.63
 -11 -10 -11   21.78    6.23
  11  11 -10   18.85    9.90
  11  11 -10   13.91    7.31
 -11 -11  10   22.17   10.47
 -11  11  10   13.76    9.95
 -11  11  10   17.25    7.21
  11  11  -9   -6.47    6.07
  11  11  -9   -0.15    5.26
 -11 -11   9   -3.66    6.84
 -11  11   9    3.04    6.12
 -11  11   9    6.35    4.34
  11  11  -8   -0.37   11.08
 -11 -11   8    6.58    4.50
 -11  11   8    5.30   10.31
 -11  11   8    1.41    4.62
  11  11  -7   21.53    7.79
 -11 -11   7   13.09    5.35
 -11  11   7   14.22    5.75
 -11  11   7   16.75   13.00
  11  11  -6  108.30   16.84
 -11 -11   6  141.36   13.13
 -11  11   6  133.97   28.20
 -11  11   6  126.75   13.37
  11  11  -5    8.76    6.17
 -11 -11   5   13.13    4.47
 -11  11   5    3.77    5.89
 -11  11   5    5.71    4.55
  11  11  -4   10.95    6.59
 -11 -11   4   16.92    4.97
 -11  11   4   24.86   10.30
 -11  11   4   15.74    4.98
  11  11  -3    6.72    8.32
  11 -11  -3    3.55    3.08
 -11  11   3    0.98    7.64
 -11  11   3    5.20    5.98
  11  11  -2   18.08    5.77
  11 -11  -2    9.86    4.08
 -11 -11   2   17.39    4.55
 -11  11   2    9.95    8.39
 -11  11   2   12.10    4.24
  11  11  -1   31.64   10.57
  11 -11  -1   19.01    4.86
 -11 -11   1   28.32    8.43
 -11  11   1   16.20    5.43
 -11  11   1   22.66    4.59
  11  11   0   68.63    9.78
  11 -11   0   68.48    7.92
 -11 -11   0   62.83    7.76
 -11  11   0   60.90    7.36
 -11  11   0   53.68    6.42
  11  11   1    9.52    7.08
  11 -11   1    0.22    3.85
 -11 -11  -1    4.59    3.69
 -11  11  -1    0.70    5.32
 -11  11  -1    5.35    4.50
  11  11   2    7.36    4.61
  11 -11   2    1.95    4.41
 -11 -11  -2   10.63    3.88
 -11  11  -2    3.98    3.14
 -11  11  -2    3.89    4.38
  11  11   3    4.41    6.22
  11 -11   3    0.92    3.56
 -11 -11  -3    0.92    3.08
 -11  11  -3   -0.55    3.18
 -11  11  -3   -0.67    2.15
  11  11   4   63.10    9.42
  11 -11   4   71.39    9.54
 -11 -11  -4   60.71    7.52
 -11  11  -4   53.31    3.92
 -11  11  -4   53.84    4.44
  11  11   5  124.78   14.30
  11 -11   5  127.89   15.00
 -11 -11  -5  122.89   11.43
  11  11   6   11.97    7.98
  11 -11   6    0.59    5.66
 -11 -11  -6    6.12    3.85
  11  11   7    1.49    4.74
 -11 -11  -7    5.47    3.80
  11  11   8   18.10    6.64
  11 -11   8   22.16    8.22
 -11 -11  -8   20.34    5.35
  11  11   9   27.79    8.13
  11 -11   9   37.47   10.36
 -11 -11  -9   33.82   11.16
  11  11  10    5.13    9.31
  11 -11  10    7.42    7.67
  11  12  -9   25.98    9.71
  11  12  -9    8.57    8.39
 -11 -12   9   12.03    6.38
 -11  12   9   24.62    7.16
  11  12  -8   15.53    7.85
  11  12  -8    2.09    8.06
 -11 -12   8   10.62    9.23
 -11  12   8   13.40    8.58
 -11  12   8   15.39    5.91
  11  12  -7    4.25    7.92
 -11 -12   7   18.68    5.51
 -11  12   7   18.87    8.31
 -11  12   7    8.37    5.51
  11  12  -6   -7.91    6.51
 -11 -12   6   10.96    4.67
 -11  12   6   10.82    6.61
 -11  12   6    6.54    5.03
  11  12  -5    4.66   11.06
 -11 -12   5   11.97    5.21
 -11  12   5    9.34    5.32
 -11  12   5   20.71    6.80
  11  12  -4   27.10    8.47
 -11 -12   4   31.26    6.33
 -11  12   4   25.92    8.12
 -11  12   4   30.68    6.37
  11  12  -3   24.46    7.60
 -11 -12   3   18.69    6.12
 -11  12   3   34.51    7.47
 -11  12   3   34.95    9.55
  11  12  -2   19.91    6.52
  11 -12  -2   13.87    4.85
 -11 -12   2   19.51    8.83
 -11  12   2   16.77    6.09
 -11  12   2   18.80    4.82
  11  12  -1    6.77    5.42
  11 -12  -1    2.69    4.02
 -11 -12   1    8.32    4.17
 -11  12   1    4.50    7.40
 -11  12   1    6.19    3.68
  11  12   0    7.21    5.25
  11 -12   0    9.41    4.43
 -11 -12   0   11.16    6.91
 -11  12   0    4.31    4.11
 -11  12   0    4.35    3.51
  11  12   1   42.30    7.43
  11 -12   1   21.22    6.77
 -11 -12  -1   41.48    6.29
 -11  12  -1   28.98    5.79
 -11  12  -1   21.26    7.88
  11  12   2   45.33    7.85
  11 -12   2   43.96    7.48
 -11 -12  -2   34.65    6.69
 -11  12  -2   28.98    8.70
 -11  12  -2   29.37    7.59
  11  12   3   27.40    7.18
  11 -12   3   35.31    7.13
 -11 -12  -3   36.83    6.00
 -11  12  -3   17.56    6.27
 -11  12  -3   22.99    7.15
  11  12   4   -3.38    4.17
 -11 -12  -4   -0.03    3.44
 -11  12  -4    0.31    1.76
 -11  12  -4   -0.45    3.29
  11  12   5    5.36    5.05
  11 -12   5    4.32    5.34
 -11 -12  -5    2.38    3.96
  11  12   6    8.44    5.84
  11 -12   6   11.95    6.55
 -11 -12  -6   11.80    7.64
  11  12   7   10.71    5.91
  11 -12   7    9.73    6.73
 -11 -12  -7    7.41    4.68
  11  12   8   15.85    6.79
  11 -12   8   11.81    8.21
 -11 -12  -8   16.34    5.36
  11  12   9   12.02    5.99
 -11 -12  -9    4.64    5.01
  11  13  -8    0.75    6.38
  11  13  -8   -4.55    6.60
 -11 -13   8    5.95    4.36
 -11  13   8   -2.27    8.91
 -11  13   8   -1.89    6.81
  11  13  -7    3.57   11.20
 -11 -13   7    9.01    4.90
 -11  13   7    0.10    7.25
 -11  13   7   -2.40    8.83
  11  13  -6  120.25   17.10
 -11 -13   6   92.94   12.78
 -11  13   6  128.82   18.08
 -11  13   6   99.00   13.63
  11  13  -5   -4.49    5.19
 -11 -13   5    3.06    4.00
 -11  13   5    2.27    5.55
 -11  13   5    0.70    4.05
  11  13  -4    2.37    5.35
 -11 -13   4    2.78    4.00
 -11  13   4    7.80    5.53
 -11  13   4   -3.02    4.10
  11  13  -3   13.40    6.98
 -11 -13   3   13.37    5.47
 -11  13   3   13.44    6.73
 -11  13   3   18.82    5.25
  11  13  -2   10.84    6.16
 -11 -13   2   14.32    4.92
 -11  13   2    2.13    5.52
 -11  13   2    8.01    4.51
  11  13  -1   11.84    6.88
  11 -13  -1   12.59    5.44
 -11 -13   1   18.24    5.26
 -11  13   1   14.68    5.65
 -11  13   1   11.25    4.78
  11  13   0   33.62    8.45
  11 -13   0   39.54    7.39
 -11 -13   0   45.88    6.83
 -11  13   0   27.19    6.97
 -11  13   0   24.26    5.70
  11  13   1    1.82    5.02
  11 -13   1    3.71    4.68
 -11 -13  -1    3.72    4.16
 -11  13  -1    4.33    3.74
 -11  13  -1    0.86    5.34
  11  13   2    8.30    6.09
  11 -13   2   10.82    6.19
 -11 -13  -2   18.34    5.04
 -11  13  -2    8.59    4.19
 -11  13  -2   11.63    3.71
  11  13   3   28.54    6.82
 -11 -13  -3   26.18    5.65
 -11  13  -3   15.44    6.03
 -11  13  -3   10.61    4.09
  11  13   4   45.15    8.78
  11 -13   4   33.34    9.34
 -11 -13  -4   36.46   12.10
  11  13   5   76.30   12.87
  11 -13   5   65.54   13.25
 -11 -13  -5   92.14   10.28
  11  13   6    2.66    4.83
  11 -13   6    2.03    5.33
 -11 -13  -6   -0.92    3.98
  11  13   7    3.77    5.72
  11 -13   7    4.64    6.63
 -11 -13  -7    7.13    7.59
  11  13   8   17.11    8.66
  11 -13   8   41.78   11.55
 -11 -13  -8   27.04    6.77
  11  14  -7    0.93   10.39
 -11 -14   7   19.75    6.36
 -11  14   7   18.52    9.68
 -11  14   7   17.09    7.98
  11  14  -6    0.19    7.86
 -11 -14   6    7.67    5.28
 -11  14   6   11.03    7.92
 -11  14   6   10.66    5.81
  11  14  -5    1.01    6.65
 -11 -14   5    7.62    7.91
 -11  14   5    7.11    6.89
 -11  14   5    2.82    8.25
  11  14  -4   12.03   11.54
 -11 -14   4   14.32    5.83
 -11  14   4    9.12   13.03
 -11  14   4   16.11    5.92
  11  14  -3    6.26    7.50
 -11 -14   3   22.53    5.77
 -11  14   3   14.34    5.66
 -11  14   3   10.52   12.31
  11  14  -2    6.77    8.91
 -11 -14   2    1.32    4.26
 -11  14   2    0.66    4.88
 -11  14   2    0.65    6.52
  11  14  -1    3.81    6.47
 -11 -14   1    7.67    4.86
 -11  14   1    8.04    5.44
 -11  14   1    8.51    4.37
  11  14   0    3.42    8.34
  11 -14   0    2.99    4.69
 -11 -14   0   -2.59    4.10
 -11  14   0    6.78    4.21
 -11  14   0   -2.40    5.69
  11  14   1   86.55   13.07
  11 -14   1   85.79   12.95
 -11 -14  -1   90.89   11.07
 -11  14  -1   84.23   10.52
 -11  14  -1   83.37    8.75
  11  14   2   33.89    8.73
  11 -14   2   42.29   14.55
 -11 -14  -2   38.45    7.39
 -11  14  -2   22.99    6.38
 -11  14  -2   31.78    5.53
  11  14   3    1.62    4.68
  11 -14   3    4.37    4.88
 -11 -14  -3   -3.71    3.89
 -11  14  -3    0.17    4.72
 -11  14  -3    0.34    2.51
  11  14   4   47.26   10.57
  11 -14   4   59.65   11.66
 -11 -14  -4   50.43    8.83
  11  14   5   10.27    8.98
  11 -14   5   -1.42    6.27
 -11 -14  -5    4.25    7.37
  11  14   6   25.90    9.83
  11 -14   6   20.54   10.54
 -11 -14  -6   39.93    7.44
  11  15  -5    4.52    6.60
 -11 -15   5   -0.67    4.85
 -11  15   5   -2.08   12.35
 -11  15   5   -8.61    5.04
  11  15  -4    9.26   10.34
 -11 -15   4    2.91    9.24
 -11  15   4   11.11    8.00
 -11  15   4   11.45    9.35
  11  15  -3   14.58    7.17
 -11 -15   3   22.10    6.53
 -11  15   3    6.91   13.39
 -11  15   3    8.86    6.00
  11  15  -2    3.78    5.51
 -11 -15   2   -2.78    4.59
 -11  15   2    8.05    9.57
 -11  15   2    5.44    4.31
  11  15  -1   -4.28    5.41
 -11 -15   1    8.41    4.74
 -11  15   1   -6.11    8.53
 -11  15   1    5.33    3.85
  11  15   0    0.73    9.25
 -11 -15   0    1.93    4.89
 -11  15   0    8.53    4.19
 -11  15   0    3.94    5.17
  11  15   1    4.77    5.74
 -11 -15  -1   15.90    8.42
 -11  15  -1    5.15    5.24
 -11  15  -1    4.46    4.12
  11  15   2   52.90   10.07
  11 -15   2   24.88    9.16
 -11 -15  -2   47.34    8.20
 -11  15  -2   35.29   12.16
 -11  15  -2   26.50    6.15
  11  15   3   56.19   11.96
  11 -15   3   50.59   12.23
 -11 -15  -3   53.73    9.49
  11  15   4   -4.18    5.45
  11 -15   4    8.01    5.99
 -11 -15  -4   -3.22    4.33
 -11 -15  -5   34.32    8.69
 -11 -16   0   12.05   10.89
  12   0 -13    5.18   10.43
 -12   0  13    5.17   10.17
  12   0 -12   11.75    8.94
 -12   0  12   -3.83    8.97
  12   0 -11   33.99   12.77
 -12   0  11   37.74    8.53
  12   0 -10  108.59   22.08
  12   0 -10  143.99    8.77
 -12   0  10  139.81   15.92
  12   0  -9   39.67   20.80
 -12   0   9   63.71   14.49
  12   0  -8    8.81    6.53
 -12   0   8    2.45    7.08
  12   0  -7   54.62   12.02
 -12   0   7   60.58    7.93
  12   0  -6   42.26    9.54
 -12   0   6   50.69    6.74
  12   0  -5   12.89    6.66
 -12   0   5   20.49    4.48
  12   0  -4   45.80   13.48
 -12   0   4   51.24   10.01
  12   0  -3  206.13   18.97
 -12   0   3  238.36   14.61
  12   0  -2   37.03    6.61
 -12   0   2   33.74    7.97
  12   0  -1   95.57    9.97
 -12   0   1  118.29    8.22
  12   0   0  134.65   11.97
 -12   0   0  168.96    9.93
  12   0   1   12.52    3.97
 -12   0  -1   14.61    2.98
  12   0   2  309.71   19.11
 -12   0  -2  358.82   16.34
  12   0   3  439.59   25.77
 -12   0  -3  493.07   21.59
  12   0   4  160.49   10.16
 -12   0  -4  167.27   11.28
  12   0   5  130.90   13.83
 -12   0  -5  156.07    7.27
  12   0   6   43.97    7.46
 -12   0  -6   55.43    3.81
  12   0   7    6.97    3.89
 -12   0  -7    6.59    2.02
  12   0   8   88.09   10.76
  12   0   8   78.53    8.25
 -12   0  -8  102.20    5.13
  12   0   9   -2.27    7.07
  12   0   9    4.74    1.88
 -12   0  -9    4.11    1.51
  12   0  10   15.67    5.87
  12   0  11   10.00    9.32
  12   0  12   25.34    7.48
  12   1 -13    2.33    9.98
 -12  -1  13    3.31    5.91
 -12   1  13    6.81    6.20
  12   1 -12    4.98    9.06
  12  -1 -12   13.92    9.96
 -12  -1  12    9.27    5.79
 -12   1  12    6.67    6.07
  12   1 -11   25.09   10.91
  12   1 -11   16.17    6.14
  12  -1 -11   11.70   11.98
 -12  -1  11   14.94    6.90
 -12   1  11   39.46    7.23
  12   1 -10   14.63    9.10
  12   1 -10   17.82    3.89
  12  -1 -10   15.36    2.41
  12  -1 -10   23.89   16.26
 -12  -1  10   21.38    6.06
 -12   1  10   10.93    6.35
  12   1  -9   15.12    8.43
  12  -1  -9   14.14    8.54
  12  -1  -9   11.69    3.06
 -12  -1   9   19.24    5.55
 -12   1   9   22.05    5.82
  12   1  -8  127.82   17.35
  12  -1  -8   91.48   17.88
 -12  -1   8  129.32   12.71
 -12   1   8  138.35   13.27
  12   1  -7   35.71   11.17
  12  -1  -7   41.30   11.46
 -12  -1   7   62.07    7.86
 -12   1   7   65.71    7.86
  12   1  -6   29.86   15.11
  12  -1  -6   29.21    9.66
 -12  -1   6   49.38    6.52
 -12   1   6   42.35    6.59
  12   1  -5    0.34    4.91
  12  -1  -5    2.31    5.27
 -12  -1   5    8.37    3.60
 -12   1   5    5.42    5.46
  12   1  -4    1.69    5.07
  12  -1  -4    5.01    5.01
 -12  -1   4   11.86    3.65
 -12   1   4    8.33    3.49
  12   1  -3   44.80    8.16
  12  -1  -3   53.75    8.24
 -12   1   3   48.28    5.87
 -12  -1   3   59.83    5.94
  12  -1  -2   45.43    7.77
  12   1  -2   47.79    7.63
 -12  -1   2   54.82    5.73
 -12   1   2   59.51    5.92
  12   1  -1   82.70    9.35
  12  -1  -1   77.15    9.70
 -12  -1   1   94.99    7.94
 -12   1   1  125.27    8.01
  12  -1   0   30.44    5.34
  12   1   0   30.00    5.42
 -12  -1   0   21.70    4.10
 -12   1   0   35.53    4.09
  12   1   1   29.24    5.33
  12  -1   1   23.68    5.05
 -12  -1  -1   30.26    6.40
 -12   1  -1   43.11    4.05
  12  -1   2   10.06    5.45
  12   1   2    4.79    3.31
 -12  -1  -2    8.52    4.09
 -12   1  -2    9.69    2.42
  12   1   3   25.39    4.27
  12  -1   3   20.57    6.44
 -12  -1  -3   24.74    3.06
 -12   1  -3   26.32    2.92
  12   1   4   91.93   10.62
  12  -1   4   75.34    6.13
 -12  -1  -4   74.57    4.99
 -12   1  -4   83.77    4.51
  12   1   5   21.55    3.57
  12  -1   5   19.36    3.32
 -12  -1  -5   24.62    4.60
 -12   1  -5   19.01    4.04
  12   1   6    4.46    2.27
  12  -1   6    1.56    3.39
  12  -1   6    2.26    1.99
 -12  -1  -6    0.03    1.83
 -12   1  -6   -1.73    2.48
  12   1   7    8.25    2.68
  12  -1   7    5.58    4.22
  12  -1   7    7.07    3.73
 -12  -1  -7   11.29    2.25
 -12   1  -7    7.38    1.91
  12  -1   8   41.05    3.55
  12   1   8   39.78    4.30
  12  -1   8   57.67    7.28
 -12  -1  -8   54.66    6.25
 -12   1  -8   45.30    4.16
  12   1   9    3.01    2.02
  12   1   9    5.56    4.04
  12  -1   9    2.95    2.25
  12  -1   9   -0.09    3.93
 -12  -1  -9   -0.20    2.86
 -12   1  -9    0.05    1.53
  12   1  10   23.50    5.11
  12  -1  10   11.88    8.34
  12   1  10    8.73    2.06
 -12  -1 -10    3.99    1.93
  12   1  11   35.77    7.95
  12  -1  11   40.08    8.60
  12   1  12    9.12    5.93
  12  -1  12   13.13    9.84
  12  -1  13   20.49    8.06
  12   2 -13    3.05    8.57
 -12  -2  13   -0.86    5.51
 -12   2  13   11.22   10.55
  12   2 -12    0.15    5.40
  12   2 -12   13.84    9.21
 -12  -2  12   15.15    6.03
 -12   2  12    8.25    6.54
  12   2 -11   -5.79    7.71
  12   2 -11    4.26    3.23
  12  -2 -11    0.80    8.96
 -12  -2  11   10.14    5.10
 -12   2  11    7.15    5.65
  12   2 -10   11.34    7.03
  12   2 -10   11.06    8.72
  12  -2 -10   14.55    9.58
 -12  -2  10   21.82    5.97
 -12   2  10    7.05    6.05
  12   2  -9   12.33    8.28
  12  -2  -9   12.31    3.86
  12  -2  -9   19.95    9.81
 -12  -2   9   31.41    5.92
 -12   2   9   21.26    6.32
  12   2  -8   13.13    7.57
  12  -2  -8    8.65   12.49
 -12  -2   8   17.86    5.38
 -12   2   8   11.69    5.62
  12   2  -7    0.87    4.74
  12  -2  -7    2.38    5.27
 -12  -2   7    0.77    3.63
 -12   2   7   -1.70    6.06
  12   2  -6   10.13    5.94
  12  -2  -6    9.86    6.29
 -12  -2   6    4.75    4.30
 -12   2   6    8.73    4.09
  12   2  -5   23.44    7.58
  12  -2  -5   32.44   12.94
 -12  -2   5   34.83    5.35
 -12   2   5   31.80    5.47
  12   2  -4   -6.16    3.80
  12  -2  -4    2.72    4.03
 -12  -2   4    0.35    2.71
 -12   2   4    1.92    2.70
  12   2  -3  159.50   23.89
  12  -2  -3  148.78   15.96
 -12  -2   3  183.71   17.97
 -12   2   3  176.63   17.55
  12   2  -2   83.91    9.49
  12  -2  -2   68.04   15.14
 -12  -2   2   79.00    7.08
 -12   2   2   74.12    6.73
  12   2  -1    8.89    7.48
  12  -2  -1   17.62    4.51
 -12  -2   1   10.89    3.37
 -12   2   1   11.81    3.47
  12   2   0   71.63    8.31
  12  -2   0   75.20    8.22
 -12  -2   0   85.85    6.62
 -12   2   0   85.52    6.50
  12  -2   1    5.14    3.73
  12   2   1    7.13    3.91
 -12  -2  -1   13.56    2.99
 -12   2  -1   12.86    2.82
  12   2   2   78.21    7.56
  12  -2   2   73.25    7.32
 -12  -2  -2   86.41    5.83
 -12   2  -2   85.47    5.62
  12  -2   3    4.65    2.81
  12   2   3    8.49    3.03
 -12  -2  -3    3.81    2.26
 -12   2  -3    4.91    3.19
  12   2   4   90.78   12.13
  12  -2   4   95.51    7.54
  12  -2   4  125.17    9.66
 -12  -2  -4  119.01   10.01
 -12   2  -4  117.47    5.54
  12  -2   5    4.06    2.58
  12  -2   5    9.39    3.68
  12   2   5    7.34    2.81
 -12  -2  -5    7.52    2.30
 -12   2  -5    4.54    1.71
  12  -2   6    2.30    2.26
  12   2   6    4.06    2.68
  12  -2   6   13.09    6.15
 -12  -2  -6    6.49    2.23
 -12   2  -6    4.78    1.53
  12   2   7   26.71    6.35
  12  -2   7   21.46    3.04
  12  -2   7   25.79    5.78
 -12  -2  -7   20.26    3.27
 -12   2  -7   33.89    2.27
  12   2   8   11.78    4.13
  12  -2   8    9.82    1.54
  12  -2   8    4.56    4.32
 -12  -2  -8   14.05    3.99
 -12   2  -8    0.23    1.55
  12   2   9    3.55    2.46
  12  -2   9    3.78    4.49
 -12  -2  -9    7.45    2.36
  12   2  10   12.16    5.25
  12  -2  10    9.31    5.23
  12   2  10    7.84    2.57
 -12  -2 -10    5.82    2.35
  12   2  11   26.39    7.58
  12  -2  11   43.07   13.08
  12  -2  12   11.45    7.05
  12   2  12   21.67    6.68
  12  -2  13   20.57    8.13
  12   3 -13    1.08    9.28
 -12  -3  13   -2.25    5.68
 -12   3  13   -9.39    6.86
  12   3 -12   15.50    4.66
  12   3 -12   16.46   10.76
 -12  -3  12   19.72    7.08
 -12   3  12   17.37    7.83
  12   3 -11   14.03    8.26
  12   3 -11    0.88    6.65
 -12  -3  11   11.84    5.65
 -12   3  11    4.95    5.99
  12   3 -10    2.83    3.63
  12   3 -10   -1.45    6.55
 -12  -3  10    7.98    4.68
 -12   3  10   -0.05    4.79
  12   3  -9    4.97    5.83
  12  -3  -9   -0.49    0.87
  12  -3  -9    2.22    0.58
  12  -3  -9   -8.72    6.62
 -12  -3   9   10.18    4.07
 -12   3   9    6.34    4.31
  12   3  -8   18.50    8.39
  12  -3  -8   20.24    1.56
  12  -3  -8   21.16    9.26
 -12  -3   8   27.28    9.44
 -12   3   8   16.37    6.05
  12   3  -7   76.23   13.26
  12  -3  -7   91.39   15.62
 -12  -3   7   83.07    9.72
 -12   3   7   80.52    9.96
  12   3  -6   19.94    7.54
  12  -3  -6   26.32   14.71
 -12  -3   6   24.83    5.56
 -12   3   6   27.60    5.78
  12   3  -5    3.98    5.22
  12  -3  -5    3.26    5.67
 -12  -3   5    6.21    3.81
 -12   3   5   10.32    3.87
  12   3  -4   13.56    5.76
  12  -3  -4    8.77    6.04
 -12  -3   4   15.83    4.23
 -12   3   4   19.53    7.02
  12   3  -3   60.15   10.00
  12  -3  -3   74.58   10.03
 -12  -3   3   85.72    7.51
 -12   3   3   72.03    7.40
  12  -3  -2   22.49    5.80
  12   3  -2   14.32    5.54
 -12  -3   2   17.16    3.99
 -12   3   2   26.02    4.28
  12   3  -1   21.49    6.02
  12  -3  -1   28.54    9.82
 -12  -3   1   31.08    4.47
 -12   3   1   37.01    4.37
  12   3   0  101.94    9.68
  12  -3   0   97.00    9.73
 -12   3   0  107.03   11.63
 -12  -3   0  108.48    7.69
  12   3   1   45.56    6.36
  12  -3   1   47.29    6.31
  12  -3   1   51.42    5.31
 -12  -3  -1   46.20    4.96
 -12   3  -1   57.98    7.63
  12   3   2   40.63    5.42
  12  -3   2   46.59    5.46
  12  -3   2   41.17    5.20
 -12  -3  -2   43.17    4.34
 -12   3  -2   28.48    6.18
  12   3   3   45.87    5.68
  12  -3   3   39.62    5.42
  12  -3   3   53.37    5.70
 -12  -3  -3   45.17    4.30
 -12   3  -3   45.42    3.58
  12   3   4   -1.62    4.17
  12  -3   4    1.58    4.05
  12  -3   4   -4.65    2.85
 -12   3  -4   -0.45    2.36
 -12  -3  -4    1.56    2.01
  12   3   5   12.53    3.55
  12  -3   5   16.10    3.26
  12  -3   5   13.18    4.38
 -12  -3  -5   16.84    3.03
 -12   3  -5   15.81    3.05
  12   3   6   49.03    4.95
  12  -3   6   41.95    6.73
  12  -3   6   42.05    7.14
 -12  -3  -6   39.37    7.03
 -12   3  -6   45.44    2.55
  12   3   7   25.25    6.27
  12  -3   7   28.94    5.48
 -12  -3  -7   19.28    3.40
  12  -3   8   74.71    9.15
  12   3   8   61.72    5.77
 -12  -3  -8   75.12    8.90
  12  -3   9    2.50    3.95
  12   3   9    2.24    2.33
 -12  -3  -9   -0.23    2.36
  12   3  10   16.52    3.62
  12  -3  10   28.69    6.49
 -12  -3 -10   15.83    5.52
  12   3  11   42.00    5.15
  12  -3  11   62.46    9.48
  12   3  11   54.45    9.13
 -12  -3 -11   49.90    4.67
  12   3  12   -0.70    9.19
  12  -3  12   13.87    9.85
  12  -3  13    5.21    5.54
  12   4 -13   39.69   14.51
  12   4 -13   28.29    6.36
 -12  -4  13   39.39    8.97
 -12   4  13   34.49   19.28
  12   4 -12    2.92    3.81
  12   4 -12   10.21    7.35
 -12  -4  12   -0.92    4.76
 -12   4  12   -6.44    5.68
  12   4 -11    1.17    7.38
  12   4 -11    3.23    6.79
 -12  -4  11    6.11    5.01
 -12   4  11    4.39    5.92
  12   4 -10    5.38    3.81
  12   4 -10    4.95    7.02
 -12  -4  10   10.24    4.74
 -12   4  10   -4.48    5.52
  12   4  -9    4.88    5.41
 -12  -4   9   -3.67    3.79
 -12   4   9    0.58    4.40
  12   4  -8   -1.64    5.41
  12  -4  -8    0.69    0.98
 -12  -4   8    3.96    3.83
 -12   4   8    6.58    4.32
  12   4  -7    3.28    5.54
  12  -4  -7    4.26    1.13
 -12  -4   7   -0.60    6.81
 -12   4   7    6.77    4.34
  12   4  -6   16.94    5.83
  12  -4  -6    7.37    1.52
  12  -4  -6    4.49    7.03
 -12  -4   6    6.66    4.14
 -12   4   6    9.38    4.54
  12   4  -5   33.92    8.30
  12  -4  -5   32.46    2.69
  12  -4  -5   28.28    9.73
 -12  -4   5   48.42    5.96
 -12   4   5   45.44    9.79
  12   4  -4   54.95   14.44
  12  -4  -4   47.07    5.54
  12  -4  -4   43.06   10.15
 -12  -4   4   52.26   10.56
 -12   4   4   54.08    6.79
  12   4  -3   15.15    5.46
  12  -4  -3   10.36    3.78
  12  -4  -3   17.19    6.08
 -12  -4   3   10.75    3.87
 -12   4   3   16.02    4.07
  12   4  -2   42.89   12.22
  12  -4  -2   33.32    6.01
  12  -4  -2   45.22    8.35
 -12  -4   2   45.65    8.74
 -12   4   2   55.58    8.51
  12   4  -1   98.70   10.49
  12  -4  -1   88.64   10.22
  12  -4  -1  119.02   18.74
 -12  -4   1  109.44    7.99
 -12   4   1  105.55    8.01
  12   4   0   22.15    7.96
  12  -4   0   20.97    5.32
  12  -4   0   23.12    8.56
 -12  -4   0   15.26    3.67
 -12   4   0   16.52    3.41
  12   4   1  133.38   12.11
  12  -4   1  158.55    9.79
  12  -4   1  142.48   20.86
 -12  -4  -1  158.57    9.69
 -12   4  -1  160.47   13.54
  12   4   2  129.47   10.85
  12  -4   2  130.44    9.75
  12  -4   2  145.15   11.87
 -12  -4  -2  130.72   12.80
 -12   4  -2  141.10    7.47
  12   4   3  249.14   16.40
  12  -4   3  267.15   17.17
  12  -4   3  268.98   17.94
 -12  -4  -3  270.68   20.08
 -12   4  -3  267.19   11.69
  12  -4   4    7.97    6.77
  12  -4   4   17.17    3.96
  12   4   4   15.31    3.81
 -12  -4  -4   13.42    5.22
 -12   4  -4   15.59    3.39
  12   4   5   64.23    6.38
  12  -4   5   82.02    7.85
 -12  -4  -5   73.11    5.70
 -12   4  -5   65.59    3.27
  12   4   6   77.31    6.89
  12  -4   6   90.17    9.06
 -12  -4  -6   78.25    6.19
 -12   4  -6   77.18    3.15
  12  -4   7   48.33    7.07
  12   4   7   29.15    5.02
 -12  -4  -7   47.24    4.50
  12   4   8    5.06    5.03
  12  -4   8    6.99    4.37
 -12  -4  -8    2.26    4.43
  12   4   9    8.01    3.48
  12  -4   9   19.89    5.19
 -12  -4  -9    7.40    3.47
  12   4  10   18.16    4.05
  12  -4  10   10.47    6.36
 -12  -4 -10   16.45    3.83
  12   4  11   21.48    4.18
  12  -4  11   18.22    7.03
 -12  -4 -11   13.91    3.69
  12  -4  12   15.29    6.58
  12   5 -12   16.30   11.27
  12   5 -12   19.77    9.91
 -12  -5  12   23.08   12.02
 -12   5  12   17.24    8.88
  12   5 -11   12.14    7.97
  12   5 -11    3.97    4.35
 -12  -5  11    3.90    8.76
 -12   5  11    4.46    6.14
  12   5 -10    8.08    4.80
  12   5 -10   15.59    8.60
 -12  -5  10   21.08    6.14
 -12   5  10   21.72    7.14
  12   5  -9   -6.27    5.78
 -12  -5   9    5.79    4.00
 -12   5   9   -0.70    4.52
  12   5  -8   12.65    7.30
 -12  -5   8   14.81    5.33
 -12   5   8   12.64    5.94
  12   5  -7   23.41    7.57
  12  -5  -7   16.55    1.25
 -12  -5   7   31.13    5.57
 -12   5   7   24.37    5.82
  12   5  -6  113.71   14.21
  12  -5  -6   98.52    6.10
 -12  -5   6  122.31   17.18
 -12   5   6  116.43   11.48
  12   5  -5  122.43   22.49
  12  -5  -5  100.22    7.08
 -12  -5   5  111.62   10.12
 -12   5   5  108.25   11.20
  12   5  -4    2.85    4.04
  12  -5  -4    0.80    1.46
 -12  -5   4   -1.43    2.92
 -12   5   4   -2.98    3.15
  12   5  -3    3.80    8.65
  12  -5  -3   10.28    2.35
 -12  -5   3   16.64    3.87
 -12   5   3   13.53    6.76
  12   5  -2   25.97    6.50
  12  -5  -2   28.60    3.28
 -12  -5   2   28.15    4.61
 -12   5   2   28.25    4.81
  12   5  -1   66.44    9.15
  12  -5  -1   68.22    5.38
 -12  -5   1   77.46    6.86
 -12   5   1   94.66    7.13
  12   5   0   54.69    7.74
  12  -5   0   57.51    5.17
 -12  -5   0   62.13    9.36
 -12   5   0   67.93    5.70
  12   5   1   48.70   11.70
  12  -5   1   67.87    5.93
 -12  -5  -1   66.58    5.87
 -12   5  -1   60.12    5.16
  12   5   2    4.64    3.34
  12  -5   2    0.29    2.90
 -12  -5  -2    7.44    2.59
 -12   5  -2    1.85    2.18
  12   5   3    1.43    5.33
  12  -5   3    8.97    3.04
 -12  -5  -3    3.67    2.50
 -12   5  -3    0.88    1.89
  12  -5   4    7.53    3.98
  12   5   4   12.71    3.69
 -12  -5  -4   10.33    3.07
 -12   5  -4   11.44    1.91
  12   5   5  115.31    9.07
  12  -5   5  120.84   17.19
 -12  -5  -5  129.31    8.46
 -12   5  -5  115.28    4.61
  12   5   6   19.73    4.28
  12  -5   6   19.77    5.38
 -12  -5  -6   16.50    3.63
 -12   5  -6   18.59    1.89
  12   5   7   51.78    6.25
  12  -5   7   63.28    7.97
 -12  -5  -7   49.21    5.35
  12  -5   8   19.24    5.73
  12   5   8   18.65    4.19
 -12  -5  -8    6.31    5.87
  12   5   9  111.21   16.14
  12  -5   9  120.44   14.47
 -12  -5  -9  133.47    9.95
  12   5  10   19.57    4.66
  12  -5  10   22.53    7.19
 -12  -5 -10   22.89    4.57
  12   5  11    2.75    3.39
  12  -5  11    4.22    5.42
 -12  -5 -11    5.21    5.56
  12   5  12    2.06    3.07
  12  -5  12   -0.89    4.86
 -12  -5 -12   -0.20    2.85
  12   6 -12    2.53    8.10
  12   6 -12   -3.57    4.41
 -12  -6  12   -4.22    5.10
 -12   6  12    7.22   11.71
  12   6 -11    3.71    8.72
  12   6 -11   10.46    4.94
 -12  -6  11    9.81    5.92
 -12   6  11   15.43    7.46
  12   6 -10    2.61    4.01
  12   6 -10    2.34    7.38
 -12  -6  10    6.79    4.87
 -12   6  10    7.97    6.11
  12   6  -9   26.67   10.47
 -12  -6   9   29.08    7.48
 -12   6   9   46.59    9.17
  12   6  -8   -3.40    6.18
 -12  -6   8    6.59    7.11
 -12   6   8    9.37    5.18
  12   6  -7   -4.00    5.06
  12  -6  -7    0.24    0.83
 -12  -6   7    6.68    3.52
 -12   6   7   -0.75    4.17
  12   6  -6   13.82   10.64
  12  -6  -6    9.84    1.51
 -12  -6   6   20.76    4.62
 -12   6   6    9.63    5.16
  12   6  -5   36.75    7.72
  12  -6  -5   25.05    3.98
 -12  -6   5   30.75    9.38
 -12   6   5   27.50    6.43
  12   6  -4   21.16   11.25
  12  -6  -4   19.54    2.66
 -12  -6   4   35.93    4.99
 -12   6   4   33.40    8.85
  12   6  -3    2.75    4.62
  12  -6  -3    5.41    3.17
 -12  -6   3    3.64    3.32
 -12   6   3    2.09    3.47
  12   6  -2   -0.14    4.32
  12  -6  -2    3.03    2.16
 -12  -6   2    5.28    3.17
 -12   6   2    9.65    3.33
  12   6  -1  133.72   13.22
  12  -6  -1  124.48    7.99
 -12  -6   1  142.57   15.53
 -12   6   1  153.57   10.17
  12   6   0   -2.71    3.45
  12  -6   0    3.95    2.26
 -12  -6   0    1.19    2.61
 -12   6   0   -0.75    2.53
  12   6   1    1.20    3.97
  12  -6   1    8.20    2.97
 -12  -6  -1   10.83    3.09
 -12   6  -1    4.86    2.68
  12   6   2    2.89    3.57
  12  -6   2    9.04    3.23
 -12  -6  -2    3.73    2.94
 -12   6  -2    5.55    2.24
  12   6   3   60.85    6.47
  12  -6   3   48.48    6.34
 -12  -6  -3   42.71    8.47
 -12   6  -3   45.30    3.84
  12   6   4   46.68    9.32
  12  -6   4   32.38    6.16
 -12  -6  -4   37.49    7.58
 -12   6  -4   36.94    2.91
  12   6   5   23.80    4.90
  12  -6   5   18.85    5.53
 -12  -6  -5   25.11    6.74
 -12   6  -5   23.94    3.03
 -12   6  -5   22.20    3.03
  12  -6   6    4.87    4.01
  12   6   6   13.00    3.53
 -12  -6  -6    9.33    4.85
 -12   6  -6    4.95    1.22
 -12   6  -6    3.54    1.02
  12   6   7   47.77   10.84
  12  -6   7   61.08    8.43
 -12  -6  -7   52.82    9.41
  12   6   8    6.20    3.91
  12  -6   8   15.43    5.20
 -12  -6  -8    9.18    3.40
  12   6   9   38.51    6.37
  12  -6   9   33.27    8.67
 -12  -6  -9   48.61    5.90
  12   6  10    3.04    3.45
  12  -6  10    6.01    5.02
 -12  -6 -10   -0.58    3.37
  12   6  11   10.25    4.27
  12  -6  11    1.14    6.30
 -12  -6 -11    9.83    4.36
  12   6  12    9.78    5.51
  12  -6  12   -9.00    4.74
 -12  -6 -12    2.28    5.19
  12   7 -12   -2.43   14.64
  12   7 -12    5.93    5.11
 -12  -7  12    9.17    5.66
 -12   7  12    3.11    7.90
  12   7 -11   10.68    8.08
  12   7 -11    2.12    4.54
 -12  -7  11    5.79    5.31
 -12   7  11   12.21    7.06
  12   7 -10   43.71   11.39
  12   7 -10   24.53    7.17
 -12  -7  10   39.00    8.00
 -12   7  10   37.46   10.32
  12   7  -9   16.63    7.51
 -12  -7   9    7.28    5.09
 -12   7   9    3.71    6.48
  12   7  -8   -1.67    5.78
 -12  -7   8   -2.12    4.00
 -12   7   8   -0.87    4.87
  12   7  -7   -3.10    5.56
 -12  -7   7    3.56    6.16
 -12   7   7    2.99    4.45
  12   7  -6   53.68    9.93
  12  -7  -6   39.92    3.90
 -12  -7   6   59.74    7.15
 -12   7   6   34.12    8.25
  12   7  -5   45.76   18.62
  12  -7  -5   60.32    6.22
 -12  -7   5   81.83    8.24
 -12   7   5   73.27    9.44
  12   7  -4   23.97    7.18
  12  -7  -4   29.07    4.93
 -12  -7   4   35.41    8.86
 -12   7   4   22.92    6.05
  12   7  -3   20.14   10.60
  12  -7  -3   21.71    2.95
 -12  -7   3   21.33    4.79
 -12   7   3   19.35    5.14
  12   7  -2   37.70    7.17
  12  -7  -2   21.55    5.98
 -12  -7   2   35.02    8.47
 -12   7   2   34.43    8.61
  12   7  -1   61.95    8.31
  12  -7  -1   53.07    5.00
 -12  -7   1   53.71    6.23
 -12   7   1   58.41    6.43
  12   7   0    4.94    4.78
  12  -7   0   12.40    3.10
 -12  -7   0   11.61    3.59
 -12   7   0   10.29    5.43
  12   7   1  113.13   10.47
  12  -7   1  106.94    8.41
 -12  -7  -1  106.93   13.42
 -12   7  -1  105.99    7.57
  12   7   2   24.96    5.56
  12  -7   2   37.33    4.66
 -12  -7  -2   26.60    4.49
 -12   7  -2   21.41    3.61
  12   7   3   32.49    9.88
  12  -7   3   27.95    5.45
 -12  -7  -3   32.82    4.75
 -12   7  -3   32.12    3.20
 -12   7  -3   33.32    5.21
  12   7   4    2.86    3.60
  12  -7   4    2.29    3.51
 -12  -7  -4    0.37    2.84
 -12   7  -4    2.17    1.59
 -12   7  -4    3.73    1.54
  12   7   5   23.46    5.02
  12  -7   5   24.67    5.44
 -12  -7  -5   28.16    4.00
 -12   7  -5   17.75    1.68
 -12   7  -5   12.32    2.70
  12   7   6    0.26    3.30
  12  -7   6   -1.32    3.73
 -12  -7  -6    4.26    2.90
  12   7   7   12.77    4.16
  12  -7   7   10.45    8.20
 -12  -7  -7    4.53    3.53
  12  -7   8   33.58    7.78
  12   7   8   35.06    6.02
 -12  -7  -8   27.31    5.09
  12   7   9   24.84    8.81
  12  -7   9   24.77    6.97
 -12  -7  -9   16.44    4.67
  12   7  10   30.08    6.33
  12  -7  10   22.44    8.67
 -12  -7 -10   30.66    5.83
  12   7  11   31.19    6.13
  12  -7  11    7.81   12.38
 -12  -7 -11   20.66    5.83
  12   8 -11   -3.31   12.52
  12   8 -11    1.93    4.34
 -12  -8  11    1.53    4.89
 -12   8  11    5.28    6.93
  12   8 -10   -3.10    6.43
  12   8 -10   -0.93    4.42
 -12  -8  10    6.04    7.11
 -12   8  10    5.35    9.57
  12   8  -9   23.95    9.10
 -12  -8   9   20.00    6.17
 -12   8   9    7.72    8.35
  12   8  -8   20.84    8.42
 -12  -8   8   16.60    5.68
 -12   8   8   12.78    7.59
  12   8  -7    6.22    6.05
 -12  -8   7    2.17    4.30
 -12   8   7    5.75    5.29
  12   8  -6   75.32   11.51
  12  -8  -6   52.74    2.52
 -12  -8   6   65.29   13.05
 -12   8   6   59.20    9.62
  12   8  -5   11.70    5.74
  12  -8  -5    3.88    3.20
 -12  -8   5   14.56    4.22
 -12   8   5   -1.45    5.04
  12   8  -4   23.06   13.24
  12  -8  -4   33.61    3.34
 -12  -8   4   19.66    5.81
 -12   8   4   26.91   10.40
  12   8  -3   14.52    4.96
  12  -8  -3   10.05    4.08
 -12  -8   3    0.53    3.87
 -12   8   3    4.86    4.20
  12   8  -2   52.88   13.13
  12  -8  -2   46.98    4.81
 -12  -8   2   53.51    6.50
 -12   8   2   43.18    6.83
  12   8  -1   71.49   10.31
  12  -8  -1   75.45    9.72
 -12  -8   1   74.28    7.62
 -12   8   1   80.81    8.11
  12   8   0    4.77    7.33
  12  -8   0    9.53    3.09
 -12  -8   0    4.11    3.50
 -12   8   0    4.91    3.18
  12   8   1  193.49   16.94
  12  -8   1  199.14   13.44
 -12  -8  -1  212.14   13.70
 -12   8  -1  206.76   11.41
 -12   8  -1  170.26   17.45
  12   8   2   21.92    8.01
  12  -8   2   17.71    4.14
 -12  -8  -2    7.86    3.97
 -12   8  -2    9.99    4.50
 -12   8  -2   14.54    5.08
  12   8   3   21.63    5.76
  12  -8   3   22.34    5.00
 -12  -8  -3   25.86    7.28
 -12   8  -3   19.32    2.90
 -12   8  -3   29.34    4.67
  12   8   4   14.08    5.34
  12  -8   4   26.34    5.02
 -12  -8  -4   26.33    4.23
 -12   8  -4   13.98    2.40
 -12   8  -4   14.99    3.73
  12   8   5   15.05    4.80
  12  -8   5   17.52    5.16
 -12  -8  -5   15.80    3.87
 -12   8  -5   10.95    2.31
 -12   8  -5   10.59    2.40
  12   8   6   82.65    9.81
  12  -8   6   80.26   11.49
 -12  -8  -6  109.15    9.02
  12  -8   7   15.84    5.94
  12   8   7   19.65    5.06
 -12  -8  -7   11.36    4.27
  12   8   8   16.67    8.85
  12  -8   8   23.00   10.80
 -12  -8  -8   18.16    4.61
  12   8   9   30.50    7.79
  12  -8   9   45.56   10.25
 -12  -8  -9   55.83    6.60
  12   8  10    2.23    3.97
  12  -8  10   -8.93    5.39
 -12  -8 -10    0.39    3.47
  12   8  11   13.48    5.31
  12  -8  11    3.80    6.55
 -12  -8 -11    8.67    5.10
  12   9 -11   10.29    6.69
 -12  -9  11   19.48    6.87
  12   9 -10    0.95    8.47
  12   9 -10   10.17   10.76
 -12  -9  10   10.57    5.69
 -12   9  10    2.54    7.86
 -12   9  10   13.13    5.98
  12   9  -9   19.74    7.44
  12   9  -9   -0.73    6.60
 -12  -9   9    3.24    5.15
 -12   9   9    3.96    5.10
 -12   9   9    9.80    6.89
  12   9  -8   36.27   17.49
 -12  -9   8   36.45   12.19
 -12   9   8   34.02   10.12
  12   9  -7    1.21    5.84
 -12  -9   7    1.57    4.05
 -12   9   7    4.73    5.20
  12   9  -6   35.22    9.56
 -12  -9   6   33.72    6.68
 -12   9   6   30.09    8.23
  12   9  -5    9.91    6.26
  12  -9  -5   10.03    3.58
 -12  -9   5    9.79    7.47
 -12   9   5    8.06    5.48
  12   9  -4   78.00   13.35
  12  -9  -4   95.89    6.46
 -12  -9   4   93.27    9.70
 -12   9   4   84.50   11.25
  12   9  -3   48.05    9.34
  12  -9  -3   45.36    4.99
 -12  -9   3   56.31    6.84
 -12   9   3   36.01    6.53
 -12   9   3   41.54    7.55
  12  -9  -2   -1.44    2.56
 -12  -9   2    2.90    3.39
 -12   9   2    4.10    3.02
 -12   9   2    4.36    5.97
  12  -9  -1   11.60    3.55
 -12  -9   1   20.04    4.24
 -12   9   1    9.60    3.72
 -12   9   1    7.13    4.24
  12  -9   0   28.80    5.07
 -12  -9   0   30.93    5.25
 -12   9   0   29.66    7.28
 -12   9   0   27.67    5.22
  12  -9   1   16.16    4.13
 -12  -9  -1   12.14    6.56
 -12   9  -1   10.06    3.58
 -12   9  -1   10.72    3.08
  12  -9   2   30.10    5.21
 -12  -9  -2   14.97    4.61
 -12   9  -2   24.05    3.40
 -12   9  -2   15.51    3.60
  12  -9   3   62.91    7.98
 -12  -9  -3   68.32    6.84
 -12   9  -3   52.59    4.57
 -12   9  -3   51.56    4.52
  12  -9   4   10.45    4.70
 -12  -9  -4   13.41    3.78
 -12   9  -4    6.14    1.96
 -12   9  -4    8.05    3.24
  12  -9   5    7.43    4.37
 -12  -9  -5    7.40    5.59
 -12   9  -5    2.36    1.14
 -12   9  -5    4.63    1.90
  12  -9   6   -2.46    4.71
 -12  -9  -6    4.67    3.35
  12  -9   7   35.88    8.60
 -12  -9  -7   37.64    6.23
  12  -9   8   45.56    8.82
 -12  -9  -8   25.67    6.25
  12  -9   9   -1.83    4.98
 -12  -9  -9    1.62    3.46
  12  -9  10   17.20   11.85
 -12  -9 -10    6.50    4.66
  12  10 -10   10.45   10.88
  12  10 -10    5.74   14.29
 -12 -10  10   31.74    7.13
 -12  10  10   16.79   10.68
 -12  10  10    8.90   12.35
  12  10  -9   12.83   10.66
  12  10  -9   18.60    8.86
 -12 -10   9   28.04    6.81
 -12  10   9   16.27    6.93
 -12  10   9   25.53    9.52
  12  10  -8   40.50   12.57
 -12 -10   8   49.29    8.70
 -12  10   8   49.75   11.59
 -12  10   8   44.47    8.58
  12  10  -7   31.66   15.18
 -12 -10   7   18.76   10.17
 -12  10   7   26.16    6.48
 -12  10   7    8.34   13.23
  12  10  -6    8.07    7.24
 -12 -10   6   11.34    5.10
 -12  10   6    7.94    5.06
 -12  10   6   32.81   10.42
  12  10  -5   30.96   10.38
 -12 -10   5   59.08    7.84
 -12  10   5   48.50    7.76
 -12  10   5   49.12   14.89
  12  10  -4   45.96    9.72
  12 -10  -4   40.27    4.74
 -12 -10   4   45.66   11.11
 -12  10   4   31.98    8.31
 -12  10   4   42.69    7.01
  12  10  -3   37.63    8.09
  12 -10  -3   21.25    4.53
 -12 -10   3   46.74    6.25
 -12  10   3   32.44    6.98
 -12  10   3   18.90    9.50
  12  10  -2   48.44    8.34
  12 -10  -2   34.85    5.53
 -12 -10   2   54.65    6.86
 -12  10   2   37.61    6.04
 -12  10   2   29.11    7.30
  12  10  -1    9.41    5.08
  12 -10  -1    9.86    3.72
 -12 -10   1   12.23    4.22
 -12  10   1    7.54    4.28
 -12  10   1    2.53    3.62
  12  10   0   15.73    5.53
  12 -10   0   12.96    4.21
 -12 -10   0   16.26    7.34
 -12  10   0    6.83    4.25
 -12  10   0   13.23    6.05
  12  10   1   46.74    8.71
  12 -10   1   57.52    7.22
 -12 -10  -1   49.91    6.98
 -12  10  -1   43.38    6.14
 -12  10  -1   51.24    5.38
  12  10   2   56.51    8.53
  12 -10   2   41.59    7.69
 -12 -10  -2   58.66    7.11
 -12  10  -2   46.92    5.05
 -12  10  -2   51.90    5.43
  12  10   3   11.28    9.60
  12 -10   3   13.50    5.47
 -12 -10  -3   16.42    4.78
 -12  10  -3   20.56    3.08
 -12  10  -3   13.10    3.13
  12  10   4   33.06    6.86
  12 -10   4   36.77    6.88
 -12 -10  -4   39.55    5.67
 -12  10  -4   19.06    4.68
 -12  10  -4   19.46    4.79
  12  10   5   10.82    5.60
  12 -10   5    8.72    5.75
 -12 -10  -5   15.29    4.49
  12  10   6   68.77   17.28
  12 -10   6   81.08   11.53
 -12 -10  -6   72.28    8.64
  12  10   7    6.64    4.59
  12 -10   7   -1.26    5.54
 -12 -10  -7    3.57    6.55
  12  10   8    1.74    4.38
  12 -10   8   -0.48    5.19
 -12 -10  -8    0.64    3.65
  12  10   9   20.45    6.81
  12 -10   9   22.96    8.44
 -12 -10  -9   13.18    5.62
  12  10  10   33.35   12.13
  12 -10  10   11.24    9.37
 -12 -10 -10   20.97    6.13
  12  11  -9    2.83    7.71
  12  11  -9   -3.94   14.32
 -12 -11   9   11.80    5.59
 -12  11   9   12.78    8.78
 -12  11   9    9.02    6.01
  12  11  -8   15.98    9.53
 -12 -11   8   22.12    6.12
 -12  11   8    5.55    8.90
 -12  11   8   15.07    6.54
  12  11  -7    1.68    7.98
 -12 -11   7    6.92    4.84
 -12  11   7    5.04    6.57
 -12  11   7    4.45    4.88
  12  11  -6   28.60   11.03
 -12 -11   6   37.18    7.90
 -12  11   6   60.49    9.86
 -12  11   6   36.97    7.99
  12  11  -5   25.15    8.89
 -12 -11   5   30.24    6.52
 -12  11   5   30.09    7.94
 -12  11   5   18.97    6.46
  12  11  -4    4.61    9.83
 -12 -11   4    6.65    4.37
 -12  11   4    5.02    5.14
 -12  11   4    3.85    4.20
  12  11  -3    8.99    5.75
  12 -11  -3    6.62    5.65
 -12 -11   3   11.49    7.19
 -12  11   3    4.44    5.07
 -12  11   3    4.32    4.13
  12  11  -2    4.67   10.70
  12 -11  -2    7.96    7.18
 -12 -11   2   20.62    4.95
 -12  11   2    5.33    8.76
 -12  11   2   13.51    4.55
  12  11  -1   38.93    7.40
  12 -11  -1   25.61    5.47
 -12 -11   1   47.55    9.73
 -12  11   1   18.65    5.28
 -12  11   1   21.30    6.06
  12  11   0   21.76   11.63
  12 -11   0   23.81    5.78
 -12 -11   0   31.13    5.86
 -12  11   0   26.95    5.69
 -12  11   0   13.96    7.81
  12  11   1   17.67    6.42
  12 -11   1   20.25    5.57
 -12 -11  -1   21.76    8.40
 -12  11  -1   17.15    4.44
 -12  11  -1   13.78    4.01
  12  11   2   24.24    5.98
  12 -11   2    7.71    5.44
 -12 -11  -2   18.88    4.72
 -12  11  -2    9.87    3.45
 -12  11  -2    5.61    6.09
  12  11   3   11.77    5.89
  12 -11   3    9.16    9.19
 -12 -11  -3   15.19    4.65
 -12  11  -3   13.57    3.02
 -12  11  -3    2.62    5.19
  12  11   4   11.67    4.75
 -12 -11  -4    3.45    6.21
 -12  11  -4    1.07    1.96
  12  11   5   20.05    9.66
  12 -11   5   10.13    9.80
 -12 -11  -5    8.87    4.63
  12  11   6   10.63    6.79
  12 -11   6   24.16    7.06
 -12 -11  -6   20.27    5.38
  12  11   7    9.21    5.50
  12 -11   7   -0.19   10.26
 -12 -11  -7    5.36    4.34
  12  11   8    9.38    5.80
  12 -11   8    0.02   10.61
 -12 -11  -8    6.61    8.11
  12  11   9   26.93   10.20
 -12 -11  -9    3.97    5.16
  12  12  -8   -0.28    6.76
  12  12  -8   -0.25   11.73
 -12 -12   8    5.06    7.64
 -12  12   8   -2.65    6.73
 -12  12   8    4.84    5.69
  12  12  -7   26.49    9.71
 -12 -12   7   23.63    6.73
 -12  12   7   16.27    9.11
 -12  12   7   11.57    7.13
  12  12  -6   -0.58    9.93
 -12 -12   6    4.21    4.88
 -12  12   6    7.67    6.13
 -12  12   6    4.73    5.13
  12  12  -5    8.81    8.16
 -12 -12   5   23.68    5.96
 -12  12   5   23.38    5.89
 -12  12   5   -0.99    7.29
  12  12  -4   27.80    9.39
 -12 -12   4   33.64    7.11
 -12  12   4   41.26    8.98
 -12  12   4   28.43    7.12
  12  12  -3    4.84    5.99
  12 -12  -3    0.09    3.66
 -12 -12   3   10.64    4.34
 -12  12   3    4.61    5.35
 -12  12   3    5.33    4.24
  12  12  -2    4.97    6.00
  12 -12  -2   12.38    7.30
 -12 -12   2    5.12    7.69
 -12  12   2   14.59    5.21
 -12  12   2    1.95    7.25
  12  12  -1   31.94    7.51
  12 -12  -1   21.42    6.06
 -12 -12   1   38.21    6.11
 -12  12   1   16.41   10.32
 -12  12   1   10.69    5.38
  12  12   0   27.05    7.38
  12 -12   0   17.08    5.97
 -12 -12   0   22.51    9.64
 -12  12   0   28.21    5.81
 -12  12   0   16.75    8.07
  12  12   1   46.00    8.72
  12 -12   1   31.30    7.29
 -12 -12  -1   54.16    7.14
 -12  12  -1   23.23    6.25
 -12  12  -1   32.47    5.51
  12  12   2    4.82    9.31
  12 -12   2    8.68    5.46
 -12 -12  -2   14.84    4.86
 -12  12  -2    9.50    3.36
 -12  12  -2    7.52    3.76
  12  12   3   32.18    6.89
 -12 -12  -3   27.25    5.82
 -12  12  -3   17.63    3.68
 -12  12  -3   15.55    3.80
  12  12   4   84.87   13.62
  12 -12   4   99.04   13.87
 -12 -12  -4  106.13   11.32
  12  12   5   22.31   10.27
  12 -12   5    8.20    6.60
 -12 -12  -5    6.49    8.01
  12  12   6   12.20    5.47
  12 -12   6    5.35    6.05
 -12 -12  -6   -2.92    4.66
  12  12   7    9.57    5.44
  12 -12   7    0.08    6.17
 -12 -12  -7    0.31    4.28
  12  12   8   51.04   10.00
  12 -12   8   45.26   13.50
 -12 -12  -8   32.28    7.97
 -12 -13   7    6.83    5.64
  12  13  -6   34.45   10.24
 -12 -13   6   27.24   11.71
 -12  13   6   12.26    9.88
 -12  13   6   24.64   12.29
  12  13  -5    8.14    6.86
 -12 -13   5   10.43    5.36
 -12  13   5   10.67    6.66
 -12  13   5    0.45    9.26
  12  13  -4   10.62    6.76
 -12 -13   4   23.39    5.64
 -12  13   4   14.28    7.14
 -12  13   4    1.01    5.54
  12  13  -3   20.02    7.76
 -12 -13   3   14.53    5.68
 -12  13   3   17.19    5.63
 -12  13   3    1.71    6.92
  12  13  -2   19.03    6.69
 -12 -13   2   10.97    5.42
 -12  13   2    3.47    5.84
 -12  13   2   10.48    4.95
  12  13  -1   19.55    6.35
  12 -13  -1    9.51    5.07
 -12 -13   1    1.83    8.05
 -12  13   1    6.82    5.25
 -12  13   1    3.07    4.36
  12  13   0    5.32    6.14
  12 -13   0    9.45    5.16
 -12 -13   0    6.03    4.93
 -12  13   0    5.14    7.77
 -12  13   0    9.91    6.76
  12  13   1   42.98    8.26
  12 -13   1   18.51    7.20
 -12 -13  -1    8.07   10.64
 -12  13  -1   24.24    5.68
 -12  13  -1   22.19    5.05
  12  13   2   -2.64    4.66
  12 -13   2   -0.63    7.31
 -12 -13  -2    5.53    3.85
 -12  13  -2    0.94    5.13
 -12  13  -2   -1.28    2.85
  12  13   3   27.32    7.97
  12 -13   3   25.77    7.97
 -12 -13  -3   22.85    6.64
  12  13   4   -0.71    5.98
  12 -13   4   18.17    6.34
 -12 -13  -4    8.26    5.09
  12  13   5    0.84    5.67
  12 -13   5    3.14    5.83
 -12 -13  -5    4.10    4.37
  12  13   6   21.82    9.23
  12 -13   6   43.76    9.82
 -12 -13  -6   24.03   11.95
 -12 -14   5    0.27    8.53
 -12  14   5    2.66   11.97
 -12  14   5    6.79    5.35
  12  14  -4    8.14    6.46
 -12 -14   4   15.16    5.74
 -12  14   4   -4.91   11.87
 -12  14   4   -5.79    8.92
  12  14  -3    9.03   11.27
 -12 -14   3   23.06    6.34
 -12  14   3    5.47    5.74
  12  14  -2    8.87    6.54
 -12 -14   2    9.75    9.29
 -12  14   2    6.37    4.84
 -12  14   2   16.97    6.46
  12  14  -1    4.73    7.91
 -12 -14   1   -4.74    4.23
 -12  14   1    0.51    4.42
 -12  14   1    3.47    3.41
  12  14   0   20.59    8.14
  12 -14   0   15.34    6.82
 -12 -14   0   29.69   10.03
 -12  14   0   18.93    6.05
 -12  14   0    9.82    5.20
  12  14   1    1.52    6.82
  12 -14   1   18.61    5.70
 -12 -14  -1    8.72    5.43
 -12  14  -1    9.61    8.41
 -12  14  -1    4.95    4.25
  12  14   2   16.12    6.94
  12 -14   2   12.56    6.08
 -12 -14  -2   10.30    9.20
 -12  14  -2   11.05    4.19
 -12  14  -2    4.37    4.71
  12  14   3   16.76    7.22
  12 -14   3    3.73    7.18
 -12 -14  -3   13.76    5.78
  12  14   4    3.86    8.52
  12 -14   4    1.27    5.39
 -12 -14  -4   -1.78    4.10
 -12 -14  -5    0.81    4.73
  12  15  -1    0.06   11.82
 -12 -15   1   11.73   10.85
 -12  15   1   22.11   10.93
 -12  15   1   12.47    8.28
  12  15   0    1.79    6.95
 -12 -15   0    3.26    5.62
 -12  15   0    6.66    5.15
 -12  15   0    7.11    4.21
  12 -15   1    6.48    7.41
 -12 -15  -1   50.01   12.07
  13   0 -12   -6.40    8.79
 -13   0  12   10.29    5.99
  13   0 -11   -5.52    8.19
 -13   0  11    7.56    5.23
  13   0 -10   -2.00    6.82
  13   0 -10    1.71    2.39
 -13   0  10   -1.74    4.30
  13   0  -9    8.11   13.60
 -13   0   9    9.98    5.41
  13   0  -8   17.94    8.24
 -13   0   8   14.11    5.66
  13   0  -7   16.86    7.90
 -13   0   7   18.43    5.74
  13   0  -6    9.42    4.97
 -13   0   6   -2.25    3.56
  13   0  -5    1.52    4.94
 -13   0   5    1.48    3.48
  13   0  -4    4.12    5.14
 -13   0   4    4.45    3.54
  13   0  -3    2.63    4.74
 -13   0   3    7.41    5.77
  13   0  -2    5.34    4.01
 -13   0   2    0.14    2.96
  13   0  -1   -1.22    3.52
 -13   0   1    2.67    4.24
  13   0   0   42.26    6.26
 -13   0   0   37.58    4.96
  13   0   1   19.54    4.96
 -13   0  -1   25.19    3.87
  13   0   2    2.38    3.43
 -13   0  -2    5.99    2.50
  13   0   3   18.57    4.13
 -13   0  -3   15.84    3.00
  13   0   4    5.53    5.20
 -13   0  -4    5.93    3.67
  13   0   5   17.11    3.51
 -13   0  -5   10.59    2.63
  13   0   6   -0.66    2.44
 -13   0  -6   -2.01    3.31
  13   0   7   -0.23    2.09
  13   0   7    2.94    3.63
 -13   0  -7    0.59    3.09
  13   0   8   10.23    4.89
  13   0   8    7.89    4.20
 -13   0  -8    6.67    3.70
  13   0   9    8.38    8.42
  13   0  10    6.89    5.45
  13   0  11   -2.99    8.46
  13   0  12   -4.25    5.12
  13   1 -12   -4.28    7.78
  13  -1 -12  -10.27    8.46
 -13  -1  12   19.50    5.79
 -13   1  12   -3.08    6.19
  13   1 -11   11.35   10.94
  13  -1 -11    5.51   11.94
 -13  -1  11   24.16    7.02
 -13   1  11   18.00    7.35
  13   1 -10    7.73   11.82
  13   1 -10    3.98    3.32
  13  -1 -10   -0.26   13.12
 -13  -1  10   -4.50    7.80
 -13   1  10    1.27    4.91
  13   1  -9   19.07    8.97
  13  -1  -9   18.51    9.22
 -13  -1   9    4.80    9.97
 -13   1   9   16.26    6.16
  13   1  -8    5.88   13.83
  13  -1  -8   15.28    8.42
 -13  -1   8   19.31    5.83
 -13   1   8    9.41    9.80
  13   1  -7   65.74   13.08
  13  -1  -7   48.98   21.36
 -13  -1   7   70.68    9.98
 -13   1   7  102.32   15.40
  13   1  -6   38.11    9.19
  13  -1  -6   31.84    9.24
 -13  -1   6   38.81    6.83
 -13   1   6   33.99    6.44
  13   1  -5   34.10    8.94
  13  -1  -5   27.22    9.27
 -13  -1   5   40.58    6.52
 -13   1   5   39.87    6.21
  13  -1  -4    6.60    8.00
  13   1  -4    1.54    5.13
 -13  -1   4    6.74    3.53
 -13   1   4    3.35    3.47
  13   1  -3   37.39   13.10
  13  -1  -3   33.37    7.99
 -13  -1   3   42.14    5.96
 -13   1   3   46.26    6.03
  13  -1  -2   13.19    5.16
  13   1  -2    9.35    5.05
 -13  -1   2   15.03    3.83
 -13   1   2    8.85    3.88
  13  -1  -1  118.69   19.78
  13   1  -1  125.74   12.61
 -13  -1   1  140.97    9.75
 -13   1   1  120.06    9.40
  13  -1   0   45.15    7.56
  13   1   0   59.82   12.25
 -13  -1   0   60.71    5.65
 -13   1   0   63.10    9.35
  13   1   1   31.86    5.73
  13  -1   1   30.10    5.76
 -13   1  -1   33.97    7.20
 -13  -1  -1   35.95    4.38
  13   1   2   21.11    4.91
  13  -1   2   22.73    4.87
 -13  -1  -2   25.82    3.64
 -13   1  -2   21.61    5.71
  13   1   3  158.38   19.39
  13  -1   3  152.06   12.31
 -13  -1  -3  182.48    9.62
 -13   1  -3  192.85   13.51
  13   1   4   85.52    7.87
  13  -1   4   80.35    7.74
 -13  -1  -4   91.97    6.07
 -13   1  -4   98.38    5.63
  13   1   5   20.93    4.02
  13  -1   5   18.56    3.85
 -13  -1  -5   13.82    4.98
 -13   1  -5   15.78    4.37
  13  -1   6   36.30    4.63
  13  -1   6   40.14    6.86
  13   1   6   41.48    5.08
 -13  -1  -6   43.97    4.33
 -13   1  -6   38.75    3.71
  13  -1   7    1.60    3.69
  13   1   7    2.11    2.42
  13  -1   7   -1.31    2.16
 -13  -1  -7    1.39    3.26
 -13   1  -7    0.64    2.94
  13   1   8    2.80    2.51
  13  -1   8    0.26    3.48
  13  -1   8    9.23    4.06
 -13  -1  -8    3.77    2.30
 -13   1  -8    1.36    1.51
  13   1   9    3.95    2.25
  13   1   9    1.57    4.75
  13  -1   9    1.95    4.52
 -13  -1  -9    3.39    2.04
  13   1  10    1.02    7.25
  13  -1  10   -0.28    6.98
  13   1  11   -0.22    5.04
  13  -1  11    4.98    5.18
  13   1  12    0.04    9.62
  13  -1  12   -8.22    8.69
  13   2 -12    6.92    8.70
 -13  -2  12    5.83    6.68
 -13   2  12    9.16    6.93
  13   2 -11   11.55    8.05
  13   2 -11    1.01    5.71
  13  -2 -11    3.21    9.24
 -13  -2  11   -7.27    5.54
 -13   2  11   14.71    5.46
  13   2 -10   20.19    8.74
  13   2 -10    5.81    4.61
  13  -2 -10    5.93    9.42
 -13  -2  10    8.34    6.34
 -13   2  10    7.51    5.77
  13   2  -9   39.98   18.14
  13  -2  -9   28.89   12.61
 -13  -2   9   27.45    7.89
 -13   2   9   48.17    8.26
  13   2  -8   66.23   14.45
  13  -2  -8   52.62   23.45
 -13  -2   8   73.57   10.44
 -13   2   8   84.42   10.38
  13   2  -7   18.81   13.57
  13  -2  -7   13.44    8.57
 -13  -2   7   17.23   10.26
 -13   2   7   28.65    6.18
  13   2  -6   32.89    9.20
  13  -2  -6   28.45    9.61
 -13  -2   6   46.11    6.90
 -13   2   6   36.08    6.93
  13   2  -5  113.34   15.84
  13  -2  -5   77.77   26.09
 -13  -2   5  124.39   11.21
 -13   2   5  130.38   11.61
  13   2  -4    2.87    4.39
  13  -2  -4   -0.40    4.56
 -13  -2   4    1.18    3.19
 -13   2   4    0.67    3.16
  13   2  -3   70.24   10.95
  13  -2  -3   75.66   11.19
 -13  -2   3   90.69    8.32
 -13   2   3   87.02    8.16
  13   2  -2    6.71    4.71
  13  -2  -2    7.79    4.85
 -13  -2   2    6.05    3.59
 -13   2   2    8.19    5.59
  13   2  -1   27.40    7.15
  13  -2  -1   49.51   11.91
 -13  -2   1   38.31    5.26
 -13   2   1   46.41    5.26
  13   2   0   55.77    7.85
  13  -2   0   43.93    7.28
 -13  -2   0   65.31    5.73
 -13   2   0   49.88    5.65
  13   2   1   35.07    5.90
  13  -2   1   23.30    5.77
 -13  -2  -1   32.34    7.09
 -13   2  -1   39.23    4.38
  13   2   2   16.62    4.08
  13  -2   2    7.57    4.01
 -13   2  -2    9.32    2.82
 -13  -2  -2   12.16    3.00
  13  -2   3   17.26    4.82
  13   2   3   20.60    8.39
 -13  -2  -3   28.37    6.06
 -13   2  -3   34.23    3.38
  13  -2   4   17.73    4.08
  13  -2   4   18.31    4.93
  13   2   4   18.28    4.25
 -13  -2  -4   21.44    5.29
 -13   2  -4   19.91    2.71
  13  -2   5   17.33    5.28
  13  -2   5   13.69    6.25
  13   2   5   23.26    4.30
 -13  -2  -5   21.79    3.39
 -13   2  -5   20.03    2.59
  13   2   6  148.38   11.01
  13  -2   6  140.06   10.19
  13  -2   6  154.17   13.87
 -13  -2  -6  164.58   10.16
 -13   2  -6  183.33    8.19
  13   2   7   24.24    7.04
  13  -2   7   24.28    5.55
  13  -2   7   29.27    5.89
 -13  -2  -7   18.54    5.84
 -13   2  -7   22.61    4.13
  13   2   8   22.15    6.65
  13  -2   8   31.00    6.62
 -13  -2  -8   24.91    4.10
  13   2   9    9.44    5.01
  13  -2   9    6.80    5.34
 -13  -2  -9    9.83    2.89
  13   2  10    4.88    5.63
  13  -2  10   11.52    5.65
  13  -2  11   35.21   13.09
  13   2  11   32.17   14.39
  13   2  12    8.15    6.09
  13  -2  12    4.40    5.72
  13   3 -12    8.78    8.96
 -13  -3  12   11.53   10.41
 -13   3  12    7.98    7.85
  13   3 -11    9.28   11.34
  13   3 -11   22.47    6.23
 -13  -3  11   16.39   11.99
 -13   3  11   25.51    8.14
  13   3 -10   12.21    8.90
  13   3 -10    9.00    5.10
 -13  -3  10   15.14    5.98
 -13   3  10   10.05    6.41
  13   3  -9   15.30    8.10
  13  -3  -9    4.46    9.13
 -13  -3   9    9.85    5.54
 -13   3   9   10.99    6.09
  13   3  -8   10.08    9.03
  13  -3  -8   20.28    1.89
  13  -3  -8   31.54   10.09
 -13  -3   8   27.21    6.29
 -13   3   8   28.39    6.86
  13   3  -7   10.61    7.24
  13  -3  -7    5.77    8.18
 -13  -3   7   16.98    5.15
 -13   3   7   14.86    9.24
  13   3  -6   32.54   14.20
  13  -3  -6   42.22   10.36
 -13  -3   6   34.21    6.94
 -13   3   6   34.00   10.73
  13   3  -5   33.42    8.89
  13  -3  -5   32.78    9.99
 -13  -3   5   37.85    6.89
 -13   3   5   58.63    6.76
  13   3  -4   -7.41    7.78
  13  -3  -4    1.80    5.00
 -13  -3   4    4.84    3.43
 -13   3   4    1.18    3.48
  13   3  -3   49.91    8.98
  13  -3  -3   44.84    9.06
 -13   3   3   50.66   10.61
  13   3  -2   18.31    6.06
  13  -3  -2   18.53    6.35
 -13  -3   2   22.32    4.41
 -13   3   2   18.50    4.20
  13  -3  -1   54.91   14.65
  13   3  -1   61.35    8.68
 -13  -3   1   64.47    6.64
 -13   3   1   59.91    9.77
  13   3   0   60.93    8.75
  13  -3   0   52.48   13.94
  13  -3   0   77.47    6.49
 -13  -3   0   67.95    6.63
 -13   3   0   79.48    6.78
  13   3   1   95.76   16.45
  13  -3   1   94.33   16.03
  13  -3   1  111.40    8.73
 -13  -3  -1  120.30    8.21
 -13   3  -1  103.63    7.76
  13   3   2  104.53   10.16
  13  -3   2   89.94   15.28
  13  -3   2  110.34    9.23
 -13  -3  -2  112.54    7.64
 -13   3  -2  116.13    7.18
  13   3   3   53.22    6.79
  13  -3   3   50.57    6.70
  13  -3   3   39.58   10.97
 -13  -3  -3   53.93    5.24
 -13   3  -3   59.47    4.47
  13   3   4   12.64    3.41
  13  -3   4    2.38    3.36
  13  -3   4    7.71    3.65
 -13  -3  -4    4.20    2.71
 -13   3  -4    5.28    2.04
  13   3   5   19.67    4.12
  13  -3   5    8.26    3.87
  13  -3   5   15.98    4.92
 -13  -3  -5   18.13    3.37
 -13   3  -5   16.78    3.68
  13  -3   6   46.79    7.15
  13  -3   6   44.65    5.13
  13   3   6   26.47    5.71
 -13  -3  -6   33.60    8.05
 -13   3  -6   49.15    3.37
  13   3   7    4.44    4.69
  13  -3   7    1.95    3.86
 -13  -3  -7    2.46    2.41
 -13   3  -7    0.77    1.10
  13  -3   8   15.22    5.59
  13   3   8    8.56    5.97
 -13  -3  -8   14.30    3.48
  13  -3   9    8.64    4.65
  13   3   9    2.16    2.87
 -13  -3  -9    1.70    2.92
  13  -3  10   -1.32    5.08
  13   3  10    4.38    2.80
 -13  -3 -10    4.00    2.67
  13   3  11   24.37    7.77
  13  -3  11   18.94    6.86
  13  -3  12   12.70   10.75
  13   4 -12    8.73   10.71
  13   4 -12   10.42    8.88
 -13  -4  12   16.71    6.66
 -13   4  12    0.55    8.09
  13   4 -11   24.04   10.55
  13   4 -11   22.35    7.51
 -13  -4  11   32.50    7.77
 -13   4  11   25.72    9.04
  13   4 -10    1.76    7.13
  13   4 -10   -1.38    4.02
 -13  -4  10    3.50    4.81
 -13   4  10    9.76    5.35
  13   4  -9    1.59    7.57
 -13  -4   9    7.57    5.22
 -13   4   9   11.66    5.84
  13   4  -8   32.70   10.01
 -13  -4   8   15.14   11.26
 -13   4   8   30.01    7.34
  13   4  -7    6.60    5.38
  13  -4  -7    0.97    1.19
 -13  -4   7   -0.53    3.90
 -13   4   7   -2.01    4.13
  13   4  -6   63.46   11.96
  13  -4  -6   60.73    3.75
  13  -4  -6   67.03   13.75
 -13  -4   6   92.43    9.24
 -13   4   6   72.19    9.39
  13   4  -5   11.73   10.68
  13  -4  -5   12.39    2.36
  13  -4  -5    6.09    7.95
 -13  -4   5   22.53    5.00
 -13   4   5   19.79    5.10
  13   4  -4    9.86    5.87
  13  -4  -4    8.95    3.68
  13  -4  -4    5.92    6.46
 -13  -4   4    9.52    3.97
 -13   4   4    3.97    6.96
  13   4  -3   19.63   11.37
  13  -4  -3   20.59    5.20
  13  -4  -3   20.88    8.03
 -13  -4   3   29.64    5.16
 -13   4   3   29.11    5.20
  13   4  -2   32.24    7.43
  13  -4  -2   25.58    5.94
  13  -4  -2   35.25    8.27
 -13  -4   2   31.60    5.19
 -13   4   2   37.01    5.21
  13   4  -1   38.11   11.78
  13  -4  -1   26.63    6.75
  13  -4  -1   32.53    7.92
 -13  -4   1   42.76    5.40
 -13   4   1   37.75    5.05
  13   4   0   60.86    8.94
  13  -4   0   66.19    6.22
  13  -4   0   65.10    9.85
 -13  -4   0   75.08    6.72
 -13   4   0   74.64   10.09
  13   4   1   20.18    5.04
  13  -4   1   17.01    3.83
  13  -4   1   11.91    5.65
 -13  -4  -1   16.19    3.71
 -13   4  -1   16.70    3.57
  13  -4   2   22.94    4.10
  13   4   2   11.58    4.64
  13  -4   2   12.37    5.32
 -13  -4  -2   17.54    5.75
 -13   4  -2   13.27    3.04
  13  -4   3   81.46    8.70
  13   4   3   90.33    8.97
  13  -4   3  100.70    9.98
 -13  -4  -3   93.33   10.88
  13  -4   4   30.80    5.75
  13   4   4   33.78    9.20
  13  -4   4   31.30    9.67
 -13  -4  -4   29.02    7.15
 -13   4  -4   35.79    3.09
  13   4   5   16.02    3.96
  13  -4   5   17.91    4.78
 -13  -4  -5   14.91    5.61
 -13   4  -5   11.97    2.12
  13   4   6   77.13    7.41
  13  -4   6   62.59    9.14
 -13  -4  -6   80.61    6.71
 -13   4  -6   72.12    5.57
  13   4   7    7.06    3.36
  13  -4   7    0.57    4.43
 -13  -4  -7    6.01    2.98
  13   4   8   15.78    6.83
  13  -4   8   13.19    6.33
 -13  -4  -8   23.52    4.00
  13   4   9   37.72    5.44
  13  -4   9   47.01    8.46
 -13  -4  -9   31.48    9.25
  13   4  10   20.89    4.58
  13  -4  10   30.64    7.51
 -13  -4 -10   23.99    4.65
  13  -4  11   16.64    6.38
 -13  -4 -11    9.28    6.00
  13   5 -11    3.61    7.21
  13   5 -11   -4.03    4.05
 -13  -5  11    1.70    4.96
 -13   5  11    4.37    5.81
  13   5 -10    2.82    6.74
  13   5 -10    0.33    3.67
 -13  -5  10    4.29    4.56
 -13   5  10   -3.52    5.43
  13   5  -9    3.06    7.08
 -13  -5   9   -8.69    4.72
 -13   5   9    0.08    5.44
  13   5  -8    1.28    6.92
 -13  -5   8    9.72    5.17
 -13   5   8    9.07    5.65
  13   5  -7   -6.85    5.47
  13  -5  -7    1.29    1.65
 -13  -5   7    1.50    4.01
 -13   5   7    0.77    4.33
  13   5  -6   -3.07    5.20
  13  -5  -6    2.90    1.42
 -13  -5   6   -1.53    3.91
 -13   5   6   -1.43    6.98
  13   5  -5    6.00    5.32
  13  -5  -5    0.86    2.96
 -13  -5   5    3.64    3.95
 -13   5   5    6.62    4.11
  13   5  -4    2.84    5.62
  13  -5  -4    8.31    2.31
 -13  -5   4   18.25    4.30
 -13   5   4    7.24    4.43
  13   5  -3   61.17   10.68
  13  -5  -3   63.82    4.94
 -13  -5   3   73.19    7.62
 -13   5   3   67.15    7.92
  13   5  -2   10.73    9.85
  13  -5  -2   15.55    3.12
 -13  -5   2   14.38    4.44
 -13   5   2   35.94    6.96
  13   5  -1    8.36    4.48
  13  -5  -1    1.50    2.54
 -13  -5   1    9.17    3.25
 -13   5   1    2.32    3.15
  13   5   0   61.23   15.89
  13  -5   0   77.26    6.60
 -13  -5   0   84.33   11.71
 -13   5   0   81.22    6.83
  13   5   1   36.16    6.40
  13  -5   1   31.30    4.84
 -13  -5  -1   35.22    4.85
 -13   5  -1   25.57    7.00
  13   5   2   69.26    8.03
  13  -5   2   57.56    6.69
 -13  -5  -2   55.24    6.03
 -13   5  -2   66.31    8.27
  13   5   3   57.42    7.32
  13  -5   3   59.38    7.19
 -13  -5  -3   51.53    5.82
 -13   5  -3   60.86    4.61
  13   5   4    9.00    3.94
  13  -5   4    3.00    4.11
 -13  -5  -4    7.23    3.27
 -13   5  -4   12.93    3.41
  13   5   5   45.65   10.53
  13  -5   5   51.55   11.83
 -13  -5  -5   44.05    5.48
 -13   5  -5   48.31    5.00
  13  -5   6    2.93    3.57
  13   5   6    2.03    2.88
 -13  -5  -6    0.74    2.60
 -13   5  -6    0.12    0.97
 -13   5  -6   -0.54    1.85
  13  -5   7   15.91    5.32
  13   5   7    7.41    4.13
 -13  -5  -7   14.43    3.77
  13  -5   8   15.31    5.30
  13   5   8    4.28    3.90
 -13  -5  -8   10.40    3.50
  13   5   9   22.05    7.24
  13  -5   9   12.81    6.46
 -13  -5  -9   11.13    7.22
  13   5  10   11.60    7.10
  13  -5  10    9.90    6.55
 -13  -5 -10   11.18    4.54
  13   5  11   15.85    7.56
  13  -5  11   19.98    6.47
 -13  -5 -11    9.01    4.52
  13   6 -11    2.96   12.81
  13   6 -11    2.79    4.20
 -13  -6  11   -2.33    5.12
 -13   6  11    6.91    6.62
  13   6 -10   27.25    6.59
  13   6 -10   10.54   10.61
 -13  -6  10   18.00   12.30
 -13   6  10   20.12    8.69
  13   6  -9   11.03   14.09
 -13  -6   9    6.39    9.17
 -13   6   9   12.38    6.48
  13   6  -8    8.69    7.68
 -13  -6   8   12.20    5.45
 -13   6   8   10.59    6.15
  13   6  -7    1.97    7.10
 -13  -6   7   13.90    5.00
 -13   6   7    5.24    5.53
  13   6  -6   37.88    9.71
  13  -6  -6   30.16    3.91
 -13  -6   6   40.82    6.93
 -13   6   6   31.28    7.52
  13   6  -5   68.43   12.07
  13  -6  -5   65.58    6.50
 -13  -6   5   87.40    9.08
 -13   6   5   69.99    9.95
  13   6  -4   23.22    7.17
  13  -6  -4   17.89    2.89
 -13  -6   4   24.46    5.37
 -13   6   4   24.16    5.74
  13   6  -3   29.81    7.65
  13  -6  -3   32.87    3.65
 -13  -6   3   35.25    9.29
 -13   6   3   30.88    5.90
  13   6  -2  105.16   12.41
  13  -6  -2   81.54    6.41
 -13  -6   2  106.92    9.04
 -13   6   2   90.10    9.17
  13   6  -1   27.59    9.40
  13  -6  -1   15.14    3.35
 -13  -6   1   14.96    6.73
 -13   6   1   10.19    6.91
  13   6   0   19.85    6.20
  13  -6   0   22.00    4.13
 -13  -6   0   19.56    4.70
 -13   6   0   29.24    4.31
  13   6   1   23.81    8.83
  13  -6   1    9.83    3.90
 -13  -6  -1   18.78    4.04
 -13   6  -1   16.02    3.36
  13   6   2   14.46    5.09
  13  -6   2   17.69    4.38
 -13  -6  -2   20.30    3.93
 -13   6  -2   15.05    3.32
  13   6   3   12.32    4.11
  13  -6   3    2.85    3.81
 -13  -6  -3    5.10    5.15
 -13   6  -3    5.48    2.29
  13  -6   4  164.56   13.29
  13   6   4  143.31   12.48
 -13  -6  -4  151.13   10.79
 -13   6  -4  159.42   10.82
  13   6   5   16.83    4.56
  13  -6   5   12.63    5.17
 -13  -6  -5   25.30    3.95
 -13   6  -5   13.34    1.99
 -13   6  -5   12.38    1.91
  13   6   6   10.09    4.12
  13  -6   6    8.99    8.36
 -13  -6  -6    9.06    3.69
  13   6   7    3.49    6.36
  13  -6   7   12.37    4.75
 -13  -6  -7    2.43    3.47
  13   6   8  101.39   10.38
  13  -6   8   92.70   13.18
 -13  -6  -8  106.26   14.11
  13   6   9   61.32    8.98
  13  -6   9   77.11   11.50
 -13  -6  -9   90.97   13.04
  13   6  10    8.70    4.32
  13  -6  10   -4.45   10.47
 -13  -6 -10    5.07    4.18
  13   6  11    3.47    4.08
  13  -6  11    4.25    5.31
 -13  -6 -11    1.48    4.05
  13   7 -11   37.89    7.83
 -13  -7  11   26.51    8.96
  13   7 -10    7.03    5.65
  13   7 -10   -6.03   13.72
 -13  -7  10    4.72    5.30
 -13   7  10    0.47   11.20
  13   7  -9   22.56    9.40
 -13  -7   9   16.98    6.57
 -13   7   9   11.62   13.16
  13   7  -8    7.38   12.26
 -13  -7   8    9.57    5.00
 -13   7   8    2.53    6.07
  13   7  -7    4.37    6.66
 -13  -7   7    4.96    4.57
 -13   7   7    6.46    8.84
  13   7  -6   26.98   16.44
 -13  -7   6   40.98    7.22
 -13   7   6   29.68   13.65
  13   7  -5    5.32    5.59
  13  -7  -5    2.96    1.79
 -13  -7   5    5.92    4.02
 -13   7   5    0.90    4.36
  13   7  -4   15.01   10.70
  13  -7  -4   12.89    2.69
 -13  -7   4   17.30    4.89
 -13   7   4   16.31    5.22
  13   7  -3   30.07    8.14
  13  -7  -3   28.30    3.89
 -13  -7   3   42.66    6.17
 -13   7   3   34.99    6.27
  13   7  -2   15.51    9.49
  13  -7  -2   12.59    3.16
 -13  -7   2   17.57    4.48
 -13   7   2   11.20    7.74
  13   7  -1   20.95    6.03
  13  -7  -1   14.44    3.88
 -13  -7   1   23.43    4.60
 -13   7   1   19.58    4.58
  13   7   0   -0.87    7.43
  13  -7   0    7.43    3.03
 -13  -7   0    4.90    3.39
 -13   7   0    0.04    5.23
  13   7   1   10.49    4.88
  13  -7   1   13.00    3.67
 -13  -7  -1    7.25    6.20
 -13   7  -1    7.94    3.33
  13   7   2   14.93    5.57
  13  -7   2   12.47    4.53
 -13  -7  -2   20.76    4.28
 -13   7  -2   21.22    3.29
  13   7   3   33.32    6.42
  13  -7   3   27.88    6.04
 -13  -7  -3   37.52    5.14
 -13   7  -3   31.49    3.73
  13   7   4   66.21    8.44
  13  -7   4   68.09    8.73
 -13  -7  -4   62.06    7.13
 -13   7  -4   69.56    4.40
 -13   7  -4   57.39    6.78
  13   7   5   10.55    6.48
  13  -7   5    8.31    4.32
 -13  -7  -5   10.31    3.46
 -13   7  -5    2.97    1.47
 -13   7  -5    4.44    1.46
  13   7   6    6.61    4.44
  13  -7   6   -0.04    5.05
 -13  -7  -6   12.88    3.82
  13   7   7   24.47    6.01
  13  -7   7   21.80   11.22
 -13  -7  -7   26.47    8.36
  13  -7   8   12.16    6.15
  13   7   8   11.41    5.00
 -13  -7  -8    8.58    6.86
  13   7   9   11.73    7.36
  13  -7   9   -0.66    5.75
 -13  -7  -9    5.49    3.79
  13   7  10   -3.03    3.75
  13  -7  10    5.33    5.29
 -13  -7 -10   -0.23    3.57
  13   8 -10   10.50    7.97
  13   8 -10   14.43   10.33
 -13  -8  10   15.46    6.65
 -13   8  10   15.36    9.16
  13   8  -9    0.57    7.74
 -13  -8   9   10.44    5.94
 -13   8   9   17.24    7.41
  13   8  -8   35.14   11.14
 -13  -8   8   32.37    7.50
 -13   8   8   29.50    8.98
  13   8  -7    3.50   13.80
 -13  -8   7   17.51    5.75
 -13   8   7   13.24    6.78
  13   8  -6   10.42    6.65
 -13  -8   6   -0.01    7.59
 -13   8   6    6.39    5.39
  13   8  -5   11.36   10.49
  13  -8  -5    3.86    2.26
 -13  -8   5   12.41    4.56
 -13   8   5   16.54    5.17
  13   8  -4   29.60    8.16
  13  -8  -4   21.05    3.70
 -13  -8   4   40.48    6.08
 -13   8   4   24.88    6.57
  13   8  -3   25.59   12.37
  13  -8  -3   23.53    3.81
 -13  -8   3   29.90    5.67
 -13   8   3   10.69    9.73
  13   8  -2   27.97    6.97
  13  -8  -2   21.03    6.56
 -13  -8   2   35.05    5.37
 -13   8   2    9.91    5.60
  13   8  -1   13.08    9.91
  13  -8  -1   15.61    3.73
 -13  -8   1   21.86    4.58
 -13   8   1    5.52    4.45
  13   8   0   13.36    5.20
  13  -8   0   12.63    3.72
 -13  -8   0    9.40    4.12
 -13   8   0    8.93    3.74
  13   8   1   29.14    6.34
  13  -8   1   17.10    4.57
 -13  -8  -1   15.76    4.77
  13   8   2   68.18    9.98
  13  -8   2   69.01    8.39
 -13  -8  -2   81.91    8.05
 -13   8  -2   75.72    5.99
 -13   8  -2   80.26    9.83
  13   8   3   24.88    5.93
  13  -8   3   19.56    5.22
 -13  -8  -3   21.90    7.57
 -13   8  -3   23.11    5.13
 -13   8  -3   16.05    3.12
  13   8   4   25.16    8.49
  13  -8   4   14.82    5.02
 -13  -8  -4   16.74    3.98
 -13   8  -4    7.17    2.21
 -13   8  -4    9.26    2.20
  13   8   5   16.98    5.45
  13  -8   5    9.36    5.64
 -13  -8  -5   15.21    4.36
  13   8   6   13.21    4.74
  13  -8   6    4.73    5.07
 -13  -8  -6    1.83    3.85
  13   8   7   31.06   11.04
  13  -8   7   40.91    7.33
 -13  -8  -7   16.90    5.62
  13   8   8   22.99    6.36
  13  -8   8   26.68    7.59
 -13  -8  -8   17.87    5.47
  13   8   9    2.78    3.85
  13  -8   9   -5.20    8.80
 -13  -8  -9   -1.84    3.46
  13   8  10    0.97    4.65
  13  -8  10    7.11    6.75
 -13  -8 -10    5.22    4.39
  13   9  -9    0.81   10.50
 -13  -9   9   25.42   11.19
 -13   9   9   24.06    8.78
  13   9  -8   -0.05    6.48
 -13  -9   8   -2.35    4.65
 -13   9   8   -6.00    5.82
  13   9  -7    2.15    6.68
 -13  -9   7    8.75    4.70
 -13   9   7   -2.69    5.57
  13   9  -6   14.76    8.60
 -13  -9   6   14.55    5.97
 -13   9   6   21.77    6.85
  13   9  -5   27.18    8.64
 -13  -9   5   24.55   10.00
 -13   9   5   19.63    7.04
  13   9  -4    2.50    5.03
  13  -9  -4    0.41    3.75
 -13  -9   4   -1.33    3.54
 -13   9   4    0.61    3.92
  13   9  -3   81.93   13.62
  13  -9  -3   91.16   11.92
 -13  -9   3  102.66   10.56
 -13   9   3  102.56   11.53
  13   9  -2    2.37    5.29
  13  -9  -2    1.15    3.02
 -13  -9   2   10.30    4.00
 -13   9   2    4.73    4.25
 -13   9   2    6.22    3.66
  13   9  -1   16.01    6.15
  13  -9  -1   14.09    6.63
 -13  -9   1   28.71    4.93
 -13   9   1    9.09    4.36
 -13   9   1    9.54    4.73
  13   9   0    9.76    4.91
  13  -9   0    3.11    3.56
 -13  -9   0    7.75    3.76
 -13   9   0    2.54    3.14
 -13   9   0    3.30    3.54
  13   9   1   10.20    4.70
  13  -9   1    4.26    3.73
 -13  -9  -1    5.28    6.07
 -13   9  -1    3.27    2.86
 -13   9  -1    2.14    3.07
  13   9   2    8.32    5.37
  13  -9   2    8.06    4.53
 -13  -9  -2   10.02    4.24
 -13   9  -2    5.78    4.96
 -13   9  -2   13.26    3.13
  13   9   3    2.74   10.08
  13  -9   3   20.06    5.53
 -13  -9  -3   28.55    4.87
 -13   9  -3   14.71    5.17
 -13   9  -3   13.75    3.02
  13   9   4   29.57    7.43
  13  -9   4   42.11    7.17
 -13  -9  -4   39.26    5.81
 -13   9  -4   18.00    5.11
 -13   9  -4   31.66    3.31
  13   9   5   43.50    8.49
  13  -9   5   33.40    8.83
 -13  -9  -5   51.66   10.41
  13   9   6   55.09   13.30
  13  -9   6   42.32    9.40
 -13  -9  -6   39.68    7.27
  13   9   7   27.62    6.93
  13  -9   7   18.18    8.07
 -13  -9  -7   25.75    5.99
  13   9   8   12.33    5.86
  13  -9   8   19.64    7.10
 -13  -9  -8    8.53    5.19
  13   9   9   11.66    5.25
  13  -9   9    9.02    6.85
 -13  -9  -9    1.74    4.70
  13  10  -8   21.79   16.10
 -13 -10   8   36.12    7.69
 -13  10   8   25.90    7.81
 -13  10   8   18.60   10.27
  13  10  -7    1.35    6.32
 -13 -10   7    2.43    7.80
 -13  10   7    6.42    4.88
 -13  10   7    2.11    6.03
  13  10  -6   11.43    6.42
 -13 -10   6    0.16    4.61
 -13  10   6    3.17    5.48
 -13  10   6    1.36    4.46
  13  10  -5   10.73    7.38
 -13 -10   5    3.55    5.14
 -13  10   5   12.63    5.10
 -13  10   5   11.47    6.05
  13  10  -4   -7.10    4.95
  13 -10  -4    1.36    2.32
 -13 -10   4    5.29    5.95
 -13  10   4   13.11    7.38
 -13  10   4   -4.34    3.62
  13  10  -3    3.27    5.46
  13 -10  -3    2.51    2.97
 -13 -10   3    2.05    4.07
 -13  10   3    2.90    3.76
 -13  10   3    2.14    4.35
  13  10  -2    5.48    5.66
  13 -10  -2    7.54    3.71
 -13 -10   2   10.82    4.62
 -13  10   2    7.06    4.67
 -13  10   2    1.19    6.61
  13  10  -1    3.93    5.02
  13 -10  -1    0.63    5.91
 -13 -10   1    5.28    4.03
 -13  10   1    5.16    3.87
 -13  10   1   -0.06    3.35
  13  10   0    5.36    7.82
  13 -10   0    0.95    3.77
 -13 -10   0    5.66    3.95
 -13  10   0    4.47    3.58
 -13  10   0    4.84    3.19
  13  10   1    9.32    5.17
  13 -10   1    5.11    4.37
 -13 -10  -1    7.93    4.33
 -13  10  -1    6.37    3.63
 -13  10  -1    8.18    3.35
  13  10   2   -2.56    4.87
  13 -10   2    1.78    4.18
 -13 -10  -2   -0.01    3.81
 -13  10  -2    3.63    4.50
 -13  10  -2    6.34    2.80
  13  10   3   -1.47    4.77
  13 -10   3    6.19    6.98
 -13 -10  -3   -0.72    3.64
 -13  10  -3    2.80    3.88
 -13  10  -3    3.00    2.31
  13  10   4    3.35    5.30
  13 -10   4    2.84    8.03
 -13 -10  -4    7.81    4.09
  13  10   5   13.05   11.63
  13 -10   5    7.02   11.16
 -13 -10  -5   25.15    5.53
  13  10   6   20.41    6.86
  13 -10   6    2.92   12.60
 -13 -10  -6   27.73    8.96
  13  10   7   39.95    8.75
  13 -10   7   29.58   16.43
 -13 -10  -7   39.02    7.54
  13  10   8   15.06    5.68
  13 -10   8    1.80    6.93
 -13 -10  -8    3.36    4.89
  13  11  -7   41.64   12.10
 -13 -11   7   42.15    9.78
 -13  11   7   71.49   11.78
 -13  11   7   36.60    9.14
  13  11  -6   33.27   11.14
 -13 -11   6   42.13    8.65
 -13  11   6   42.03    8.70
 -13  11   6   50.71   10.52
  13  11  -5   19.49   13.64
 -13 -11   5   19.62    5.79
 -13  11   5    8.47    6.90
 -13  11   5    9.72    5.83
  13  11  -4   13.64    8.13
 -13 -11   4   20.74    5.88
 -13  11   4   25.78    7.32
 -13  11   4    9.04    5.73
  13  11  -3    0.91    9.77
  13 -11  -3    4.03    3.27
 -13 -11   3    8.71    7.24
 -13  11   3    8.91    5.10
 -13  11   3   -1.72    4.08
  13  11  -2    0.16    5.87
  13 -11  -2    5.26    3.96
 -13 -11   2   11.00    4.62
 -13  11   2    4.80    6.80
 -13  11   2    8.55    7.83
  13  11  -1   39.17    8.13
  13 -11  -1   30.33    9.61
 -13 -11   1   25.39    6.33
 -13  11   1   22.47    6.32
 -13  11   1   18.95    5.38
  13  11   0    2.59    5.09
  13 -11   0    6.70    4.26
 -13 -11   0    0.98    4.25
 -13  11   0    2.28    3.95
 -13  11   0    5.06    3.46
  13  11   1   -2.36    4.61
  13 -11   1    1.48    4.02
 -13 -11  -1    1.45    6.20
 -13  11  -1    3.03    2.97
 -13  11  -1    0.63    3.14
  13  11   2    4.25    4.88
  13 -11   2    6.90    7.36
 -13 -11  -2   -1.63    3.89
 -13  11  -2    1.96    2.81
 -13  11  -2    4.85    4.70
  13  11   3   -1.51    5.54
  13 -11   3    6.47    4.87
 -13 -11  -3   13.77    4.30
 -13  11  -3    3.88    2.69
 -13  11  -3   -0.67    4.19
  13  11   4   19.62    7.93
  13 -11   4   27.17    7.15
 -13 -11  -4   25.84    9.85
  13  11   5   63.97   10.83
  13 -11   5   45.26   10.75
 -13 -11  -5   61.97    8.66
  13  11   6   13.14    6.24
  13 -11   6    1.39    6.40
 -13 -11  -6   11.30    4.84
  13  11   7   16.86    6.82
  13 -11   7   15.15    7.74
 -13 -11  -7    4.91    9.71
  13  12  -6    6.17    7.94
 -13 -12   6   15.55    6.73
 -13  12   6   15.42    7.71
 -13  12   6   11.78   10.43
  13  12  -5   24.28    9.71
 -13 -12   5   28.13    8.44
 -13  12   5   39.89    9.73
 -13  12   5   30.23    7.76
  13  12  -4   20.78    8.27
 -13 -12   4   19.67    6.14
 -13  12   4    6.18    7.44
 -13  12   4   11.94    5.94
  13  12  -3    3.98    6.53
 -13 -12   3    6.53    5.73
 -13  12   3   18.29    6.34
 -13  12   3   10.40    5.09
  13  12  -2    6.69    6.58
  13 -12  -2    5.74    4.66
 -13 -12   2   13.57    8.41
 -13  12   2    8.76    5.63
 -13  12   2   11.20    4.77
  13  12  -1    4.13    5.59
  13 -12  -1    3.04    7.37
 -13 -12   1    2.46    4.68
 -13  12   1    9.68    7.74
 -13  12   1    5.02    3.97
  13  12   0   26.62    7.59
  13 -12   0   17.02    6.26
 -13 -12   0   29.61   10.32
 -13  12   0   18.66    5.77
 -13  12   0   20.93    5.20
  13  12   1   38.18   15.07
  13 -12   1   34.63    8.13
 -13 -12  -1   50.33    7.75
 -13  12  -1   31.23   11.32
 -13  12  -1   34.08    6.21
  13  12   2   11.89    6.33
  13 -12   2    9.79    9.48
 -13 -12  -2    8.35    8.20
 -13  12  -2    5.44    3.73
 -13  12  -2   11.63    3.82
  13  12   3   -5.43    4.88
  13 -12   3   -0.39    4.46
 -13 -12  -3    3.56    3.78
  13  12   4   12.66   10.88
  13 -12   4   16.12    6.63
 -13 -12  -4    5.24    5.29
  13  12   5    2.44    6.12
  13 -12   5    7.31    6.36
 -13 -12  -5   10.43    7.83
  13  12   6   26.77    6.97
  13 -12   6    2.08    7.68
 -13 -12  -6    7.68    5.53
  13  13  -4    3.82    7.04
 -13 -13   4    1.85    6.02
 -13  13   4   26.58   11.18
 -13  13   4   10.91    5.53
  13  13  -3    3.70    5.36
 -13 -13   3   -9.09    4.70
 -13  13   3    6.21    5.10
 -13  13   3   -1.81    4.27
  13  13  -2   12.78    7.22
  13 -13  -2   13.13    5.66
 -13 -13   2   14.98    6.08
 -13  13   2   21.71    6.77
 -13  13   2    8.64    5.13
  13  13  -1   54.46   11.44
  13 -13  -1   46.40   15.16
 -13 -13   1   73.63   14.78
 -13  13   1   37.88    9.22
 -13  13   1   45.88    7.43
  13  13   0    8.13    5.47
  13 -13   0    0.67    4.53
 -13 -13   0    1.73    4.30
 -13  13   0    6.16    6.65
 -13  13   0   -4.31    3.54
  13  13   1   20.85    7.01
  13 -13   1   18.56    9.09
 -13 -13  -1   14.31    8.83
 -13  13  -1    6.91    4.34
 -13  13  -1    2.02    4.81
  13  13   2    3.07    6.21
  13 -13   2    4.86    4.90
 -13 -13  -2    2.84    4.73
 -13  13  -2    5.65    3.48
 -13  13  -2   -0.04    6.01
  13  13   3    7.71    6.87
  13 -13   3    8.06    6.23
 -13 -13  -3    7.11    8.72
  13  13   4   32.68   10.09
  13 -13   4   28.00    9.24
 -13 -13  -4   28.43    7.49
  14   0 -11    3.02   15.49
 -14   0  11   12.33    7.07
  14   0 -10   64.92   19.14
 -14   0  10   83.56   12.66
  14   0  -9   18.30   10.99
 -14   0   9   26.51    7.40
  14   0  -8    8.56    7.47
 -14   0   8    3.36    8.58
  14   0  -7   -1.29    6.34
 -14   0   7    4.50    4.53
  14   0  -6   57.09   12.72
 -14   0   6   61.29    9.23
  14   0  -5   84.89   15.15
 -14   0   5  122.51   12.27
  14   0  -4   44.09   10.44
 -14   0   4   58.34   11.95
  14   0  -3   26.50    7.45
 -14   0   3   23.78    5.35
  14   0  -2    0.01    4.29
 -14   0   2    2.47    5.52
  14   0  -1    3.43    4.14
 -14   0   1    0.51    3.08
  14   0   0   21.63    6.14
 -14   0   0   25.82    4.38
  14   0   1  128.28   19.81
 -14   0  -1  135.79   14.90
  14   0   2   54.78    7.92
 -14   0  -2   83.32    9.62
  14   0   3   -1.08    2.97
 -14   0  -3    0.95    3.52
  14   0   4   21.18    4.49
 -14   0  -4   13.32    3.22
  14   0   5    2.91    3.49
 -14   0  -5    8.26    2.55
  14   0   6   22.68    4.38
 -14   0  -6   22.29    5.90
  14   0   7    8.24    3.44
  14   0   7   23.73    5.41
 -14   0  -7   11.80    3.08
  14   0   8   10.60    5.27
 -14   0  -8    6.84    2.47
  14   0   9   21.70    7.12
  14   0  10    9.36    5.50
  14   0  11   -5.24    9.19
  14   1 -11    6.81   10.52
  14  -1 -11   15.14   11.49
 -14  -1  11   15.08    8.28
 -14   1  11   25.29    8.03
  14   1 -10    4.10   13.75
  14  -1 -10    8.19    9.98
 -14  -1  10    5.42    6.09
 -14   1  10    8.52    5.79
  14   1  -9    2.04    6.55
  14  -1  -9    5.32    6.73
 -14  -1   9   -2.97    4.64
 -14   1   9   -2.35    4.54
  14   1  -8   28.63   11.24
  14  -1  -8   27.26   11.21
 -14  -1   8   29.45    7.97
 -14   1   8   42.04    7.84
  14   1  -7    6.83    7.31
  14  -1  -7    2.10    7.76
 -14  -1   7   15.10    5.41
 -14   1   7    9.44    5.17
  14   1  -6   66.39   13.28
  14  -1  -6   75.36   13.80
 -14  -1   6   95.18   16.48
 -14   1   6   65.67    9.83
  14   1  -5   48.63   18.66
  14  -1  -5   52.87   12.11
 -14  -1   5   63.88    8.41
 -14   1   5   54.89   13.55
  14   1  -4    4.06    5.43
  14  -1  -4    2.75    5.92
 -14  -1   4    5.68    4.00
 -14   1   4    9.78    4.15
  14   1  -3   16.45    7.38
  14  -1  -3   23.36    7.32
 -14  -1   3   24.96    8.81
 -14   1   3   28.19    5.54
  14   1  -2   63.52   16.28
  14  -1  -2   64.83    9.81
 -14  -1   2   61.87    7.37
 -14   1   2   58.56    7.23
  14  -1  -1   40.20    7.87
  14   1  -1   37.62    7.76
 -14  -1   1   42.31    5.78
 -14   1   1   44.04    5.80
  14  -1   0   16.24    6.27
  14   1   0   28.99    6.33
 -14  -1   0   25.30    4.60
 -14   1   0   29.58    4.70
  14   1   1    1.89    4.16
  14  -1   1    6.13    6.69
 -14  -1  -1    5.98    3.12
 -14   1  -1    6.83    2.97
  14   1   2   29.33    5.49
  14  -1   2   16.38    5.37
 -14  -1  -2   27.72    4.05
 -14   1  -2   22.69    3.92
  14  -1   3   52.15    7.41
  14   1   3   55.47    7.60
 -14   1  -3   58.72    5.22
 -14  -1  -3   66.34    5.43
  14  -1   4   15.52    4.44
  14   1   4   10.09    4.61
 -14  -1  -4   15.69    3.34
 -14   1  -4   22.16    3.12
  14   1   5   19.16    4.72
  14  -1   5   21.59    5.53
  14  -1   5   12.56    4.25
 -14  -1  -5   22.75    5.51
 -14   1  -5   22.83    4.97
  14   1   6   10.71    3.63
  14  -1   6    2.86    4.79
  14  -1   6    8.47    5.52
 -14  -1  -6    9.24    3.00
 -14   1  -6    7.30    2.62
  14   1   7   38.92    6.01
  14  -1   7   34.38    5.34
  14  -1   7   52.21    8.39
 -14  -1  -7   37.16    7.85
 -14   1  -7   63.60    4.80
  14   1   8   -0.31    2.34
  14  -1   8    4.02    4.03
  14   1   8   -0.10    4.08
 -14  -1  -8   -1.14    2.34
  14   1   9    6.97    6.37
  14  -1   9   21.34    6.28
  14   1  10   10.07    9.46
  14  -1  10   11.93    5.76
  14   1  11    6.40    5.31
  14  -1  11    3.28    5.51
  14   2 -11   -0.89   11.08
 -14  -2  11   -0.55    5.56
 -14   2  11    2.18    5.53
  14   2 -10   16.29   11.35
  14   2 -10   29.47    7.53
  14  -2 -10   16.86   13.07
 -14  -2  10   36.37    8.48
 -14   2  10   23.77    8.33
  14   2  -9   13.18    9.38
  14  -2  -9   22.47   10.22
 -14  -2   9   10.19   10.35
 -14   2   9    9.03    6.29
  14   2  -8    5.93    8.03
  14  -2  -8   11.57   14.89
 -14  -2   8    9.77    5.69
 -14   2   8   14.47    6.00
  14   2  -7   -1.50    7.17
  14  -2  -7    5.70    7.41
 -14  -2   7   12.57    5.17
 -14   2   7   14.91    8.50
  14   2  -6   11.04    6.16
  14  -2  -6   -1.72    6.62
 -14  -2   6   11.45    4.65
 -14   2   6    0.44    4.43
  14   2  -5   48.71   11.20
  14  -2  -5   36.74   12.19
 -14  -2   5   64.04    8.52
 -14   2   5   62.23    8.27
  14   2  -4   18.32   10.98
  14  -2  -4   13.79   11.52
 -14  -2   4   14.46    4.79
 -14   2   4   14.37    4.88
  14   2  -3   13.02    6.27
  14  -2  -3   13.48    6.54
 -14  -2   3   16.03    4.74
 -14   2   3   11.63    4.66
  14   2  -2    4.07    4.24
  14  -2  -2   -4.73    4.34
 -14  -2   2    0.01    3.04
 -14   2   2    1.89    3.11
  14  -2  -1   43.28    9.95
  14   2  -1   67.24   15.44
 -14  -2   1   76.75    7.37
 -14   2   1   67.45    6.94
  14   2   0   -2.32    4.43
  14  -2   0    7.87    4.55
 -14  -2   0    7.58    3.22
 -14   2   0    6.74    5.29
  14  -2   1   20.19    9.44
  14   2   1   15.12    5.73
 -14  -2  -1   24.27    4.13
 -14   2  -1   20.77    4.15
  14   2   2   -2.01    6.51
  14  -2   2    2.65    6.30
 -14  -2  -2    7.03    4.82
 -14   2  -2    6.50    2.73
  14   2   3   26.09    5.14
  14  -2   3   14.50    8.05
  14  -2   3   15.64    5.14
 -14  -2  -3   21.23    6.28
 -14   2  -3   24.32    3.56
  14   2   4   75.32    8.09
  14  -2   4   52.45   12.94
  14  -2   4   68.98    8.80
 -14  -2  -4   77.02    9.53
 -14   2  -4   69.17    8.14
  14  -2   5    1.89    3.32
  14   2   5    8.74    3.45
  14  -2   5    7.07    3.91
 -14  -2  -5    0.72    2.69
 -14   2  -5    3.33    2.14
  14   2   6   14.73    7.12
  14  -2   6   13.31    3.97
  14  -2   6   16.25    5.34
 -14  -2  -6   18.77    3.62
 -14   2  -6   12.74    2.80
  14  -2   7   76.98    9.70
  14   2   7   55.01   11.38
 -14  -2  -7   50.05   10.19
 -14   2  -7   71.18    7.17
  14   2   8    2.62    5.28
  14  -2   8    7.90    4.92
 -14  -2  -8    4.42    3.25
  14   2   9   19.62    6.33
  14  -2   9   18.97    6.25
 -14  -2  -9    9.06    3.40
  14   2  10   12.78    6.35
  14  -2  10   18.71    6.43
  14   2  11   17.01   11.08
  14  -2  11   14.52   11.03
  14   3 -11    3.81    8.34
  14   3 -11    7.98    5.14
 -14  -3  11    9.21    6.50
 -14   3  11    0.28    6.67
  14   3 -10   -1.39   10.36
  14   3 -10    3.02    4.55
 -14  -3  10    3.19    4.50
 -14   3  10   -6.24    4.63
  14   3  -9    9.31    8.03
  14  -3  -9   -1.06    9.00
 -14  -3   9    3.82    5.46
 -14   3   9    9.56    5.65
  14   3  -8   13.33   10.39
  14  -3  -8    9.19   11.23
 -14  -3   8   32.90    7.19
 -14   3   8   28.79    7.48
  14   3  -7    7.67    6.73
  14  -3  -7    2.69    1.95
  14  -3  -7    7.71    7.75
 -14  -3   7   13.29    8.02
 -14   3   7   16.31    4.94
  14   3  -6   28.31    7.62
  14  -3  -6    9.49    2.70
  14  -3  -6   15.71    9.27
 -14  -3   6   25.28    5.67
 -14   3   6   18.24    5.73
  14   3  -5   30.29    8.91
  14  -3  -5   27.11   16.22
 -14  -3   5   37.08    6.89
 -14   3   5   33.42    6.90
  14   3  -4   12.94    8.04
  14  -3  -4   18.67    8.78
 -14  -3   4   42.46    6.32
 -14   3   4   29.05    5.93
  14   3  -3   20.67   14.49
  14  -3  -3   30.08    9.88
 -14  -3   3   38.96    6.47
 -14   3   3   54.10    6.48
  14   3  -2    6.28    4.82
  14  -3  -2    5.78    5.00
 -14  -3   2    1.67    3.54
 -14   3   2    0.60    5.59
  14  -3  -1    9.36    5.85
  14   3  -1   17.63    5.88
  14  -3  -1   10.38    3.66
 -14  -3   1   18.08    4.15
 -14   3   1   14.51    4.24
  14  -3   0    4.81    4.36
  14   3   0    1.93    4.17
  14  -3   0   -1.80    3.02
 -14  -3   0    5.19    5.04
 -14   3   0    6.38    3.00
  14  -3   1   17.68    6.00
  14   3   1   22.18    6.01
  14  -3   1   19.43    4.61
 -14  -3  -1   27.83    4.42
 -14   3  -1   27.00    6.79
  14   3   2   37.31    7.30
  14  -3   2   32.48    7.47
  14  -3   2   51.46    6.31
 -14  -3  -2   51.38    5.48
  14  -3   3   43.65    6.83
  14   3   3   33.83    6.57
  14  -3   3   20.59   10.09
 -14  -3  -3   45.78    5.15
 -14   3  -3   42.95    4.31
  14   3   4   52.52    7.08
  14  -3   4   58.98    7.41
  14  -3   4   42.16    7.17
 -14  -3  -4   51.40    5.41
 -14   3  -4   54.08    4.42
  14   3   5   54.63    7.96
  14  -3   5   50.19   11.99
  14  -3   5   70.87    8.73
 -14  -3  -5   75.52    6.45
 -14   3  -5   75.57    4.94
  14   3   6    6.39    3.76
  14  -3   6   12.09    4.50
  14  -3   6    3.76    3.47
 -14   3  -6    4.54    2.10
 -14  -3  -6    8.64    5.12
  14   3   7   11.95    7.27
  14  -3   7   23.92    6.01
 -14  -3  -7   15.60    4.10
  14   3   8   18.88    7.20
  14  -3   8   15.81    6.48
 -14  -3  -8   16.91    4.26
  14   3   9    1.18    3.17
  14  -3   9    5.41    5.00
 -14  -3  -9    3.00    5.23
  14   3  10   20.46    7.06
  14  -3  10   20.48    6.98
  14   4 -10    3.93    6.18
  14   4 -10    0.07    4.03
 -14  -4  10   -1.20    7.70
 -14   4  10   -2.16    5.07
  14   4  -9    8.57   11.13
 -14  -4   9    4.77    4.92
 -14   4   9   -1.37    5.27
  14   4  -8   23.99   11.73
 -14  -4   8   45.17    8.32
 -14   4   8   38.47    9.03
  14   4  -7    6.10    7.16
 -14  -4   7    6.21    5.23
 -14   4   7   13.30    8.92
  14   4  -6    7.87    6.84
  14  -4  -6    9.29    3.66
  14  -4  -6    6.97    8.58
 -14  -4   6   14.24    5.27
 -14   4   6    9.19    5.18
  14   4  -5   15.36    7.27
  14  -4  -5   15.55    2.83
  14  -4  -5   38.74    9.04
 -14  -4   5   23.41    5.50
 -14   4   5    8.75    5.50
  14   4  -4   11.82    5.41
  14  -4  -4    3.92    2.30
  14  -4  -4    4.80    6.48
 -14  -4   4    0.84    4.06
 -14   4   4    4.31    4.04
  14   4  -3   90.15   13.03
  14  -4  -3   88.31    6.38
  14  -4  -3   83.27   15.04
 -14  -4   3  124.83   15.78
 -14   4   3   93.83   15.43
  14   4  -2    0.57    8.83
  14  -4  -2    6.51    2.84
  14  -4  -2   11.96    6.02
 -14  -4   2    5.02    3.78
 -14   4   2    8.48    3.63
  14   4  -1   -0.20    4.61
  14  -4  -1    3.90    2.80
  14  -4  -1    5.99    5.07
 -14  -4   1   -1.20    5.61
 -14   4   1    8.00    5.34
  14   4   0    6.68    4.78
  14  -4   0    5.04    3.18
  14  -4   0   11.68    5.13
 -14  -4   0    3.06    3.42
 -14   4   0    5.56    3.32
  14   4   1    5.83    4.38
  14  -4   1    5.32    3.39
  14  -4   1    5.40    4.94
 -14  -4  -1    5.20    3.14
 -14   4  -1    5.31    2.95
  14   4   2    8.73    4.28
  14  -4   2    0.85    3.62
  14  -4   2    5.66    4.88
 -14  -4  -2    8.12    3.26
 -14   4  -2    7.73    2.89
  14  -4   3   17.76    5.76
  14   4   3   12.47    5.38
  14  -4   3   17.89    4.97
 -14  -4  -3   20.11    6.62
 -14   4  -3   21.86    3.25
  14   4   4    6.17    3.95
  14  -4   4    9.13    6.85
  14  -4   4    2.66    4.18
 -14  -4  -4   13.20    5.10
 -14   4  -4    3.16    3.70
  14  -4   5    6.94    4.10
  14   4   5    6.21    3.64
 -14  -4  -5   -0.08    4.78
 -14   4  -5    0.06    3.19
  14  -4   6   57.53    7.95
  14   4   6   37.81    6.90
 -14  -4  -6   48.72    5.97
  14   4   7    3.85    4.35
  14  -4   7   11.63    5.39
 -14  -4  -7   14.27    3.88
  14  -4   8   16.52    6.20
  14   4   8   10.59    7.19
 -14  -4  -8   13.35    3.94
  14   4   9    9.54    6.61
  14  -4   9    6.68    6.06
 -14  -4  -9   12.30    7.41
  14  -4  10   24.04    7.54
 -14  -4 -10   10.21    4.50
  14   5 -10    9.89    7.39
  14   5 -10    6.69    4.91
 -14  -5  10    1.10    5.95
 -14   5  10   -3.92    6.30
  14   5  -9    2.87    7.77
 -14  -5   9    5.19    5.66
 -14   5   9   12.12    6.17
  14   5  -8   11.64    8.84
 -14  -5   8   15.25   10.18
 -14   5   8   11.38    6.37
  14   5  -7   33.29   11.86
 -14  -5   7   53.49    8.47
 -14   5   7   43.32    9.14
  14   5  -6    6.01    6.20
  14  -5  -6    3.02    1.82
 -14  -5   6    5.45    4.47
 -14   5   6    5.23    4.64
  14   5  -5   -3.95    5.25
  14  -5  -5   -0.58    3.22
 -14  -5   5    1.10    4.05
 -14   5   5    9.75    4.11
  14   5  -4   28.50    8.22
  14  -5  -4   26.15    3.43
 -14  -5   4   23.37    6.02
 -14   5   4   23.41    9.53
  14   5  -3    7.36    5.29
  14  -5  -3    2.71    2.53
 -14  -5   3    3.29    4.02
 -14   5   3   10.97    3.90
  14   5  -2   24.33    7.51
  14  -5  -2   23.55    4.14
 -14  -5   2   37.80    9.23
 -14   5   2   37.41    5.66
  14   5  -1   33.93   16.48
  14  -5  -1   58.19    5.99
 -14  -5   1   55.82    7.19
 -14   5   1   59.88    6.63
  14   5   0   15.78    6.00
  14  -5   0   11.65    3.88
 -14  -5   0   19.91    4.40
 -14   5   0   18.60    6.50
  14   5   1    4.40    4.63
  14  -5   1    3.67    3.36
 -14  -5  -1    9.74    5.56
 -14   5  -1    5.90    3.14
  14   5   2    1.13    4.42
  14  -5   2    6.43    3.69
 -14  -5  -2    5.93    3.32
 -14   5  -2    8.12    2.83
  14   5   3   10.84    4.78
  14  -5   3   15.88    4.39
 -14  -5  -3   10.14    3.72
 -14   5  -3    5.75    4.69
  14   5   4   55.95    8.69
  14  -5   4   57.30    8.74
 -14  -5  -4   77.47    7.04
 -14   5  -4   68.18    4.92
  14   5   5    4.87    6.49
  14  -5   5    6.58    7.47
 -14  -5  -5    8.03    3.26
 -14   5  -5    3.96    1.94
  14   5   6    3.96    5.07
  14  -5   6   30.48    5.91
 -14  -5  -6   20.37    4.42
  14   5   7   44.54    7.41
  14  -5   7   51.58    9.28
 -14  -5  -7   58.96    6.96
  14   5   8   17.86    5.08
  14  -5   8   13.21    6.72
 -14  -5  -8   19.64    4.55
  14   5   9    0.08    5.78
  14  -5   9    2.05    5.04
 -14  -5  -9    0.41    6.03
  14   5  10   25.80    9.39
  14  -5  10   28.92    8.77
 -14  -5 -10   19.93    6.11
  14   6 -10   -6.69    6.81
  14   6 -10    3.48    5.97
 -14  -6  10   -2.97    5.43
 -14   6  10   -2.35   10.41
  14   6  -9   10.56    6.53
 -14  -6   9   -6.88    4.95
 -14   6   9   -2.66    8.95
  14   6  -8    7.60    8.64
 -14  -6   8   14.29    6.02
 -14   6   8   12.44   11.25
  14   6  -7    4.93    7.03
 -14  -6   7    3.99    4.84
 -14   6   7    3.51    8.57
  14   6  -6    4.22    6.22
 -14  -6   6   -1.03    7.26
 -14   6   6    6.12    4.80
  14   6  -5    0.80    5.66
  14  -6  -5    2.27    1.95
 -14  -6   5   10.06    4.02
 -14   6   5   -6.60    4.28
  14   6  -4    5.29    5.70
  14  -6  -4    2.51    2.40
 -14  -6   4   12.47    4.14
 -14   6   4    2.07    4.34
  14   6  -3   17.48    7.52
  14  -6  -3   19.57    3.44
 -14  -6   3   25.89    5.65
 -14   6   3   21.40    5.65
  14   6  -2   18.53   13.12
  14  -6  -2   36.80    4.55
 -14  -6   2   40.78    6.42
 -14   6   2   30.10    6.00
  14   6  -1   34.87    7.93
  14  -6  -1   23.99    4.67
 -14  -6   1   34.78    5.63
 -14   6   1   27.85    5.39
  14   6   0    2.44    9.23
  14  -6   0    4.49    3.55
 -14  -6   0   15.49    4.05
 -14   6   0    8.86    3.41
  14   6   1   54.18    9.41
  14  -6   1   59.28    6.76
 -14  -6  -1   49.73    6.96
 -14   6  -1   61.67    6.20
  14   6   2   12.57    5.34
  14  -6   2    9.88    4.43
 -14  -6  -2   15.67    4.02
 -14   6  -2   11.59    5.33
  14   6   3    4.65    6.72
  14  -6   3    5.13    3.94
 -14  -6  -3    3.35    5.21
 -14   6  -3    3.18    2.40
  14   6   4    2.84    4.62
  14  -6   4   18.56    4.83
 -14  -6  -4   10.53    3.83
 -14   6  -4    9.02    2.42
  14   6   5   -0.78    3.72
  14  -6   5   -3.70    4.09
 -14  -6  -5   -0.16    3.07
  14   6   6    8.98    8.56
  14  -6   6   12.88    9.93
 -14  -6  -6   17.17    4.39
  14  -6   7   11.64    5.50
  14   6   7    4.02    4.44
 -14  -6  -7    9.38    4.19
  14   6   8    4.29    4.22
  14  -6   8    3.98    5.47
 -14  -6  -8    6.88    3.94
  14   6   9   -1.72    3.55
  14  -6   9    2.20    5.04
 -14  -6  -9   -0.23    5.39
 -14  -6 -10    4.67    4.80
  14   7  -9   28.57   10.98
 -14  -7   9   32.77   14.20
 -14   7   9   29.04    9.67
  14   7  -8   -5.63    5.83
 -14  -7   8    2.16    4.32
 -14   7   8    2.30    5.08
  14   7  -7   31.58    9.53
 -14  -7   7   12.10    6.55
 -14   7   7   17.62    7.27
  14   7  -6    2.61    6.62
 -14  -7   6    0.89    4.45
 -14   7   6    5.75    4.94
  14   7  -5   -2.67    5.53
  14  -7  -5    0.94    1.98
 -14  -7   5   -3.20    6.72
 -14   7   5    8.44    4.36
  14   7  -4   26.05    7.89
  14  -7  -4   14.49    3.27
 -14  -7   4   29.82    5.89
 -14   7   4   14.66    9.44
  14   7  -3    9.13    6.93
  14  -7  -3   16.57    5.58
 -14  -7   3   22.66    5.25
 -14   7   3   11.42    5.36
  14   7  -2    3.20    4.64
  14  -7  -2    3.36    2.48
 -14  -7   2   -3.27    3.38
 -14   7   2   -2.77    3.35
  14   7  -1   17.58   11.81
  14  -7  -1   18.34    4.35
 -14  -7   1   28.80    5.45
 -14   7   1   22.30    5.01
  14   7   0   47.19    9.67
  14  -7   0   59.25    6.39
 -14  -7   0   45.99    7.21
 -14   7   0   49.19    6.44
  14   7   1   23.32    6.72
  14  -7   1   16.62    4.79
 -14   7  -1   22.34    4.14
  14   7   2   18.62    5.87
  14  -7   2    8.64    4.55
 -14  -7  -2   22.12    4.41
 -14   7  -2   11.36    3.45
  14   7   3   11.75    5.13
  14  -7   3   13.90    4.53
 -14  -7  -3    8.13    3.83
 -14   7  -3    6.45    2.75
  14   7   4   18.72    5.29
  14  -7   4   16.45    5.11
 -14  -7  -4    7.07    4.21
 -14   7  -4   11.72    2.43
 -14   7  -4    5.98    4.17
  14   7   5   28.08    6.42
  14  -7   5   28.16    6.94
 -14  -7  -5   26.21    5.48
  14   7   6   16.31    5.30
  14  -7   6   10.09    5.95
 -14  -7  -6   10.85    7.46
  14   7   7   33.71    6.85
  14  -7   7   31.00   13.91
  14   7   8    8.28    5.54
  14  -7   8   17.71    6.92
 -14  -7  -8   24.01    8.38
  14   7   9   12.07    7.18
  14  -7   9    0.64    5.91
 -14  -7  -9   -2.12    6.38
 -14  -8   9    6.15    6.13
  14   8  -8   40.88   22.55
 -14  -8   8   67.05   11.25
 -14   8   8   57.27   12.46
  14   8  -7    4.06    7.28
 -14  -8   7    4.65    9.13
 -14   8   7   13.99    6.41
  14   8  -6    2.85   11.44
 -14  -8   6   -0.31    4.84
 -14   8   6   11.22    5.36
  14   8  -5    2.94    8.48
 -14  -8   5   22.23    6.01
 -14   8   5   22.38    6.63
  14   8  -4    8.66   11.17
  14  -8  -4    9.93    5.15
 -14  -8   4   18.81    8.58
 -14   8   4    7.63    5.39
  14   8  -3   28.21    8.38
  14  -8  -3   23.34    4.29
 -14  -8   3   29.43    6.28
 -14   8   3   25.10    6.65
  14   8  -2   -6.41    8.81
  14  -8  -2   -1.46    4.77
 -14  -8   2    4.58    3.91
 -14   8   2    6.20    3.84
  14   8  -1   10.62    5.79
  14  -8  -1    9.62    3.70
 -14  -8   1    9.18    4.59
 -14   8   1    8.36    4.23
  14   8   0   17.96    6.57
  14  -8   0   10.51    4.19
 -14  -8   0   16.25    4.73
 -14   8   0   11.28    4.17
  14   8   1    8.06    5.48
  14  -8   1    4.68    4.13
 -14  -8  -1   11.10    4.18
 -14   8  -1    6.64    5.59
  14   8   2   22.95    7.34
  14  -8   2   26.30    5.99
 -14  -8  -2   46.06    5.56
 -14   8  -2   15.88    4.24
 -14   8  -2   28.74    4.19
  14   8   3   19.68    7.85
  14  -8   3    0.91    4.07
 -14  -8  -3    7.97    5.92
 -14   8  -3    0.66    3.91
 -14   8  -3    3.04    2.41
  14   8   4    9.75    5.16
  14  -8   4    7.22    5.11
 -14  -8  -4    8.24    4.07
  14   8   5   20.41    6.52
  14  -8   5   17.30    6.93
 -14  -8  -5   29.43    5.72
  14   8   6   11.86    5.88
  14  -8   6    7.93    6.54
 -14  -8  -6   18.59    5.14
  14   8   7   33.27   13.17
  14  -8   7   55.79    9.40
 -14  -8  -7   26.20    7.09
  14   8   8    4.10    5.23
  14  -8   8    8.44    6.48
 -14  -8  -8    9.26    4.83
  14   9  -8    7.27    8.01
 -14  -9   8   12.03    6.26
 -14   9   8    4.48    7.12
  14   9  -7   -0.88    7.79
 -14  -9   7    4.50    6.15
 -14   9   7   22.34    6.87
  14   9  -6   24.60    9.18
 -14  -9   6   18.52    6.95
 -14   9   6   24.07    7.87
  14   9  -5   -2.18    6.24
 -14  -9   5    2.63    4.26
 -14   9   5    1.55    7.54
  14   9  -4    8.73    7.18
 -14  -9   4    2.30    5.21
 -14   9   4   20.13    5.92
  14   9  -3   20.77    7.38
  14  -9  -3    4.91    3.74
 -14  -9   3   16.41    8.64
 -14   9   3   26.04    5.90
  14   9  -2    5.87    5.28
  14  -9  -2    3.89    3.30
 -14  -9   2    2.28    4.20
 -14   9   2   -0.19    4.07
  14   9  -1   29.15    8.43
  14  -9  -1   38.18    5.50
 -14  -9   1   45.67    6.49
 -14   9   1   16.05    6.01
 -14   9   1   16.61    5.70
  14   9   0   17.32    6.97
  14  -9   0   27.35    5.15
 -14  -9   0   26.15    5.58
 -14   9   0   16.76    4.66
 -14   9   0   15.50    5.03
  14   9   1    1.37    6.74
  14  -9   1   19.15    5.25
 -14  -9  -1    7.85    8.64
 -14   9  -1   17.91    4.10
 -14   9  -1   18.32    4.10
  14   9   2   48.03   12.74
  14  -9   2   19.13    6.42
 -14  -9  -2   31.32    6.01
 -14   9  -2   19.60    4.28
 -14   9  -2   32.80    4.28
  14   9   3   -2.03    5.77
  14  -9   3    8.35    8.73
 -14  -9  -3   12.73    4.56
 -14   9  -3   15.61    2.97
 -14   9  -3    6.11    3.00
  14   9   4    7.82    6.20
  14  -9   4   20.34    9.75
 -14  -9  -4   18.37    7.97
  14   9   5   16.51    8.03
  14  -9   5    4.17    5.17
 -14  -9  -5   -0.27    4.18
  14   9   6   50.76    8.82
  14  -9   6   32.21    9.94
 -14  -9  -6   36.55    7.71
  14   9   7   17.02    6.39
  14  -9   7    3.47    7.36
 -14  -9  -7   16.48    5.58
 -14  -9  -8    2.08    4.38
  14  10  -7   12.01    7.76
 -14 -10   7   -0.15    6.20
 -14  10   7    8.82    6.56
 -14  10   7   17.00    7.03
  14  10  -6    3.95    5.88
 -14 -10   6    0.50    4.76
 -14  10   6    0.73    4.32
 -14  10   6   -7.25    5.12
  14  10  -5   21.43    9.47
 -14 -10   5   31.81    7.38
 -14  10   5   22.66    8.88
 -14  10   5   28.14    7.19
  14  10  -4   49.59   14.08
 -14 -10   4   68.24   16.93
 -14  10   4   77.72   10.01
 -14  10   4   71.09   11.88
  14  10  -3   62.64   11.72
  14 -10  -3   11.79   10.83
 -14 -10   3   72.32    9.22
 -14  10   3   56.66    8.51
 -14  10   3   65.00   15.69
  14  10  -2    4.94    6.89
  14 -10  -2   13.70    4.62
 -14 -10   2   14.15    8.86
 -14  10   2   16.33    7.87
 -14  10   2    8.00    5.21
  14  10  -1   15.36   11.91
  14 -10  -1   13.74    5.10
 -14 -10   1   31.38    5.89
 -14  10   1   14.88    5.66
 -14  10   1   15.25    5.01
  14  10   0   28.61    8.15
  14 -10   0   20.69    6.13
 -14 -10   0   40.20   10.44
 -14  10   0   25.38    5.35
 -14  10   0   26.48    5.57
  14  10   1   33.72    7.76
  14 -10   1   15.67    6.05
 -14 -10  -1   20.40    6.02
 -14  10  -1   23.27    4.75
 -14  10  -1   18.92    4.84
  14  10   2   22.75    7.69
  14 -10   2   15.79   10.83
 -14 -10  -2   32.77    6.08
 -14  10  -2   12.61    7.31
 -14  10  -2   23.36    4.37
  14  10   3   24.65    8.46
  14 -10   3   24.16   12.26
 -14 -10  -3   38.83    6.64
  14  10   4   15.05    5.82
  14 -10   4    2.59    5.44
 -14 -10  -4    5.18    4.61
  14  10   5   32.34    8.84
  14 -10   5   22.77    8.48
 -14 -10  -5   39.05    6.85
  14  10   6   -9.48    5.36
  14 -10   6    5.59    9.25
 -14 -10  -6    3.74    7.49
  14  11  -5   -2.73    6.30
 -14 -11   5    0.99    5.28
 -14  11   5    6.18    5.84
 -14  11   5    4.44    4.69
  14  11  -4    7.72    9.47
 -14 -11   4    3.96    4.85
 -14  11   4   -0.83    5.25
 -14  11   4   -0.56    4.28
  14  11  -3    5.10    6.63
 -14 -11   3   -2.77    7.85
 -14  11   3   10.60    5.31
 -14  11   3    0.30    4.45
  14  11  -2   10.24    7.15
  14 -11  -2    6.14    4.56
 -14 -11   2    7.20    5.37
 -14  11   2   14.37    9.32
 -14  11   2   10.68    4.36
  14  11  -1   22.65    9.01
  14 -11  -1   25.56   10.86
 -14 -11   1   30.53   11.69
 -14  11   1   31.65    6.18
 -14  11   1   29.66    6.79
  14  11   0   13.86    5.96
  14 -11   0    2.36    4.72
 -14 -11   0    8.03    4.70
 -14  11   0    2.46    4.12
 -14  11   0    2.49    3.88
  14  11   1    4.43    5.36
  14 -11   1    6.75    4.72
 -14 -11  -1    3.34    7.27
 -14  11  -1    2.21    3.60
 -14  11  -1    2.14    3.73
  14  11   2    8.73    6.46
  14 -11   2    6.25    8.99
 -14 -11  -2   11.39    5.04
 -14  11  -2    8.47    6.14
 -14  11  -2    8.45    3.49
  14  11   3   12.17    6.04
  14 -11   3    1.02    5.26
 -14 -11  -3    4.83    4.68
  14  11   4   34.62    8.20
  14 -11   4    9.66    7.67
 -14 -11  -4   22.91    6.27
  14  11   5   31.61    8.94
  14 -11   5   20.26    8.55
 -14 -11  -5   29.20    6.93
  14  12  -3   11.49    7.52
 -14 -12   3    5.99    5.81
 -14  12   3    1.49    5.08
 -14  12   3   11.82    5.91
  14  12  -2    7.12    8.37
  14 -12  -2   13.11    5.75
 -14 -12   2   11.72   11.17
 -14  12   2   27.43    6.73
 -14  12   2   14.32    5.29
  14  12  -1   20.34    8.56
  14 -12  -1   12.84    9.92
 -14 -12   1   20.63    7.09
 -14  12   1    3.05   10.14
 -14  12   1   19.39    5.18
  14  12   0   10.78    9.84
  14 -12   0   -0.53    4.57
 -14 -12   0    1.92    7.62
 -14  12   0    4.39    3.92
 -14  12   0    1.55    4.22
  14  12   1   14.59    7.98
  14 -12   1   30.48   10.05
 -14 -12  -1   24.00    6.34
 -14  12  -1   11.31    5.01
 -14  12  -1   11.07    8.84
  14  12   2    7.57    6.50
  14 -12   2    1.59    4.90
 -14 -12  -2    3.19    7.56
  14  12   3    2.67   13.19
  14 -12   3   12.42    6.94
 -14 -12  -3   14.04    5.67
  15   0 -10    0.40    9.66
 -15   0  10    9.24    6.72
  15   0  -9   21.47    8.84
 -15   0   9   -2.33    5.91
  15   0  -8    9.55   12.36
 -15   0   8    2.77    5.44
  15   0  -7    3.10    6.56
 -15   0   7   -3.20    4.57
  15   0  -6   -1.42    6.80
 -15   0   6    2.34    4.30
  15   0  -5    4.83   10.55
 -15   0   5    4.20    4.53
  15   0  -4   10.77    7.69
 -15   0   4   18.57    5.50
  15   0  -3   12.26    5.49
 -15   0   3   -2.30    3.78
  15   0  -2   18.99    6.71
 -15   0   2   11.42    4.72
  15   0  -1    3.84    4.89
 -15   0   1    4.49    5.93
  15   0   0    8.98    4.48
 -15   0   0    0.17    3.35
  15   0   1    2.61    4.37
 -15   0  -1    3.94    3.16
  15   0   2    2.32    3.87
 -15   0  -2    1.07    2.70
  15   0   3    0.10    3.57
 -15   0  -3    0.70    2.45
  15   0   4   -1.27    6.11
 -15   0  -4    2.86    2.61
  15   0   5    4.56    6.28
 -15   0  -5    4.09    2.74
  15   0   6   -2.25    3.10
 -15   0  -6    1.85    4.06
  15   0   7   22.54    6.46
  15   0   7   15.97    4.37
 -15   0  -7   16.00    4.07
  15   0   8   27.29    8.06
  15   0   9   -2.64    4.63
  15   1 -10   36.28   14.44
  15  -1 -10   26.63   17.11
 -15  -1  10   44.24   11.51
 -15   1  10   49.00   11.16
  15   1  -9    1.87    7.66
  15  -1  -9    4.95   12.55
 -15  -1   9   -5.13    5.25
 -15   1   9    6.22    5.06
  15   1  -8    8.40    8.58
  15  -1  -8    2.29    8.78
 -15  -1   8   15.19   10.02
 -15   1   8   12.96    9.78
  15   1  -7   27.17   18.28
  15  -1  -7   23.39   11.34
 -15  -1   7   23.33    7.75
 -15   1   7   56.50   12.66
  15   1  -6   24.22   10.04
  15  -1  -6   19.57   16.81
 -15  -1   6   37.75    7.29
 -15   1   6   26.96    7.42
  15   1  -5   16.47    7.18
  15  -1  -5    3.81    7.57
 -15  -1   5    8.41    5.18
 -15   1   5   10.81    5.30
  15   1  -4   60.14   22.53
  15  -1  -4   61.17   14.07
 -15  -1   4   93.40   15.44
 -15   1   4   74.54   10.06
  15   1  -3   28.67    7.92
  15  -1  -3   31.53    8.43
 -15  -1   3   16.19    5.67
 -15   1   3   17.96    5.47
  15   1  -2   21.24    7.92
  15  -1  -2   21.68   12.37
 -15  -1   2   28.65    9.23
 -15   1   2   23.61    5.53
  15  -1  -1   23.35    7.27
  15   1  -1   21.69    7.69
 -15  -1   1   30.65    5.28
 -15   1   1   26.74    5.51
  15  -1   0   17.17    6.88
  15   1   0   25.51    6.66
 -15  -1   0   26.69    5.07
  15   1   1   23.93    6.18
  15  -1   1   16.89    6.34
 -15  -1  -1   24.09    7.63
 -15   1  -1   23.76    4.51
  15  -1   2    1.98    4.31
  15   1   2    5.28    4.32
 -15  -1  -2    3.85    3.09
 -15   1  -2    5.53    2.96
  15   1   3    5.80    4.42
  15  -1   3    6.74    4.33
 -15  -1  -3    5.27    3.07
 -15   1  -3    6.69    2.98
  15   1   4   29.44   10.04
  15  -1   4   23.43    5.87
 -15  -1  -4   29.70    4.52
 -15   1  -4   32.94    6.62
  15   1   5   16.34    8.30
  15  -1   5    9.97    5.02
  15  -1   5   19.96    5.72
 -15  -1  -5   23.53    6.35
 -15   1  -5   21.06    3.58
  15  -1   6    5.71    3.60
  15  -1   6    2.37    4.70
  15   1   6    2.37    6.17
 -15  -1  -6    5.39    3.03
 -15   1  -6    6.51    4.54
  15   1   7   -0.35    4.79
  15  -1   7    6.72    7.03
 -15  -1  -7   -0.84    4.65
  15   1   8   17.95    6.45
  15  -1   8    9.88    6.73
  15   1   9   16.55    6.58
  15  -1   9   20.48    7.53
  15   2  -9    2.31    8.21
  15  -2  -9   -8.24    9.03
 -15  -2   9    5.85    5.38
 -15   2   9    4.83    5.30
  15   2  -8   15.87   11.23
  15  -2  -8   19.16   12.57
 -15  -2   8   28.31    7.98
 -15   2   8   36.05    7.86
  15   2  -7   36.83   13.35
  15  -2  -7   32.68   22.33
 -15  -2   7   61.04    9.68
 -15   2   7   50.62    9.35
  15   2  -6    1.55    6.89
  15  -2  -6   15.80    7.44
 -15  -2   6   -0.40    8.15
 -15   2   6    4.61    4.75
  15   2  -5   20.49    8.70
  15  -2  -5   20.89    9.42
 -15  -2   5   26.42    6.53
 -15   2   5   15.33   10.28
  15   2  -4   10.08    6.49
  15  -2  -4    4.90    6.76
 -15  -2   4   13.74    4.57
 -15   2   4   -3.48    4.63
  15   2  -3  140.26   29.94
  15  -2  -3  126.29   29.85
 -15  -2   3  161.98   21.21
 -15   2   3  145.12   13.74
  15   2  -2   12.26    7.32
  15  -2  -2   13.26    7.39
 -15  -2   2   24.10    5.21
 -15   2   2   23.53    5.09
  15   2  -1    8.69    5.16
  15  -2  -1    1.83    5.30
 -15  -2   1    8.24    6.03
 -15   2   1    3.63    3.68
  15   2   0   20.06   12.21
  15  -2   0   25.06    7.61
 -15  -2   0   37.45    5.48
 -15   2   0   29.87    5.42
  15   2   1   17.05    5.51
  15  -2   1   14.93    5.61
 -15   2  -1   10.31    3.80
 -15  -2  -1   14.15    4.18
  15   2   2   21.96    6.77
  15  -2   2   24.31    6.77
  15  -2   2   30.51    5.92
 -15  -2  -2   34.93    4.90
 -15   2  -2   31.73    7.47
  15   2   3   13.66    4.56
  15  -2   3    0.59    4.45
  15  -2   3    4.33    4.33
 -15  -2  -3    6.89    3.25
 -15   2  -3    7.52    2.92
  15   2   4   17.04    5.22
  15  -2   4   15.77    5.13
  15  -2   4    8.21    5.38
 -15  -2  -4   14.71    3.82
 -15   2  -4   15.89    3.26
  15   2   5   31.47   10.27
  15  -2   5    1.52   11.38
  15  -2   5   22.77    6.29
 -15  -2  -5   48.49    5.05
 -15   2  -5   31.44    6.84
  15   2   6    0.07    5.78
  15  -2   6    5.06    4.21
 -15  -2  -6    3.61    2.78
 -15   2  -6   -0.68    2.43
  15  -2   7    5.80    4.68
  15   2   7   -1.05    5.87
 -15  -2  -7    2.42    5.67
  15  -2   8    6.12    9.26
  15   2   8    7.46    5.17
 -15  -2  -8    2.62    3.72
  15   2   9   -3.08    4.47
  15  -2   9    2.66    5.06
  15   3  -9    3.30    7.73
 -15  -3   9   10.47    9.50
 -15   3   9    4.72    6.00
  15   3  -8   39.01   12.64
  15  -3  -8   34.35   14.67
 -15  -3   8   41.23    9.16
 -15   3   8   39.60   15.32
  15   3  -7   19.98   16.04
  15  -3  -7   18.66   11.38
 -15  -3   7   28.48    7.25
 -15   3   7   12.85   11.21
  15   3  -6   -5.15    5.51
  15  -3  -6    1.32    2.00
  15  -3  -6   -2.09    6.60
 -15  -3   6    1.73    4.02
 -15   3   6   -3.10    3.82
  15   3  -5    4.19    6.96
  15  -3  -5    5.97    2.76
  15  -3  -5   15.15    8.16
 -15  -3   5   10.56    5.12
 -15   3   5    7.95    4.84
  15   3  -4   14.34    7.97
  15  -3  -4    0.96   14.14
  15  -3  -4   20.91    3.75
 -15  -3   4   26.35    5.94
 -15   3   4   20.27    5.71
  15   3  -3    9.43    5.80
  15  -3  -3   10.62    6.16
  15  -3  -3    2.03    2.84
 -15  -3   3    3.98    4.15
 -15   3   3    4.17    4.11
  15   3  -2   29.61   13.46
  15  -3  -2   19.30    8.19
  15  -3  -2   15.62    4.55
 -15  -3   2   40.83    5.80
 -15   3   2   32.80    5.91
  15   3  -1   51.01   11.00
  15  -3  -1   48.84   10.96
  15  -3  -1   55.62    6.81
 -15  -3   1   70.10    7.80
 -15   3   1   74.05    7.52
  15   3   0   15.54    6.30
  15  -3   0   20.41    6.29
  15  -3   0   11.36    4.40
 -15  -3   0   18.76    4.49
 -15   3   0   14.65    4.39
  15   3   1   -1.94    7.38
  15  -3   1    7.84    4.45
  15  -3   1    2.06    3.44
 -15  -3  -1   -0.34    5.28
 -15   3  -1    1.77    3.01
  15   3   2   24.44    5.91
  15  -3   2   18.66    8.31
  15  -3   2   14.21    5.97
 -15  -3  -2   17.01    4.36
 -15   3  -2   17.81    3.89
  15   3   3    2.31    4.00
  15  -3   3    3.99    3.63
  15  -3   3   -0.34    4.00
 -15  -3  -3   -1.62    2.89
 -15   3  -3    3.31    2.45
  15  -3   4    8.35    8.56
  15  -3   4   15.41    5.25
  15   3   4   13.43    5.30
 -15  -3  -4   17.63    3.89
 -15   3  -4   12.33    5.17
  15   3   5   15.01    4.92
  15  -3   5   12.33    5.31
  15  -3   5   10.56    4.93
 -15  -3  -5   10.18    3.62
 -15   3  -5    9.21    2.89
  15  -3   6   28.46   10.88
  15   3   6   18.52    9.30
 -15  -3  -6   26.05    7.70
  15   3   7    4.50    6.39
  15  -3   7    3.89    4.96
 -15  -3  -7    4.33    3.82
  15   3   8    4.66    4.23
  15  -3   8   14.55    5.87
 -15  -3  -8    7.99    4.25
  15  -3   9    2.09    8.69
  15   4  -9    3.92    7.91
 -15  -4   9   13.31    6.22
 -15   4   9   -2.84    6.32
  15   4  -8   11.71    7.92
 -15  -4   8   10.44    5.53
 -15   4   8   -5.21    5.56
  15   4  -7   28.95   10.80
 -15  -4   7   28.81    7.99
 -15   4   7   27.33    7.94
  15   4  -6    3.38   11.11
  15  -4  -6    0.40    3.71
  15  -4  -6    1.11    8.25
 -15  -4   6    9.92    4.81
 -15   4   6    7.62    4.93
  15   4  -5    6.20    6.63
  15  -4  -5    5.73    2.59
  15  -4  -5    8.14    8.07
 -15  -4   5    4.57    4.88
 -15   4   5   18.80    8.06
  15   4  -4   17.36    7.15
  15  -4  -4   11.94    3.18
  15  -4  -4   19.06    8.62
 -15  -4   4    9.56    5.34
 -15   4   4   14.33    5.07
  15   4  -3   16.76    7.88
  15  -4  -3   14.94    3.73
  15  -4  -3   17.09    8.87
 -15  -4   3   24.43    5.55
 -15   4   3   21.01    5.13
  15   4  -2    6.36    5.39
  15  -4  -2   -0.50    2.77
  15  -4  -2    2.47    5.82
 -15  -4   2    4.33    3.78
 -15   4   2    5.56    6.07
  15   4  -1   25.73    8.03
  15  -4  -1   20.35    4.70
  15  -4  -1   22.78    8.57
 -15  -4   1   40.25    5.76
 -15   4   1   25.38    5.52
  15   4   0    7.03    4.77
  15  -4   0    1.06    3.12
  15  -4   0    5.02    5.03
 -15  -4   0    0.15    3.38
 -15   4   0    1.31    3.09
  15   4   1   20.69    6.29
  15  -4   1   13.60    4.56
  15  -4   1    9.74    6.77
 -15  -4  -1   15.21    4.33
 -15   4  -1   16.05    6.64
  15   4   2    7.49    5.58
  15  -4   2    8.28    4.46
  15  -4   2   15.81    6.19
 -15  -4  -2   18.55    4.12
 -15   4  -2    6.88    5.87
  15   4   3   36.40    7.47
  15  -4   3   35.76   11.12
  15  -4   3   26.85    8.15
 -15  -4  -3   45.70    5.63
 -15   4  -3   34.74    7.33
  15   4   4    9.93    4.21
  15  -4   4    3.64    4.23
 -15   4  -4    1.06    2.42
 -15  -4  -4    3.58    5.24
  15  -4   5   14.49    5.35
  15   4   5   26.20    4.97
 -15  -4  -5    7.63    6.27
 -15   4  -5    4.41    2.67
  15   4   6    3.33    3.97
  15  -4   6    8.64    4.60
 -15  -4  -6   -1.38    3.23
  15  -4   7    5.79    8.70
  15   4   7   -1.18    7.29
 -15  -4  -7    7.90    3.91
  15  -4   8    3.68    6.25
  15   4   8    6.80    7.32
 -15  -4  -8   10.89    4.36
  15   4   9   20.35    9.35
  15  -4   9   30.62    8.65
 -15  -4  -9   20.44    6.44
  15   5  -9   12.52    8.31
 -15  -5   9    3.15   10.69
 -15   5   9    3.16   11.83
  15   5  -8   11.91    9.47
 -15  -5   8   21.05    7.43
 -15  -5   7   -4.41    4.93
 -15   5   7   -1.70    5.09
  15   5  -6    2.58    6.70
 -15  -5   6   -0.12    4.88
 -15   5   6    7.44    4.80
  15   5  -5   15.32    6.51
  15  -5  -5    2.61    2.38
 -15  -5   5    1.23    7.66
 -15   5   5    5.18    4.67
  15   5  -4   -2.42    5.63
  15  -5  -4   -1.76    2.40
 -15  -5   4   -3.32    4.10
 -15   5   4    0.09    3.99
  15   5  -3   10.00    6.61
  15  -5  -3    6.58    3.06
 -15  -5   3    8.82    4.61
 -15   5   3    4.67    7.10
  15   5  -2   -0.42   11.38
  15  -5  -2    8.46    3.66
 -15  -5   2   22.49    5.04
 -15   5   2   14.30    4.68
  15   5  -1    9.17    5.79
  15  -5  -1    4.48    3.34
 -15  -5   1    5.74    4.09
 -15   5   1    7.42    6.36
  15   5   0   20.46    6.19
  15  -5   0    5.97    3.86
 -15  -5   0    9.22    4.28
 -15   5   0   10.83    4.07
  15   5   1   12.37    6.46
  15  -5   1   11.89    4.83
 -15  -5  -1   24.53    7.76
 -15   5  -1   21.84    4.26
  15   5   2   14.15    5.20
  15  -5   2    5.05    4.23
 -15  -5  -2    3.94    3.88
 -15   5  -2    7.66    3.25
  15   5   3   18.88    6.45
  15  -5   3   14.28    5.67
 -15  -5  -3   11.82    4.77
 -15   5  -3   27.42    3.67
  15   5   4   15.95    9.47
  15  -5   4   17.81    9.42
 -15  -5  -4   19.66    4.60
 -15   5  -4   15.30    5.26
  15   5   5   31.74    6.66
  15  -5   5   33.19    7.26
 -15  -5  -5   24.81    5.37
  15  -5   6   -0.19    4.45
  15   5   6    2.03    3.87
 -15  -5  -6    0.46    3.18
  15   5   7   22.83    6.14
  15  -5   7   27.26    7.31
 -15  -5  -7   15.69    5.45
  15   5   8   12.81    5.52
  15  -5   8   10.21    7.17
 -15  -5  -8   17.41    5.18
  15   6  -8   -0.88   11.05
 -15  -6   8   -0.33    5.27
 -15   6   8   -2.31    5.38
  15   6  -7    3.79    7.57
 -15  -6   7   11.49    8.59
 -15   6   7    0.93    5.63
  15   6  -6   17.49    9.43
 -15  -6   6   20.51    6.77
 -15   6   6   21.33    7.04
  15   6  -5   76.52   16.00
 -15  -6   5   93.48   11.54
  15   6  -4    3.63    7.21
  15  -6  -4    5.37    2.99
 -15  -6   4   14.87    8.17
 -15   6   4   17.71    4.91
  15   6  -3   -6.68    5.27
  15  -6  -3    0.60    2.58
 -15  -6   3    0.22    3.87
 -15   6   3   -3.50    3.97
  15   6  -2    1.73    5.69
  15  -6  -2    0.01    2.85
 -15  -6   2    6.10    4.00
 -15   6   2    7.84    6.27
  15   6  -1   46.50   20.45
  15  -6  -1   62.90    7.28
 -15  -6   1   79.33    8.82
 -15   6   1   69.58    8.00
  15   6   0   19.58    7.51
  15  -6   0   23.03    4.77
 -15  -6   0   25.62    8.69
 -15   6   0    9.38    7.93
  15   6   1   32.83    8.22
  15  -6   1   24.08    5.69
 -15  -6  -1   33.69    5.86
 -15   6  -1   30.41    8.48
  15   6   2   22.46   10.35
  15  -6   2   18.25    5.14
 -15  -6  -2   17.26    4.63
 -15   6  -2   12.77    3.83
  15   6   3   15.52    6.00
  15  -6   3   15.70    5.43
 -15  -6  -3   19.72    7.85
 -15   6  -3    9.54    5.62
  15   6   4   11.27    5.18
  15  -6   4    1.47    4.88
 -15  -6  -4    7.10    6.65
 -15   6  -4    7.18    2.45
  15   6   5   19.19    5.81
  15  -6   5    9.63    5.95
 -15  -6  -5    9.78    4.44
  15   6   6   13.60    8.13
  15  -6   6    6.83    9.50
 -15  -6  -6    7.36    4.27
  15   6   7   10.49    5.28
  15  -6   7   17.79    6.69
 -15  -6  -7   10.07    4.91
  15   6   8   13.22    5.68
  15  -6   8   17.61    7.55
 -15  -6  -8   17.99    5.60
  15   7  -7   12.61    8.68
 -15  -7   7   16.61    7.11
 -15   7   7   13.11    7.01
  15   7  -6    9.21    8.06
 -15  -7   6   12.22    5.56
 -15   7   6    0.56    6.16
  15   7  -5   13.92    9.29
 -15  -7   5   15.94    6.62
 -15   7   5   27.20    6.81
  15   7  -4    9.66    6.76
  15  -7  -4    3.20    2.85
 -15  -7   4    4.65    4.82
 -15   7   4   14.02    5.27
  15   7  -3    3.13    5.89
  15  -7  -3    4.54    4.91
 -15  -7   3   -3.31    7.14
 -15   7   3    5.17    7.03
  15   7  -2    7.39    7.89
  15  -7  -2   -1.43    2.64
 -15  -7   2    2.69    3.50
 -15   7   2   -1.38    3.40
  15   7  -1    5.40    6.80
  15  -7  -1   10.11    3.92
 -15  -7   1   14.78    7.91
 -15   7   1   11.93    7.22
  15   7   0   30.35    7.61
  15  -7   0   14.07    4.89
 -15  -7   0   18.04    5.58
 -15   7   0   20.29    4.74
  15   7   1   10.14    5.54
  15  -7   1    3.22    3.96
 -15  -7  -1    6.55    4.05
 -15   7  -1    2.92    3.40
  15   7   2   60.46   11.28
  15  -7   2   59.98    8.60
 -15  -7  -2   88.12    8.33
 -15   7  -2   59.37    6.56
  15   7   3   20.14    7.60
  15  -7   3   28.56    6.61
 -15  -7  -3   36.28    5.96
 -15   7  -3   21.19    3.98
  15   7   4   10.02    5.37
  15  -7   4    8.75    5.18
 -15  -7  -4    7.17    4.43
  15   7   5    8.15    5.23
  15  -7   5    5.56    5.31
 -15  -7  -5    6.19    4.34
  15   7   6    1.26    4.75
  15  -7   6   10.22    5.39
 -15  -7  -6    1.85    6.89
  15   7   7   12.20    6.20
  15  -7   7   32.57   13.51
 -15  -7  -7   21.39    9.46
  15   8  -7   -2.53    7.80
 -15  -8   7    9.35    6.18
 -15   8   7   12.21    6.68
  15   8  -6    2.37    7.08
 -15  -8   6   -0.73    5.71
 -15   8   6   26.02    9.65
  15   8  -5   36.28   12.75
 -15  -8   5   53.90    9.09
 -15   8   5   39.22    9.25
  15   8  -4   22.10    9.04
 -15  -8   4   17.60    6.38
 -15   8   4   21.98    6.97
  15   8  -3    2.70   10.96
  15  -8  -3    5.66    3.56
 -15  -8   3    9.69    5.00
 -15   8   3    6.22    5.13
  15   8  -2   23.02    7.94
  15  -8  -2   13.52    7.27
 -15  -8   2   21.53    9.57
 -15   8   2   11.75    8.79
  15   8  -1   -8.45    5.58
  15  -8  -1   -2.14    3.20
 -15  -8   1    1.76    3.90
 -15   8   1    0.86    3.56
  15   8   0    4.05    5.04
  15  -8   0   -0.56    3.34
 -15  -8   0    1.91    6.30
 -15   8   0   -0.34    5.09
  15   8   1   43.43    8.96
  15  -8   1   19.26    6.40
 -15  -8  -1   46.94    6.42
 -15   8  -1   24.21    5.26
  15   8   2   13.50    9.77
  15  -8   2    6.85    4.55
 -15  -8  -2   12.70    4.34
 -15   8  -2    4.76    3.34
 -15   8  -2    3.11    3.40
  15   8   3   15.71    5.78
  15  -8   3    4.03    4.91
 -15  -8  -3   10.03    7.16
 -15   8  -3    8.62    4.68
 -15   8  -3    5.43    3.00
  15   8   4   -4.34    4.91
  15  -8   4    4.52    4.77
 -15  -8  -4    6.06    4.03
  15   8   5    6.11    5.18
  15  -8   5    5.86    5.28
 -15  -8  -5    1.62    4.28
  15   8   6   19.88   10.86
  15  -8   6   21.52    7.54
 -15  -8  -6   14.56    5.67
 -15  -9   6    4.96    9.72
 -15   9   6    6.45    6.18
  15   9  -5   17.73   10.16
 -15  -9   5   15.31    7.36
 -15   9   5   24.50    7.95
  15   9  -4    8.04   13.18
 -15  -9   4    2.33    5.57
 -15   9   4   30.29   10.01
  15   9  -3    3.92    7.29
  15  -9  -3    6.19    3.82
 -15  -9   3   12.84    8.86
 -15   9   3   11.07    5.42
  15   9  -2   19.79    8.70
  15  -9  -2   10.75    8.57
 -15  -9   2   29.44    6.52
 -15   9   2   19.15    6.40
  15   9  -1   -1.97    5.82
  15  -9  -1   -6.21    3.77
 -15  -9   1   -7.43    7.43
 -15   9   1   -1.16    3.93
 -15   9   1   -0.62    6.45
  15   9   0   13.37    7.56
  15  -9   0   17.42    5.09
 -15  -9   0   10.97    5.51
 -15   9   0   12.37    4.65
 -15   9   0   14.02    4.63
  15   9   1    6.56    9.39
  15  -9   1    3.50    3.80
 -15  -9  -1    3.57    6.89
 -15   9  -1   -2.53    5.44
 -15   9  -1    2.32    3.33
  15   9   2   35.76    8.75
  15  -9   2   22.53    7.19
 -15  -9  -2   47.89    6.51
 -15   9  -2   24.93    5.09
 -15   9  -2   20.71    4.99
  15   9   3   18.88    8.17
  15  -9   3   15.30   11.65
 -15  -9  -3   31.65    6.23
  15   9   4   12.61    6.04
  15  -9   4    1.84    9.21
 -15  -9  -4    2.54    8.05
  15   9   5   14.34    6.65
  15  -9   5    9.25   11.79
 -15  -9  -5   16.54    5.74
  15  10  -4    3.74    7.04
 -15 -10   4   -1.52    5.28
 -15  10   4    9.60    5.40
 -15  10   4   -0.26    4.63
  15  10  -3   17.92   10.26
 -15 -10   3   22.35    7.82
 -15  10   3   33.48    7.63
 -15  10   3   18.49    6.68
  15  10  -2    6.05   12.30
  15 -10  -2    6.28    4.83
 -15  10   2   17.01    5.54
 -15  10   2    5.67    7.52
  15  10  -1   -0.32    5.62
  15 -10  -1    0.75    3.77
 -15 -10   1   -1.02    4.28
 -15  10   1    3.14    3.44
 -15  10   1    1.34    3.89
  15  10   0   -2.78    6.50
  15 -10   0    6.05    4.49
 -15 -10   0   -0.79    7.68
 -15  10   0    7.89    3.98
 -15  10   0    4.47    3.85
  15  10   1    3.30    6.06
  15 -10   1    6.35    4.29
 -15 -10  -1    1.11    4.53
 -15  10  -1    5.70    3.66
 -15  10  -1    1.23    3.79
  15  10   2    9.84    6.48
  15 -10   2    3.30    8.53
 -15 -10  -2   13.75    4.88
 -15  10  -2    4.77    3.63
 -15  10  -2    4.26    3.41
  15  10   3   -2.04    5.54
  15 -10   3   -3.40    4.85
 -15 -10  -3    8.82    4.21
  15  10   4    4.66    5.00
  15 -10   4    0.08    4.73
 -15 -10  -4   -4.06    3.92
  15  11  -1   23.23    8.51
  15 -11  -1   13.37    5.76
 -15 -11   1    6.79   10.68
 -15  11   1   17.46    5.05
 -15  11   1    5.25    5.71
  15  11   0    8.59    7.17
  15 -11   0   13.05    5.18
 -15 -11   0   15.90    6.05
 -15  11   0    2.42    4.67
 -15  11   0    7.90    4.97
  15  11   1   -2.29    6.41
  15 -11   1   10.63    7.35
 -15 -11  -1    2.55    7.89
 -15  11  -1    2.58    3.54
 -15  11  -1   -0.49    3.48
  16   0  -8    9.78    9.80
 -16   0   8    8.39    7.10
  16   0  -7    0.85    7.81
 -16   0   7    7.37    8.71
  16   0  -6   25.40   14.14
 -16   0   6   58.16    9.15
  16   0  -5   47.87   16.73
 -16   0   5   90.06   11.52
  16   0  -4   18.56   12.05
 -16   0   4    3.25    8.36
  16   0  -3   -2.65    5.87
 -16   0   3    4.21    4.06
  16   0  -2   15.44    7.53
 -16   0   2   16.79    5.36
  16   0  -1   -4.54    5.28
 -16   0   1    5.57    3.67
  16   0   0   26.31   13.96
 -16   0   0   38.81   10.06
  16   0   1   17.51   11.30
 -16   0  -1   22.76    5.01
  16   0   2    3.82    4.62
 -16   0  -2    2.68    3.28
  16   0   3   36.80    9.31
 -16   0  -3   71.54    6.63
  16   0   4   15.30    5.44
 -16   0  -4   12.74    3.89
  16   0   5   14.96    5.65
 -16   0  -5   28.02    4.79
  16   0   6    2.92    4.15
  16   0   6   14.57    5.43
 -16   0  -6    5.28    3.58
  16   0   7    8.45    6.15
  16   0   8    5.63    9.90
  16   1  -8    7.10    9.03
  16  -1  -8   20.22    9.10
 -16  -1   8    6.67    6.22
 -16   1   8   -4.76    6.53
  16   1  -7   13.24   10.29
  16  -1  -7   13.86   10.16
 -16  -1   7   15.07    6.88
 -16   1   7   17.56    6.96
  16   1  -6   27.09   16.69
  16  -1  -6   33.44   11.19
 -16  -1   6   20.18    7.30
 -16   1   6   20.98    7.40
  16   1  -5    7.12    7.50
  16  -1  -5   12.50   12.32
 -16  -1   5    4.16    5.01
 -16   1   5    3.02    8.23
  16   1  -4    9.42   10.54
  16  -1  -4   38.88   10.82
 -16  -1   4   22.07    7.29
 -16   1   4   45.45    7.06
  16   1  -3   34.50   15.56
  16  -1  -3   20.49    9.52
 -16  -1   3   32.80    6.64
 -16   1   3   19.86    6.33
  16   1  -2   16.40    8.49
  16  -1  -2    1.08    8.58
 -16  -1   2   28.37    5.80
 -16   1   2   31.75    6.22
  16   1  -1    6.99    6.05
  16  -1  -1   14.15   10.47
 -16  -1   1    8.51    4.57
 -16   1   1    6.05    4.35
  16   1   0    6.27    5.41
  16  -1   0    3.89    8.49
 -16  -1   0    6.92    3.77
 -16   1   0    0.88    3.68
  16   1   1    6.38    8.99
  16  -1   1    5.79    5.20
 -16   1  -1    7.58    3.67
 -16  -1  -1    6.21    3.86
  16   1   2   27.45   11.90
  16  -1   2   30.80    7.43
 -16  -1  -2   26.59    8.68
 -16   1  -2   34.38    8.53
  16  -1   3    8.62    5.95
  16   1   3   16.93    5.97
 -16  -1  -3   12.35    7.15
 -16   1  -3   30.29    6.65
  16  -1   4    8.28    4.71
  16  -1   4   14.35    5.25
  16   1   4    5.76    5.09
 -16   1  -4    9.19    3.42
 -16  -1  -4    6.99    6.02
  16   1   5    9.78    4.88
  16  -1   5    6.71    7.57
  16  -1   5   12.39    5.59
 -16  -1  -5    7.36    3.72
 -16   1  -5    9.89    3.45
  16   1   6    7.61    4.34
  16  -1   6   15.39    5.86
 -16  -1  -6   10.57    4.18
  16   1   7    5.12    5.52
  16  -1   7    1.37    5.38
  16   1   8   23.17    9.10
  16  -1   8   32.59    8.77
  16   2  -8    3.54    8.81
  16  -2  -8    6.66    9.49
 -16  -2   8    1.79    9.97
 -16   2   8    2.46    9.81
  16   2  -7   10.62   10.83
  16  -2  -7   10.32   20.66
 -16  -2   7   30.24    7.43
 -16   2   7   11.38   12.30
  16   2  -6   10.14   11.18
  16  -2  -6   41.81   11.76
 -16  -2   6   28.16    7.86
 -16   2   6   30.25    8.06
  16   2  -5    8.22   15.11
  16  -2  -5   11.75    9.29
 -16  -2   5    4.34    6.38
 -16   2   5   28.23    6.29
  16   2  -4    7.52    7.04
  16  -2  -4    1.65    7.24
 -16   2   4    5.84    4.81
  16   2  -3   20.24    7.64
  16  -2  -3    3.17    8.02
 -16  -2   3   14.69    5.20
 -16   2   3   10.46    5.19
  16   2  -2    5.65    5.51
  16  -2  -2    1.43    9.13
 -16  -2   2   -0.64    3.76
 -16   2   2    0.71    3.79
  16   2  -1   -2.82    5.39
  16  -2  -1   12.01    5.56
 -16  -2   1    3.58    3.80
 -16   2   1    1.27    3.81
  16   2   0   14.03    6.53
  16  -2   0    8.76    6.68
 -16  -2   0   25.19    7.97
 -16   2   0    8.10    7.51
  16   2   1   13.68    6.32
  16  -2   1    6.66    6.26
  16  -2   1   13.19    4.83
 -16  -2  -1   14.54    4.42
 -16   2  -1   13.70    4.29
  16   2   2    1.19    4.56
  16  -2   2   -3.14    4.59
  16  -2   2    4.76    3.80
 -16  -2  -2    1.78    3.19
 -16   2  -2    3.35    3.04
  16   2   3   14.91   10.06
  16  -2   3   19.99    5.61
  16  -2   3    9.75    6.01
 -16  -2  -3   18.62    4.43
 -16   2  -3   16.98    3.98
  16   2   4   14.05    5.27
  16  -2   4    9.31    8.34
  16  -2   4   10.43    8.54
 -16  -2  -4    8.85    3.81
 -16   2  -4    7.82    3.50
  16   2   5    7.43    4.19
  16  -2   5   -1.76    4.12
  16  -2   5    6.57    4.38
 -16  -2  -5    2.11    3.16
 -16   2  -5    0.20    2.71
  16   2   6   15.32    5.70
  16  -2   6   22.32    6.39
 -16  -2  -6   16.16    4.86
  16   2   7    1.18    3.35
  16  -2   7    2.53    5.04
 -16  -2  -7    1.97    5.98
  16   3  -7    1.60    7.92
  16  -3  -7    2.24    9.46
 -16  -3   7   -0.22    5.32
 -16   3   7    6.43    5.21
  16   3  -6    4.39    6.90
  16  -3  -6    9.85    8.26
 -16  -3   6    1.50    8.32
 -16   3   6    0.10    4.75
  16   3  -5    0.82    6.70
  16  -3  -5    2.29    2.90
  16  -3  -5   11.53    8.01
 -16  -3   5    2.25    4.80
 -16   3   5   13.17    7.83
  16   3  -4   44.40   11.32
  16  -3  -4   27.88    5.06
  16  -3  -4   36.80   12.61
 -16  -3   4   38.91    7.72
 -16   3   4   41.67    7.59
  16   3  -3   40.87    9.75
  16  -3  -3   29.74   16.44
  16  -3  -3   24.54    4.99
 -16  -3   3   42.45   11.41
 -16   3   3   29.92    7.38
  16   3  -2   16.66    6.53
  16  -3  -2   -5.61    6.74
  16  -3  -2    0.56    3.54
 -16  -3   2   16.42    4.69
 -16   3   2   12.30    4.68
  16   3  -1    9.44    6.23
  16  -3  -1    4.59    6.15
  16  -3  -1    2.89    3.82
 -16  -3   1   21.87    7.23
 -16   3   1    7.08    4.24
  16   3   0   20.56   10.06
  16  -3   0    3.54    6.20
  16  -3   0    2.86    4.16
 -16  -3   0   12.46    4.34
 -16   3   0   11.75    4.19
  16   3   1    0.94    5.09
  16  -3   1   -2.54    5.03
  16  -3   1    3.88    6.31
 -16  -3  -1    2.91    3.78
 -16   3  -1    6.78    3.34
  16   3   2   10.31    4.73
  16  -3   2    2.95    4.59
  16  -3   2   -2.15    3.68
 -16  -3  -2    0.78    5.35
 -16   3  -2   -3.00    4.75
  16  -3   3   15.14   11.79
  16   3   3   21.24    7.35
  16  -3   3   29.45    6.45
 -16  -3  -3   31.08    8.51
 -16   3  -3   28.06    7.78
  16  -3   4    3.30    4.83
  16  -3   4    1.72    4.28
  16   3   4    3.38    7.48
 -16  -3  -4    4.90    3.27
 -16   3  -4    0.79    2.59
  16  -3   5    0.67    4.22
  16   3   5    1.51    3.97
 -16  -3  -5   -0.20    3.04
  16   3   6    5.04    4.88
  16  -3   6    9.74    5.56
 -16  -3  -6    3.71    6.22
  16   3   7   18.46    6.47
  16  -3   7   29.49    7.89
 -16  -3  -7   25.95    6.07
  16   4  -7    1.10    8.47
 -16  -4   7   12.42    6.08
 -16   4   7    1.30    5.52
  16   4  -6    7.93    8.07
 -16  -4   6   10.00    5.64
 -16   4   6    5.34    5.45
  16  -4  -5    1.46    4.07
  16  -4  -5    6.62    7.27
 -16  -4   5    1.05    4.30
 -16   4   5   -2.84    4.14
  16   4  -4    3.13    5.75
  16  -4  -4   -1.94    2.56
  16  -4  -4   -3.16    6.61
 -16  -4   4    1.91    4.01
 -16   4   4    0.39    3.86
  16   4  -3    3.19    6.27
  16  -4  -3   -1.00    3.01
  16  -4  -3   18.33    6.96
 -16  -4   3   -1.76    4.36
 -16   4   3   10.03    4.51
  16   4  -2   31.99   13.15
  16  -4  -2   13.48    4.32
  16  -4  -2   24.02    8.91
 -16  -4   2   19.72    9.34
 -16   4   2   17.12    5.79
  16   4  -1   24.01    8.17
  16  -4  -1   11.84    4.66
  16  -4  -1    9.85    8.66
 -16  -4   1   28.36    5.67
 -16   4   1   25.44    5.32
  16   4   0   25.06    6.77
  16  -4   0    9.51    4.32
  16  -4   0    5.22    7.24
 -16  -4   0   12.20    4.64
 -16   4   0    6.86    4.45
  16   4   1   10.14   10.71
  16  -4   1   10.78    4.66
  16  -4   1   -0.90    7.03
 -16  -4  -1   18.34    4.76
 -16   4  -1   10.64    4.13
  16   4   2   14.75    7.12
  16  -4   2    6.03    9.02
  16  -4   2    6.94    7.78
 -16  -4  -2   21.44    5.27
 -16   4  -2   27.22    4.31
  16   4   3    9.59    4.35
  16  -4   3   -2.62    3.74
 -16  -4  -3    0.11    3.07
 -16   4  -3   -1.23    2.49
  16   4   4    2.14    4.76
  16  -4   4    3.56    4.55
 -16  -4  -4    4.39    3.60
 -16   4  -4    2.78    4.27
  16   4   5   39.76    9.14
  16  -4   5   48.16    9.44
 -16  -4  -5   56.37    7.01
  16   4   6    7.69    7.50
  16  -4   6    3.38    5.15
 -16  -4  -6    2.48    3.71
  16   4   7   -2.58    6.94
  16  -4   7    1.97    8.44
 -16  -4  -7    2.46    3.83
  16   5  -7    7.55    8.39
 -16  -5   7   -5.16    6.13
 -16   5   7   11.83    5.75
  16   5  -6    3.56   16.81
 -16  -5   6    8.89   12.83
 -16   5   6   28.65    7.38
  16   5  -5   10.91    9.92
 -16  -5   5   17.37    6.91
 -16   5   5   28.97    6.57
  16   5  -4    1.75    5.85
  16  -5  -4    0.05    4.26
 -16  -5   4    1.89    4.18
 -16   5   4   -4.20    4.17
  16   5  -3   24.05    7.47
  16  -5  -3    7.00    3.57
 -16  -5   3    5.48    8.55
 -16   5   3    6.68    5.11
  16   5  -2   53.41   11.12
  16  -5  -2   34.03    5.82
 -16  -5   2   45.30    7.83
 -16   5   2   39.32    7.59
  16   5  -1   16.61   13.45
  16  -5  -1   17.80    4.60
 -16  -5   1   24.43    9.32
 -16   5   1   17.35    5.37
  16   5   0   19.93    6.18
  16  -5   0   -1.33    3.85
 -16  -5   0   11.37    4.18
 -16   5   0    2.96    3.89
  16   5   1   17.53    7.11
  16  -5   1   15.22    5.10
 -16  -5  -1   13.53    4.97
 -16   5  -1   14.46    7.26
  16   5   2   14.14    5.51
  16  -5   2    2.78    4.25
 -16  -5  -2   -6.70    6.85
  16   5   3   -2.04    5.48
  16  -5   3   10.55    4.70
 -16  -5  -3    5.78    4.11
 -16   5  -3    6.92    5.28
  16   5   4   35.55    8.41
  16  -5   4   14.15   12.86
 -16  -5  -4   40.45    6.51
  16   5   5   25.39    7.45
  16  -5   5   25.59    7.65
 -16  -5  -5   30.34    6.04
  16   5   6    7.95    5.82
  16  -5   6    3.42    6.36
 -16  -5  -6   18.44    4.82
  16   6  -6   -8.24    7.07
 -16  -6   6   -2.22    5.32
 -16   6   6    1.34    5.03
  16   6  -5   -0.34   11.29
 -16  -6   5   -1.22    4.65
 -16   6   5    4.45    4.59
  16   6  -4   -3.47    6.83
  16  -6  -4    3.20    3.01
 -16  -6   4    6.61    4.89
 -16   6   4   12.01    8.31
  16   6  -3    5.45    8.43
  16  -6  -3    4.76    6.72
 -16  -6   3   18.16    5.99
 -16   6   3   27.07    5.89
  16   6  -2    6.87   11.70
  16  -6  -2    4.74    3.70
 -16  -6   2    4.01    8.30
 -16   6   2   15.73    4.85
  16   6  -1    1.21    6.66
  16  -6  -1    9.34    3.78
 -16  -6   1    2.54    4.56
 -16   6   1    7.21    4.34
  16   6   0   23.11    7.48
  16  -6   0    1.94    4.60
 -16  -6   0   20.10    5.19
 -16   6   0   14.43    4.73
  16   6   1    2.23   11.16
  16  -6   1    8.01    4.67
 -16  -6  -1    7.59    4.92
 -16   6  -1   16.04    4.02
  16   6   2   12.47    6.78
  16  -6   2   11.46    5.30
 -16  -6  -2   20.19    5.11
 -16   6  -2    8.78    4.14
  16   6   3    2.46    4.84
  16  -6   3   -0.97    4.11
 -16  -6  -3    3.27    3.71
 -16   6  -3   -3.44    2.52
  16   6   4    0.58    8.28
  16  -6   4    2.83    4.47
 -16  -6  -4    0.31    6.24
  16   6   5   20.42    6.83
  16  -6   5   24.80   11.40
 -16  -6  -5   18.15    5.64
  16   6   6    9.79    5.89
  16  -6   6    5.72    6.69
 -16  -6  -6   15.56    4.96
  16   7  -5   -3.27    6.66
 -16  -7   5    7.12    4.50
 -16   7   5   -5.59    4.72
  16   7  -4    7.62    9.06
 -16  -7   4   14.73    6.18
 -16   7   4   13.99    6.27
  16   7  -3    8.91    8.38
  16  -7  -3    6.94    4.01
 -16  -7   3   14.19    5.77
 -16   7   3   20.71    5.80
  16   7  -2    2.54    6.44
  16  -7  -2    1.85    3.33
 -16  -7   2    6.55    4.43
 -16   7   2   -0.83    4.09
  16   7  -1   12.38    8.91
  16  -7  -1   18.71    4.88
 -16  -7   1   33.33    6.20
 -16   7   1    9.24    5.34
  16   7   0   21.88    8.14
  16  -7   0    8.52    5.13
 -16  -7   0   25.78    5.78
 -16   7   0   16.97    5.11
  16   7   1   29.71    8.77
  16  -7   1   16.18    5.52
 -16  -7  -1   32.49    6.20
 -16   7  -1   25.50    8.82
  16   7   2    3.93    5.29
  16  -7   2   -0.56    3.90
 -16  -7  -2    2.26    3.80
 -16   7  -2    0.06    5.08
  16   7   3   26.54    7.58
  16  -7   3   19.40    6.55
 -16  -7  -3   19.19    6.12
  16   7   4   10.37    5.68
  16  -7   4    3.95    5.25
 -16  -7  -4    2.99    4.53
  16   7   5    7.35    7.03
  16  -7   5    9.24    6.82
 -16  -7  -5   25.64    5.63
  16   8  -4   10.43    8.74
 -16  -8   4    9.62    6.52
 -16   8   4   13.57   10.15
  16   8  -3   28.06   10.71
 -16  -8   3   22.89    7.58
 -16   8   3   29.74    7.32
  16   8  -2    2.75    7.03
  16  -8  -2    3.42    6.15
 -16  -8   2    6.42    4.92
 -16   8   2    3.06    4.68
  16   8  -1    4.35    6.87
  16  -8  -1    3.14    3.98
 -16  -8   1    4.91    4.84
 -16   8   1    7.25    4.15
  16   8   0   13.58    7.76
  16  -8   0   10.71    4.66
 -16  -8   0   13.36    5.45
 -16   8   0   12.11    7.46
  16   8   1   42.00   16.59
  16  -8   1   33.19    6.49
 -16  -8  -1   41.27    7.21
 -16   8  -1   25.86    6.30
  16   8   2   23.86    7.84
  16  -8   2   13.54    6.02
 -16  -8  -2   30.46    5.81
 -16   8  -2   17.19    4.34
 -16   8  -2    6.27    4.59
  16   8   3   10.63    5.02
  16  -8   3   -4.39    4.17
 -16  -8  -3   -6.40    6.60
 -16  -8  -4   -3.91    4.47
 -16  -9   2    6.59    5.87
  16   9  -1   28.07   10.69
  16  -9  -1   24.55    6.15
 -16  -9   1   26.27    6.99
 -16   9   1   24.95    5.70
 -16   9   1   15.18    6.47
  16   9   0   11.07   11.13
  16  -9   0    5.08    3.80
 -16  -9   0   -2.78    4.34
 -16   9   0   -1.85    3.72
 -16   9   0    2.62    3.45
  16   9   1   12.04    7.99
  16  -9   1    7.08    5.09
 -16  -9  -1   11.94    5.46
 -16   9  -1   13.71    4.60
 -16   9  -1    4.35    7.42
 -17   0   6    1.13    4.93
  17   0  -5   15.20    9.65
 -17   0   5    8.99   10.59
  17   0  -4   17.99    8.57
 -17   0   4    5.31    5.66
  17   0  -3    0.27   12.75
 -17   0   3    7.46    5.12
  17   0  -2   11.49    7.31
 -17   0   2    7.64    5.22
  17   0  -1    6.81    6.88
 -17   0   1    9.35    5.08
  17   0   0   14.83    7.90
 -17   0   0   19.76    5.60
  17   0   1   11.48    6.76
 -17   0  -1   14.73    4.87
  17   0   2   -3.88    4.82
 -17   0  -2    2.76    5.36
  17   0   3   -1.34    4.53
 -17   0  -3    1.27    3.08
  17   0   4    6.67    5.54
 -17   0  -4   21.39    7.38
  17   0   5   21.09    7.35
  17   0   5   13.45    5.65
 -17   0  -5    8.56    7.73
  17   1  -5   44.70   24.53
  17  -1  -5   40.81   16.02
 -17  -1   5   56.69   10.65
 -17   1   5   64.56   10.15
  17   1  -4   -6.15    6.41
  17  -1  -4    3.96   10.64
 -17  -1   4   27.70    7.15
 -17   1   4   -6.89    4.29
  17   1  -3    1.18    8.73
  17  -1  -3   21.53    8.59
 -17  -1   3   16.99    5.69
 -17   1   3   11.99    5.67
  17   1  -2   13.23    8.84
  17  -1  -2   16.84    8.82
 -17  -1   2   22.58    6.06
 -17   1   2   18.30    6.41
  17   1  -1   21.21   15.64
  17  -1  -1   14.35    9.80
 -17  -1   1   33.38    7.06
 -17   1   1   38.94    7.00
  17   1   0   -3.95    5.25
  17  -1   0    4.25    5.43
 -17  -1   0   -6.66    6.30
 -17   1   0   10.31    6.13
  17  -1   1    7.85    5.67
  17   1   1   15.53    5.80
 -17  -1  -1   -0.53    4.11
 -17   1  -1    2.08    3.82
  17   1   2   -2.37    6.03
  17  -1   2    7.17    6.21
 -17  -1  -2   10.80    4.29
 -17   1  -2   13.16    4.09
  17  -1   3    3.66    6.13
  17  -1   3   19.08    5.78
  17   1   3   12.12    6.42
 -17  -1  -3   11.82    4.54
 -17   1  -3   15.09    4.19
  17   1   4   -2.66    4.73
  17  -1   4    8.15    4.61
  17  -1   4    2.27    4.64
 -17  -1  -4    1.71    3.30
 -17   1  -4    1.40    3.41
  17  -1   5   26.41    7.64
  17   1   5   10.31    5.65
 -17  -1  -5   24.07    5.22
 -17   1  -5   10.99    4.54
  17   2  -5   12.50   11.99
  17  -2  -5   29.68   11.53
 -17  -2   5   11.98   12.24
 -17   2   5   39.75   12.07
  17   2  -4   27.67    8.90
  17  -2  -4   -1.16    9.22
 -17  -2   4   10.09    6.02
 -17   2   4   13.79    5.91
  17   2  -3   -8.81    6.37
  17  -2  -3   15.76    6.59
 -17  -2   3   -9.05    4.33
 -17   2   3    2.62    4.46
  17   2  -2    5.99    7.30
  17  -2  -2   10.03    7.42
 -17  -2   2    6.52    4.89
 -17   2   2    6.34    5.07
  17   2  -1    5.87    5.28
  17  -2  -1    3.81    5.41
  17  -2  -1    3.31    3.21
 -17  -2   1   -2.45    3.80
 -17   2   1   -7.04    3.76
  17   2   0   25.85   11.61
  17  -2   0   16.96    6.96
  17  -2   0    5.53    4.68
 -17  -2   0   15.79    5.06
 -17   2   0    4.24    4.77
  17   2   1    1.94    5.83
  17  -2   1    3.58    9.79
  17  -2   1    5.39    4.46
 -17  -2  -1   19.44    7.16
 -17   2  -1    3.15    3.93
  17  -2   2   12.48    7.36
  17  -2   2   21.55    6.08
  17   2   2   19.02    7.28
 -17  -2  -2   21.51    5.43
 -17   2  -2   20.00    7.85
  17   2   3   30.82    7.99
  17  -2   3   13.29    8.11
  17  -2   3   27.40    7.20
 -17  -2  -3   43.49    6.01
 -17   2  -3   14.35    9.03
  17  -2   4    1.61    5.18
  17   2   4   19.60    5.13
  17  -2   4    0.80    5.01
 -17  -2  -4    3.05    3.75
 -17   2  -4    2.57    3.48
  17   2   5    7.72    5.93
  17  -2   5   10.49    6.87
 -17  -2  -5   13.82    4.87
  17   3  -5   -2.07    8.86
  17  -3  -5    1.44    5.50
  17  -3  -5   15.45    9.23
 -17  -3   5   -2.12    5.48
 -17   3   5   16.47    5.42
  17   3  -4    2.79    8.18
  17  -3  -4    2.99    6.14
  17  -3  -4   18.41    8.89
 -17  -3   4    4.98    9.04
 -17   3   4   10.12    9.58
  17   3  -3   42.61    9.13
  17  -3  -3   11.14    7.42
  17  -3  -3   20.65   10.12
 -17  -3   3    7.32    6.14
 -17   3   3   15.01    6.40
  17   3  -2   20.02   14.25
  17  -3  -2   22.56    7.85
  17  -3  -2   -0.25   16.07
 -17  -3   2   20.83    6.05
 -17   3   2   12.19    6.21
  17   3  -1   10.63    7.20
  17  -3  -1    3.45    6.54
  17  -3  -1   25.92   13.34
 -17  -3   1   10.91    4.99
 -17   3   1    9.84    5.02
  17   3   0    3.83    6.46
  17  -3   0    6.65    6.89
  17  -3   0    5.08   11.54
 -17  -3   0    1.50    7.87
 -17   3   0   14.58    7.31
  17   3   1   15.26    7.62
  17  -3   1    9.12    5.32
  17  -3   1   12.50   13.31
 -17  -3  -1   26.35    5.50
 -17   3  -1   13.33    4.79
  17   3   2   13.42   10.42
  17  -3   2    7.09    4.91
  17  -3   2    9.16    6.84
 -17  -3  -2   15.05    4.63
 -17   3  -2    2.73    3.86
  17   3   3    0.42    5.49
  17  -3   3    4.08    4.64
  17  -3   3    7.97    5.96
 -17  -3  -3    7.40    4.09
 -17   3  -3    2.64    3.55
  17   3   4    7.99    6.09
  17  -3   4    9.34    5.68
 -17  -3  -4   21.09    7.69
 -17   3  -4    8.00    3.69
  17   3   5    7.97    5.60
  17  -3   5    1.17   10.80
 -17  -3  -5    8.83    7.00
  17   4  -4   12.92   17.74
  17  -4  -4   15.67    7.34
  17  -4  -4   -1.01   10.98
 -17  -4   4   24.06    6.78
 -17   4   4   21.32    7.10
  17   4  -3   18.39    6.79
  17  -4  -3   -0.26    5.59
  17  -4  -3    2.81    7.45
 -17  -4   3    0.08    4.76
 -17   4   3   -1.59    4.83
  17   4  -2   40.40   11.39
  17  -4  -2   36.39    9.86
  17  -4  -2   27.97   12.33
 -17  -4   2   34.57    7.95
 -17   4   2   41.21    7.91
  17   4  -1   11.03    8.45
  17  -4  -1   12.95    7.15
  17  -4  -1   15.31    8.61
 -17  -4   1   19.88    5.67
 -17   4   1   13.44    5.61
  17   4   0   22.30    7.57
  17  -4   0   14.84    8.14
  17  -4   0    3.08    8.07
 -17  -4   0   10.44    5.50
 -17   4   0   13.93    5.02
  17   4   1   11.39    6.34
  17  -4   1   -1.45    7.29
  17  -4   1   -4.77    6.83
 -17  -4  -1   13.86    7.68
 -17   4  -1    6.82    3.85
  17   4   2    9.98    7.59
  17  -4   2   13.81    5.77
 -17  -4  -2   22.65    5.50
 -17   4  -2   11.08    7.59
  17   4   3    6.43    5.35
  17  -4   3    6.91    4.49
 -17  -4  -3   -4.88    3.92
 -17   4  -3    3.30    3.19
  17   4   4   13.97   10.82
  17  -4   4   10.30    6.21
 -17  -4  -4   16.78    5.26
 -17  -5   4    6.53    9.74
  17   5  -3   10.65   10.34
  17  -5  -3    3.55    7.79
 -17  -5   3   11.48    6.59
 -17   5   3   36.74    6.61
  17   5  -2   21.93    8.39
  17  -5  -2    5.58    7.07
 -17  -5   2    9.38    5.84
 -17   5   2   12.75    5.77
  17   5  -1   20.80    7.74
  17  -5  -1   12.18    4.04
 -17  -5   1    9.61    5.23
 -17   5   1    1.31    5.06
  17   5   0   21.61    7.72
  17  -5   0   11.39    4.44
 -17  -5   0    7.35    5.25
 -17   5   0   12.01    7.98
  17   5   1   20.01    9.71
  17  -5   1   -4.76    3.94
 -17  -5  -1   -2.37    4.31
 -17   5  -1   -1.90    3.56
  17   5   2  -10.81    5.90
  17  -5   2    7.98    7.40
 -17  -5  -2   13.97    4.37
 -17   5  -2    0.48    3.59
  17   5   3    8.13    5.53
  17  -5   3   -3.07    7.65
 -17  -5  -3   -2.14    6.68
  17   6  -2   20.76   10.07
  17  -6  -2   10.44    8.08
 -17  -6   2   20.90    6.27
 -17   6   2   12.49    6.35
  17   6  -1   24.67    8.01
  17  -6  -1    6.36    4.09
 -17  -6   1    5.43    5.33
 -17   6   1    8.76    8.47
  17   6   0   42.78   10.78
  17  -6   0   30.17    6.29
 -17  -6   0   38.97    7.64
 -17   6   0   30.98    6.65
  17   6   1   13.74    7.82
  17  -6   1    8.12    4.89
 -17  -6  -1   34.36    9.79
 -17   6  -1   13.47    5.03
  17   6   2   19.44    5.99
  17  -6   2   -1.28    4.44
 -17  -6  -2   -0.46    4.38
 -17   6  -2    0.56    3.38
   0   0   0    0.00    0.00
;
_shelx_hkl_checksum              44699
loop_
_space_group_symop_operation_xyz
'x, y, z'
'-x, y+1/2, -z'
loop_
_atom_site_label
_atom_site_type_symbol
_atom_site_fract_x
_atom_site_fract_y
_atom_site_fract_z
_atom_site_U_iso_or_equiv
_atom_site_adp_type
_atom_site_occupancy
_atom_site_site_symmetry_order
_atom_site_calc_flag
_atom_site_refinement_flags_posn
_atom_site_refinement_flags_adp
Ca1 Ca 0.12361(8) 0.80215(6) 0.26282(7) 0.0330(2) Uani 1 1 d . .
Ca2 Ca 0.61439(7) 0.21089(6) 0.25578(7) 0.0293(2) Uani 1 1 d . .
S1 S 0.12873(9) 0.63036(9) 0.47056(9) 0.0358(3) Uani 1 1 d . .
S2 S -0.00560(9) 0.13099(8) 0.10499(8) 0.0321(3) Uani 1 1 d . .
S3 S 0.62863(10) 0.38137(8) 0.46753(9) 0.0365(3) Uani 1 1 d . .
S4 S 0.56140(9) 0.33973(8) 0.08377(8) 0.0321(3) Uani 1 1 d . .
O1 O 0.2329(3) 0.6417(3) 0.4582(3) 0.0465(10) Uani 1 1 d . .
O2 O 0.0973(3) 0.6392(3) 0.5680(2) 0.0452(10) Uani 1 1 d . .
O3 O 0.1163(3) 0.6797(2) 0.1593(3) 0.0466(10) Uani 1 1 d . .
H3A H 0.0712 0.6550 0.1284 0.070 Uiso 1 1 d R U
H3B H 0.1699 0.6728 0.1313 0.070 Uiso 1 1 d R U
O4 O 0.2806(3) 0.7499(3) 0.3138(3) 0.0488(10) Uani 1 1 d . .
H4A H 0.2711 0.7097 0.3534 0.073 Uiso 1 1 d R U
H4B H 0.3220 0.7852 0.3353 0.073 Uiso 1 1 d R U
O5 O 0.2143(3) 0.8602(3) 0.1319(3) 0.0601(12) Uani 1 1 d . .
H5A H 0.1897 0.8942 0.0912 0.090 Uiso 1 1 d R U
H5B H 0.2740 0.8526 0.1214 0.090 Uiso 1 1 d R U
O6 O 0.1571(3) 0.9028(2) 0.3815(3) 0.0551(12) Uani 1 1 d . .
H6A H 0.1377 0.9541 0.3738 0.083 Uiso 1 1 d R U
H6B H 0.1824 0.8958 0.4361 0.083 Uiso 1 1 d R U
O7 O 0.0265(3) 0.9170(2) 0.2126(3) 0.0453(10) Uani 1 1 d . .
H7A H -0.0257 0.9336 0.2380 0.068 Uiso 1 1 d R U
H7B H 0.0498 0.9557 0.1770 0.068 Uiso 1 1 d R U
O8 O -0.0966(2) 0.1327(2) 0.0526(2) 0.0383(8) Uani 1 1 d . .
O9 O -0.0161(3) 0.1290(2) 0.2079(2) 0.0424(9) Uani 1 1 d . .
O10 O 0.6040(3) 0.3422(2) -0.0101(2) 0.0424(8) Uani 1 1 d . .
O11 O 0.6305(2) 0.3441(2) 0.1620(2) 0.0380(8) Uani 1 1 d . .
O12 O 0.7317(3) 0.3709(3) 0.4525(3) 0.0493(10) Uani 1 1 d . .
O13 O 0.6010(3) 0.3729(2) 0.5661(2) 0.0459(10) Uani 1 1 d . .
O14 O 0.7737(3) 0.2607(3) 0.3022(3) 0.0531(11) Uani 1 1 d . .
H14A H 0.7775 0.2942 0.3497 0.080 Uiso 1 1 d R U
H14B H 0.8228 0.2280 0.2988 0.080 Uiso 1 1 d R U
O15 O 0.7167(3) 0.1382(3) 0.1456(3) 0.0546(10) Uani 1 1 d . .
H15A H 0.7739 0.1384 0.1241 0.082 Uiso 1 1 d R U
H15B H 0.7066 0.0931 0.1778 0.082 Uiso 1 1 d R U
O16 O 0.6554(3) 0.1085(2) 0.3736(3) 0.0496(10) Uani 1 1 d . .
H16A H 0.6413 0.0562 0.3641 0.074 Uiso 1 1 d R U
H16B H 0.6951 0.1129 0.4197 0.074 Uiso 1 1 d R U
O17 O 0.5202(3) 0.0862(2) 0.2120(3) 0.0453(10) Uani 1 1 d . .
H17A H 0.4767 0.1036 0.1737 0.068 Uiso 1 1 d R U
H17B H 0.4974 0.0494 0.2503 0.068 Uiso 1 1 d R U
N1 N 0.0194(5) 0.2857(4) 0.3338(5) 0.0687(17) Uani 1 1 d D .
H1A H 0.006(6) 0.243(4) 0.374(4) 0.103 Uiso 1 1 d D U
H1B H 0.036(6) 0.270(5) 0.275(2) 0.103 Uiso 1 1 d D U
N2 N 0.0807(3) 0.6961(3) 0.3988(3) 0.0354(10) Uani 1 1 d . .
N3 N -0.0413(3) 0.7543(3) 0.3146(3) 0.0373(10) Uani 1 1 d . .
N4 N -0.0804(3) 0.6571(3) 0.4397(3) 0.0426(11) Uani 1 1 d . .
N5 N 0.2063(4) 0.4545(3) 0.0280(4) 0.0531(13) Uani 1 1 d D .
H5C H 0.242(4) 0.472(4) 0.078(3) 0.07(2) Uiso 1 1 d D .
H5D H 0.170(4) 0.499(3) 0.010(5) 0.08(2) Uiso 1 1 d D .
N6 N 0.0621(3) 0.0523(2) 0.0800(3) 0.0339(10) Uani 1 1 d . .
N7 N 0.1429(3) -0.0380(3) -0.0181(3) 0.0418(10) Uani 1 1 d . .
N8 N 0.0486(3) 0.0742(3) -0.0868(3) 0.0362(10) Uani 1 1 d . .
N9 N 0.5234(5) 0.7280(4) 0.3344(5) 0.0715(17) Uani 1 1 d D .
H9A H 0.535(5) 0.742(4) 0.2739(18) 0.06(2) Uiso 1 1 d D .
H9B H 0.480(3) 0.752(3) 0.372(3) 0.049(18) Uiso 1 1 d D .
N10 N 0.5784(3) 0.3143(3) 0.3996(3) 0.0333(10) Uani 1 1 d . .
N11 N 0.4525(3) 0.2477(3) 0.3304(3) 0.0345(10) Uani 1 1 d . .
N12 N 0.4178(3) 0.3512(3) 0.4501(3) 0.0434(12) Uani 1 1 d . .
N13 N 0.3305(4) 0.6582(3) 0.1295(4) 0.0574(13) Uani 1 1 d D .
H13A H 0.344(6) 0.706(3) 0.097(5) 0.10(3) Uiso 1 1 d D .
H13B H 0.337(6) 0.679(5) 0.189(2) 0.10(3) Uiso 1 1 d D .
N14 N 0.5026(3) 0.2555(2) 0.1071(3) 0.0335(9) Uani 1 1 d . .
N15 N 0.3900(3) 0.1528(3) 0.0784(3) 0.0417(11) Uani 1 1 d . .
N16 N 0.4026(3) 0.2709(3) -0.0294(3) 0.0447(11) Uani 1 1 d . .
C1 C 0.0980(4) 0.5267(3) 0.4320(4) 0.0357(12) Uani 1 1 d . .
C2 C 0.1126(4) 0.5052(4) 0.3382(4) 0.0449(14) Uani 1 1 d . .
H2 H 0.1401 0.5446 0.2970 0.054 Uiso 1 1 calc R U
C3 C 0.0864(5) 0.4253(4) 0.3057(4) 0.0516(16) Uani 1 1 d . .
H3 H 0.0961 0.4113 0.2423 0.062 Uiso 1 1 calc R U
C4 C 0.0459(4) 0.3655(3) 0.3658(4) 0.0443(14) Uani 1 1 d . .
C5 C 0.0325(5) 0.3879(4) 0.4596(4) 0.0606(18) Uani 1 1 d . .
H5 H 0.0054 0.3485 0.5012 0.073 Uiso 1 1 calc R U
C6 C 0.0584(5) 0.4674(4) 0.4924(4) 0.0569(17) Uani 1 1 d . .
H6 H 0.0491 0.4814 0.5559 0.068 Uiso 1 1 calc R U
C7 C -0.0173(4) 0.7012(3) 0.3871(3) 0.0320(11) Uani 1 1 d . .
C8 C -0.1348(4) 0.7657(4) 0.2975(5) 0.0522(16) Uani 1 1 d . .
H8 H -0.1533 0.8028 0.2489 0.063 Uiso 1 1 calc R U
C9 C -0.2055(5) 0.7251(5) 0.3485(5) 0.0641(19) Uani 1 1 d . .
H9 H -0.2707 0.7350 0.3370 0.077 Uiso 1 1 calc R U
C10 C -0.1746(4) 0.6692(4) 0.4172(5) 0.0570(17) Uani 1 1 d . .
H10 H -0.2207 0.6380 0.4501 0.068 Uiso 1 1 calc R U
C11 C 0.0576(3) 0.2261(3) 0.0791(3) 0.0304(10) Uani 1 1 d . .
C12 C 0.0214(4) 0.2866(3) 0.0166(4) 0.0413(12) Uani 1 1 d . .
H12 H -0.0372 0.2769 -0.0144 0.050 Uiso 1 1 calc R U
C13 C 0.0715(4) 0.3612(3) -0.0001(4) 0.0421(13) Uani 1 1 d . .
H13 H 0.0473 0.4006 -0.0437 0.051 Uiso 1 1 calc R U
C14 C 0.1562(4) 0.3783(3) 0.0465(4) 0.0374(11) Uani 1 1 d . .
C15 C 0.1949(4) 0.3169(3) 0.1074(4) 0.0394(12) Uani 1 1 d . .
H15 H 0.2540 0.3267 0.1374 0.047 Uiso 1 1 calc R U
C16 C 0.1459(4) 0.2417(3) 0.1232(4) 0.0382(12) Uani 1 1 d . .
H16 H 0.1722 0.2008 0.1639 0.046 Uiso 1 1 calc R U
C17 C 0.0836(4) 0.0308(3) -0.0114(3) 0.0331(11) Uani 1 1 d . .
C18 C 0.1664(4) -0.0634(4) -0.1043(4) 0.0526(15) Uani 1 1 d . .
H18 H 0.2062 -0.1110 -0.1107 0.063 Uiso 1 1 calc R U
C19 C 0.1343(5) -0.0222(5) -0.1853(5) 0.0594(18) Uani 1 1 d . .
H19 H 0.1520 -0.0403 -0.2456 0.071 Uiso 1 1 calc R U
C20 C 0.0756(4) 0.0461(4) -0.1723(4) 0.0484(15) Uani 1 1 d . .
H20 H 0.0528 0.0750 -0.2257 0.058 Uiso 1 1 calc R U
C21 C 0.5978(4) 0.4847(3) 0.4297(4) 0.0357(12) Uani 1 1 d . .
C22 C 0.5516(5) 0.5421(4) 0.4886(4) 0.0483(15) Uani 1 1 d . .
H22 H 0.5368 0.5263 0.5505 0.058 Uiso 1 1 calc R U
C23 C 0.5272(5) 0.6225(4) 0.4562(4) 0.0543(16) Uani 1 1 d . .
H23 H 0.4968 0.6607 0.4967 0.065 Uiso 1 1 calc R U
C24 C 0.5472(4) 0.6470(3) 0.3645(4) 0.0459(15) Uani 1 1 d . .
C25 C 0.5924(5) 0.5883(4) 0.3051(4) 0.0497(15) Uani 1 1 d . .
H25 H 0.6060 0.6037 0.2428 0.060 Uiso 1 1 calc R U
C26 C 0.6171(4) 0.5081(4) 0.3371(4) 0.0441(14) Uani 1 1 d . .
H26 H 0.6469 0.4695 0.2965 0.053 Uiso 1 1 calc R U
C27 C 0.4796(4) 0.3066(3) 0.3954(3) 0.0333(11) Uani 1 1 d . .
C28 C 0.3588(4) 0.2334(4) 0.3198(4) 0.0443(14) Uani 1 1 d . .
H28 H 0.3385 0.1924 0.2760 0.053 Uiso 1 1 calc R U
C29 C 0.2909(4) 0.2765(5) 0.3708(4) 0.0558(16) Uani 1 1 d . .
H29 H 0.2252 0.2666 0.3622 0.067 Uiso 1 1 calc R U
C30 C 0.3246(4) 0.3351(4) 0.4352(4) 0.0549(16) Uani 1 1 d . .
H30 H 0.2797 0.3655 0.4706 0.066 Uiso 1 1 calc R U
C31 C 0.4865(4) 0.4305(3) 0.0957(3) 0.0324(11) Uani 1 1 d . .
C32 C 0.4807(4) 0.4908(3) 0.0220(4) 0.0376(12) Uani 1 1 d . .
H32 H 0.5118 0.4805 -0.0352 0.045 Uiso 1 1 calc R U
C33 C 0.4293(4) 0.5645(3) 0.0343(4) 0.0403(12) Uani 1 1 d . .
H33 H 0.4254 0.6039 -0.0152 0.048 Uiso 1 1 calc R U
C34 C 0.3829(4) 0.5821(3) 0.1187(4) 0.0387(12) Uani 1 1 d . .
C35 C 0.3877(4) 0.5217(4) 0.1917(4) 0.0454(14) Uani 1 1 d . .
H35 H 0.3561 0.5319 0.2486 0.054 Uiso 1 1 calc R U
C36 C 0.4392(4) 0.4469(4) 0.1795(4) 0.0393(13) Uani 1 1 d . .
H36 H 0.4419 0.4070 0.2285 0.047 Uiso 1 1 calc R U
C37 C 0.4297(4) 0.2270(3) 0.0492(3) 0.0334(11) Uani 1 1 d . .
C38 C 0.3206(4) 0.1195(4) 0.0235(4) 0.0507(15) Uani 1 1 d . .
H38 H 0.2926 0.0678 0.0410 0.061 Uiso 1 1 calc R U
C39 C 0.2898(5) 0.1586(4) -0.0570(4) 0.0585(18) Uani 1 1 d . .
H39 H 0.2421 0.1340 -0.0951 0.070 Uiso 1 1 calc R U
C40 C 0.3312(4) 0.2358(4) -0.0807(4) 0.0570(17) Uani 1 1 d . .
H40 H 0.3087 0.2645 -0.1343 0.068 Uiso 1 1 calc R U
O18 O 0.3901(4) 0.4367(3) 0.6333(3) 0.0731(15) Uani 1 1 d . .
H18A H 0.4059 0.4205 0.5819 0.110 Uiso 1 1 d R U
H18B H 0.3878 0.3984 0.6760 0.110 Uiso 1 1 d R U
O19 O 0.6237(4) 0.4544(4) 0.7416(3) 0.0821(15) Uani 1 1 d . .
H19A H 0.6707 0.4861 0.7585 0.123 Uiso 1 1 d R U
H19B H 0.6418 0.4180 0.7006 0.123 Uiso 1 1 d R U
O20 O 0.5289(4) 0.8649(3) 0.1846(3) 0.0682(13) Uani 1 1 d . .
H20A H 0.4738 0.8856 0.1975 0.102 Uiso 1 1 d R U
H20B H 0.5305 0.8488 0.1270 0.102 Uiso 1 1 d R U
O21 O 0.7054(3) 0.9565(3) 0.1540(3) 0.0737(14) Uani 1 1 d . .
H21A H 0.6592 0.9285 0.1786 0.111 Uiso 1 1 d R U
H21B H 0.7078 0.9431 0.0956 0.111 Uiso 1 1 d R U
O22 O 0.7727(4) 0.5590(4) 0.7719(4) 0.0952(17) Uani 1 1 d . .
H22A H 0.8103 0.5796 0.8140 0.143 Uiso 1 1 d R U
H22B H 0.7928 0.5757 0.7181 0.143 Uiso 1 1 d R U
O23 O 0.8978(3) 0.5759(3) 0.6264(3) 0.0643(14) Uani 1 1 d . .
H23A H 0.9434 0.5823 0.6666 0.096 Uiso 1 1 d R U
H23B H 0.9060 0.6080 0.5784 0.096 Uiso 1 1 d R U
O24 O 0.1439(3) 0.4798(3) 0.7156(3) 0.0724(13) Uani 1 1 d . .
H24A H 0.1340 0.5324 0.7031 0.109 Uiso 1 1 d R U
H24B H 0.1898 0.4747 0.7556 0.109 Uiso 1 1 d R U
loop_
_atom_site_aniso_label
_atom_site_aniso_U_11
_atom_site_aniso_U_22
_atom_site_aniso_U_33
_atom_site_aniso_U_23
_atom_site_aniso_U_13
_atom_site_aniso_U_12
Ca1 0.0349(6) 0.0293(5) 0.0347(5) -0.0001(4) -0.0043(4) -0.0002(4)
Ca2 0.0278(5) 0.0264(5) 0.0337(5) -0.0004(4) -0.0010(4) 0.0000(4)
S1 0.0399(7) 0.0318(6) 0.0357(7) 0.0026(6) -0.0088(6) 0.0016(6)
S2 0.0347(7) 0.0291(6) 0.0326(6) 0.0015(5) 0.0018(5) -0.0002(5)
S3 0.0402(7) 0.0325(7) 0.0368(7) -0.0055(6) -0.0070(6) -0.0031(6)
S4 0.0303(6) 0.0311(6) 0.0350(6) 0.0031(5) -0.0032(5) -0.0031(5)
O1 0.032(2) 0.051(2) 0.056(2) 0.010(2) -0.0137(18) -0.0029(18)
O2 0.059(3) 0.044(2) 0.0316(19) -0.0012(17) -0.0066(18) -0.002(2)
O3 0.049(2) 0.045(2) 0.046(2) -0.0116(18) 0.0024(19) -0.0065(18)
O4 0.039(2) 0.055(2) 0.053(2) 0.008(2) -0.0079(18) -0.0004(19)
O5 0.046(2) 0.068(3) 0.067(3) 0.016(2) 0.009(2) 0.005(2)
O6 0.074(3) 0.044(2) 0.047(2) -0.0138(18) -0.027(2) 0.020(2)
O7 0.044(2) 0.040(2) 0.052(2) 0.0110(18) -0.0019(19) 0.0045(17)
O8 0.0327(18) 0.0401(19) 0.0421(19) -0.0005(17) -0.0010(16) -0.0019(17)
O9 0.057(2) 0.043(2) 0.0275(17) 0.0037(16) 0.0065(16) -0.0007(19)
O10 0.039(2) 0.051(2) 0.0377(19) 0.0046(17) 0.0068(16) -0.0014(18)
O11 0.0342(19) 0.0344(18) 0.045(2) 0.0051(17) -0.0118(16) -0.0067(16)
O12 0.036(2) 0.052(3) 0.059(2) -0.011(2) -0.0107(19) -0.0027(18)
O13 0.060(3) 0.040(2) 0.037(2) -0.0019(17) -0.0044(19) -0.0051(19)
O14 0.034(2) 0.061(3) 0.064(3) -0.004(2) -0.0084(19) -0.0030(19)
O15 0.042(2) 0.056(2) 0.066(3) -0.016(2) 0.018(2) -0.005(2)
O16 0.060(3) 0.039(2) 0.050(2) 0.0065(18) -0.020(2) -0.0094(19)
O17 0.054(2) 0.035(2) 0.047(2) 0.0031(17) -0.0053(19) -0.0097(18)
N1 0.091(5) 0.037(3) 0.079(4) -0.016(3) 0.014(4) -0.010(3)
N2 0.037(2) 0.030(2) 0.039(2) 0.0057(19) -0.010(2) 0.0012(19)
N3 0.035(2) 0.032(2) 0.044(2) 0.0101(19) -0.011(2) -0.0011(19)
N4 0.041(3) 0.040(3) 0.047(3) 0.006(2) -0.001(2) -0.001(2)
N5 0.059(4) 0.039(3) 0.061(3) 0.004(2) -0.001(3) -0.013(3)
N6 0.043(3) 0.024(2) 0.035(2) 0.0041(16) 0.001(2) 0.0018(18)
N7 0.035(2) 0.040(2) 0.051(3) -0.001(2) 0.005(2) 0.005(2)
N8 0.038(3) 0.035(2) 0.035(2) 0.0017(18) 0.000(2) 0.0008(19)
N9 0.092(5) 0.047(4) 0.076(5) 0.014(3) 0.017(4) 0.007(3)
N10 0.032(2) 0.029(2) 0.039(2) -0.0069(18) -0.0019(19) -0.0031(18)
N11 0.033(2) 0.037(2) 0.033(2) -0.0020(19) -0.0045(19) -0.0009(19)
N12 0.038(3) 0.049(3) 0.043(3) -0.012(2) 0.004(2) 0.011(2)
N13 0.060(3) 0.043(3) 0.069(4) 0.001(3) 0.006(3) 0.012(2)
N14 0.033(2) 0.026(2) 0.041(2) 0.0021(17) -0.0057(19) -0.0032(17)
N15 0.033(2) 0.040(3) 0.052(3) -0.003(2) 0.000(2) -0.0120(19)
N16 0.042(3) 0.052(3) 0.039(2) -0.003(2) -0.010(2) -0.004(2)
C1 0.039(3) 0.031(3) 0.037(3) 0.003(2) -0.005(2) 0.005(2)
C2 0.055(4) 0.041(3) 0.039(3) 0.004(2) 0.012(3) -0.002(3)
C3 0.067(4) 0.044(3) 0.043(3) -0.004(3) 0.005(3) 0.005(3)
C4 0.048(3) 0.030(3) 0.055(4) -0.002(2) -0.002(3) 0.007(3)
C5 0.096(5) 0.029(3) 0.057(4) 0.007(3) 0.025(4) -0.002(3)
C6 0.094(5) 0.037(3) 0.040(3) 0.003(3) 0.012(3) 0.003(3)
C7 0.037(3) 0.027(3) 0.032(3) -0.002(2) -0.007(2) -0.005(2)
C8 0.045(3) 0.049(3) 0.062(4) 0.013(3) -0.021(3) -0.005(3)
C9 0.037(3) 0.072(5) 0.083(5) 0.020(4) -0.013(3) -0.006(3)
C10 0.038(3) 0.065(4) 0.068(4) 0.013(3) 0.006(3) -0.013(3)
C11 0.031(3) 0.028(2) 0.032(2) 0.0000(19) 0.002(2) 0.001(2)
C12 0.043(3) 0.032(3) 0.048(3) 0.001(2) -0.011(3) 0.000(2)
C13 0.050(3) 0.031(3) 0.046(3) 0.011(2) -0.013(3) 0.002(2)
C14 0.037(3) 0.032(3) 0.043(3) 0.000(2) 0.005(2) 0.002(2)
C15 0.030(3) 0.042(3) 0.046(3) -0.002(2) -0.002(2) -0.003(2)
C16 0.037(3) 0.037(3) 0.041(3) 0.006(2) -0.006(2) 0.004(2)
C17 0.031(3) 0.028(2) 0.041(3) -0.001(2) 0.001(2) -0.007(2)
C18 0.043(3) 0.049(3) 0.066(4) -0.014(3) 0.007(3) 0.005(3)
C19 0.053(4) 0.076(5) 0.049(4) -0.019(3) 0.009(3) 0.005(3)
C20 0.047(4) 0.064(4) 0.035(3) -0.004(3) 0.000(3) 0.004(3)
C21 0.039(3) 0.030(3) 0.038(3) -0.005(2) 0.001(2) -0.007(2)
C22 0.072(4) 0.035(3) 0.038(3) 0.000(3) 0.015(3) -0.003(3)
C23 0.075(4) 0.035(3) 0.053(4) -0.008(3) 0.020(3) -0.004(3)
C24 0.047(3) 0.033(3) 0.057(4) 0.004(3) 0.002(3) -0.004(3)
C25 0.066(4) 0.043(3) 0.040(3) 0.004(3) 0.001(3) -0.010(3)
C26 0.051(4) 0.040(3) 0.042(3) -0.006(3) 0.007(3) -0.005(3)
C27 0.035(3) 0.031(3) 0.034(3) 0.000(2) -0.004(2) 0.000(2)
C28 0.037(3) 0.051(3) 0.045(3) -0.007(3) -0.008(3) -0.006(3)
C29 0.031(3) 0.074(4) 0.062(4) -0.011(3) -0.002(3) 0.003(3)
C30 0.037(3) 0.067(4) 0.060(4) -0.013(3) 0.011(3) 0.005(3)
C31 0.031(3) 0.032(3) 0.033(3) 0.004(2) -0.006(2) -0.005(2)
C32 0.047(3) 0.033(3) 0.033(3) 0.003(2) 0.001(2) -0.004(2)
C33 0.048(3) 0.031(3) 0.042(3) 0.010(2) 0.001(3) 0.002(2)
C34 0.033(3) 0.034(3) 0.050(3) 0.003(2) 0.000(3) -0.001(2)
C35 0.044(3) 0.058(4) 0.035(3) 0.004(3) 0.008(3) 0.006(3)
C36 0.042(3) 0.041(3) 0.036(3) 0.011(2) 0.005(2) -0.001(2)
C37 0.030(3) 0.033(3) 0.037(3) -0.006(2) 0.000(2) -0.002(2)
C38 0.040(3) 0.054(3) 0.058(4) -0.013(3) 0.007(3) -0.016(3)
C39 0.045(4) 0.082(5) 0.048(4) -0.018(3) -0.007(3) -0.022(3)
C40 0.046(4) 0.075(5) 0.050(4) -0.007(3) -0.012(3) -0.009(3)
O18 0.116(4) 0.052(3) 0.051(3) -0.009(2) 0.008(3) 0.023(3)
O19 0.082(4) 0.096(4) 0.068(3) -0.030(3) 0.016(3) -0.003(3)
O20 0.088(3) 0.073(3) 0.043(2) -0.002(2) -0.006(2) 0.006(3)
O21 0.075(3) 0.085(3) 0.060(3) -0.011(2) 0.004(3) -0.006(3)
O22 0.091(4) 0.099(4) 0.095(4) -0.016(3) -0.004(3) -0.002(3)
O23 0.077(3) 0.050(3) 0.065(3) 0.015(2) -0.018(3) -0.025(2)
O24 0.063(3) 0.061(3) 0.093(4) 0.006(3) -0.009(3) -0.008(2)
loop_
_atom_type_symbol
_atom_type_description
_atom_type_scat_dispersion_real
_atom_type_scat_dispersion_imag
_atom_type_scat_source
C C 0.0033 0.0016 'International Tables Vol C Tables 4.2.6.8 and 6.1.1.4'
H H 0.0000 0.0000 'International Tables Vol C Tables 4.2.6.8 and 6.1.1.4'
N N 0.0061 0.0033 'International Tables Vol C Tables 4.2.6.8 and 6.1.1.4'
O O 0.0106 0.0060 'International Tables Vol C Tables 4.2.6.8 and 6.1.1.4'
S S 0.1246 0.1234 'International Tables Vol C Tables 4.2.6.8 and 6.1.1.4'
Ca Ca 0.2262 0.3064 'International Tables Vol C Tables 4.2.6.8 and 6.1.1.4'
loop_
_geom_angle_atom_site_label_1
_geom_angle_atom_site_label_2
_geom_angle_atom_site_label_3
_geom_angle
O6 Ca1 O7 79.16(13)
O6 Ca1 O3 167.04(14)
O7 Ca1 O3 113.76(13)
O6 Ca1 O5 101.09(16)
O7 Ca1 O5 77.49(14)
O3 Ca1 O5 81.68(15)
O6 Ca1 O4 80.90(14)
O7 Ca1 O4 148.89(14)
O3 Ca1 O4 86.91(14)
O5 Ca1 O4 83.23(14)
O6 Ca1 N3 99.65(16)
O7 Ca1 N3 78.16(13)
O3 Ca1 N3 84.59(15)
O5 Ca1 N3 144.19(14)
O4 Ca1 N3 128.89(14)
O6 Ca1 N2 86.89(14)
O7 Ca1 N2 125.00(15)
O3 Ca1 N2 86.13(13)
O5 Ca1 N2 157.39(15)
O4 Ca1 N2 77.14(13)
N3 Ca1 N2 52.08(13)
O16 Ca2 O15 89.71(15)
O16 Ca2 O17 76.24(13)
O15 Ca2 O17 76.99(14)
O16 Ca2 O14 79.34(14)
O15 Ca2 O14 77.56(14)
O17 Ca2 O14 144.53(14)
O16 Ca2 O11 156.71(12)
O15 Ca2 O11 89.75(14)
O17 Ca2 O11 126.16(12)
O14 Ca2 O11 77.81(13)
O16 Ca2 N11 94.00(14)
O15 Ca2 N11 154.23(13)
O17 Ca2 N11 79.16(14)
O14 Ca2 N11 128.18(14)
O11 Ca2 N11 96.54(13)
O16 Ca2 N10 85.45(14)
O15 Ca2 N10 154.51(13)
O17 Ca2 N10 125.61(14)
O14 Ca2 N10 76.95(14)
O11 Ca2 N10 85.07(13)
N11 Ca2 N10 51.24(13)
O16 Ca2 N14 148.66(13)
O15 Ca2 N14 87.58(14)
O17 Ca2 N14 72.73(12)
O14 Ca2 N14 130.16(14)
O11 Ca2 N14 54.54(11)
N11 Ca2 N14 76.09(13)
N10 Ca2 N14 109.17(12)
O16 Ca2 S4 175.82(11)
O15 Ca2 S4 86.60(11)
O17 Ca2 S4 100.98(9)
O14 Ca2 S4 101.75(11)
O11 Ca2 S4 25.43(7)
N11 Ca2 S4 88.48(10)
N10 Ca2 S4 98.72(10)
N14 Ca2 S4 29.24(8)
O16 Ca2 H15B 72.0
O15 Ca2 H15B 19.9
O17 Ca2 H15B 64.7
O14 Ca2 H15B 83.5
O11 Ca2 H15B 109.6
N11 Ca2 H15B 143.3
N10 Ca2 H15B 152.6
N14 Ca2 H15B 98.1
S4 Ca2 H15B 104.0
O16 Ca2 H17A 92.6
O15 Ca2 H17A 81.6
O17 Ca2 H17A 17.0
O14 Ca2 H17A 157.6
O11 Ca2 H17A 110.4
N11 Ca2 H17A 72.8
N10 Ca2 H17A 123.6
N14 Ca2 H17A 56.1
S4 Ca2 H17A 84.9
H15B Ca2 H17A 74.1
O2 S1 O1 113.8(2)
O2 S1 N2 114.5(3)
O1 S1 N2 104.8(2)
O2 S1 C1 107.9(3)
O1 S1 C1 108.1(3)
N2 S1 C1 107.5(2)
O8 S2 O9 114.3(2)
O8 S2 N6 114.4(2)
O9 S2 N6 105.5(2)
O8 S2 C11 108.0(2)
O9 S2 C11 106.0(2)
N6 S2 C11 108.1(2)
O13 S3 O12 113.3(2)
O13 S3 N10 113.8(2)
O12 S3 N10 105.5(2)
O13 S3 C21 108.0(2)
O12 S3 C21 107.3(3)
N10 S3 C21 108.7(2)
O10 S4 O11 114.8(2)
O10 S4 N14 115.1(2)
O11 S4 N14 102.6(2)
O10 S4 C31 108.0(2)
O11 S4 C31 105.9(2)
N14 S4 C31 110.1(2)
O10 S4 Ca2 127.45(16)
O11 S4 Ca2 46.90(14)
N14 S4 Ca2 56.00(14)
C31 S4 Ca2 123.97(17)
Ca1 O3 H3A 134.2
Ca1 O3 H3B 110.3
H3A O3 H3B 110.3
Ca1 O4 H4A 107.5
Ca1 O4 H4B 119.2
H4A O4 H4B 110.7
Ca1 O5 H5A 122.7
Ca1 O5 H5B 126.4
H5A O5 H5B 110.8
Ca1 O6 H6A 118.7
Ca1 O6 H6B 129.7
H6A O6 H6B 111.4
Ca1 O7 H7A 126.4
Ca1 O7 H7B 120.1
H7A O7 H7B 111.1
S4 O11 Ca2 107.67(18)
Ca2 O14 H14A 117.4
Ca2 O14 H14B 121.3
H14A O14 H14B 111.4
Ca2 O15 H15A 141.9
Ca2 O15 H15B 86.9
H15A O15 H15B 110.5
Ca2 O16 H16A 119.0
Ca2 O16 H16B 129.1
H16A O16 H16B 110.1
Ca2 O17 H17A 106.5
Ca2 O17 H17B 125.7
H17A O17 H17B 110.6
C4 N1 H1A 121(5)
C4 N1 H1B 119(6)
H1A N1 H1B 116(8)
C7 N2 S1 121.7(4)
C7 N2 Ca1 96.1(3)
S1 N2 Ca1 141.7(3)
C8 N3 C7 116.8(5)
C8 N3 Ca1 142.6(4)
C7 N3 Ca1 100.5(3)
C7 N4 C10 115.5(5)
C14 N5 H5C 113(4)
C14 N5 H5D 116(5)
H5C N5 H5D 107(6)
C17 N6 S2 122.2(3)
C18 N7 C17 117.1(5)
C20 N8 C17 116.4(5)
C24 N9 H9A 118(5)
C24 N9 H9B 112(4)
H9A N9 H9B 126(6)
C27 N10 S3 121.3(4)
C27 N10 Ca2 96.2(3)
S3 N10 Ca2 141.8(2)
C28 N11 C27 117.3(5)
C28 N11 Ca2 141.2(4)
C27 N11 Ca2 101.1(3)
C30 N12 C27 115.6(5)
C34 N13 H13A 122(5)
C34 N13 H13B 111(5)
H13A N13 H13B 99(7)
C37 N14 S4 121.6(3)
C37 N14 Ca2 143.1(3)
S4 N14 Ca2 94.76(17)
C38 N15 C37 116.8(5)
C40 N16 C37 115.7(5)
C6 C1 C2 119.4(5)
C6 C1 S1 121.7(4)
C2 C1 S1 118.9(4)
C3 C2 C1 119.9(6)
C3 C2 H2 120.0
C1 C2 H2 120.0
C2 C3 C4 121.0(6)
C2 C3 H3 119.5
C4 C3 H3 119.5
N1 C4 C5 120.4(6)
N1 C4 C3 121.3(6)
C5 C4 C3 118.3(5)
C6 C5 C4 121.0(6)
C6 C5 H5 119.5
C4 C5 H5 119.5
C5 C6 C1 120.4(6)
C5 C6 H6 119.8
C1 C6 H6 119.8
N4 C7 N3 125.0(5)
N4 C7 N2 123.7(4)
N3 C7 N2 111.3(4)
N3 C8 C9 122.8(5)
N3 C8 H8 118.6
C9 C8 H8 118.6
C10 C9 C8 116.4(6)
C10 C9 H9 121.8
C8 C9 H9 121.8
N4 C10 C9 123.4(6)
N4 C10 H10 118.3
C9 C10 H10 118.3
C12 C11 C16 118.6(5)
C12 C11 S2 121.9(4)
C16 C11 S2 119.5(4)
C13 C12 C11 120.3(5)
C13 C12 H12 119.8
C11 C12 H12 119.8
C14 C13 C12 121.0(5)
C14 C13 H13 119.5
C12 C13 H13 119.5
C13 C14 C15 119.2(5)
C13 C14 N5 120.1(5)
C15 C14 N5 120.6(5)
C16 C15 C14 120.0(5)
C16 C15 H15 120.0
C14 C15 H15 120.0
C15 C16 C11 120.8(5)
C15 C16 H16 119.6
C11 C16 H16 119.6
N8 C17 N7 123.9(5)
N8 C17 N6 122.7(4)
N7 C17 N6 113.4(4)
N7 C18 C19 122.6(6)
N7 C18 H18 118.7
C19 C18 H18 118.7
C20 C19 C18 116.4(6)
C20 C19 H19 121.8
C18 C19 H19 121.8
N8 C20 C19 123.5(6)
N8 C20 H20 118.2
C19 C20 H20 118.2
C22 C21 C26 119.3(5)
C22 C21 S3 121.9(4)
C26 C21 S3 118.8(4)
C23 C22 C21 120.4(5)
C23 C22 H22 119.8
C21 C22 H22 119.8
C22 C23 C24 120.9(6)
C22 C23 H23 119.5
C24 C23 H23 119.5
N9 C24 C23 119.8(6)
N9 C24 C25 121.8(6)
C23 C24 C25 118.4(5)
C26 C25 C24 120.9(6)
C26 C25 H25 119.5
C24 C25 H25 119.5
C25 C26 C21 120.1(6)
C25 C26 H26 120.0
C21 C26 H26 120.0
N11 C27 N12 124.4(5)
N11 C27 N10 111.1(4)
N12 C27 N10 124.5(5)
N11 C28 C29 122.3(5)
N11 C28 H28 118.8
C29 C28 H28 118.8
C28 C29 C30 116.5(5)
C28 C29 H29 121.7
C30 C29 H29 121.7
N12 C30 C29 123.8(6)
N12 C30 H30 118.1
C29 C30 H30 118.1
C36 C31 C32 118.9(5)
C36 C31 S4 121.0(4)
C32 C31 S4 119.9(4)
C33 C32 C31 119.9(5)
C33 C32 H32 120.0
C31 C32 H32 120.0
C32 C33 C34 121.5(5)
C32 C33 H33 119.2
C34 C33 H33 119.2
C33 C34 C35 118.6(5)
C33 C34 N13 120.4(5)
C35 C34 N13 121.0(5)
C36 C35 C34 120.1(5)
C36 C35 H35 119.9
C34 C35 H35 119.9
C31 C36 C35 120.9(5)
C31 C36 H36 119.5
C35 C36 H36 119.5
N15 C37 N16 125.0(5)
N15 C37 N14 113.5(4)
N16 C37 N14 121.5(4)
N15 C38 C39 122.2(6)
N15 C38 H38 118.9
C39 C38 H38 118.9
C38 C39 C40 117.9(5)
C38 C39 H39 121.1
C40 C39 H39 121.1
N16 C40 C39 122.4(6)
N16 C40 H40 118.8
C39 C40 H40 118.8
H18A O18 H18B 115.5
H19A O19 H19B 110.4
H20A O20 H20B 110.2
H21A O21 H21B 107.7
H22A O22 H22B 107.7
H23A O23 H23B 110.9
H24A O24 H24B 110.2
loop_
_geom_bond_atom_site_label_1
_geom_bond_atom_site_label_2
_geom_bond_distance
Ca1 O6 2.338(4)
Ca1 O7 2.347(4)
Ca1 O3 2.406(4)
Ca1 O5 2.415(4)
Ca1 O4 2.425(4)
Ca1 N3 2.516(5)
Ca1 N2 2.603(4)
Ca2 O16 2.369(4)
Ca2 O15 2.396(4)
Ca2 O17 2.419(4)
Ca2 O14 2.424(4)
Ca2 O11 2.474(4)
Ca2 N11 2.549(4)
Ca2 N10 2.640(4)
Ca2 N14 2.686(4)
Ca2 S4 3.2283(16)
Ca2 H15B 2.4981
Ca2 H17A 2.7826
S1 O2 1.449(4)
S1 O1 1.465(4)
S1 N2 1.583(4)
S1 C1 1.758(5)
S2 O8 1.456(3)
S2 O9 1.458(3)
S2 N6 1.586(4)
S2 C11 1.762(5)
S3 O13 1.449(4)
S3 O12 1.454(4)
S3 N10 1.576(4)
S3 C21 1.750(5)
S4 O10 1.453(4)
S4 O11 1.455(3)
S4 N14 1.582(4)
S4 C31 1.764(5)
O3 H3A 0.8500
O3 H3B 0.8502
O4 H4A 0.8501
O4 H4B 0.8498
O5 H5A 0.8501
O5 H5B 0.8500
O6 H6A 0.8500
O6 H6B 0.8499
O7 H7A 0.8500
O7 H7B 0.8500
O14 H14A 0.8501
O14 H14B 0.8514
O15 H15A 0.8500
O15 H15B 0.8501
O16 H16A 0.8500
O16 H16B 0.8500
O17 H17A 0.8500
O17 H17B 0.8499
N1 C4 1.373(7)
N1 H1A 0.901(14)
N1 H1B 0.893(14)
N2 C7 1.369(7)
N3 C8 1.328(7)
N3 C7 1.355(6)
N4 C7 1.340(7)
N4 C10 1.354(7)
N5 C14 1.403(7)
N5 H5C 0.897(14)
N5 H5D 0.897(14)
N6 C17 1.365(6)
N7 C18 1.321(7)
N7 C17 1.356(6)
N8 C20 1.338(7)
N8 C17 1.346(6)
N9 C24 1.373(8)
N9 H9A 0.895(14)
N9 H9B 0.894(14)
N10 C27 1.374(6)
N11 C28 1.325(6)
N11 C27 1.348(6)
N12 C30 1.331(7)
N12 C27 1.349(7)
N13 C34 1.399(7)
N13 H13A 0.897(14)
N13 H13B 0.899(14)
N14 C37 1.367(6)
N15 C38 1.334(6)
N15 C37 1.348(6)
N16 C40 1.338(7)
N16 C37 1.353(6)
C1 C6 1.373(8)
C1 C2 1.379(7)
C2 C3 1.375(8)
C2 H2 0.9300
C3 C4 1.383(8)
C3 H3 0.9300
C4 C5 1.380(8)
C5 C6 1.371(8)
C5 H5 0.9300
C6 H6 0.9300
C8 C9 1.373(9)
C8 H8 0.9300
C9 C10 1.368(9)
C9 H9 0.9300
C10 H10 0.9300
C11 C12 1.384(7)
C11 C16 1.388(7)
C12 C13 1.376(7)
C12 H12 0.9300
C13 C14 1.366(7)
C13 H13 0.9300
C14 C15 1.390(7)
C15 C16 1.376(7)
C15 H15 0.9300
C16 H16 0.9300
C18 C19 1.381(9)
C18 H18 0.9300
C19 C20 1.353(9)
C19 H19 0.9300
C20 H20 0.9300
C21 C22 1.380(7)
C21 C26 1.383(7)
C22 C23 1.376(8)
C22 H22 0.9300
C23 C24 1.376(8)
C23 H23 0.9300
C24 C25 1.392(8)
C25 C26 1.373(8)
C25 H25 0.9300
C26 H26 0.9300
C28 C29 1.365(8)
C28 H28 0.9300
C29 C30 1.367(8)
C29 H29 0.9300
C30 H30 0.9300
C31 C36 1.379(7)
C31 C32 1.403(7)
C32 C33 1.365(7)
C32 H32 0.9300
C33 C34 1.383(8)
C33 H33 0.9300
C34 C35 1.396(7)
C35 C36 1.379(8)
C35 H35 0.9300
C36 H36 0.9300
C38 C39 1.353(8)
C38 H38 0.9300
C39 C40 1.376(9)
C39 H39 0.9300
C40 H40 0.9300
O18 H18A 0.7991
O18 H18B 0.8500
O19 H19A 0.8500
O19 H19B 0.8500
O20 H20A 0.8501
O20 H20B 0.8501
O21 H21A 0.8499
O21 H21B 0.8501
O22 H22A 0.8499
O22 H22B 0.8500
O23 H23A 0.8500
O23 H23B 0.8500
O24 H24A 0.8501
O24 H24B 0.8501
loop_
_geom_hbond_atom_site_label_D
_geom_hbond_atom_site_label_H
_geom_hbond_atom_site_label_A
_geom_hbond_distance_DH
_geom_hbond_distance_HA
_geom_hbond_distance_DA
_geom_hbond_angle_DHA
_geom_hbond_site_symmetry_A
O24 H24B O21 0.85 1.94 2.793(6) 176.9 2_646
O24 H24A O9 0.85 2.56 3.122(6) 124.8 2_556
O24 H24A O2 0.85 2.58 3.302(6) 143.9 .
O23 H23B N4 0.85 2.11 2.936(6) 164.8 1_655
O23 H23A O9 0.85 2.15 2.958(5) 157.7 2_656
O22 H22B O23 0.85 1.95 2.707(8) 147.2 .
O22 H22A N6 0.85 2.34 3.086(7) 146.2 2_656
O21 H21B N5 0.85 2.12 2.849(7) 143.2 2_655
O21 H21A O20 0.85 2.06 2.867(7) 157.7 .
O20 H20B N16 0.85 2.06 2.804(6) 145.7 2_655
O20 H20B O10 0.85 2.48 3.079(5) 128.4 2_655
O20 H20A O19 0.85 1.93 2.744(7) 159.7 2_656
O19 H19B O13 0.85 2.09 2.795(6) 139.5 .
O19 H19A O22 0.85 1.82 2.663(7) 169.6 .
O18 H18B O20 0.85 2.33 3.008(6) 137.2 2_646
O18 H18A N12 0.80 2.15 2.932(6) 164.3 .
C18 H18 O11 0.93 2.48 3.269(7) 142.8 2_645
C16 H16 O22 0.93 2.51 3.399(7) 160.8 2_646
C13 H13 O7 0.93 2.60 3.391(6) 143.9 2_545
C6 H6 O24 0.93 2.60 3.356(8) 139.3 .
N13 H13B O4 0.899(14) 2.22(4) 3.048(7) 152(7) .
N13 H13A O10 0.897(14) 2.558(17) 3.452(7) 176(7) 2_655
N9 H9B O13 0.894(14) 2.36(3) 3.175(8) 152(5) 2_656
N9 H9A O20 0.895(14) 2.29(5) 3.003(7) 136(6) .
N5 H5D O8 0.897(14) 2.47(2) 3.362(6) 170(6) 2
N1 H1B O9 0.893(14) 2.50(8) 3.057(6) 121(7) .
N1 H1A O2 0.901(14) 2.31(4) 3.128(7) 151(7) 2_546
O17 H17B O19 0.85 2.24 2.941(6) 139.5 2_646
O16 H16B O1 0.85 2.03 2.867(5) 167.0 2_646
O16 H16B S1 0.85 2.89 3.711(4) 162.6 2_646
O16 H16A O18 0.85 1.91 2.755(6) 169.8 2_646
O15 H15A O8 0.85 2.07 2.908(5) 171.2 1_655
O14 H14B O2 0.85 2.58 3.175(5) 128.4 2_646
O14 H14A O12 0.85 1.99 2.793(6) 157.8 .
O14 H14A S3 0.85 2.99 3.616(5) 132.7 .
O7 H7B N6 0.85 2.04 2.864(5) 162.3 1_565
O7 H7B S2 0.85 3.01 3.692(4) 138.2 1_565
O7 H7A O24 0.85 1.91 2.754(6) 173.9 2_556
O6 H6B O12 0.85 2.00 2.833(5) 166.8 2_656
O6 H6B S3 0.85 2.95 3.653(4) 141.7 2_656
O6 H6A O23 0.85 1.96 2.808(6) 171.7 2_656
O5 H5B O10 0.85 2.32 3.069(6) 147.4 2_655
O5 H5A N7 0.85 1.97 2.816(6) 171.1 1_565
O4 H4B O13 0.85 2.22 3.032(5) 160.6 2_656
O4 H4A O1 0.85 1.90 2.727(6) 165.6 .
O4 H4A S1 0.85 2.86 3.584(4) 143.8 .
O3 H3B N13 0.85 2.24 3.019(7) 153.0 .
O3 H3A N8 0.85 2.16 2.988(6) 164.2 2
O3 H3A O8 0.85 2.60 3.082(5) 117.2 2
loop_
_geom_torsion_atom_site_label_1
_geom_torsion_atom_site_label_2
_geom_torsion_atom_site_label_3
_geom_torsion_atom_site_label_4
_geom_torsion
O10 S4 O11 Ca2 -119.1(2)
N14 S4 O11 Ca2 6.5(2)
C31 S4 O11 Ca2 122.0(2)
O2 S1 N2 C7 -57.7(5)
O1 S1 N2 C7 176.9(4)
C1 S1 N2 C7 62.1(5)
O2 S1 N2 Ca1 132.7(4)
O1 S1 N2 Ca1 7.3(4)
C1 S1 N2 Ca1 -107.5(4)
O8 S2 N6 C17 49.6(5)
O9 S2 N6 C17 176.1(4)
C11 S2 N6 C17 -70.8(4)
O13 S3 N10 C27 55.2(5)
O12 S3 N10 C27 180.0(4)
C21 S3 N10 C27 -65.2(5)
O13 S3 N10 Ca2 -137.3(3)
O12 S3 N10 Ca2 -12.5(4)
C21 S3 N10 Ca2 102.3(4)
O10 S4 N14 C37 -54.0(5)
O11 S4 N14 C37 -179.3(4)
C31 S4 N14 C37 68.4(4)
Ca2 S4 N14 C37 -173.6(5)
O10 S4 N14 Ca2 119.59(19)
O11 S4 N14 Ca2 -5.8(2)
C31 S4 N14 Ca2 -118.09(19)
O2 S1 C1 C6 -4.6(6)
O1 S1 C1 C6 118.9(5)
N2 S1 C1 C6 -128.6(5)
O2 S1 C1 C2 174.1(4)
O1 S1 C1 C2 -62.4(5)
N2 S1 C1 C2 50.2(5)
C6 C1 C2 C3 0.8(9)
S1 C1 C2 C3 -178.0(5)
C1 C2 C3 C4 -0.3(10)
C2 C3 C4 N1 179.9(6)
C2 C3 C4 C5 -0.1(10)
N1 C4 C5 C6 -179.8(6)
C3 C4 C5 C6 0.1(10)
C4 C5 C6 C1 0.3(11)
C2 C1 C6 C5 -0.7(10)
S1 C1 C6 C5 178.0(5)
C10 N4 C7 N3 -0.9(8)
C10 N4 C7 N2 -179.2(5)
C8 N3 C7 N4 2.8(8)
Ca1 N3 C7 N4 -179.3(4)
C8 N3 C7 N2 -178.7(5)
Ca1 N3 C7 N2 -0.8(4)
S1 N2 C7 N4 5.8(7)
Ca1 N2 C7 N4 179.3(4)
S1 N2 C7 N3 -172.7(4)
Ca1 N2 C7 N3 0.8(4)
C7 N3 C8 C9 -1.3(9)
Ca1 N3 C8 C9 -177.8(5)
N3 C8 C9 C10 -2.0(11)
C7 N4 C10 C9 -2.7(10)
C8 C9 C10 N4 4.1(11)
O8 S2 C11 C12 -1.6(5)
O9 S2 C11 C12 -124.6(4)
N6 S2 C11 C12 122.7(4)
O8 S2 C11 C16 177.7(4)
O9 S2 C11 C16 54.7(5)
N6 S2 C11 C16 -58.0(5)
C16 C11 C12 C13 -1.0(8)
S2 C11 C12 C13 178.3(4)
C11 C12 C13 C14 -1.9(9)
C12 C13 C14 C15 3.8(8)
C12 C13 C14 N5 179.7(5)
C13 C14 C15 C16 -2.8(8)
N5 C14 C15 C16 -178.6(5)
C14 C15 C16 C11 -0.1(8)
C12 C11 C16 C15 2.0(8)
S2 C11 C16 C15 -177.3(4)
C20 N8 C17 N7 -0.1(7)
C20 N8 C17 N6 180.0(5)
C18 N7 C17 N8 -0.5(7)
C18 N7 C17 N6 179.4(5)
S2 N6 C17 N8 -0.4(7)
S2 N6 C17 N7 179.7(3)
C17 N7 C18 C19 1.0(9)
N7 C18 C19 C20 -0.8(10)
C17 N8 C20 C19 0.3(9)
C18 C19 C20 N8 0.1(10)
O13 S3 C21 C22 -2.4(5)
O12 S3 C21 C22 -124.9(5)
N10 S3 C21 C22 121.5(5)
O13 S3 C21 C26 -179.8(4)
O12 S3 C21 C26 57.7(5)
N10 S3 C21 C26 -56.0(5)
C26 C21 C22 C23 -1.6(9)
S3 C21 C22 C23 -179.1(5)
C21 C22 C23 C24 0.8(10)
C22 C23 C24 N9 -179.1(6)
C22 C23 C24 C25 0.3(9)
N9 C24 C25 C26 178.9(6)
C23 C24 C25 C26 -0.5(9)
C24 C25 C26 C21 -0.4(9)
C22 C21 C26 C25 1.5(9)
S3 C21 C26 C25 179.0(4)
C28 N11 C27 N12 0.3(8)
Ca2 N11 C27 N12 175.0(4)
C28 N11 C27 N10 179.4(4)
Ca2 N11 C27 N10 -5.8(4)
C30 N12 C27 N11 -1.4(8)
C30 N12 C27 N10 179.6(5)
S3 N10 C27 N11 177.9(3)
Ca2 N10 C27 N11 5.6(4)
S3 N10 C27 N12 -3.0(7)
Ca2 N10 C27 N12 -175.3(5)
C27 N11 C28 C29 0.9(8)
Ca2 N11 C28 C29 -170.8(4)
N11 C28 C29 C30 -0.9(10)
C27 N12 C30 C29 1.4(9)
C28 C29 C30 N12 -0.3(10)
O10 S4 C31 C36 -177.5(4)
O11 S4 C31 C36 -54.1(5)
N14 S4 C31 C36 56.1(5)
Ca2 S4 C31 C36 -5.8(5)
O10 S4 C31 C32 -2.6(5)
O11 S4 C31 C32 120.8(4)
N14 S4 C31 C32 -129.0(4)
Ca2 S4 C31 C32 169.1(3)
C36 C31 C32 C33 0.5(7)
S4 C31 C32 C33 -174.5(4)
C31 C32 C33 C34 0.6(8)
C32 C33 C34 C35 -1.4(8)
C32 C33 C34 N13 -179.9(5)
C33 C34 C35 C36 1.1(8)
N13 C34 C35 C36 179.6(5)
C32 C31 C36 C35 -0.8(8)
S4 C31 C36 C35 174.1(4)
C34 C35 C36 C31 0.0(8)
C38 N15 C37 N16 2.0(8)
C38 N15 C37 N14 -177.6(5)
C40 N16 C37 N15 -0.4(8)
C40 N16 C37 N14 179.2(5)
S4 N14 C37 N15 177.8(4)
Ca2 N14 C37 N15 8.6(8)
S4 N14 C37 N16 -1.8(7)
Ca2 N14 C37 N16 -171.1(4)
C37 N15 C38 C39 -1.2(8)
N15 C38 C39 C40 -1.1(9)
C37 N16 C40 C39 -2.1(9)
C38 C39 C40 N16 2.8(10)
