#------------------------------------------------------------------------------
#$Date: 2016-03-04 14:07:09 +0200 (Fri, 04 Mar 2016) $
#$Revision: 177538 $
#$URL: svn://www.crystallography.net/cod/cif/1/54/24/1542489.cif $
#------------------------------------------------------------------------------
#
# This file is available in the Crystallography Open Database (COD),
# http://www.crystallography.net/
#
# All data on this site have been placed in the public domain by the
# contributors.
#
data_1542489
loop_
_publ_author_name
'El Ajlaoui, Rahhal'
'Rakib, El Mostapha'
'Mojahidi, Souad'
'Saadi, Mohamed'
'El Ammari, Lahcen'
_publ_section_title
;
 (<i>Z</i>)-3-Allyl-5-(3-methoxybenzylidene)-2-sulfanylidene-1,3-thiazolidin-4-one
;
_journal_coeditor_code           IS4001
_journal_issue                   1
_journal_name_full               IUCrData
_journal_page_first              x160052
_journal_paper_doi               10.1107/S2414314616000523
_journal_volume                  1
_journal_year                    2016
_chemical_formula_iupac          'C14 H13 N O2 S2'
_chemical_formula_moiety         'C14 H13 N O2 S2'
_chemical_formula_sum            'C14 H13 N O2 S2'
_chemical_formula_weight         291.37
_chemical_melting_point          364
_chemical_name_systematic
(<i>Z</i>)-3-Allyl-5-(3-methoxybenzylidene)-2-sulfanylidene-1,3-thiazolidin-4-one
_space_group_crystal_system      triclinic
_space_group_IT_number           2
_space_group_name_Hall           '-P 1'
_space_group_name_H-M_alt        'P -1'
_symmetry_space_group_name_Hall  '-P 1'
_symmetry_space_group_name_H-M   'P -1'
_atom_sites_solution_hydrogens   geom
_audit_creation_method           SHELXL-2014/7
_cell_angle_alpha                89.276(9)
_cell_angle_beta                 75.614(9)
_cell_angle_gamma                72.095(10)
_cell_formula_units_Z            2
_cell_length_a                   6.9841(14)
_cell_length_b                   8.3241(18)
_cell_length_c                   13.116(3)
_cell_measurement_reflns_used    4522
_cell_measurement_temperature    296(2)
_cell_measurement_theta_max      31.211
_cell_measurement_theta_min      2.578
_cell_volume                     701.2(3)
_computing_cell_refinement
;
SAINT (Bruker, 2009)
;
_computing_data_collection
;
APEX2 (Bruker, 2009)
;
_computing_data_reduction
;
SAINT (Bruker, 2009)
;
_computing_molecular_graphics
;
ORTEP-3 for Windows (Farrugia, 2012)
;
_computing_publication_material
;
publCIF (Westrip, 2010)
;
_computing_structure_refinement
;
SHELXL2014 (Sheldrick, 2015)
;
_computing_structure_solution
;
SHELXS2014 (Sheldrick, 2008)
;
_diffrn_ambient_temperature      296(2)
_diffrn_measured_fraction_theta_full 1.000
_diffrn_measured_fraction_theta_max 0.993
_diffrn_measurement_device_type  'Bruker X8 APEX'
_diffrn_measurement_method       '\f and \w scans'
_diffrn_radiation_monochromator  graphite
_diffrn_radiation_source         'fine-focus sealed tube'
_diffrn_radiation_type           MoK\a
_diffrn_radiation_wavelength     0.71073
_diffrn_reflns_av_R_equivalents  0.0290
_diffrn_reflns_limit_h_max       10
_diffrn_reflns_limit_h_min       -10
_diffrn_reflns_limit_k_max       12
_diffrn_reflns_limit_k_min       -12
_diffrn_reflns_limit_l_max       19
_diffrn_reflns_limit_l_min       -19
_diffrn_reflns_number            28065
_diffrn_reflns_theta_full        25.242
_diffrn_reflns_theta_max         31.211
_diffrn_reflns_theta_min         2.578
_exptl_absorpt_coefficient_mu    0.376
_exptl_absorpt_correction_T_max  0.7462
_exptl_absorpt_correction_T_min  0.4786
_exptl_absorpt_correction_type   multi-scan
_exptl_absorpt_process_details
;
(SADABS; Bruker, 2009)
;
_exptl_crystal_colour            Colourless
_exptl_crystal_density_diffrn    1.380
_exptl_crystal_description       block
_exptl_crystal_F_000             304
_exptl_crystal_size_max          0.31
_exptl_crystal_size_mid          0.27
_exptl_crystal_size_min          0.21
_refine_diff_density_max         0.300
_refine_diff_density_min         -0.261
_refine_ls_extinction_method     none
_refine_ls_goodness_of_fit_ref   1.023
_refine_ls_hydrogen_treatment    constr
_refine_ls_matrix_type           full
_refine_ls_number_parameters     172
_refine_ls_number_reflns         4522
_refine_ls_number_restraints     0
_refine_ls_restrained_S_all      1.023
_refine_ls_R_factor_all          0.0517
_refine_ls_R_factor_gt           0.0392
_refine_ls_shift/su_max          0.000
_refine_ls_shift/su_mean         0.000
_refine_ls_structure_factor_coef Fsqd
_refine_ls_weighting_details
'w=1/[\s^2^(Fo^2^)+(0.0624P)^2^+0.1273P] where P=(Fo^2^+2Fc^2^)/3'
_refine_ls_weighting_scheme      calc
_refine_ls_wR_factor_gt          0.1051
_refine_ls_wR_factor_ref         0.1171
_reflns_number_gt                3618
_reflns_number_total             4522
_reflns_threshold_expression     'I > 2\s(I)'
_cod_data_source_file            is4001sup1.cif
_cod_data_source_block           I
_cod_depositor_comments          'Adding full bibliography for 1542489.cif.'
_cod_database_code               1542489
_cod_database_fobs_code          1542489
_shelx_space_group_comment
;
The symmetry employed for this shelxl refinement is uniquely defined
by the following loop, which should always be used as a source of
symmetry information in preference to the above space-group names.
They are only intended as comments.
;
_shelx_hkl_file
;
  -1   0   0 1580.24   37.90
  -1   0   0 1597.94   38.10
  -1   0   0 1531.25   38.10
  -1   0   0 1614.54   38.40
  -1   0   0 1596.34   38.00
  -1   0   0 1578.34   38.20
  -1   0   0 1737.63   38.10
  -1   0   0 1548.15   38.00
  -1   0   0 1624.44   37.80
   1   0   0 1609.04   38.10
   1   0   0 1533.45   38.00
   1   0   0 1537.95   38.20
   1   0   0 1544.55   38.20
  -2   0   0 2653.33   59.59
  -2   0   0 2451.35   59.79
  -2   0   0 2452.45   59.49
  -2   0   0 2475.55   59.79
  -2   0   0 2483.15   60.09
  -2   0   0 2531.65   59.49
  -2   0   0 2525.95   60.09
  -2   0   0 2552.94   59.49
  -2   0   0 2363.66   58.49
   2   0   0 2400.56   59.49
   2   0   0 2618.44   59.69
   2   0   0 2426.96   59.09
   2   0   0 2414.36   59.59
   2   0   0 2491.25   59.49
   2   0   0 2524.85   59.39
   2   0   0 2456.35   60.09
   2   0   0 2418.96   59.29
  -3   0   0    9.40    0.50
  -3   0   0    9.00    0.50
  -3   0   0    9.60    0.50
   3   0   0   10.00    0.60
   3   0   0    9.50    0.70
   3   0   0    9.10    0.50
   3   0   0    8.60    0.50
   3   0   0    9.30    0.50
  -4   0   0   -0.10    0.30
  -4   0   0   -0.20    0.30
  -4   0   0   -0.20    0.30
  -4   0   0    0.00    0.20
   4   0   0   -0.30    0.20
   4   0   0   -0.30    0.40
   4   0   0    0.10    0.20
  -5   0   0  107.19    3.30
  -5   0   0  109.09    3.20
  -5   0   0  112.79    3.20
   5   0   0  111.79    3.10
   5   0   0  106.69    3.10
   5   0   0  110.19    3.50
  -6   0   0   50.89    2.00
  -6   0   0   58.39    2.10
  -6   0   0   51.69    2.00
   6   0   0   53.79    1.90
   6   0   0   53.89    2.30
   6   0   0   53.29    1.90
  -7   0   0    4.30    0.80
  -7   0   0    4.30    0.70
  -7   0   0    3.70    0.70
   7   0   0    4.80    0.70
   7   0   0    5.20    0.80
   7   0   0    4.70    1.00
   7   0   0    5.70    0.70
  -8   0   0    0.50    0.60
  -8   0   0   -0.90    0.50
   8   0   0    0.20    0.50
   8   0   0    0.50    0.50
   8   0   0   -1.00    0.80
   8   0   0    0.10    0.60
  -9   0   0    2.00    0.80
  -9   0   0   -1.60    0.60
   9   0   0    0.50    0.60
   9   0   0    1.20    0.80
   9   0   0    2.20    1.00
   9  -1   0    3.70    1.00
   9  -1   0    2.70    0.80
   9  -1   0    4.40    0.90
  -9   1   0    2.70    0.90
  -9   1   0    4.50    1.00
   8  -1   0    1.60    0.60
   8  -1   0    1.60    0.90
   8  -1   0    2.00    0.70
   8  -1   0    1.80    0.70
  -8   1   0    1.10    0.80
  -8   1   0    3.70    0.90
   7  -1   0    1.60    0.50
   7  -1   0    1.00    0.60
   7  -1   0    2.00    0.60
   7  -1   0    0.60    0.80
  -7   1   0    1.80    0.60
  -7   1   0    2.40    0.70
   6  -1   0   26.90    1.30
   6  -1   0   27.00    1.30
   6  -1   0   28.10    1.70
   6  -1   0   27.10    1.30
  -6   1   0   26.30    1.50
  -6   1   0   29.40    1.50
   5  -1   0   70.59    2.30
   5  -1   0   75.09    2.30
   5  -1   0   72.39    2.60
   5  -1   0   71.99    2.30
  -5   1   0   71.49    2.40
  -5   1   0   68.09    2.50
  -5   1   0   71.59    2.40
   4  -1   0   28.00    1.40
   4  -1   0   28.70    1.10
   4  -1   0   27.90    1.10
   4  -1   0   27.00    1.10
  -4   1   0   28.20    1.30
  -4   1   0   28.30    1.30
  -4   1   0   27.30    1.10
  -4   1   0   27.80    1.20
   3  -1   0  249.28    5.80
   3  -1   0  233.38    6.00
   3  -1   0  237.88    6.00
   3  -1   0  235.38    6.20
  -3   1   0  245.68    6.10
  -3   1   0  244.28    6.20
  -3   1   0  243.68    6.20
   2  -1   0  138.89    3.80
   2  -1   0  145.09    3.50
   2  -1   0  146.29    3.60
   2  -1   0  143.09    3.70
   2  -1   0  144.79    3.70
  -2   1   0  142.59    3.70
  -2   1   0  144.19    3.70
  -2   1   0  142.59    3.70
  -2   1   0  154.08    3.70
   1  -1   0  202.38    5.00
   1  -1   0  192.38    5.10
   1  -1   0  215.78    5.10
   1  -1   0  199.08    5.00
   1  -1   0  212.18    5.10
   1  -1   0  214.38    5.10
  -1   1   0  203.18    5.10
  -1   1   0  216.88    5.00
  -1   1   0  215.18    5.10
  -1   1   0  211.18    5.00
   0  -1   0  640.04   16.60
   0  -1   0  648.14   16.80
   0  -1   0  748.03   16.80
   0  -1   0  781.62   16.70
   0  -1   0  712.13   16.70
   0  -1   0  758.32   16.60
   0   1   0  747.73   16.90
   0   1   0  582.14   16.50
   0   1   0  713.23   16.90
   0   1   0  606.44   16.60
   0   1   0  689.53   16.80
   0   1   0  686.03   16.80
   0   1   0  693.03   16.70
  -1  -1   0    0.80    0.10
  -1  -1   0    0.80    0.10
  -1  -1   0    0.60    0.10
  -1  -1   0    0.90    0.10
  -1  -1   0    0.80    0.10
  -1  -1   0    0.70    0.10
  -1  -1   0    0.80    0.10
  -1  -1   0    0.90    0.10
   1   1   0    0.70    0.10
   1   1   0    0.60    0.10
   1   1   0    0.60    0.10
   1   1   0    0.80    0.10
   1   1   0    0.60    0.10
   1   1   0    1.10    0.10
   1   1   0    0.60    0.10
  -2  -1   0  333.17    7.90
  -2  -1   0  328.67    8.10
  -2  -1   0  335.37    7.90
  -2  -1   0  325.57    7.90
  -2  -1   0  309.07    7.80
  -2  -1   0  322.57    8.00
  -2  -1   0  330.97    7.90
  -2  -1   0  341.77    7.90
  -2  -1   0  342.97    8.00
   2   1   0  321.17    7.90
   2   1   0  346.47    8.00
   2   1   0  332.37    7.90
   2   1   0  330.57    8.00
   2   1   0  308.67    7.90
   2   1   0  334.47    7.90
   2   1   0  310.67    8.00
   2   1   0  326.57    8.00
   2   1   0  335.47    7.90
   2   1   0  333.57    7.90
  -3  -1   0   25.90    0.90
  -3  -1   0   26.80    1.00
  -3  -1   0   29.00    0.90
  -3  -1   0   26.50    1.00
  -3  -1   0   25.20    0.90
   3   1   0   26.20    1.10
   3   1   0   25.40    0.90
   3   1   0   27.50    0.90
   3   1   0   25.90    1.10
   3   1   0   25.90    0.80
   3   1   0   25.00    0.90
   3   1   0   25.20    1.00
  -4  -1   0   69.89    2.10
  -4  -1   0   68.49    2.20
  -4  -1   0   71.19    1.70
  -4  -1   0   65.69    2.10
   4   1   0   68.79    2.00
   4   1   0   70.79    2.30
   4   1   0   69.99    2.30
   4   1   0   67.79    2.20
   4   1   0   71.29    2.00
  -5  -1   0   36.20    1.40
  -5  -1   0   37.10    1.50
  -5  -1   0   36.60    1.50
   5   1   0   35.70    1.30
   5   1   0   33.90    1.70
   5   1   0   36.70    1.40
   5   1   0   36.00    1.70
   5   1   0   35.70    1.50
  -6  -1   0   67.59    2.30
  -6  -1   0   67.49    1.80
  -6  -1   0   64.29    2.30
  -6  -1   0   64.69    2.30
   6   1   0   64.19    2.60
   6   1   0   65.79    2.20
   6   1   0   67.79    2.10
   6   1   0   66.89    2.40
  -7  -1   0    8.00    0.90
  -7  -1   0    8.60    1.00
  -7  -1   0    9.80    1.00
   7   1   0    9.00    1.20
   7   1   0    9.10    0.80
   7   1   0    9.20    0.90
  -8  -1   0    0.20    0.50
  -8  -1   0    0.60    0.60
  -8  -1   0    0.00    0.60
   8   1   0   -0.70    0.50
   8   1   0    0.40    0.50
   8   1   0   -0.40    0.60
   8   1   0   -0.20    0.80
  -9  -1   0   12.90    1.40
  -9  -1   0   16.10    1.60
  -9  -1   0   17.20    1.60
   9   1   0   17.70    1.90
   9   1   0   15.60    1.40
   9   1   0   18.50    1.50
   8  -2   0   22.20    2.00
   8  -2   0   17.40    1.30
   8  -2   0   18.20    1.40
   8  -2   0   16.20    1.50
  -8   2   0   20.70    1.60
  -8   2   0   15.80    1.60
   7  -2   0   19.60    1.20
   7  -2   0   16.60    1.20
   7  -2   0   18.20    1.30
   7  -2   0   19.20    1.60
  -7   2   0   19.10    1.30
  -7   2   0   18.40    1.50
   6  -2   0   27.70    1.40
   6  -2   0   24.30    1.40
   6  -2   0   26.80    1.30
   6  -2   0   24.80    1.70
  -6   2   0   27.20    1.50
  -6   2   0   25.00    1.50
   5  -2   0    2.20    0.50
   5  -2   0    1.90    0.70
   5  -2   0    2.40    0.50
   5  -2   0    3.00    0.50
  -5   2   0    2.10    0.50
  -5   2   0    2.70    0.60
   4  -2   0   36.90    1.10
   4  -2   0   32.70    1.60
   4  -2   0   35.50    1.40
   4  -2   0   38.10    1.40
   4  -2   0   34.30    1.30
  -4   2   0   38.40    1.50
  -4   2   0   37.50    1.50
  -4   2   0   34.60    1.50
   3  -2   0   21.60    0.90
   3  -2   0   20.70    0.70
   3  -2   0   18.60    1.00
   3  -2   0   21.80    0.90
  -3   2   0   20.50    1.00
  -3   2   0   21.80    1.00
  -3   2   0   20.70    0.90
   2  -2   0   66.19    2.10
   2  -2   0   70.29    1.90
   2  -2   0   68.79    1.90
   2  -2   0   69.49    1.80
   2  -2   0   67.59    1.90
  -2   2   0   66.89    2.00
  -2   2   0   68.09    2.00
   1  -2   0  392.86   10.00
   1  -2   0  413.06    9.90
   1  -2   0  415.66    9.80
   1  -2   0  416.26    9.90
  -1   2   0  407.66    9.90
  -1   2   0  396.96    9.90
  -1   2   0  426.86    9.80
  -1   2   0  424.96   10.10
  -1   2   0  402.46   10.00
   0  -2   0   76.09    1.90
   0  -2   0   79.19    2.00
   0  -2   0   78.89    2.00
   0  -2   0   76.69    1.90
   0  -2   0   72.49    1.90
   0   2   0   75.39    1.90
   0   2   0   71.79    2.00
   0   2   0   73.29    2.00
   0   2   0   73.79    2.00
   0   2   0   73.69    1.90
   0   2   0   77.19    1.90
   0   2   0   71.49    2.00
  -1  -2   0 4067.99   90.09
  -1  -2   0 3889.21   89.99
  -1  -2   0 3695.43   89.79
  -1  -2   0 3453.15   90.29
  -1  -2   0 3788.82   90.29
  -1  -2   0 3866.01   89.79
   1   2   0 3853.61   89.69
   1   2   0 3652.83   89.79
   1   2   0 4056.69   90.19
   1   2   0 3535.65   90.39
   1   2   0 3802.72   90.39
   1   2   0 3881.61   89.79
   1   2   0 3620.54   89.89
  -2  -2   0   51.39    1.40
  -2  -2   0   53.49    1.30
  -2  -2   0   49.00    1.40
  -2  -2   0   57.19    1.50
  -2  -2   0   50.69    1.50
  -2  -2   0   50.19    1.30
  -2  -2   0   50.09    1.50
  -2  -2   0   49.30    1.50
   2   2   0   48.50    1.40
   2   2   0   52.89    1.40
   2   2   0   49.10    1.50
   2   2   0   47.70    1.50
   2   2   0   49.90    1.50
  -3  -2   0   61.19    1.80
  -3  -2   0   60.99    1.70
  -3  -2   0   62.49    1.60
  -3  -2   0   63.09    1.90
   3   2   0   63.09    1.70
   3   2   0   62.89    1.70
   3   2   0   62.39    1.90
   3   2   0   60.69    1.80
   3   2   0   59.49    1.90
   3   2   0   59.49    1.90
  -4  -2   0    0.40    0.30
  -4  -2   0    0.60    0.20
  -4  -2   0    0.30    0.20
   4   2   0    0.70    0.30
   4   2   0    0.30    0.30
   4   2   0    0.70    0.40
   4   2   0    0.50    0.20
   4   2   0    0.70    0.30
   4   2   0    0.80    0.30
  -5  -2   0  407.86   10.20
  -5  -2   0  408.56   10.10
  -5  -2   0  403.76   10.20
   5   2   0  406.66   10.50
   5   2   0  399.36   10.50
   5   2   0  407.36   10.30
   5   2   0  420.86   10.00
   5   2   0  399.16   10.10
   5   2   0  427.56   10.20
  -6  -2   0  141.89    4.00
  -6  -2   0  144.09    4.10
  -6  -2   0  142.29    4.20
   6   2   0  148.89    4.50
   6   2   0  143.99    4.10
   6   2   0  148.69    4.30
   6   2   0  146.89    4.50
   6   2   0  146.29    3.90
  -7  -2   0   63.19    2.40
  -7  -2   0   62.29    2.30
  -7  -2   0   61.99    2.20
   7   2   0   63.39    2.50
   7   2   0   62.89    2.60
   7   2   0   61.39    2.70
   7   2   0   60.59    2.20
   7   2   0   61.19    2.10
  -8  -2   0   62.29    2.40
  -8  -2   0   60.79    2.50
  -8  -2   0   57.59    2.50
   8   2   0   62.89    2.40
   8   2   0   66.79    2.90
  -9  -2   0    1.50    0.80
  -9  -2   0    1.10    0.70
   9   2   0    0.90    1.00
   9   2   0   -0.20    0.60
   8  -3   0   23.40    2.00
   8  -3   0   20.90    1.50
   8  -3   0   20.40    1.60
   8  -3   0   16.50    1.60
  -8   3   0   20.80    1.70
  -8   3   0   18.30    1.80
   7  -3   0   19.60    1.70
   7  -3   0   15.70    1.20
   7  -3   0   17.70    1.30
   7  -3   0   17.30    1.30
  -7   3   0   16.70    1.40
  -7   3   0   18.60    1.70
   6  -3   0   25.00    1.40
   6  -3   0   24.20    1.40
   6  -3   0   23.80    1.70
  -6   3   0   23.20    1.70
  -6   3   0   26.10    1.50
   5  -3   0    0.90    0.50
   5  -3   0    1.00    0.30
   5  -3   0    1.20    0.50
   5  -3   0    0.70    0.50
   5  -3   0    1.00    0.50
  -5   3   0    0.80    0.50
  -5   3   0    1.30    0.60
   4  -3   0    1.50    0.30
   4  -3   0    1.60    0.50
   4  -3   0    1.30    0.50
   4  -3   0    0.80    0.40
   4  -3   0    1.90    0.30
   4  -3   0    1.30    0.40
  -4   3   0    1.30    0.50
  -4   3   0    1.50    0.50
  -4   3   0    1.50    0.50
   3  -3   0  442.86   11.10
   3  -3   0  456.95   10.80
   3  -3   0  447.16   11.00
   3  -3   0  443.86   10.90
   3  -3   0  455.45   11.00
   3  -3   0  438.36   11.30
  -3   3   0  448.26   11.30
  -3   3   0  444.46   11.10
   2  -3   0  411.26   10.50
   2  -3   0  428.06   10.30
   2  -3   0  430.56   10.30
   2  -3   0  425.16   10.10
  -2   3   0  424.16   10.50
  -2   3   0  423.46   10.40
  -2   3   0  418.96   10.40
   1  -3   0   16.40    0.60
   1  -3   0   16.20    0.60
  -1   3   0   16.60    0.60
  -1   3   0   15.70    0.80
  -1   3   0   15.80    0.70
  -1   3   0   15.70    0.70
   0  -3   0    4.50    0.30
   0  -3   0    5.30    0.20
   0  -3   0    4.80    0.30
   0  -3   0    4.90    0.30
   0   3   0    4.90    0.40
   0   3   0    5.20    0.20
   0   3   0    5.00    0.40
   0   3   0    5.10    0.30
   0   3   0    4.70    0.40
  -1  -3   0   54.69    1.40
  -1  -3   0   53.19    1.50
  -1  -3   0   54.59    1.50
  -1  -3   0   52.39    1.50
  -1  -3   0   51.89    1.60
   1   3   0   51.59    1.50
   1   3   0   52.69    1.60
   1   3   0   51.69    1.60
   1   3   0   53.49    1.50
   1   3   0   52.09    1.40
   1   3   0   52.39    1.60
  -2  -3   0    1.70    0.10
  -2  -3   0    1.70    0.30
  -2  -3   0    1.30    0.20
  -2  -3   0    1.40    0.30
  -2  -3   0    1.80    0.20
   2   3   0    1.80    0.30
   2   3   0    1.60    0.20
   2   3   0    1.60    0.30
   2   3   0    1.70    0.30
  -3  -3   0   81.19    2.00
  -3  -3   0   80.99    2.40
  -3  -3   0   79.69    2.20
  -3  -3   0   86.19    2.20
  -3  -3   0   81.69    2.30
  -3  -3   0   81.99    2.50
   3   3   0   83.89    2.50
   3   3   0   84.69    2.10
   3   3   0   79.29    2.40
   3   3   0   81.89    2.40
   3   3   0   77.29    2.20
  -4  -3   0   49.40    1.60
  -4  -3   0   48.60    1.40
  -4  -3   0   51.49    1.80
   4   3   0   50.19    1.80
   4   3   0   49.80    1.80
   4   3   0   46.90    1.70
   4   3   0   48.70    1.60
   4   3   0   46.70    1.50
  -5  -3   0  263.37    6.80
  -5  -3   0  263.47    6.60
   5   3   0  259.07    6.70
   5   3   0  256.77    6.70
   5   3   0  272.57    7.20
   5   3   0  271.97    7.00
   5   3   0  251.17    7.00
   5   3   0  266.27    6.50
  -6  -3   0    2.40    0.50
  -6  -3   0    4.10    0.60
  -6  -3   0    3.40    0.60
   6   3   0    4.00    0.70
   6   3   0    3.00    0.60
   6   3   0    3.90    0.50
   6   3   0    4.00    0.60
   6   3   0    3.80    0.80
   6   3   0    4.10    0.80
  -7  -3   0    6.50    0.70
  -7  -3   0    5.70    0.80
  -7  -3   0    6.20    0.80
   7   3   0    5.60    1.00
   7   3   0    7.10    0.70
   7   3   0    5.40    0.80
   7   3   0    4.30    0.90
   7   3   0    6.30    0.90
  -8  -3   0   42.80    2.00
  -8  -3   0   41.50    2.00
   8   3   0   43.60    2.20
   8   3   0   43.60    1.90
   8   3   0   42.70    2.50
  -9  -3   0   -0.10    0.70
  -9  -3   0   -0.20    0.50
   9   3   0    0.30    0.60
   9   3   0   -0.50    0.90
   7  -4   0   12.60    1.30
   7  -4   0   11.90    1.30
   7  -4   0   14.50    1.70
  -7   4   0   13.60    1.40
  -7   4   0   11.60    1.50
  -7   4   0   12.80    1.50
   6  -4   0   36.00    2.10
   6  -4   0   32.60    1.60
   6  -4   0   34.20    1.70
   6  -4   0   33.00    1.80
  -6   4   0   28.80    1.70
  -6   4   0   34.10    1.80
  -6   4   0   33.40    2.10
   5  -4   0   15.20    1.00
   5  -4   0   17.60    1.20
   5  -4   0   15.20    1.10
   5  -4   0   17.40    1.40
  -5   4   0   18.60    1.20
  -5   4   0   15.10    1.30
  -5   4   0   15.30    1.20
   4  -4   0    4.90    0.80
   4  -4   0    4.20    0.60
   4  -4   0    5.90    0.80
   4  -4   0    6.00    0.50
   4  -4   0    5.30    0.60
   4  -4   0    5.50    0.40
  -4   4   0    5.90    0.70
  -4   4   0    7.00    0.90
  -4   4   0    5.40    0.70
   3  -4   0   -0.50    0.30
   3  -4   0    0.00    0.30
   3  -4   0    0.10    0.30
   3  -4   0    0.20    0.20
  -3   4   0   -0.30    0.40
  -3   4   0   -0.20    0.40
  -3   4   0    0.20    0.30
  -3   4   0    0.00    0.20
   2  -4   0    6.00    0.50
   2  -4   0    5.70    0.40
  -2   4   0    5.50    0.60
  -2   4   0    5.90    0.70
  -2   4   0    6.50    0.60
   1  -4   0   22.00    0.80
  -1   4   0   23.80    1.00
  -1   4   0   22.70    1.00
  -1   4   0   23.20    0.80
  -1   4   0   21.30    1.00
   0  -4   0    1.30    0.10
   0  -4   0    1.60    0.30
   0  -4   0    1.10    0.20
   0  -4   0    1.60    0.30
   0   4   0    0.70    0.20
   0   4   0    1.30    0.10
   0   4   0    1.10    0.30
   0   4   0    1.20    0.30
   0   4   0    1.20    0.30
  -1  -4   0   63.89    2.00
  -1  -4   0   66.19    1.80
  -1  -4   0   62.79    1.80
  -1  -4   0   62.09    1.80
  -1  -4   0   60.79    1.80
   1   4   0   59.29    1.70
   1   4   0   60.69    1.80
   1   4   0   62.89    1.80
   1   4   0   62.39    1.90
   1   4   0   63.59    2.00
  -2  -4   0   11.80    0.40
  -2  -4   0   11.70    0.60
  -2  -4   0   12.00    0.70
   2   4   0   10.70    0.60
   2   4   0   12.20    0.70
   2   4   0   11.60    0.60
   2   4   0   12.40    0.70
  -3  -4   0  274.97    7.00
  -3  -4   0  282.87    7.00
  -3  -4   0  280.67    7.30
  -3  -4   0  285.37    7.10
  -3  -4   0  291.97    6.70
  -3  -4   0  283.57    6.70
   3   4   0  273.37    7.20
   3   4   0  279.67    7.00
   3   4   0  274.07    7.30
   3   4   0  282.77    7.20
  -4  -4   0    0.90    0.10
  -4  -4   0    0.50    0.30
  -4  -4   0    0.90    0.40
  -4  -4   0    0.00    0.30
   4   4   0    0.60    0.30
   4   4   0    1.00    0.40
   4   4   0    0.80    0.20
   4   4   0    1.30    0.40
   4   4   0    0.70    0.40
   4   4   0    0.90    0.30
  -5  -4   0   26.40    0.90
  -5  -4   0   23.00    1.10
   5   4   0   25.30    1.40
   5   4   0   25.00    1.30
   5   4   0   27.30    1.20
   5   4   0   27.00    1.40
   5   4   0   25.60    1.10
  -6  -4   0  106.29    2.90
  -6  -4   0  108.39    3.30
   6   4   0  104.29    3.20
   6   4   0  109.59    3.70
   6   4   0  111.29    3.30
   6   4   0  111.79    3.60
   6   4   0  111.39    3.60
  -7  -4   0   49.00    2.10
  -7  -4   0   52.19    2.10
   7   4   0   51.19    2.40
   7   4   0   49.20    2.20
   7   4   0   50.49    2.00
   7   4   0   53.89    2.50
   7   4   0   47.30    2.00
  -8  -4   0    8.60    1.10
  -8  -4   0    5.80    1.00
   8   4   0    6.60    1.10
   8   4   0    7.40    0.90
   8   4   0    7.20    1.20
  -9  -4   0    1.40    0.80
  -9  -4   0    2.20    0.90
   9   4   0    4.20    0.90
   9   4   0    3.50    1.20
   9   4   0    2.20    0.90
   7  -5   0   -0.40    0.60
   7  -5   0    0.60    0.80
  -7   5   0   -0.10    0.70
  -7   5   0    0.00    0.80
  -7   5   0    0.10    0.80
   6  -5   0    1.50    0.70
   6  -5   0    2.20    0.70
  -6   5   0    1.10    0.60
  -6   5   0    0.80    0.70
  -6   5   0    1.30    0.80
   5  -5   0    2.50    0.80
   5  -5   0    0.30    0.50
  -5   5   0    1.90    0.80
  -5   5   0    1.50    0.70
  -5   5   0    1.90    0.60
   4  -5   0    8.60    0.90
   4  -5   0    8.00    1.00
   4  -5   0    8.10    0.70
  -4   5   0    6.10    0.80
  -4   5   0    7.30    1.00
  -4   5   0    7.10    0.90
   3  -5   0   12.00    0.60
   3  -5   0   11.60    0.80
   3  -5   0   10.20    0.80
  -3   5   0   10.40    0.90
  -3   5   0    9.70    1.00
  -3   5   0   11.40    0.90
   2  -5   0    0.70    0.20
   2  -5   0    0.50    0.30
  -2   5   0    0.80    0.40
  -2   5   0   -0.30    0.30
  -2   5   0    0.50    0.50
   1  -5   0   95.69    2.80
   1  -5   0   98.69    2.80
   1  -5   0   99.29    2.70
  -1   5   0  101.49    2.90
  -1   5   0   98.29    3.00
  -1   5   0   94.69    2.80
  -1   5   0   97.59    2.90
  -1   5   0   97.59    2.90
   0  -5   0  142.39    3.70
   0  -5   0  141.29    3.80
   0  -5   0  138.79    3.80
   0   5   0  140.29    4.00
   0   5   0  145.39    3.80
   0   5   0  144.39    3.90
   0   5   0  144.79    3.90
  -1  -5   0  127.49    3.40
  -1  -5   0  122.99    3.40
  -1  -5   0  124.59    3.40
  -1  -5   0  129.09    3.60
   1   5   0  127.79    3.60
   1   5   0  128.79    3.60
   1   5   0  127.49    3.40
   1   5   0  126.89    3.40
   1   5   0  121.09    3.40
  -2  -5   0   12.10    0.70
  -2  -5   0   11.10    0.80
  -2  -5   0   11.30    0.70
  -2  -5   0   12.50    0.50
   2   5   0   10.10    0.60
   2   5   0   10.40    0.60
   2   5   0   11.20    0.80
   2   5   0   12.50    0.80
  -3  -5   0  169.58    4.00
  -3  -5   0  160.88    4.50
  -3  -5   0  162.48    4.30
  -3  -5   0  160.48    4.30
  -3  -5   0  166.78    4.60
   3   5   0  162.68    4.30
   3   5   0  164.38    4.50
   3   5   0  163.18    4.60
   3   5   0  163.58    4.60
  -4  -5   0    0.20    0.40
  -4  -5   0    0.50    0.30
  -4  -5   0    0.00    0.30
   4   5   0    1.00    0.40
   4   5   0    0.30    0.40
   4   5   0    0.50    0.30
   4   5   0    0.60    0.40
  -5  -5   0  168.98    4.80
  -5  -5   0  180.98    4.70
   5   5   0  174.18    4.70
   5   5   0  174.78    5.20
   5   5   0  174.88    5.00
   5   5   0  175.38    5.00
   5   5   0  180.28    4.80
  -6  -5   0   35.20    1.60
   6   5   0   37.30    1.80
   6   5   0   34.40    1.90
   6   5   0   37.10    1.80
   6   5   0   35.50    1.50
   6   5   0   37.40    1.50
  -7  -5   0    3.40    0.70
   7   5   0    3.60    0.70
   7   5   0    1.60    0.80
   7   5   0    3.00    0.60
   7   5   0    2.20    0.80
   7   5   0    3.00    0.80
  -8  -5   0    4.70    0.90
  -8  -5   0    6.40    0.90
   8   5   0    4.30    0.80
   8   5   0    3.80    1.00
   8   5   0    5.60    0.80
   8   5   0    3.80    1.10
  -9  -5   0    0.40    0.70
  -9  -5   0    1.30    0.70
   9   5   0   -0.30    0.80
   9   5   0    1.00    0.70
   9   5   0   -1.50    0.80
   6  -6   0    1.80    0.90
   6  -6   0    1.70    0.70
  -6   6   0    1.40    0.80
  -6   6   0    0.50    0.90
  -6   6   0    1.60    0.80
   5  -6   0    5.70    0.80
   5  -6   0    5.70    1.00
  -5   6   0    5.60    1.00
  -5   6   0    6.00    0.90
  -5   6   0    3.00    0.90
   4  -6   0    2.30    0.60
   4  -6   0    2.50    0.60
   4  -6   0    2.90    0.80
  -4   6   0    1.30    0.70
  -4   6   0    1.90    0.60
  -4   6   0    3.40    0.80
   3  -6   0   36.30    1.50
   3  -6   0   34.90    1.50
  -3   6   0   32.70    1.60
  -3   6   0   33.30    1.60
  -3   6   0   35.20    1.80
   2  -6   0   26.90    1.00
   2  -6   0   25.50    1.20
  -2   6   0   26.40    1.30
  -2   6   0   27.80    1.40
  -2   6   0   27.60    1.30
  -2   6   0   28.20    1.30
  -2   6   0   27.10    1.50
   1  -6   0  176.08    4.70
   1  -6   0  177.78    4.80
   1  -6   0  174.18    4.80
  -1   6   0  186.08    5.10
  -1   6   0  180.88    5.00
  -1   6   0  179.58    4.90
  -1   6   0  187.98    5.10
   0  -6   0  147.99    3.90
   0  -6   0  146.79    4.00
   0  -6   0  140.79    3.90
   0   6   0  145.79    4.20
   0   6   0  143.49    4.00
   0   6   0  146.99    4.00
   0   6   0  137.29    4.10
  -1  -6   0   45.30    1.50
  -1  -6   0   44.10    1.60
  -1  -6   0   44.20    1.50
  -1  -6   0   46.30    1.40
   1   6   0   44.60    1.50
   1   6   0   43.60    1.60
   1   6   0   46.90    1.80
   1   6   0   42.80    1.60
   1   6   0   43.20    1.70
  -2  -6   0    0.00    0.30
  -2  -6   0    0.50    0.30
  -2  -6   0   -0.50    0.40
   2   6   0    0.30    0.40
   2   6   0    0.80    0.30
   2   6   0    0.30    0.30
   2   6   0    0.30    0.30
  -3  -6   0   17.80    0.90
  -3  -6   0   20.30    0.60
  -3  -6   0   18.80    1.00
  -3  -6   0   16.10    1.10
   3   6   0   19.60    1.00
   3   6   0   19.70    1.10
   3   6   0   18.30    1.00
   3   6   0   19.90    1.10
   3   6   0   19.20    1.20
  -4  -6   0    1.90    0.50
  -4  -6   0    1.40    0.60
  -4  -6   0    2.70    0.50
   4   6   0    2.40    0.60
   4   6   0    2.60    0.50
   4   6   0    2.00    0.60
   4   6   0    2.40    0.50
  -5  -6   0   67.79    2.20
  -5  -6   0   67.69    2.30
   5   6   0   72.59    2.30
   5   6   0   68.29    2.50
   5   6   0   68.19    2.50
   5   6   0   70.49    2.70
  -6  -6   0    0.60    0.40
   6   6   0    0.80    0.60
   6   6   0    0.20    0.60
   6   6   0    0.80    0.40
   6   6   0    0.80    0.50
   6   6   0    0.70    0.60
  -7  -6   0    3.50    0.70
   7   6   0    3.40    0.70
   7   6   0    2.10    0.80
   7   6   0    2.20    0.90
   7   6   0    3.60    0.70
   7   6   0    2.00    0.80
  -8  -6   0   21.20    1.40
  -8  -6   0   22.40    1.50
   8   6   0   20.20    1.40
   8   6   0   20.20    1.80
   8   6   0   18.20    1.70
   8   6   0   23.80    1.50
  -9  -6   0    3.50    0.90
  -9  -6   0    3.80    0.90
   9   6   0    3.40    0.90
   9   6   0    1.40    1.10
   9   6   0    0.60    1.00
   5  -7   0   -0.10    0.50
   5  -7   0   -1.20    0.60
  -5   7   0   -0.60    0.60
  -5   7   0    0.30    0.60
  -5   7   0    0.60    0.70
   4  -7   0    4.50    0.90
   4  -7   0    3.00    0.70
  -4   7   0    1.90    0.90
  -4   7   0    3.40    0.70
  -4   7   0    3.90    0.80
  -4   7   0    2.50    0.80
  -4   7   0    2.90    0.90
   3  -7   0   18.80    1.20
   3  -7   0   17.70    1.40
   3  -7   0   17.10    1.20
  -3   7   0   17.10    1.20
  -3   7   0   17.90    1.30
  -3   7   0   17.70    1.30
  -3   7   0   17.30    1.40
  -3   7   0   18.40    1.60
   2  -7   0   10.10    0.90
   2  -7   0    7.90    0.90
   2  -7   0    9.90    0.90
   2  -7   0    9.70    0.70
  -2   7   0    9.90    1.10
  -2   7   0    9.20    0.90
  -2   7   0    9.90    1.10
  -2   7   0    7.40    0.90
  -2   7   0    8.60    0.90
   1  -7   0   97.59    3.10
   1  -7   0   95.99    3.00
   1  -7   0  100.99    2.90
  -1   7   0  100.89    3.20
  -1   7   0   93.09    3.10
  -1   7   0   99.79    3.10
  -1   7   0  101.49    3.30
   0  -7   0    6.30    0.70
   0  -7   0    7.30    0.60
   0  -7   0    6.60    0.70
   0   7   0    6.30    0.70
   0   7   0    6.00    0.70
   0   7   0    7.20    0.80
   0   7   0    5.70    0.70
  -1  -7   0   -0.30    0.20
  -1  -7   0    0.00    0.40
  -1  -7   0   -0.20    0.30
  -1  -7   0   -0.60    0.30
   1   7   0    0.10    0.40
   1   7   0   -0.30    0.40
   1   7   0    0.10    0.30
   1   7   0    0.30    0.40
   1   7   0    0.40    0.30
  -2  -7   0    1.00    0.50
  -2  -7   0    1.10    0.40
   2   7   0    1.80    0.40
   2   7   0    1.80    0.50
   2   7   0    2.00    0.50
   2   7   0    2.10    0.50
  -3  -7   0    0.70    0.40
  -3  -7   0    1.10    0.50
   3   7   0    1.50    0.40
   3   7   0    1.40    0.50
   3   7   0    0.80    0.50
   3   7   0    1.60    0.50
  -4  -7   0    9.50    0.80
  -4  -7   0    7.20    0.70
  -4  -7   0    7.00    0.90
   4   7   0    8.40    0.90
   4   7   0    8.80    0.90
   4   7   0    6.90    0.70
   4   7   0    6.40    0.80
  -5  -7   0    0.70    0.40
  -5  -7   0    1.00    0.40
   5   7   0    1.10    0.60
   5   7   0    0.70    0.60
   5   7   0    0.10    0.50
   5   7   0    1.10    0.40
  -6  -7   0    2.70    0.60
  -6  -7   0    3.40    0.60
   6   7   0    2.20    0.70
   6   7   0    2.50    0.60
   6   7   0    3.20    0.80
   6   7   0    2.20    0.60
   6   7   0    2.10    0.70
  -7  -7   0   10.00    1.00
   7   7   0   11.40    1.10
   7   7   0    9.10    1.30
   7   7   0   10.30    1.30
   7   7   0   10.30    1.00
  -8  -7   0    6.00    1.00
   8   7   0    7.40    1.00
   8   7   0    6.80    1.20
   8   7   0    7.30    1.00
   8   7   0    6.40    1.20
  -9  -7   0    2.90    0.90
  -9  -7   0    3.90    1.00
   9   7   0    3.60    0.90
   9   7   0    2.50    0.90
   9   7   0    1.60    1.00
   9   7   0    2.60    1.20
  -5   8   0    1.00    1.00
   4  -8   0    4.10    0.90
   4  -8   0    4.60    0.90
   4  -8   0    3.40    0.90
  -4   8   0    3.30    0.90
  -4   8   0    7.00    1.30
  -4   8   0    4.60    0.90
   3  -8   0    3.10    0.70
   3  -8   0    4.10    0.80
   3  -8   0    4.20    0.90
   3  -8   0    4.80    1.00
  -3   8   0    2.10    0.90
  -3   8   0    1.90    0.60
  -3   8   0    4.30    1.00
  -3   8   0    3.30    0.80
   2  -8   0   13.90    1.30
   2  -8   0   14.30    1.20
   2  -8   0   14.40    1.10
  -2   8   0   15.70    1.30
  -2   8   0   15.80    1.30
  -2   8   0   14.90    1.40
  -2   8   0   15.60    1.20
   1  -8   0   16.50    0.90
   1  -8   0   15.10    1.10
   1  -8   0   18.40    1.20
  -1   8   0   18.00    1.30
  -1   8   0   15.90    1.20
  -1   8   0   16.70    1.20
  -1   8   0   17.30    1.20
   0  -8   0   19.90    1.10
   0  -8   0   21.80    1.20
   0  -8   0   22.70    1.10
   0   8   0   22.90    1.30
   0   8   0   22.80    1.40
   0   8   0   21.50    1.40
   0   8   0   24.20    1.30
  -1  -8   0    4.80    0.70
  -1  -8   0    5.20    0.70
  -1  -8   0    4.80    0.60
   1   8   0    5.10    0.70
   1   8   0    5.40    0.80
   1   8   0    4.90    0.70
   1   8   0    4.50    0.60
   1   8   0    5.60    0.70
  -2  -8   0    2.00    0.40
  -2  -8   0    1.20    0.50
  -2  -8   0    1.30    0.40
   2   8   0    3.10    0.60
   2   8   0    2.20    0.60
   2   8   0    1.40    0.50
   2   8   0    1.00    0.50
  -3  -8   0   10.70    1.00
  -3  -8   0    9.60    0.80
   3   8   0    9.20    1.00
   3   8   0    8.90    1.00
   3   8   0    9.80    0.90
   3   8   0   10.30    0.90
  -4  -8   0    1.20    0.50
  -4  -8   0    0.10    0.60
  -4  -8   0    0.40    0.40
   4   8   0    1.60    0.60
   4   8   0    0.60    0.60
   4   8   0    1.50    0.60
   4   8   0    1.80    0.50
  -5  -8   0    1.40    0.50
  -5  -8   0    0.50    0.50
   5   8   0    0.00    0.50
   5   8   0    0.90    0.50
   5   8   0    0.80    0.60
   5   8   0    1.30    0.60
  -6  -8   0    0.90    0.50
  -6  -8   0    0.50    0.50
   6   8   0    1.60    0.50
   6   8   0    1.10    0.60
   6   8   0    1.00    0.60
   6   8   0    0.50    0.70
  -7  -8   0    8.70    1.00
   7   8   0    7.30    1.00
   7   8   0    8.80    1.20
   7   8   0    8.70    1.00
   7   8   0    7.30    1.20
  -8  -8   0    0.40    0.70
   8   8   0    1.20    1.00
   8   8   0   -0.40    0.90
   8   8   0    0.90    0.70
   8   8   0    0.30    0.60
  -9  -8   0    6.10    1.00
   9   8   0    4.30    1.20
   9   8   0    5.80    1.00
   9   8   0    5.10    1.00
   9   8   0    5.70    1.40
   3  -9   0   13.10    1.40
   3  -9   0   14.10    1.50
   3  -9   0   13.50    1.40
   3  -9   0   12.40    1.30
  -3   9   0   14.30    1.50
  -3   9   0   12.90    1.50
   2  -9   0    9.80    1.10
   2  -9   0    9.80    1.30
   2  -9   0    9.30    1.10
  -2   9   0    9.60    1.10
  -2   9   0    9.50    1.30
  -2   9   0    8.10    1.10
   1  -9   0    1.30    0.80
   1  -9   0    0.10    0.50
   1  -9   0    0.00    0.60
  -1   9   0    0.20    0.60
  -1   9   0   -0.20    0.50
  -1   9   0   -0.50    0.60
  -1   9   0    0.90    0.60
   0  -9   0   11.50    1.00
   0  -9   0   10.40    0.90
   0  -9   0   10.60    1.00
   0   9   0   13.40    1.10
   0   9   0   10.60    1.10
   0   9   0   10.70    1.10
   0   9   0   11.50    1.20
  -1  -9   0    4.50    0.70
  -1  -9   0    3.30    0.60
  -1  -9   0    3.50    0.70
   1   9   0    3.00    0.60
   1   9   0    3.10    0.70
   1   9   0    2.10    0.70
   1   9   0    3.50    0.70
   1   9   0    2.70    0.70
  -2  -9   0    2.60    0.70
  -2  -9   0    2.20    0.60
   2   9   0    3.20    0.70
   2   9   0    2.20    0.60
   2   9   0    2.20    0.60
   2   9   0    2.50    0.70
  -3  -9   0    4.80    0.70
  -3  -9   0    5.10    0.70
  -3  -9   0    5.90    0.90
   3   9   0    4.30    0.90
   3   9   0    4.60    0.90
   3   9   0    4.80    0.70
   3   9   0    5.30    0.80
  -4  -9   0    6.90    0.90
  -4  -9   0    4.80    0.80
  -4  -9   0    5.20    0.70
   4   9   0    4.30    0.90
   4   9   0    5.00    0.70
   4   9   0    4.10    0.80
   4   9   0    4.40    0.80
  -5  -9   0    2.60    0.60
  -5  -9   0    0.80    0.60
   5   9   0    1.40    0.80
   5   9   0    0.70    0.50
   5   9   0    0.80    0.80
   5   9   0    0.40    0.60
  -6  -9   0    2.00    0.60
  -6  -9   0    0.00    0.50
   6   9   0    0.80    0.60
   6   9   0   -0.20    0.70
   6   9   0    0.30    0.60
  -7  -9   0    4.40    0.90
   7   9   0    3.90    0.80
   7   9   0    4.40    1.00
   7   9   0    2.00    0.90
   7   9   0    4.70    0.80
  -8  -9   0    0.90    0.80
   8   9   0    0.80    0.70
   8   9   0    0.80    0.90
   8   9   0    0.40    1.00
   8   9   0    1.70    0.70
   2 -10   0    2.70    1.00
   2 -10   0    1.90    0.80
   2 -10   0    2.60    0.70
   2 -10   0    3.40    0.90
  -2  10   0    3.60    1.00
  -2  10   0    3.70    0.90
   1 -10   0    5.00    0.90
   1 -10   0    4.90    1.00
   1 -10   0    3.00    0.70
  -1  10   0    4.70    0.90
  -1  10   0    4.40    0.90
  -1  10   0    6.40    1.00
   0 -10   0    3.70    0.80
   0 -10   0    2.80    0.70
   0 -10   0    2.90    0.90
   0  10   0    2.40    0.70
   0  10   0    3.20    0.80
   0  10   0    4.70    0.90
   0  10   0    2.50    0.80
   0  10   0    3.00    0.80
  -1 -10   0    0.80    0.50
  -1 -10   0    0.40    0.50
   1  10   0    1.40    0.60
   1  10   0    0.40    0.70
   1  10   0    0.30    0.50
   1  10   0    1.10    0.70
  -2 -10   0    0.20    0.60
  -2 -10   0   -0.60    0.50
   2  10   0    0.30    0.50
   2  10   0    0.90    0.60
   2  10   0   -0.10    0.60
   2  10   0    0.10    0.60
  -3 -10   0    2.10    0.70
  -3 -10   0    1.10    0.70
   3  10   0    0.20    0.70
   3  10   0    0.80    0.60
   3  10   0    0.20    0.60
   3  10   0    1.40    0.60
  -4 -10   0    7.40    1.10
  -4 -10   0    6.80    0.90
  -4 -10   0    7.90    1.00
   4  10   0    6.40    1.00
   4  10   0    7.40    0.90
   4  10   0    6.20    1.10
  -5 -10   0    1.20    0.60
  -5 -10   0    1.30    0.60
  -5 -10   0    1.90    0.70
   5  10   0    2.00    0.80
   5  10   0    1.30    0.80
   5  10   0    1.60    0.70
  -6 -10   0    0.30    0.60
  -6 -10   0    0.70    0.60
   6  10   0    0.80    0.80
   6  10   0    0.90    0.60
   6  10   0    1.00    0.80
  -7 -10   0    0.60    0.60
  -7 -10   0    1.20    0.70
   7  10   0   -1.40    0.60
   7  10   0    1.00    0.70
   7  10   0    0.90    0.60
   7  10   0    0.90    0.90
   1 -11   0    1.90    0.70
   1 -11   0    0.60    0.70
   1 -11   0    2.70    1.00
  -1  11   0    1.70    0.80
  -1  11   0    1.40    1.00
  -1  11   0    0.90    0.80
   0 -11   0    4.00    0.80
   0 -11   0    2.50    1.00
   0 -11   0    3.70    0.90
   0  11   0    2.20    0.80
   0  11   0    3.40    0.90
   0  11   0    3.70    0.90
  -1 -11   0    2.50    0.90
  -1 -11   0    0.70    0.70
   1  11   0    1.40    0.70
   1  11   0    2.20    0.70
   1  11   0    0.00    0.70
  -2 -11   0   -0.60    0.60
  -2 -11   0   -0.10    0.60
   2  11   0    0.70    0.70
   2  11   0   -0.40    0.60
   2  11   0   -0.10    0.60
  -3 -11   0    0.30    0.60
  -3 -11   0   -0.50    0.50
   3  11   0   -0.60    0.60
   3  11   0   -0.50    0.50
   3  11   0    0.90    0.70
  -4 -11   0    4.10    0.80
  -4 -11   0    5.00    0.90
   4  11   0    7.60    1.00
   4  11   0    3.30    0.90
   4  11   0    6.00    1.00
  -5 -11   0    4.60    0.90
  -5 -11   0    5.70    0.90
   5  11   0    5.10    0.90
   5  11   0    5.50    1.10
   5  11   0    4.30    1.00
  -6 -11   0    3.20    0.80
  -6 -11   0    0.80    0.60
   6  11   0    1.70    0.90
   6  11   0    1.70    0.70
   6  11   0    3.80    1.00
  -2 -12   0    0.50    0.90
  -2 -12   0    0.90    0.70
   2  12   0    0.50    0.70
   2  12   0    1.30    0.80
  -3 -12   0    3.70    0.80
   3  12   0    2.70    0.90
   3  12   0    2.50    0.90
   3  12   0    3.30    0.90
   3  12   0    2.50    0.90
  -4 -12   0    0.10    0.60
  -4 -12   0    0.90    0.70
   4  12   0   -0.50    0.60
   4  12   0    0.30    0.70
   4  12   0   -0.80    0.70
  -4 -12   1    1.10    0.90
   3  12  -1    5.90    1.20
   3  12  -1    5.50    1.00
   3  12  -1    7.40    1.20
   3  12  -1    5.00    1.00
  -3 -12   1    6.00    1.00
  -3 -12   1    6.90    1.40
  -3 -12   1    8.10    1.00
   2  12  -1    4.50    1.10
   2  12  -1    4.00    0.90
  -2 -12   1    3.50    1.20
  -2 -12   1    4.10    0.90
   6  11  -1   -0.40    0.80
   6  11  -1   -1.30    0.60
   6  11  -1    0.60    0.80
  -6 -11   1    0.20    0.70
  -6 -11   1   -0.40    0.60
  -6 -11   1    0.20    0.60
   5  11  -1    1.00    0.80
   5  11  -1   -0.60    0.70
   5  11  -1    0.40    0.60
  -5 -11   1    0.20    0.60
  -5 -11   1    0.90    0.70
   4  11  -1    0.90    0.60
   4  11  -1    1.70    0.80
   4  11  -1    1.40    0.80
  -4 -11   1    1.70    0.70
  -4 -11   1    1.40    0.60
   3  11  -1   -0.90    0.50
   3  11  -1   -0.80    0.60
   3  11  -1    0.10    0.60
  -3 -11   1   -0.30    0.50
   2  11  -1    2.40    0.90
   2  11  -1    2.60    0.70
   2  11  -1    2.80    0.80
  -2 -11   1    1.60    0.60
  -2 -11   1    2.20    0.90
   1  11  -1    1.40    0.80
   1  11  -1    2.60    0.80
   1  11  -1    2.90    0.80
  -1 -11   1    2.40    1.00
  -1 -11   1    1.90    0.70
   0  11  -1    0.70    0.70
   0  11  -1    1.70    0.70
   0  11  -1    2.30    0.80
   0 -11   1    2.20    1.00
   0 -11   1    0.40    0.60
   0 -11   1    1.10    0.60
  -1  11  -1    1.60    0.80
  -1  11  -1    0.50    0.70
  -1  11  -1   -1.20    0.70
   1 -11   1    0.50    0.60
   1 -11   1    0.40    0.80
   1 -11   1    0.50    0.90
   1 -11   1   -0.10    0.50
   7  10  -1   -1.30    0.70
   7  10  -1   -0.70    0.80
   7  10  -1    0.00    0.60
   7  10  -1    0.50    0.60
  -7 -10   1   -0.20    0.50
  -7 -10   1    0.00    0.70
  -7 -10   1    0.00    0.70
   6  10  -1    1.60    0.70
   6  10  -1    0.60    0.80
   6  10  -1    1.60    0.80
  -6 -10   1    3.30    0.80
  -6 -10   1    2.10    0.80
  -6 -10   1    0.70    0.60
   5  10  -1    1.00    0.70
   5  10  -1    1.60    0.90
   5  10  -1    1.80    0.70
  -5 -10   1    1.00    0.60
  -5 -10   1    1.80    0.70
  -5 -10   1    1.20    0.60
   4  10  -1    1.00    0.70
   4  10  -1   -0.10    0.60
   4  10  -1   -0.20    0.70
  -4 -10   1    0.00    0.50
  -4 -10   1    0.90    0.60
   3  10  -1    2.60    0.70
   3  10  -1    1.80    0.70
   3  10  -1    2.50    0.80
  -3 -10   1    2.30    0.70
   2  10  -1   29.80    2.00
   2  10  -1   28.10    1.60
   2  10  -1   31.30    2.00
   2  10  -1   31.70    1.70
  -2 -10   1   28.50    1.60
  -2 -10   1   31.10    1.60
   1  10  -1    2.00    0.70
   1  10  -1    3.10    0.80
   1  10  -1    3.40    0.80
   1  10  -1    3.80    0.80
  -1 -10   1    2.80    0.60
  -1 -10   1    2.90    0.70
  -1 -10   1    2.60    0.90
   0  10  -1    3.40    0.80
   0  10  -1    2.90    0.80
   0  10  -1    2.90    0.80
   0  10  -1    3.70    0.80
   0  10  -1    2.20    0.80
   0 -10   1    3.60    1.00
   0 -10   1    2.50    0.60
   0 -10   1    3.30    0.70
  -1  10  -1    1.80    0.70
  -1  10  -1    0.60    0.70
  -1  10  -1    0.50    0.60
   1 -10   1   -0.40    0.50
   1 -10   1    1.40    0.80
   1 -10   1    0.40    0.60
  -2  10  -1    5.20    1.00
  -2  10  -1    5.90    1.00
  -2  10  -1    5.50    1.10
   2 -10   1    6.20    1.10
   2 -10   1    5.40    0.90
   2 -10   1    7.30    1.00
   2 -10   1    3.90    1.00
   8   9  -1    4.10    1.20
   8   9  -1    3.40    0.90
   8   9  -1    1.60    1.20
   8   9  -1    5.00    1.00
  -8  -9   1    4.80    0.90
   7   9  -1    0.40    0.60
   7   9  -1    0.70    0.60
   7   9  -1   -0.30    0.80
   7   9  -1   -0.10    0.80
  -7  -9   1    1.10    0.70
  -7  -9   1    0.20    0.60
   6   9  -1    1.60    0.60
   6   9  -1    3.00    0.90
   6   9  -1    1.60    0.70
   6   9  -1    2.20    0.80
  -6  -9   1    2.80    0.70
  -6  -9   1    2.30    0.70
   5   9  -1   18.10    1.20
   5   9  -1   16.70    1.50
   5   9  -1   19.80    1.60
  -5  -9   1   19.00    1.20
  -5  -9   1   17.20    1.30
   4   9  -1   21.80    1.30
   4   9  -1   23.00    1.70
   4   9  -1   21.90    1.60
   4   9  -1   21.70    1.60
  -4  -9   1   22.20    1.30
  -4  -9   1   23.90    1.30
  -4  -9   1   26.40    1.50
   3   9  -1    6.20    1.00
   3   9  -1    7.80    0.90
   3   9  -1    7.20    0.80
   3   9  -1    5.60    1.00
  -3  -9   1    5.60    0.80
  -3  -9   1    6.70    0.80
  -3  -9   1    7.20    0.80
   2   9  -1   32.80    1.90
   2   9  -1   32.10    1.60
   2   9  -1   36.50    1.70
   2   9  -1   36.70    2.00
  -2  -9   1   34.50    1.60
  -2  -9   1   31.20    1.50
   1   9  -1    2.80    0.60
   1   9  -1    1.90    0.70
   1   9  -1    2.80    0.80
   1   9  -1    2.50    0.70
   1   9  -1    3.00    0.70
  -1  -9   1    3.00    0.60
  -1  -9   1    4.50    0.70
   0   9  -1    1.50    0.60
   0   9  -1    1.20    0.70
   0   9  -1    1.70    0.60
   0   9  -1    1.70    0.60
   0   9  -1    0.80    0.50
   0  -9   1    1.00    0.50
   0  -9   1    2.90    0.90
   0  -9   1    1.90    0.50
   0  -9   1    0.70    0.50
  -1   9  -1    6.80    1.00
  -1   9  -1    8.80    1.10
  -1   9  -1    5.90    0.90
  -1   9  -1    6.40    1.00
   1  -9   1    9.30    1.20
   1  -9   1    7.60    0.90
   1  -9   1    6.00    0.90
  -2   9  -1    0.50    0.60
  -2   9  -1    0.90    0.60
  -2   9  -1   -0.60    0.50
  -2   9  -1    0.20    0.70
   2  -9   1    0.10    0.50
   2  -9   1    1.20    0.80
   2  -9   1    0.50    0.60
   2  -9   1    1.00    0.70
  -3   9  -1    7.90    1.20
  -3   9  -1    7.50    1.10
  -3   9  -1    7.30    1.10
   3  -9   1    7.50    1.10
   3  -9   1    5.30    1.10
   3  -9   1    6.40    1.10
   3  -9   1    7.10    1.00
  -4   9  -1   -0.50    0.80
  -4   9  -1   -0.10    0.70
   4  -9   1   -0.20    0.60
   4  -9   1   -0.30    0.50
   4  -9   1   -0.80    0.80
   8   8  -1    9.90    1.10
   8   8  -1   12.50    1.20
   8   8  -1    9.80    1.50
   8   8  -1   10.80    1.60
  -8  -8   1   10.50    1.20
   7   8  -1    1.70    0.70
   7   8  -1    2.30    0.90
   7   8  -1    1.80    0.90
   7   8  -1    1.60    0.70
  -7  -8   1    1.70    0.70
  -7  -8   1    1.60    0.60
   6   8  -1    2.20    0.80
   6   8  -1    2.20    0.80
   6   8  -1    2.50    0.70
   6   8  -1    1.70    0.60
  -6  -8   1    2.90    0.70
  -6  -8   1    1.80    0.60
   5   8  -1    4.30    0.90
   5   8  -1    5.60    0.70
   5   8  -1    4.40    0.90
   5   8  -1    3.40    0.80
  -5  -8   1    4.20    0.70
  -5  -8   1    4.70    0.70
   4   8  -1   25.10    1.60
   4   8  -1   23.30    1.50
   4   8  -1   25.70    1.30
   4   8  -1   25.60    1.50
  -4  -8   1   22.80    1.30
  -4  -8   1   25.80    1.20
   3   8  -1   16.00    1.30
   3   8  -1   14.30    1.20
   3   8  -1   18.10    1.00
   3   8  -1   16.30    1.10
  -3  -8   1   18.10    1.00
  -3  -8   1   12.50    1.00
   2   8  -1   25.50    1.50
   2   8  -1   25.20    1.20
   2   8  -1   26.70    1.30
   2   8  -1   25.60    1.50
  -2  -8   1   25.40    1.30
  -2  -8   1   27.60    1.20
  -2  -8   1   27.00    1.30
   1   8  -1    1.00    0.50
   1   8  -1    1.20    0.40
   1   8  -1    1.10    0.50
   1   8  -1    1.00    0.50
   1   8  -1    1.90    0.50
  -1  -8   1    0.80    0.40
  -1  -8   1    2.00    0.50
  -1  -8   1    0.80    0.40
   0   8  -1    1.20    0.50
   0   8  -1    1.40    0.50
   0   8  -1    1.70    0.50
   0   8  -1    1.50    0.50
   0  -8   1    2.40    0.50
   0  -8   1    1.20    0.50
   0  -8   1    1.70    0.50
  -1   8  -1    8.90    1.00
  -1   8  -1    6.60    0.90
  -1   8  -1    8.10    1.00
  -1   8  -1    7.20    0.90
   1  -8   1    8.10    0.80
   1  -8   1    8.20    0.80
   1  -8   1    9.20    0.90
   1  -8   1    9.70    1.10
  -2   8  -1   -0.30    0.50
  -2   8  -1   -0.20    0.50
  -2   8  -1   -0.40    0.50
  -2   8  -1   -0.30    0.50
   2  -8   1   -0.40    0.50
   2  -8   1   -0.50    0.60
   2  -8   1   -0.20    0.40
  -3   8  -1    9.20    1.30
  -3   8  -1    9.10    1.20
  -3   8  -1    8.90    1.00
  -3   8  -1    9.10    1.10
  -3   8  -1    7.40    1.00
   3  -8   1   10.90    1.20
   3  -8   1   10.40    1.10
   3  -8   1    8.20    1.10
   3  -8   1    9.30    1.00
  -4   8  -1   10.90    1.40
  -4   8  -1    9.20    1.20
  -4   8  -1   11.60    1.40
  -4   8  -1   13.30    1.40
   4  -8   1   11.30    1.30
   4  -8   1   11.60    1.40
   4  -8   1    9.40    1.10
  -5   8  -1    2.70    1.00
  -5   8  -1    2.10    0.80
  -5   8  -1    2.40    0.90
   5  -8   1    0.60    0.90
   5  -8   1    1.80    0.70
   9   7  -1    0.20    1.00
   9   7  -1   -0.10    0.90
   9   7  -1   -0.40    0.60
  -9  -7   1    0.60    0.70
  -9  -7   1    0.10    0.70
   8   7  -1    5.70    1.20
   8   7  -1    6.40    0.90
   8   7  -1    6.20    1.00
   8   7  -1    4.70    1.30
  -8  -7   1    7.20    1.00
   7   7  -1    1.70    0.80
   7   7  -1   -0.30    0.50
   7   7  -1    0.50    0.80
   7   7  -1    0.80    0.60
  -7  -7   1    0.80    0.50
  -7  -7   1    0.00    0.50
   6   7  -1    3.30    0.60
   6   7  -1    3.80    0.80
   6   7  -1    2.60    0.70
   6   7  -1    3.80    0.70
   6   7  -1    3.70    0.80
  -6  -7   1    3.80    0.70
   5   7  -1   24.30    1.50
   5   7  -1   26.30    1.50
   5   7  -1   24.40    1.60
   5   7  -1   27.80    1.30
  -5  -7   1   23.60    1.30
  -5  -7   1   25.20    1.20
   4   7  -1    3.70    0.70
   4   7  -1    3.70    0.50
   4   7  -1    3.00    0.70
   4   7  -1    3.20    0.70
  -4  -7   1    3.70    0.50
  -4  -7   1    3.70    0.60
   3   7  -1   15.70    1.20
   3   7  -1   13.90    1.10
   3   7  -1   14.40    1.10
   3   7  -1   15.00    0.90
   3   7  -1   15.30    0.90
  -3  -7   1   13.70    1.00
  -3  -7   1   15.40    0.90
  -3  -7   1   15.70    0.90
   2   7  -1    2.00    0.50
   2   7  -1    1.50    0.50
   2   7  -1    3.50    0.50
   2   7  -1    1.30    0.40
  -2  -7   1    2.10    0.40
  -2  -7   1    2.60    0.40
  -2  -7   1    2.20    0.50
   1   7  -1   22.40    1.30
   1   7  -1   21.00    1.30
   1   7  -1   20.30    1.10
   1   7  -1   19.30    1.00
   1   7  -1   20.00    1.00
  -1  -7   1   20.80    0.80
  -1  -7   1   21.10    1.00
  -1  -7   1   22.00    1.00
  -1  -7   1   20.40    1.00
   0   7  -1   26.70    1.40
   0   7  -1   25.90    1.30
   0   7  -1   25.90    1.20
   0   7  -1   27.00    1.40
   0  -7   1   24.90    1.10
   0  -7   1   24.30    1.10
   0  -7   1   27.10    1.20
  -1   7  -1    7.10    0.80
  -1   7  -1    5.20    0.80
  -1   7  -1    5.60    0.80
  -1   7  -1    4.30    0.70
   1  -7   1    6.30    0.70
   1  -7   1    6.90    0.60
   1  -7   1    4.90    0.60
   1  -7   1    6.20    0.80
  -2   7  -1    7.10    0.90
  -2   7  -1    8.30    1.00
  -2   7  -1    8.50    0.90
  -2   7  -1    7.80    0.90
  -2   7  -1    8.50    1.00
   2  -7   1    8.90    1.00
   2  -7   1    8.50    0.80
   2  -7   1    8.50    0.90
  -3   7  -1   47.40    2.00
  -3   7  -1   48.60    2.10
  -3   7  -1   47.50    2.20
  -3   7  -1   50.19    2.20
  -3   7  -1   49.50    2.40
   3  -7   1   52.49    2.30
   3  -7   1   48.70    2.00
   3  -7   1   50.39    2.00
  -4   7  -1    4.40    0.80
  -4   7  -1    2.90    0.90
  -4   7  -1    4.20    0.90
   4  -7   1    4.50    0.80
   4  -7   1    4.70    0.90
   4  -7   1    3.70    0.70
  -5   7  -1    5.20    1.10
  -5   7  -1    6.30    1.00
  -5   7  -1    4.20    1.10
   5  -7   1    3.50    0.80
   5  -7   1    5.40    1.10
   9   6  -1   -0.80    0.80
   9   6  -1   -0.40    0.60
   9   6  -1   -0.50    1.00
  -9  -6   1   -0.20    0.60
  -9  -6   1   -0.50    0.70
   8   6  -1   17.60    1.80
   8   6  -1   22.90    1.50
   8   6  -1   18.70    1.80
   8   6  -1   19.50    1.30
  -8  -6   1   18.20    1.40
  -8  -6   1   20.10    1.40
   7   6  -1   -0.40    0.60
   7   6  -1    0.70    0.70
   7   6  -1    0.20    0.50
   7   6  -1   -0.50    0.60
   7   6  -1   -0.50    0.50
  -7  -6   1    0.60    0.50
   6   6  -1    4.00    0.80
   6   6  -1    3.70    0.60
   6   6  -1    3.40    0.80
   6   6  -1    4.20    0.70
   6   6  -1    2.30    0.70
  -6  -6   1    2.80    0.60
   5   6  -1    2.90    0.70
   5   6  -1    4.70    0.70
   5   6  -1    4.50    0.60
   5   6  -1    3.70    0.60
   5   6  -1    4.00    0.70
  -5  -6   1    3.60    0.50
  -5  -6   1    4.00    0.60
   4   6  -1   10.20    0.90
   4   6  -1   10.00    0.70
   4   6  -1    9.70    1.00
   4   6  -1    8.40    0.80
  -4  -6   1   10.70    0.70
  -4  -6   1    9.00    0.70
   3   6  -1   62.69    2.00
   3   6  -1   63.49    2.30
   3   6  -1   65.09    2.40
   3   6  -1   64.09    2.30
  -3  -6   1   60.49    2.20
  -3  -6   1   64.09    2.00
  -3  -6   1   63.49    2.00
   2   6  -1   46.40    1.60
   2   6  -1   49.10    1.90
   2   6  -1   48.70    1.60
   2   6  -1   48.00    1.80
  -2  -6   1   47.10    1.60
  -2  -6   1   49.80    1.40
  -2  -6   1   47.50    1.70
   1   6  -1   20.60    1.00
   1   6  -1   19.80    0.90
   1   6  -1   20.90    0.90
   1   6  -1   21.40    1.20
   1   6  -1   20.60    1.20
  -1  -6   1   19.50    1.00
  -1  -6   1   22.20    1.00
  -1  -6   1   20.70    0.90
  -1  -6   1   21.40    0.90
   0   6  -1    8.60    0.80
   0   6  -1    8.40    0.30
   0   6  -1    8.10    0.70
   0   6  -1    9.70    0.80
   0   6  -1    7.90    0.70
   0  -6   1    8.10    0.60
   0  -6   1    7.80    0.30
   0  -6   1    8.30    0.60
   0  -6   1    8.90    0.60
  -1   6  -1    0.60    0.40
  -1   6  -1    0.70    0.40
  -1   6  -1    0.50    0.40
  -1   6  -1    0.60    0.40
   1  -6   1    0.10    0.30
   1  -6   1    1.20    0.40
   1  -6   1    0.80    0.30
  -2   6  -1   30.90    1.50
  -2   6  -1   31.10    1.50
  -2   6  -1   33.60    1.50
  -2   6  -1   32.60    1.60
  -2   6  -1   30.70    1.40
   2  -6   1   29.80    1.30
   2  -6   1   31.90    1.10
   2  -6   1   29.60    1.40
  -3   6  -1   47.40    2.00
  -3   6  -1   48.20    1.90
  -3   6  -1   50.79    2.20
   3  -6   1   50.49    1.80
   3  -6   1   48.40    1.90
   3  -6   1   49.00    2.00
  -4   6  -1   49.80    2.30
  -4   6  -1   45.60    2.10
  -4   6  -1   46.50    2.00
   4  -6   1   45.90    2.00
   4  -6   1   44.10    1.80
   4  -6   1   47.30    1.80
  -5   6  -1    4.80    0.90
  -5   6  -1    4.80    1.00
  -5   6  -1    4.90    0.90
   5  -6   1    6.60    0.90
   5  -6   1    3.20    0.80
  -6   6  -1    2.10    0.90
  -6   6  -1   -0.50    0.60
  -6   6  -1    0.20    0.60
   6  -6   1    0.90    0.60
   6  -6   1   -1.20    0.70
   9   5  -1    0.30    0.60
   9   5  -1    0.10    0.80
   9   5  -1   -1.60    1.00
  -9  -5   1    0.10    0.70
  -9  -5   1    0.20    0.70
   8   5  -1    3.30    1.10
   8   5  -1    3.40    0.80
   8   5  -1    2.70    1.00
  -8  -5   1    4.10    0.90
  -8  -5   1    3.60    0.80
   7   5  -1    3.10    0.90
   7   5  -1    3.60    0.70
   7   5  -1    3.50    1.00
   7   5  -1    2.30    0.80
   7   5  -1    3.80    0.70
  -7  -5   1    3.50    0.70
  -7  -5   1    4.40    0.70
   6   5  -1    8.30    0.80
   6   5  -1    6.70    0.90
   6   5  -1    8.50    0.80
   6   5  -1    6.10    0.90
   6   5  -1    8.60    1.10
  -6  -5   1    7.10    0.70
   5   5  -1   10.70    0.80
   5   5  -1   10.50    1.00
   5   5  -1   10.00    0.90
   5   5  -1   10.40    1.00
   5   5  -1   11.20    0.80
  -5  -5   1   10.00    0.80
   4   5  -1    4.10    0.60
   4   5  -1    5.20    0.60
   4   5  -1    4.70    0.60
   4   5  -1    5.20    0.50
  -4  -5   1    5.70    0.50
  -4  -5   1    5.20    0.50
   3   5  -1  160.38    4.60
   3   5  -1  168.98    4.60
   3   5  -1  163.68    4.70
   3   5  -1  162.48    4.30
  -3  -5   1  172.78    4.70
  -3  -5   1  163.08    4.30
  -3  -5   1  165.38    4.40
  -3  -5   1  165.58    4.50
   2   5  -1    0.80    0.30
   2   5  -1    1.00    0.30
   2   5  -1    1.10    0.40
   2   5  -1    0.90    0.30
  -2  -5   1    1.40    0.20
  -2  -5   1    1.20    0.40
  -2  -5   1    1.60    0.30
  -2  -5   1    0.80    0.30
   1   5  -1  204.18    5.30
   1   5  -1  213.28    5.60
   1   5  -1  210.28    5.60
   1   5  -1  207.88    5.30
   1   5  -1  204.78    5.30
  -1  -5   1  203.48    5.30
  -1  -5   1  205.88    5.30
  -1  -5   1  205.48    5.30
  -1  -5   1  213.38    5.30
  -1  -5   1  219.98    5.60
   0   5  -1   11.40    0.40
   0   5  -1   10.70    0.70
   0   5  -1    9.50    0.60
   0   5  -1   10.50    0.70
   0   5  -1    9.30    0.80
   0  -5   1   11.60    0.40
   0  -5   1    9.80    0.60
   0  -5   1   11.30    0.60
   0  -5   1   10.30    0.60
  -1   5  -1   30.30    1.30
  -1   5  -1   29.30    1.30
  -1   5  -1   30.70    1.20
  -1   5  -1   31.20    1.20
  -1   5  -1   29.50    1.30
   1  -5   1   28.30    1.10
   1  -5   1   29.40    1.10
   1  -5   1   28.50    1.00
  -2   5  -1   57.79    1.90
  -2   5  -1   57.19    2.00
  -2   5  -1   54.69    2.10
   2  -5   1   57.79    2.00
   2  -5   1   55.09    1.80
   2  -5   1   57.59    1.60
  -3   5  -1   66.49    2.20
  -3   5  -1   64.89    2.30
  -3   5  -1   66.09    2.50
   3  -5   1   64.59    2.30
   3  -5   1   65.49    1.80
   3  -5   1   66.29    2.20
   3  -5   1   64.09    2.10
  -4   5  -1   34.50    1.60
  -4   5  -1   34.30    1.80
  -4   5  -1   36.20    1.60
   4  -5   1   36.40    1.40
   4  -5   1   34.00    1.60
   4  -5   1   31.50    1.40
  -5   5  -1   10.00    1.10
  -5   5  -1   10.50    1.30
  -5   5  -1    9.90    1.00
   5  -5   1    9.00    0.90
   5  -5   1    7.80    1.00
  -6   5  -1   -0.70    0.60
  -6   5  -1    0.70    0.80
  -6   5  -1    0.30    0.50
   6  -5   1    0.20    0.70
   6  -5   1   -0.30    0.40
  -7   5  -1   -0.10    0.70
  -7   5  -1   -0.90    0.70
  -7   5  -1   -0.30    0.60
   7  -5   1    0.70    0.80
   7  -5   1    0.10    0.60
   9   4  -1   -0.80    0.90
   9   4  -1    0.60    0.70
   9   4  -1   -0.40    0.80
  -9  -4   1    1.30    0.70
  -9  -4   1    1.00    0.70
   8   4  -1   12.00    1.30
   8   4  -1   11.90    1.50
   8   4  -1   14.80    1.20
  -8  -4   1   13.90    1.20
  -8  -4   1   14.70    1.20
   7   4  -1    2.90    0.90
   7   4  -1    1.30    0.70
   7   4  -1    4.00    0.70
   7   4  -1    1.50    0.70
  -7  -4   1    3.00    0.70
  -7  -4   1    3.10    0.70
   6   4  -1   11.30    0.90
   6   4  -1    9.10    1.10
   6   4  -1   11.20    0.90
   6   4  -1    9.60    1.00
   6   4  -1   10.70    1.10
  -6  -4   1    8.80    0.60
  -6  -4   1   11.20    0.60
  -6  -4   1    9.50    0.80
   5   4  -1  150.88    4.20
   5   4  -1  157.38    4.60
   5   4  -1  150.28    4.40
   5   4  -1  150.28    4.50
   5   4  -1  161.98    4.20
  -5  -4   1  155.08    4.20
  -5  -4   1  152.78    3.80
   4   4  -1   30.50    1.20
   4   4  -1   31.60    1.40
   4   4  -1   31.90    1.50
   4   4  -1   30.70    1.30
   4   4  -1   31.50    1.20
   4   4  -1   33.30    1.00
  -4  -4   1   31.20    1.60
  -4  -4   1   31.80    0.90
  -4  -4   1   29.50    1.20
  -4  -4   1   29.60    1.10
   3   4  -1 1137.89   28.00
   3   4  -1 1126.69   27.90
   3   4  -1 1152.98   27.90
   3   4  -1 1111.19   27.60
  -3  -4   1 1202.58   27.50
  -3  -4   1 1138.09   27.60
  -3  -4   1 1224.18   28.10
  -3  -4   1 1202.08   27.70
   2   4  -1  861.01   20.70
   2   4  -1  829.32   20.50
   2   4  -1  841.12   20.50
   2   4  -1  836.02   20.80
  -2  -4   1  894.21   20.60
  -2  -4   1  858.01   20.50
  -2  -4   1  855.11   20.50
  -2  -4   1  894.11   20.30
  -2  -4   1  860.11   20.80
   1   4  -1  472.25   11.80
   1   4  -1  491.75   11.70
   1   4  -1  477.65   11.80
   1   4  -1  502.75   12.00
   1   4  -1  485.55   12.00
  -1  -4   1  498.95   12.00
  -1  -4   1  473.15   11.80
  -1  -4   1  482.55   11.70
  -1  -4   1  491.35   11.80
  -1  -4   1  514.55   11.70
   0   4  -1    0.20    0.20
   0   4  -1    0.20    0.20
   0   4  -1    0.40    0.10
   0   4  -1    0.00    0.20
   0   4  -1    0.20    0.20
   0  -4   1    0.20    0.20
   0  -4   1    0.50    0.20
   0  -4   1    0.30    0.10
   0  -4   1    0.40    0.20
  -1   4  -1   87.69    2.20
  -1   4  -1   84.69    2.50
  -1   4  -1   85.19    2.40
  -1   4  -1   84.49    2.50
   1  -4   1   82.79    2.20
  -2   4  -1   16.90    0.50
  -2   4  -1   18.80    0.90
  -2   4  -1   15.40    0.90
  -2   4  -1   18.50    0.90
   2  -4   1   17.30    0.80
   2  -4   1   16.60    0.90
   2  -4   1   17.10    0.60
   2  -4   1   17.50    0.50
  -3   4  -1  151.18    4.30
  -3   4  -1  147.29    4.10
  -3   4  -1  146.89    4.20
   3  -4   1  146.79    4.00
   3  -4   1  150.58    4.00
   3  -4   1  148.89    4.10
   3  -4   1  150.78    3.70
   3  -4   1  143.59    4.20
  -4   4  -1    2.90    0.60
  -4   4  -1    2.30    0.50
  -4   4  -1    1.80    0.60
   4  -4   1    3.10    0.30
   4  -4   1    2.80    0.50
   4  -4   1    2.90    0.50
   4  -4   1    3.50    0.70
   4  -4   1    3.10    0.50
  -5   4  -1   11.10    1.10
  -5   4  -1   10.10    1.10
  -5   4  -1   10.30    1.00
   5  -4   1   10.80    1.00
   5  -4   1   11.00    1.00
   5  -4   1   10.80    1.00
   5  -4   1   10.70    1.20
  -6   4  -1   35.80    1.90
  -6   4  -1   37.20    1.80
  -6   4  -1   40.50    2.20
   6  -4   1   37.70    1.80
   6  -4   1   39.10    1.90
   6  -4   1   42.50    2.20
   6  -4   1   40.50    1.80
  -7   4  -1    2.80    1.00
  -7   4  -1    2.00    0.80
  -7   4  -1    2.40    0.70
   7  -4   1    1.70    0.90
   7  -4   1    2.70    0.80
   7  -4   1    1.30    0.70
   7  -4   1    2.00    0.80
   9   3  -1    1.80    0.70
   9   3  -1   -0.70    1.00
  -9  -3   1    2.00    0.80
  -9  -3   1    2.30    0.80
   8   3  -1    0.80    1.00
   8   3  -1    2.10    0.80
   8   3  -1    2.10    0.70
  -8  -3   1    2.80    0.70
  -8  -3   1    1.00    0.70
   7   3  -1    3.80    0.80
   7   3  -1    4.40    0.90
   7   3  -1    4.90    0.70
   7   3  -1    6.40    1.10
  -7  -3   1    6.40    0.80
  -7  -3   1    6.30    0.80
  -7  -3   1    6.20    0.70
   6   3  -1  209.28    5.30
   6   3  -1  213.28    5.90
   6   3  -1  209.98    5.60
   6   3  -1  211.08    6.10
   6   3  -1  210.68    6.10
  -6  -3   1  205.08    5.20
  -6  -3   1  206.38    5.40
  -6  -3   1  213.68    5.70
  -6  -3   1  208.58    5.70
   5   3  -1  268.67    6.60
   5   3  -1  266.67    6.80
   5   3  -1  271.27    6.80
   5   3  -1  264.27    7.20
   5   3  -1  266.47    7.10
   5   3  -1  269.47    7.20
  -5  -3   1  268.57    6.90
  -5  -3   1  263.17    6.60
   4   3  -1  209.08    5.40
   4   3  -1  213.48    5.80
   4   3  -1  216.38    5.20
   4   3  -1  210.88    5.70
   4   3  -1  210.88    5.60
   4   3  -1  208.78    5.40
  -4  -3   1  207.08    5.50
  -4  -3   1  213.98    5.20
  -4  -3   1  224.88    5.80
  -4  -3   1  217.08    5.20
   3   3  -1 1004.70   24.30
   3   3  -1  982.30   24.50
   3   3  -1 1064.99   24.30
   3   3  -1  994.30   24.60
   3   3  -1 1039.80   24.60
   3   3  -1 1024.50   24.40
  -3  -3   1 1043.30   24.30
  -3  -3   1 1051.39   24.30
  -3  -3   1 1008.30   24.40
  -3  -3   1  985.90   24.20
  -3  -3   1 1061.79   24.70
   2   3  -1  393.36   10.10
   2   3  -1  406.76   10.00
   2   3  -1  416.16   10.10
   2   3  -1  403.76    9.90
  -2  -3   1  406.36   10.00
  -2  -3   1  412.06    9.90
  -2  -3   1  410.06   10.10
  -2  -3   1  420.06    9.80
   1   3  -1   21.40    0.90
   1   3  -1   20.70    0.70
   1   3  -1   20.90    0.60
   1   3  -1   21.30    0.90
   1   3  -1   20.70    0.70
   1   3  -1   21.70    0.70
  -1  -3   1   20.80    0.80
  -1  -3   1   21.90    0.60
  -1  -3   1   22.70    0.70
  -1  -3   1   21.60    0.90
  -1  -3   1   21.30    0.70
   0   3  -1   18.60    0.60
   0   3  -1   18.80    0.60
   0   3  -1   16.60    0.70
   0   3  -1   17.00    0.70
   0   3  -1   17.90    0.70
   0   3  -1   17.50    0.80
   0  -3   1   17.80    0.60
   0  -3   1   18.70    0.60
   0  -3   1   18.60    0.60
   0  -3   1   18.20    0.60
   0  -3   1   19.30    0.70
  -1   3  -1   74.69    1.90
  -1   3  -1   74.99    2.10
  -1   3  -1   74.79    2.20
  -1   3  -1   72.99    2.10
  -1   3  -1   77.89    1.90
   1  -3   1   75.59    2.00
   1  -3   1   75.59    1.80
   1  -3   1   74.99    1.90
  -2   3  -1    4.20    0.40
  -2   3  -1    5.80    0.50
  -2   3  -1    3.50    0.50
   2  -3   1    4.40    0.40
   2  -3   1    4.70    0.30
   2  -3   1    4.20    0.40
   2  -3   1    4.70    0.40
  -3   3  -1  155.68    4.40
  -3   3  -1  157.08    4.20
   3  -3   1  156.88    4.00
   3  -3   1  147.59    4.20
   3  -3   1  157.68    3.80
   3  -3   1  156.88    4.10
   3  -3   1  148.99    4.10
   3  -3   1  150.38    4.40
  -4   3  -1   13.30    1.00
  -4   3  -1   12.50    0.90
   4  -3   1   11.70    1.00
   4  -3   1   13.50    0.50
   4  -3   1   12.90    0.90
   4  -3   1   14.00    0.80
   4  -3   1   12.90    0.70
   4  -3   1   13.10    0.80
  -5   3  -1    8.70    1.00
  -5   3  -1   11.70    0.90
   5  -3   1   10.70    0.80
   5  -3   1   10.90    0.80
   5  -3   1   11.80    1.20
   5  -3   1   11.50    0.60
   5  -3   1   12.00    0.90
   5  -3   1   10.00    0.70
  -6   3  -1   36.50    1.80
  -6   3  -1   39.30    2.00
   6  -3   1   39.00    1.80
   6  -3   1   40.30    2.10
   6  -3   1   39.60    1.80
   6  -3   1   37.40    1.70
  -7   3  -1    3.50    0.90
  -7   3  -1    3.10    0.80
   7  -3   1    2.70    0.80
   7  -3   1    4.10    0.80
   7  -3   1    2.60    0.70
   7  -3   1    2.80    0.90
  -8   3  -1    5.40    1.10
  -8   3  -1    5.20    1.10
   8  -3   1    4.50    1.00
   8  -3   1    4.90    0.90
   8  -3   1    6.50    1.30
   8  -3   1    4.40    1.00
   9   2  -1    0.10    0.60
   9   2  -1    0.90    0.70
   9   2  -1    0.00    1.00
  -9  -2   1    0.20    0.70
  -9  -2   1   -0.20    0.60
   8   2  -1    0.20    0.90
   8   2  -1    1.00    0.60
  -8  -2   1    0.50    0.50
  -8  -2   1    1.20    0.70
  -8  -2   1   -0.10    0.60
   7   2  -1    0.20    0.70
   7   2  -1    1.40    0.70
   7   2  -1   -0.20    0.50
   7   2  -1    0.50    0.40
   7   2  -1    0.70    0.60
  -7  -2   1    0.50    0.50
  -7  -2   1   -0.10    0.50
  -7  -2   1    0.30    0.40
   6   2  -1   41.90    2.00
   6   2  -1   43.60    2.00
   6   2  -1   42.80    1.50
   6   2  -1   42.10    1.70
   6   2  -1   43.60    1.90
  -6  -2   1   40.90    1.60
  -6  -2   1   42.20    1.70
   5   2  -1    0.20    0.60
   5   2  -1   -0.20    0.30
   5   2  -1   -0.50    0.50
   5   2  -1    0.50    0.40
   5   2  -1    0.20    0.50
  -5  -2   1   -0.10    0.40
  -5  -2   1    0.40    0.10
  -5  -2   1   -0.50    0.30
  -5  -2   1   -0.10    0.40
   4   2  -1   25.90    1.20
   4   2  -1   25.20    1.00
   4   2  -1   26.40    1.00
   4   2  -1   26.20    1.10
   4   2  -1   27.80    1.30
   4   2  -1   26.80    0.90
  -4  -2   1   27.70    1.10
  -4  -2   1   27.90    1.10
  -4  -2   1   27.00    1.20
  -4  -2   1   25.70    0.90
  -4  -2   1   27.00    0.70
   3   2  -1   41.10    1.40
   3   2  -1   46.00    1.20
   3   2  -1   43.30    1.20
   3   2  -1   43.60    1.30
   3   2  -1   43.50    1.30
   3   2  -1   41.90    1.50
  -3  -2   1   44.60    1.20
  -3  -2   1   41.60    1.50
  -3  -2   1   44.00    1.20
  -3  -2   1   42.90    1.30
   2   2  -1  587.64   14.60
   2   2  -1  591.74   14.30
   2   2  -1  596.04   14.40
   2   2  -1  610.04   14.40
   2   2  -1  649.14   14.30
   2   2  -1  607.94   14.50
   2   2  -1  622.44   14.40
   2   2  -1  579.24   14.50
   2   2  -1  575.14   14.40
  -2  -2   1  592.64   14.60
  -2  -2   1  574.94   14.30
  -2  -2   1  622.64   14.20
  -2  -2   1  629.84   14.40
  -2  -2   1  595.84   14.40
  -2  -2   1  612.74   14.40
   1   2  -1  537.85   13.80
   1   2  -1  593.44   13.70
   1   2  -1  532.25   13.80
   1   2  -1  596.54   13.60
   1   2  -1  556.24   13.60
   1   2  -1  569.94   13.60
   1   2  -1  561.04   13.60
  -1  -2   1  608.84   13.70
  -1  -2   1  585.54   13.60
  -1  -2   1  617.34   13.70
  -1  -2   1  573.84   13.70
  -1  -2   1  544.05   13.80
  -1  -2   1  588.34   13.80
  -1  -2   1  581.74   13.60
   0   2  -1   51.89    1.50
   0   2  -1   50.19    1.30
   0   2  -1   50.89    1.40
   0   2  -1   46.80    1.50
   0   2  -1   51.69    1.40
   0   2  -1   51.89    1.40
   0   2  -1   51.89    1.40
   0  -2   1   49.80    1.30
   0  -2   1   52.49    1.40
   0  -2   1   53.49    1.40
   0  -2   1   54.49    1.40
   0  -2   1   52.19    1.40
   0  -2   1   52.29    1.40
   0  -2   1   51.49    1.40
  -1   2  -1  442.36   10.80
  -1   2  -1  470.85   10.80
  -1   2  -1  446.46   10.80
  -1   2  -1  432.86   10.90
  -1   2  -1  464.55   10.80
  -1   2  -1  445.96   10.70
   1  -2   1  463.95   10.80
   1  -2   1  448.16   10.70
   1  -2   1  441.86   10.70
   1  -2   1  446.46   10.80
   1  -2   1  449.66   10.60
   1  -2   1  451.65   11.00
   1  -2   1  439.96   10.80
  -2   2  -1    7.70    0.50
  -2   2  -1    8.30    0.60
   2  -2   1    6.90    0.50
   2  -2   1    7.80    0.40
   2  -2   1    8.10    0.50
   2  -2   1    7.80    0.40
   2  -2   1    8.30    0.50
   2  -2   1    8.00    0.30
  -3   2  -1  291.07    7.50
  -3   2  -1  303.27    7.60
   3  -2   1  306.37    7.40
   3  -2   1  304.07    7.30
   3  -2   1  300.07    7.40
   3  -2   1  302.67    7.50
   3  -2   1  278.77    7.60
  -4   2  -1  118.19    3.40
  -4   2  -1  107.69    3.20
  -4   2  -1  102.99    3.30
   4  -2   1  109.69    2.90
   4  -2   1  106.49    3.10
   4  -2   1  106.09    3.10
   4  -2   1  117.59    2.90
   4  -2   1  107.69    3.40
   4  -2   1  106.69    3.10
  -5   2  -1  123.69    3.60
  -5   2  -1  118.49    3.70
   5  -2   1  119.59    3.50
   5  -2   1  121.49    3.80
   5  -2   1  121.49    3.50
   5  -2   1  116.29    3.50
  -6   2  -1    0.60    0.70
  -6   2  -1    1.30    0.60
   6  -2   1    1.10    0.50
   6  -2   1    0.60    0.50
   6  -2   1    1.20    0.60
   6  -2   1    0.70    0.50
  -7   2  -1    5.90    1.00
  -7   2  -1    5.50    0.90
   7  -2   1    6.50    1.10
   7  -2   1    6.60    0.90
   7  -2   1    5.10    0.80
   7  -2   1    6.00    0.90
  -8   2  -1    6.60    1.20
  -8   2  -1    7.10    1.20
   8  -2   1    9.30    1.40
   8  -2   1    3.60    0.90
   8  -2   1    6.00    0.90
   8  -2   1    7.70    1.10
   9   1  -1   10.50    1.60
   9   1  -1    7.80    1.10
   9   1  -1   10.60    1.20
  -9  -1   1    9.50    1.30
   8   1  -1    0.40    0.90
   8   1  -1    0.90    0.60
   8   1  -1   -0.50    0.50
  -8  -1   1    1.10    0.60
  -8  -1   1    0.10    0.60
  -8  -1   1    1.60    0.70
   7   1  -1    3.20    0.50
   7   1  -1    3.40    0.70
   7   1  -1    3.70    0.90
  -7  -1   1    2.10    0.70
  -7  -1   1    2.00    0.60
  -7  -1   1    3.30    0.70
   6   1  -1   50.19    2.30
   6   1  -1   49.60    2.00
   6   1  -1   52.29    1.70
   6   1  -1   51.69    1.90
  -6  -1   1   51.99    1.50
  -6  -1   1   51.49    1.90
  -6  -1   1   53.19    2.00
  -6  -1   1   51.99    1.90
   5   1  -1  805.92   19.50
   5   1  -1  797.62   19.10
   5   1  -1  762.22   19.20
   5   1  -1  803.52   19.60
   5   1  -1  788.32   19.30
  -5  -1   1  823.82   18.90
  -5  -1   1  789.02   19.20
  -5  -1   1  777.32   19.20
   4   1  -1  268.57    6.90
   4   1  -1  262.57    7.10
   4   1  -1  267.47    6.80
   4   1  -1  270.27    7.00
   4   1  -1  270.87    6.70
  -4  -1   1  278.57    7.00
  -4  -1   1  265.47    6.80
  -4  -1   1  271.47    6.80
  -4  -1   1  263.57    6.80
  -4  -1   1  282.37    6.60
   3   1  -1   53.99    1.70
   3   1  -1   54.59    1.60
   3   1  -1   56.39    1.60
   3   1  -1   53.89    1.80
   3   1  -1   52.49    1.50
   3   1  -1   52.39    1.80
  -3  -1   1   54.49    1.70
  -3  -1   1   54.99    1.40
  -3  -1   1   55.89    1.40
  -3  -1   1   54.59    1.60
  -3  -1   1   53.89    1.60
  -3  -1   1   55.29    1.60
   2   1  -1   49.40    1.60
   2   1  -1   50.39    1.50
   2   1  -1   52.39    1.40
   2   1  -1   50.59    1.50
   2   1  -1   52.19    1.30
   2   1  -1   50.69    1.40
   2   1  -1   53.29    1.50
   2   1  -1   49.40    1.40
  -2  -1   1   50.09    1.40
  -2  -1   1   54.59    1.50
  -2  -1   1   54.19    1.40
  -2  -1   1   50.19    1.50
  -2  -1   1   55.59    1.40
  -2  -1   1   52.89    1.50
  -2  -1   1   55.09    1.30
   1   1  -1   11.20    0.50
   1   1  -1   12.10    0.50
   1   1  -1   12.90    0.40
   1   1  -1   12.10    0.50
   1   1  -1   12.90    0.40
   1   1  -1   11.70    0.40
   1   1  -1   12.60    0.40
   1   1  -1   12.40    0.40
   1   1  -1   12.20    0.40
  -1  -1   1   12.90    0.40
  -1  -1   1   12.40    0.50
  -1  -1   1   13.30    0.40
  -1  -1   1   12.80    0.40
  -1  -1   1   12.70    0.50
  -1  -1   1   13.00    0.50
  -1  -1   1   12.80    0.40
  -1  -1   1   12.90    0.40
   0   1  -1   83.59    2.20
   0   1  -1   91.69    2.10
   0   1  -1   87.79    2.20
   0   1  -1   86.99    2.20
   0   1  -1   90.49    2.20
   0   1  -1   86.89    2.20
   0   1  -1   84.49    2.10
   0  -1   1   90.59    2.10
   0  -1   1   87.29    2.20
   0  -1   1   84.49    2.20
   0  -1   1   91.79    2.20
   0  -1   1   91.59    2.10
   0  -1   1   90.39    2.20
   0  -1   1   83.69    2.10
   0  -1   1   90.79    2.10
  -1   1  -1   94.89    2.40
  -1   1  -1   96.49    2.40
  -1   1  -1   94.49    2.40
  -1   1  -1   91.19    2.50
  -1   1  -1   93.89    2.50
   1  -1   1  101.39    2.40
   1  -1   1   90.69    2.50
   1  -1   1  100.19    2.50
   1  -1   1   93.79    2.40
   1  -1   1   94.19    2.40
   1  -1   1   92.79    2.40
   1  -1   1   94.39    2.40
   1  -1   1  100.69    2.40
  -2   1  -1  883.51   21.90
  -2   1  -1  890.71   21.70
  -2   1  -1  928.31   21.80
  -2   1  -1  933.01   21.70
   2  -1   1  886.21   21.60
   2  -1   1  915.71   21.70
   2  -1   1  912.41   21.60
   2  -1   1  926.51   21.80
   2  -1   1  935.01   21.80
  -3   1  -1 1351.66   32.90
  -3   1  -1 1426.16   33.10
  -3   1  -1 1331.17   32.90
  -3   1  -1 1375.16   33.00
   3  -1   1 1367.36   32.90
   3  -1   1 1398.56   33.10
   3  -1   1 1388.56   32.90
   3  -1   1 1468.05   32.80
   3  -1   1 1372.36   33.10
   3  -1   1 1390.56   33.10
  -4   1  -1   21.30    1.10
  -4   1  -1   20.40    1.00
  -4   1  -1   20.40    1.00
  -4   1  -1   21.40    1.00
   4  -1   1   21.50    0.90
   4  -1   1   20.80    1.00
   4  -1   1   20.60    1.10
  -5   1  -1  155.78    4.50
  -5   1  -1  153.78    4.40
  -5   1  -1  156.58    4.40
   5  -1   1  154.68    4.30
   5  -1   1  159.38    4.70
   5  -1   1  157.68    4.30
   5  -1   1  166.98    4.30
  -6   1  -1    9.90    1.00
  -6   1  -1    8.60    0.90
  -6   1  -1    9.80    0.90
   6  -1   1    7.60    0.80
   6  -1   1    8.80    0.80
   6  -1   1    7.90    0.80
   6  -1   1    9.00    1.00
  -7   1  -1    5.60    0.80
  -7   1  -1    5.90    0.90
   7  -1   1    6.60    0.90
   7  -1   1    4.00    0.70
   7  -1   1    6.30    1.10
   7  -1   1    6.70    0.90
  -8   1  -1   15.20    1.30
  -8   1  -1   15.80    1.50
   8  -1   1   15.10    1.70
   8  -1   1   16.70    1.40
   8  -1   1   15.70    1.20
   8  -1   1   13.00    1.20
  -9   1  -1    0.70    0.80
  -9   1  -1    0.60    0.70
   9  -1   1    0.50    0.60
   9  -1   1    3.90    1.00
   9  -1   1    2.60    0.80
   9   0  -1    1.90    1.00
   9   0  -1    1.50    0.80
   9   0  -1    0.40    0.70
  -9   0   1    1.40    0.80
  -9   0   1    0.30    0.70
   8   0  -1    9.80    1.00
   8   0  -1   11.60    1.60
   8   0  -1   10.60    1.10
  -8   0   1    9.60    1.20
  -8   0   1   12.00    1.30
   7   0  -1    6.80    1.10
   7   0  -1    7.20    0.90
   7   0  -1    7.10    0.80
   7   0  -1    7.60    0.80
  -7   0   1    7.30    1.00
  -7   0   1    7.30    0.90
  -7   0   1    5.40    0.90
   6   0  -1   57.99    2.50
   6   0  -1   57.49    2.00
   6   0  -1   57.69    2.00
   6   0  -1   55.29    2.00
  -6   0   1   57.29    2.20
  -6   0   1   60.19    2.20
  -6   0   1   57.59    2.20
   5   0  -1  136.39    3.90
   5   0  -1  138.39    3.80
   5   0  -1  140.99    4.30
  -5   0   1  140.49    4.00
  -5   0   1  138.49    4.00
  -5   0   1  138.59    3.90
   4   0  -1    0.40    0.30
   4   0  -1    0.90    0.30
   4   0  -1    0.70    0.50
   4   0  -1    1.30    0.30
  -4   0   1    0.50    0.30
  -4   0   1    1.00    0.30
  -4   0   1    0.60    0.30
  -4   0   1    0.60    0.30
   3   0  -1    9.30    0.50
   3   0  -1    9.20    0.60
   3   0  -1    9.90    0.70
   3   0  -1    9.90    0.50
   3   0  -1    9.60    0.70
  -3   0   1    9.10    0.60
  -3   0   1    9.60    0.50
  -3   0   1    8.40    0.60
  -3   0   1   10.70    0.50
   2   0  -1   54.79    1.50
   2   0  -1   56.39    1.50
   2   0  -1   54.19    1.50
   2   0  -1   54.49    1.60
   2   0  -1   54.39    1.70
  -2   0   1   55.19    1.60
  -2   0   1   57.09    1.50
  -2   0   1   56.19    1.60
   1   0  -1  478.35   10.90
   1   0  -1  458.35   10.90
   1   0  -1  442.46   10.90
   1   0  -1  435.46   10.90
   1   0  -1  450.95   11.00
   1   0  -1  470.65   10.90
   1   0  -1  463.15   11.00
   1   0  -1  459.55   10.90
  -1   0   1  444.06   10.90
  -1   0   1  473.25   11.00
  -1   0   1  456.95   11.00
  -1   0   1  456.95   11.10
  -1   0   1  489.45   10.90
  -1   0   1  453.95   11.00
   0   0  -1   -2.50    0.10
   0   0  -1   -2.50    0.10
   0   0  -1   -2.50    0.10
   0   0  -1   -2.50    0.10
   0   0  -1   -2.50    0.10
   0   0  -1   -2.50    0.10
   0   0  -1   -2.50    0.10
   0   0  -1   -2.50    0.10
   0   0   1   -2.50    0.10
   0   0   1   -2.50    0.10
   0   0   1   -2.50    0.10
   0   0   1   -2.50    0.10
   0   0   1   -2.50    0.10
   0   0   1   -2.50    0.10
   0   0   1   -2.50    0.10
  -1   0  -1 2879.71   66.29
  -1   0  -1 2729.33   65.99
  -1   0  -1 2850.41   66.09
  -1   0  -1 2865.51   66.49
  -1   0  -1 2788.42   66.69
  -1   0  -1 2671.43   66.19
  -1   0  -1 2568.24   66.09
  -1   0  -1 2887.91   65.89
  -1   0  -1 2594.34   65.99
  -1   0  -1 2938.31   66.39
   1   0   1 2998.20   66.39
   1   0   1 2890.01   66.29
   1   0   1 2731.23   66.09
   1   0   1 2826.12   66.39
   1   0   1 2998.40   65.89
   1   0   1 2622.54   65.99
   1   0   1 2550.54   65.99
  -2   0  -1 1274.07   31.60
  -2   0  -1 1286.07   31.60
  -2   0  -1 1332.67   31.40
  -2   0  -1 1281.57   30.80
  -2   0  -1 1298.97   31.00
  -2   0  -1 1294.77   31.20
  -2   0  -1 1292.47   31.30
  -2   0  -1 1371.76   31.70
  -2   0  -1 1209.48   31.00
   2   0   1 1347.17   31.70
   2   0   1 1296.27   30.80
   2   0   1 1288.07   31.20
   2   0   1 1351.16   31.00
   2   0   1 1262.67   31.50
   2   0   1 1351.66   31.50
  -3   0  -1   63.19    1.90
  -3   0  -1   67.59    1.70
  -3   0  -1   66.49    2.00
  -3   0  -1   62.99    1.90
   3   0   1   62.99    2.00
   3   0   1   66.79    1.80
   3   0   1   66.49    1.80
   3   0   1   63.69    1.80
  -4   0  -1  579.84   14.10
  -4   0  -1  596.34   13.70
  -4   0  -1  592.44   14.30
  -4   0  -1  561.94   14.10
  -4   0  -1  566.84   14.10
   4   0   1  566.34   14.00
   4   0   1  574.64   14.30
   4   0   1  588.14   14.00
  -5   0  -1  120.79    3.40
  -5   0  -1  120.29    3.40
  -5   0  -1  114.39    3.50
   5   0   1  117.19    3.70
   5   0   1  119.69    3.30
   5   0   1  120.19    3.40
  -6   0  -1  110.69    3.40
  -6   0  -1  112.99    3.50
  -6   0  -1  109.49    3.40
   6   0   1  113.89    3.30
   6   0   1  108.59    3.30
   6   0   1  110.79    3.70
  -7   0  -1    1.60    0.60
  -7   0  -1    0.90    0.50
  -7   0  -1    2.90    0.60
   7   0   1    1.40    0.50
   7   0   1    2.00    0.80
   7   0   1    2.70    0.60
   7   0   1    1.60    0.50
  -8   0  -1   14.30    1.20
  -8   0  -1   15.30    1.40
  -8   0  -1   13.80    1.30
   8   0   1   13.10    1.20
   8   0   1   16.70    1.20
   8   0   1   14.40    1.10
   8   0   1   15.80    1.60
  -9   0  -1    1.70    0.80
  -9   0  -1    0.60    0.80
   9   0   1    1.00    0.70
   9   0   1    2.60    1.00
   9   0   1    1.50    0.70
   8  -1  -1    4.70    0.90
   8  -1  -1    6.40    1.20
   8  -1  -1    3.20    0.80
   8  -1  -1    3.80    0.80
  -8   1   1    4.40    1.00
  -8   1   1    5.50    1.00
   7  -1  -1    1.00    0.50
   7  -1  -1    1.50    0.50
   7  -1  -1    1.20    0.60
   7  -1  -1   -0.20    0.70
  -7   1   1    0.10    0.50
  -7   1   1   -0.20    0.50
   6  -1  -1    8.10    0.90
   6  -1  -1    8.30    0.80
   6  -1  -1    8.80    0.80
   6  -1  -1    8.70    1.10
  -6   1   1   11.00    1.00
  -6   1   1    8.40    0.90
   5  -1  -1   -0.30    0.70
   5  -1  -1    1.20    0.50
   5  -1  -1    1.10    0.40
   5  -1  -1    0.50    0.40
  -5   1   1    1.00    0.50
  -5   1   1    1.80    0.50
   4  -1  -1   13.70    0.70
   4  -1  -1   12.90    0.70
   4  -1  -1   13.10    1.00
  -4   1   1   13.70    0.90
  -4   1   1   14.70    0.90
  -4   1   1   12.70    0.80
   3  -1  -1  166.88    4.40
   3  -1  -1  171.38    4.60
   3  -1  -1  172.88    4.10
   3  -1  -1  164.28    4.30
   3  -1  -1  170.68    4.40
  -3   1   1  170.78    4.50
  -3   1   1  171.88    4.50
   2  -1  -1  100.89    2.60
   2  -1  -1   99.39    2.60
   2  -1  -1   96.69    2.80
  -2   1   1  101.99    2.70
  -2   1   1  106.79    2.60
  -2   1   1  101.29    2.70
  -2   1   1  102.19    2.80
   1  -1  -1  497.85   12.60
   1  -1  -1  496.55   12.50
   1  -1  -1  525.05   12.60
   1  -1  -1  512.75   12.50
   1  -1  -1  529.95   12.50
  -1   1   1  567.34   12.50
  -1   1   1  523.75   12.60
  -1   1   1  529.85   12.60
  -1   1   1  517.25   12.50
  -1   1   1  542.65   12.50
   0  -1  -1  288.87    7.00
   0  -1  -1  288.87    7.00
   0  -1  -1  282.87    7.00
   0  -1  -1  261.77    7.00
   0  -1  -1  271.97    7.00
   0  -1  -1  268.17    7.00
   0  -1  -1  280.47    7.00
   0  -1  -1  280.17    7.00
   0  -1  -1  279.17    7.00
   0  -1  -1  273.87    7.00
   0   1   1  272.87    7.00
   0   1   1  269.57    7.00
   0   1   1  287.47    7.00
   0   1   1  286.37    7.00
   0   1   1  286.47    7.00
   0   1   1  267.27    7.00
   0   1   1  281.67    7.00
   0   1   1  288.87    7.00
   0   1   1  274.97    7.00
  -1  -1  -1    2.90    0.20
  -1  -1  -1    3.40    0.20
  -1  -1  -1    2.90    0.20
  -1  -1  -1    2.90    0.20
  -1  -1  -1    3.10    0.20
  -1  -1  -1    3.10    0.20
  -1  -1  -1    2.80    0.20
  -1  -1  -1    2.70    0.20
   1   1   1    3.00    0.20
   1   1   1    2.90    0.20
   1   1   1    3.00    0.20
   1   1   1    3.30    0.20
   1   1   1    2.90    0.20
   1   1   1    3.00    0.20
  -2  -1  -1 1096.29   25.80
  -2  -1  -1 1058.49   26.30
  -2  -1  -1 1141.29   26.00
  -2  -1  -1 1064.89   26.10
  -2  -1  -1 1044.10   25.50
  -2  -1  -1 1109.29   26.40
  -2  -1  -1 1154.78   26.00
  -2  -1  -1 1094.59   26.00
   2   1   1 1037.00   25.90
   2   1   1 1081.99   25.80
   2   1   1 1068.59   26.40
   2   1   1 1058.89   26.00
   2   1   1 1074.29   25.80
   2   1   1 1042.10   25.60
   2   1   1 1094.19   26.20
   2   1   1 1094.79   25.90
   2   1   1 1043.30   25.90
  -3  -1  -1  145.69    3.80
  -3  -1  -1  136.49    3.60
  -3  -1  -1  150.38    3.40
  -3  -1  -1  136.19    3.60
   3   1   1  133.29    3.80
   3   1   1  144.89    3.70
   3   1   1  139.19    3.60
   3   1   1  137.59    3.60
   3   1   1  138.49    3.70
   3   1   1  136.99    3.60
   3   1   1  142.89    3.80
  -4  -1  -1  187.38    4.90
  -4  -1  -1  192.88    4.60
  -4  -1  -1  192.28    5.10
  -4  -1  -1  182.48    4.90
  -4  -1  -1  199.48    4.50
  -4  -1  -1  181.88    4.80
   4   1   1  188.78    5.10
   4   1   1  185.48    4.80
   4   1   1  184.18    4.80
   4   1   1  184.78    4.80
   4   1   1  184.68    5.00
   4   1   1  188.18    5.10
  -5  -1  -1   92.59    2.80
  -5  -1  -1   91.29    2.80
  -5  -1  -1   99.79    2.40
  -5  -1  -1   92.59    2.80
  -5  -1  -1   95.59    2.30
   5   1   1   95.29    2.70
   5   1   1   93.19    3.10
   5   1   1   92.39    3.10
   5   1   1   91.49    2.90
   5   1   1   93.49    2.70
  -6  -1  -1   14.10    1.00
  -6  -1  -1   14.70    1.00
  -6  -1  -1   14.20    1.00
   6   1   1   13.20    0.90
   6   1   1   11.80    0.80
   6   1   1   13.10    1.20
  -7  -1  -1    0.20    0.50
  -7  -1  -1   -0.30    0.40
  -7  -1  -1   -0.10    0.40
   7   1   1    0.60    0.40
   7   1   1    0.00    0.40
   7   1   1   -0.70    0.60
  -8  -1  -1    4.00    0.80
  -8  -1  -1    5.40    0.90
  -8  -1  -1    4.60    0.90
   8   1   1    5.30    0.80
   8   1   1    4.30    1.10
   8   1   1    5.50    0.70
  -9  -1  -1    2.20    0.80
  -9  -1  -1    2.90    0.90
  -9  -1  -1    2.90    0.80
   9   1   1    2.60    1.00
   9   1   1    3.80    0.90
   9   1   1    2.20    0.70
   8  -2  -1    3.20    1.10
   8  -2  -1    3.10    0.80
   8  -2  -1    2.00    0.90
   8  -2  -1    0.10    0.60
  -8   2   1    2.30    0.80
  -8   2   1    1.60    0.90
   7  -2  -1   11.80    1.20
   7  -2  -1   12.20    1.50
   7  -2  -1   14.50    1.20
   7  -2  -1   12.10    1.10
  -7   2   1   11.00    1.30
  -7   2   1   12.60    1.30
   6  -2  -1   44.10    1.80
   6  -2  -1   44.90    1.80
   6  -2  -1   43.70    1.80
   6  -2  -1   45.90    2.20
  -6   2   1   39.10    1.90
  -6   2   1   45.10    2.10
   5  -2  -1   83.49    2.60
   5  -2  -1   79.29    2.60
   5  -2  -1   83.99    3.00
   5  -2  -1   81.99    2.60
  -5   2   1   85.89    2.90
  -5   2   1   79.19    2.70
   4  -2  -1  262.87    6.80
   4  -2  -1  269.47    6.40
   4  -2  -1  253.67    7.10
   4  -2  -1  268.87    6.80
   4  -2  -1  260.17    6.80
  -4   2   1  270.77    7.10
  -4   2   1  276.27    7.00
  -4   2   1  264.27    6.90
   3  -2  -1  111.29    3.10
   3  -2  -1  111.89    3.10
   3  -2  -1  113.19    3.30
   3  -2  -1  116.19    2.90
  -3   2   1  111.89    3.20
  -3   2   1  115.99    3.20
  -3   2   1  108.69    3.30
   2  -2  -1   74.19    2.30
   2  -2  -1   81.29    2.10
   2  -2  -1   77.29    2.20
   2  -2  -1   79.09    2.20
  -2   2   1   79.39    2.30
  -2   2   1   81.29    2.30
   1  -2  -1  167.48    4.00
   1  -2  -1  169.48    4.10
   1  -2  -1  164.58    4.10
   1  -2  -1  159.28    4.20
   1  -2  -1  159.28    4.10
  -1   2   1  159.98    4.20
  -1   2   1  169.18    4.00
  -1   2   1  174.78    4.30
  -1   2   1  159.08    4.20
  -1   2   1  164.98    4.10
   0  -2  -1 6118.39  143.99
   0  -2  -1 6274.47  143.99
   0  -2  -1 5708.73  143.59
   0  -2  -1 5887.91  143.79
   0  -2  -1 6434.96  143.79
   0   2   1 5916.51  144.09
   0   2   1 6869.21  144.19
   0   2   1 5594.44  143.79
   0   2   1 5984.50  143.59
   0   2   1 5941.61  143.99
  -1  -2  -1    7.20    0.40
  -1  -2  -1    7.00    0.40
  -1  -2  -1    8.10    0.30
  -1  -2  -1    8.50    0.40
  -1  -2  -1    8.10    0.40
   1   2   1    7.40    0.40
   1   2   1    8.20    0.40
   1   2   1    7.10    0.30
   1   2   1    7.80    0.40
   1   2   1    7.90    0.40
   1   2   1    7.50    0.40
   1   2   1    8.40    0.40
  -2  -2  -1  247.88    5.90
  -2  -2  -1  245.78    6.00
  -2  -2  -1  237.98    6.00
  -2  -2  -1  239.98    6.10
  -2  -2  -1  242.88    6.00
  -2  -2  -1  255.47    5.90
   2   2   1  247.38    6.00
   2   2   1  250.47    6.20
   2   2   1  239.58    6.00
   2   2   1  234.58    6.00
   2   2   1  236.58    6.10
  -3  -2  -1   76.99    2.10
  -3  -2  -1   75.69    2.30
  -3  -2  -1   72.49    2.10
  -3  -2  -1   74.49    2.00
   3   2   1   72.89    2.30
   3   2   1   74.89    2.10
   3   2   1   73.09    2.10
   3   2   1   73.69    2.20
   3   2   1   77.29    2.00
   3   2   1   74.49    2.20
  -4  -2  -1   48.00    1.50
  -4  -2  -1   44.80    1.40
   4   2   1   45.30    1.50
   4   2   1   47.60    1.50
   4   2   1   47.20    1.40
   4   2   1   49.10    1.70
   4   2   1   47.10    1.70
  -5  -2  -1   29.80    1.20
  -5  -2  -1   30.70    1.30
  -5  -2  -1   30.60    1.30
   5   2   1   30.50    1.50
   5   2   1   30.90    1.10
   5   2   1   29.10    1.20
   5   2   1   28.00    1.20
   5   2   1   29.20    1.50
   5   2   1   29.20    1.40
  -6  -2  -1  122.89    3.60
  -6  -2  -1  123.39    3.70
  -6  -2  -1  121.49    3.70
   6   2   1  128.09    4.10
   6   2   1  130.09    3.50
   6   2   1  128.99    3.90
   6   2   1  124.49    3.60
   6   2   1  123.99    4.00
  -7  -2  -1   -0.10    0.40
  -7  -2  -1   -0.40    0.40
  -7  -2  -1    0.20    0.50
   7   2   1    0.00    0.70
   7   2   1    0.40    0.30
   7   2   1    0.40    0.50
   7   2   1   -0.40    0.40
  -8  -2  -1   10.00    1.10
  -8  -2  -1    9.90    1.10
  -8  -2  -1   10.40    1.00
   8   2   1   11.80    1.50
   8   2   1   13.30    0.90
   8   2   1   12.50    1.20
  -9  -2  -1    0.40    0.70
  -9  -2  -1    0.90    0.70
   9   2   1   -0.10    0.60
   9   2   1   -1.40    0.80
   8  -3  -1    3.00    0.80
   8  -3  -1    2.80    0.80
   8  -3  -1    3.90    0.90
   8  -3  -1    4.40    1.10
  -8   3   1    5.10    1.00
  -8   3   1    3.60    1.00
  -8   3   1    2.00    1.00
   7  -3  -1    0.00    0.60
   7  -3  -1   -0.30    0.60
   7  -3  -1    1.30    0.80
   7  -3  -1    0.20    0.60
  -7   3   1    1.10    0.80
  -7   3   1    1.00    0.70
   6  -3  -1   15.90    1.40
   6  -3  -1   14.10    1.20
   6  -3  -1   15.50    1.10
   6  -3  -1   14.20    1.10
  -6   3   1   15.90    1.50
  -6   3   1   15.30    1.20
   5  -3  -1   35.40    1.30
   5  -3  -1   33.30    1.50
   5  -3  -1   31.50    1.40
   5  -3  -1   36.30    1.60
   5  -3  -1   35.20    1.90
  -5   3   1   35.20    1.70
  -5   3   1   32.20    1.60
   4  -3  -1   52.89    1.90
   4  -3  -1   53.59    2.00
   4  -3  -1   54.79    1.90
   4  -3  -1   54.19    1.60
   4  -3  -1   56.69    1.70
   4  -3  -1   52.09    2.10
  -4   3   1   57.19    2.00
  -4   3   1   54.69    2.10
  -4   3   1   51.69    1.90
   3  -3  -1   56.29    1.80
   3  -3  -1   54.09    1.60
   3  -3  -1   54.69    1.60
   3  -3  -1   54.89    1.80
   3  -3  -1   50.99    2.00
  -3   3   1   52.29    1.60
  -3   3   1   52.09    2.00
  -3   3   1   56.99    1.90
  -3   3   1   57.49    1.80
   2  -3  -1  676.03   15.70
   2  -3  -1  667.83   15.80
   2  -3  -1  663.13   15.80
   2  -3  -1  653.33   16.00
   2  -3  -1  665.73   15.50
  -2   3   1  631.24   15.90
  -2   3   1  652.13   15.60
  -2   3   1  639.74   16.00
  -2   3   1  649.14   15.80
   1  -3  -1   40.60    1.30
   1  -3  -1   39.90    1.20
  -1   3   1   39.80    1.40
  -1   3   1   40.50    1.30
  -1   3   1   40.50    1.30
  -1   3   1   42.10    1.20
   0  -3  -1    0.60    0.20
   0  -3  -1    1.00    0.20
   0  -3  -1    0.70    0.20
   0   3   1    0.90    0.20
   0   3   1    2.00    0.20
   0   3   1    1.10    0.20
   0   3   1    0.90    0.20
   0   3   1    0.80    0.20
   0   3   1    0.80    0.20
   0   3   1    0.90    0.10
  -1  -3  -1   17.60    0.60
  -1  -3  -1   17.80    0.70
  -1  -3  -1   17.50    0.70
  -1  -3  -1   17.00    0.70
  -1  -3  -1   18.90    0.60
   1   3   1   17.00    0.70
   1   3   1   16.90    0.70
   1   3   1   16.60    0.70
  -2  -3  -1  104.69    2.80
  -2  -3  -1  107.89    2.90
  -2  -3  -1  109.39    2.90
  -2  -3  -1  104.69    2.80
   2   3   1  100.99    2.80
   2   3   1  108.29    2.80
   2   3   1  109.79    2.90
   2   3   1  103.29    2.90
   2   3   1  107.99    2.80
  -3  -3  -1    0.90    0.30
  -3  -3  -1    1.30    0.30
  -3  -3  -1    1.40    0.30
  -3  -3  -1    1.10    0.20
  -3  -3  -1    0.90    0.30
   3   3   1    1.20    0.30
   3   3   1    0.90    0.30
   3   3   1    1.20    0.30
   3   3   1    1.20    0.30
  -4  -3  -1   25.10    0.90
  -4  -3  -1   24.30    1.00
  -4  -3  -1   23.60    1.00
  -4  -3  -1   25.70    1.20
   4   3   1   24.50    1.10
   4   3   1   25.80    1.00
   4   3   1   23.30    1.20
   4   3   1   25.60    1.00
   4   3   1   24.80    1.10
  -5  -3  -1  412.06    9.80
  -5  -3  -1  404.66   10.00
   5   3   1  407.76   10.40
   5   3   1  402.06    9.80
   5   3   1  405.26   10.20
   5   3   1  394.16   10.00
   5   3   1  386.66   10.20
   5   3   1  395.56    9.90
  -6  -3  -1  222.08    5.90
  -6  -3  -1  223.68    6.10
  -6  -3  -1  226.88    6.10
   6   3   1  230.98    6.00
   6   3   1  225.38    5.90
   6   3   1  225.88    6.30
   6   3   1  231.88    6.50
   6   3   1  230.88    6.00
   6   3   1  226.28    6.30
  -7  -3  -1    0.50    0.50
  -7  -3  -1   -0.50    0.50
  -7  -3  -1    0.00    0.30
   7   3   1   -0.20    0.30
   7   3   1   -0.10    0.60
   7   3   1    0.00    0.50
   7   3   1    0.10    0.70
   7   3   1    0.00    0.60
  -8  -3  -1    1.50    0.70
  -8  -3  -1    1.10    0.50
  -8  -3  -1    0.50    0.60
   8   3   1    0.50    0.70
   8   3   1    0.10    0.80
   8   3   1    0.00    0.60
  -9  -3  -1   12.40    1.40
  -9  -3  -1    8.80    1.10
   9   3   1   10.90    1.50
   9   3   1   11.30    1.20
   7  -4  -1    2.40    0.80
   7  -4  -1    2.20    1.00
   7  -4  -1    2.20    0.80
   7  -4  -1    2.70    0.80
  -7   4   1    4.30    1.00
  -7   4   1    3.10    0.90
  -7   4   1    1.50    0.80
   6  -4  -1    4.40    0.80
   6  -4  -1    5.80    1.10
   6  -4  -1    5.20    0.80
   6  -4  -1    5.40    0.90
  -6   4   1    5.80    0.90
  -6   4   1    4.60    0.90
  -6   4   1    5.70    1.10
   5  -4  -1   21.30    1.30
   5  -4  -1   22.30    1.60
   5  -4  -1   23.10    1.30
   5  -4  -1   24.70    1.30
  -5   4   1   22.10    1.60
  -5   4   1   22.50    1.40
  -5   4   1   22.50    1.40
   4  -4  -1   87.89    2.70
   4  -4  -1   89.69    2.50
   4  -4  -1   88.09    2.90
   4  -4  -1   82.89    2.70
   4  -4  -1   89.49    2.50
   4  -4  -1   85.69    3.10
  -4   4   1   87.39    2.50
  -4   4   1   87.79    2.90
  -4   4   1   86.49    2.80
  -4   4   1   86.09    3.00
   3  -4  -1   80.69    2.30
   3  -4  -1   77.99    2.50
   3  -4  -1   81.49    2.80
   3  -4  -1   85.29    2.40
   3  -4  -1   82.39    2.10
  -3   4   1   77.29    2.60
  -3   4   1   82.09    2.80
  -3   4   1   77.19    2.50
  -3   4   1   84.59    2.20
   2  -4  -1    9.40    0.50
   2  -4  -1    9.50    0.60
  -2   4   1    9.50    0.80
  -2   4   1    9.80    0.70
  -2   4   1    9.40    0.70
   1  -4  -1    0.20    0.20
   1  -4  -1    0.10    0.20
  -1   4   1    0.00    0.20
  -1   4   1    0.20    0.30
  -1   4   1    0.00    0.20
  -1   4   1   -0.10    0.30
  -1   4   1    0.00    0.20
   0  -4  -1    3.60    0.40
   0  -4  -1    3.30    0.40
   0  -4  -1    3.90    0.20
   0  -4  -1    3.50    0.40
   0   4   1    3.10    0.40
   0   4   1    3.50    0.40
   0   4   1    3.30    0.40
   0   4   1    3.50    0.10
   0   4   1    2.90    0.40
  -1  -4  -1   70.59    2.00
  -1  -4  -1   71.79    2.10
  -1  -4  -1   72.09    2.00
  -1  -4  -1   70.39    2.10
   1   4   1   70.89    2.00
   1   4   1   69.09    2.00
   1   4   1   72.19    2.10
   1   4   1   71.79    2.10
   1   4   1   70.99    2.00
  -2  -4  -1  385.66    8.70
  -2  -4  -1  365.56    8.80
  -2  -4  -1  366.36    9.00
  -2  -4  -1  362.26    8.90
   2   4   1  357.36    9.00
   2   4   1  339.17    8.80
   2   4   1  345.17    8.80
   2   4   1  357.76    9.00
  -3  -4  -1   59.99    2.00
  -3  -4  -1   58.79    1.80
  -3  -4  -1   58.09    1.90
  -3  -4  -1   57.19    1.80
   3   4   1   59.89    2.00
   3   4   1   63.09    2.00
   3   4   1   56.89    1.80
   3   4   1   62.19    1.90
  -4  -4  -1   17.20    0.60
  -4  -4  -1   17.40    1.00
  -4  -4  -1   16.30    0.80
  -4  -4  -1   16.10    0.80
  -4  -4  -1   17.50    1.00
   4   4   1   17.50    1.00
   4   4   1   17.50    0.60
   4   4   1   16.30    0.90
   4   4   1   17.40    0.90
   4   4   1   14.60    0.90
  -5  -4  -1   12.80    0.60
  -5  -4  -1   11.20    0.80
   5   4   1   13.60    0.90
   5   4   1   10.90    0.80
   5   4   1   13.30    1.10
   5   4   1   12.40    1.10
   5   4   1   11.70    1.00
  -6  -4  -1    0.70    0.50
  -6  -4  -1   -0.20    0.30
   6   4   1   -0.30    0.50
   6   4   1    1.10    0.50
   6   4   1    0.40    0.40
   6   4   1    0.20    0.60
   6   4   1   -0.20    0.60
  -7  -4  -1    0.50    0.50
  -7  -4  -1    0.00    0.50
  -7  -4  -1    0.70    0.30
   7   4   1    0.60    0.50
   7   4   1   -0.10    0.60
   7   4   1    0.50    0.60
   7   4   1    0.80    0.60
   7   4   1    1.10    0.60
  -8  -4  -1   19.10    1.40
  -8  -4  -1   22.40    1.40
   8   4   1   21.90    1.40
   8   4   1   22.00    1.60
   8   4   1   19.70    1.80
  -9  -4  -1    1.20    0.80
  -9  -4  -1    1.00    0.70
   9   4   1   -0.60    0.80
   9   4   1   -0.50    0.70
   9   4   1   -0.20    0.60
   7  -5  -1    4.00    1.00
   7  -5  -1    3.20    0.90
  -7   5   1    3.10    0.90
  -7   5   1    3.10    1.10
  -7   5   1    4.60    1.10
   6  -5  -1    9.10    1.10
   6  -5  -1    8.50    1.10
  -6   5   1   10.50    1.30
  -6   5   1    9.10    1.40
  -6   5   1   11.90    1.30
   5  -5  -1   16.40    1.30
   5  -5  -1   15.90    1.20
  -5   5   1   15.70    1.40
  -5   5   1   18.60    1.60
  -5   5   1   15.40    1.20
   4  -5  -1    6.10    0.70
   4  -5  -1    6.50    0.90
   4  -5  -1    4.80    0.70
  -4   5   1    5.90    0.80
  -4   5   1    4.50    0.90
  -4   5   1    6.10    0.90
   3  -5  -1   23.30    0.90
   3  -5  -1   22.80    1.10
   3  -5  -1   24.20    1.10
  -3   5   1   22.50    1.20
  -3   5   1   22.90    1.50
  -3   5   1   22.20    1.20
   2  -5  -1   38.80    1.30
   2  -5  -1   37.50    1.40
  -2   5   1   37.40    1.50
  -2   5   1   36.90    1.70
  -2   5   1   37.40    1.50
   1  -5  -1    1.00    0.30
   1  -5  -1    1.10    0.40
   1  -5  -1    1.20    0.30
  -1   5   1    0.80    0.40
  -1   5   1    0.40    0.40
  -1   5   1    1.30    0.30
  -1   5   1    1.00    0.30
  -1   5   1    0.80    0.30
   0  -5  -1    3.90    0.50
   0  -5  -1    4.00    0.40
   0  -5  -1    4.20    0.50
   0   5   1    3.90    0.50
   0   5   1    4.00    0.50
   0   5   1    4.00    0.50
   0   5   1    2.80    0.40
  -1  -5  -1    0.40    0.30
  -1  -5  -1    1.10    0.30
  -1  -5  -1    0.90    0.30
  -1  -5  -1    0.90    0.30
   1   5   1    1.20    0.30
   1   5   1    0.70    0.30
   1   5   1    0.50    0.30
   1   5   1    0.80    0.30
   1   5   1    0.60    0.30
  -2  -5  -1   64.39    2.10
  -2  -5  -1   64.89    1.90
  -2  -5  -1   63.19    2.00
   2   5   1   62.19    1.90
   2   5   1   60.19    1.90
   2   5   1   61.69    2.10
   2   5   1   62.29    2.10
  -3  -5  -1  302.37    7.80
  -3  -5  -1  332.47    7.60
  -3  -5  -1  320.57    8.20
  -3  -5  -1  307.67    7.90
  -3  -5  -1  311.97    8.00
   3   5   1  317.77    8.00
   3   5   1  320.17    7.90
   3   5   1  308.57    7.90
   3   5   1  305.77    8.10
   3   5   1  312.57    8.10
  -4  -5  -1  223.58    5.90
  -4  -5  -1  229.08    5.40
  -4  -5  -1  211.88    5.80
  -4  -5  -1  216.48    5.80
  -4  -5  -1  238.28    5.40
   4   5   1  220.08    5.80
   4   5   1  219.78    6.00
   4   5   1  224.58    6.10
   4   5   1  225.88    6.00
  -5  -5  -1   23.90    1.30
  -5  -5  -1   25.70    1.10
  -5  -5  -1   26.30    1.20
  -5  -5  -1   25.60    0.80
   5   5   1   25.70    1.50
   5   5   1   25.60    1.40
   5   5   1   25.60    1.20
   5   5   1   24.50    1.30
   5   5   1   24.90    1.20
  -6  -5  -1  186.98    4.70
  -6  -5  -1  182.98    5.10
   6   5   1  187.78    5.60
   6   5   1  182.78    5.40
   6   5   1  183.88    5.10
   6   5   1  184.78    5.10
   6   5   1  188.28    5.50
  -7  -5  -1    0.70    0.60
   7   5   1    1.00    0.80
   7   5   1    1.50    0.60
   7   5   1    1.40    0.70
   7   5   1    0.60    0.70
   7   5   1    1.60    0.60
  -8  -5  -1    6.90    1.00
  -8  -5  -1    7.60    1.00
   8   5   1    8.20    1.20
   8   5   1    7.10    1.10
   8   5   1    7.40    0.90
   8   5   1    9.10    1.00
  -9  -5  -1    3.20    0.80
  -9  -5  -1    3.20    0.80
   9   5   1    3.00    1.20
   9   5   1    3.30    1.10
   9   5   1    2.20    0.80
   6  -6  -1   13.10    1.30
   6  -6  -1   11.30    1.30
  -6   6   1   10.30    1.30
  -6   6   1   10.10    1.40
  -6   6   1   12.20    1.60
   5  -6  -1    3.30    0.80
   5  -6  -1    3.10    0.80
  -5   6   1    2.20    0.80
  -5   6   1    3.80    1.00
  -5   6   1    2.60    0.80
   4  -6  -1    2.50    0.80
   4  -6  -1    2.70    0.60
  -4   6   1    2.70    0.80
  -4   6   1    3.10    0.70
  -4   6   1    3.90    0.90
   3  -6  -1    5.90    0.80
   3  -6  -1    4.70    0.50
   3  -6  -1    4.80    0.70
  -3   6   1    4.40    0.90
  -3   6   1    5.00    0.70
  -3   6   1    4.70    0.70
  -3   6   1    4.50    0.60
   2  -6  -1   17.60    0.80
   2  -6  -1   19.20    1.10
  -2   6   1   18.00    1.10
  -2   6   1   18.20    1.10
  -2   6   1   18.90    1.10
  -2   6   1   18.20    1.20
  -2   6   1   16.90    1.00
   1  -6  -1    0.30    0.30
   1  -6  -1    0.20    0.30
   1  -6  -1   -0.20    0.30
  -1   6   1   -0.10    0.30
  -1   6   1    0.10    0.30
  -1   6   1   -0.10    0.30
  -1   6   1   -0.20    0.40
   0  -6  -1    5.70    0.60
   0  -6  -1    6.30    0.60
   0  -6  -1    6.60    0.60
   0   6   1    5.10    0.60
   0   6   1    4.90    0.60
   0   6   1    4.60    0.60
   0   6   1    5.00    0.60
  -1  -6  -1   97.69    2.90
  -1  -6  -1   98.89    2.90
  -1  -6  -1  101.69    2.90
   1   6   1  100.99    2.90
   1   6   1   96.99    2.90
   1   6   1   99.69    3.00
   1   6   1   99.39    2.90
   1   6   1   96.49    3.00
  -2  -6  -1  166.98    4.60
  -2  -6  -1  174.38    4.80
  -2  -6  -1  170.98    4.60
   2   6   1  172.28    4.60
   2   6   1  174.58    4.80
   2   6   1  169.38    4.80
   2   6   1  172.18    4.60
  -3  -6  -1  464.65   11.70
  -3  -6  -1  462.15   11.50
  -3  -6  -1  480.95   11.20
   3   6   1  471.05   11.50
   3   6   1  467.05   11.60
   3   6   1  455.65   11.80
   3   6   1  473.55   11.70
   3   6   1  456.95   11.80
  -4  -6  -1  105.39    2.60
  -4  -6  -1  103.39    3.20
  -4  -6  -1   98.49    3.00
  -4  -6  -1   99.09    3.00
  -4  -6  -1  104.99    2.60
   4   6   1  100.49    3.10
   4   6   1  100.49    3.20
   4   6   1  102.29    3.30
   4   6   1  104.29    3.00
  -5  -6  -1   21.50    1.30
  -5  -6  -1   20.20    1.10
  -5  -6  -1   21.80    1.10
   5   6   1   21.00    1.20
   5   6   1   20.40    1.30
   5   6   1   21.10    1.10
   5   6   1   22.20    1.40
  -6  -6  -1    1.50    0.50
   6   6   1    2.00    0.70
   6   6   1    3.00    0.60
   6   6   1    1.90    0.50
   6   6   1    1.60    0.70
   6   6   1    1.50    0.70
  -7  -6  -1   12.10    1.00
   7   6   1   10.60    1.20
   7   6   1   11.00    1.10
   7   6   1    7.60    1.10
   7   6   1    9.50    1.20
   7   6   1    9.30    0.90
  -8  -6  -1    0.50    0.60
   8   6   1   -1.00    0.60
   8   6   1   -1.60    0.70
   8   6   1    0.10    0.50
   8   6   1    0.00    0.70
  -9  -6  -1   13.30    1.40
  -9  -6  -1   11.80    1.30
   9   6   1   11.90    1.60
   9   6   1    8.80    1.40
   9   6   1   11.30    1.20
   9   6   1   10.30    1.20
   5  -7  -1    0.00    0.60
   5  -7  -1    0.10    0.70
  -5   7   1    0.50    0.90
  -5   7   1    0.60    0.80
  -5   7   1   -0.40    0.60
   4  -7  -1    7.90    1.00
   4  -7  -1    6.60    1.10
  -4   7   1    7.50    1.20
  -4   7   1    7.40    1.00
  -4   7   1    8.60    1.10
   3  -7  -1    7.70    0.90
   3  -7  -1    8.10    0.90
  -3   7   1    7.70    0.80
  -3   7   1    7.40    0.90
  -3   7   1    7.20    0.90
  -3   7   1    6.70    1.00
  -3   7   1    8.30    1.10
   2  -7  -1   32.90    1.60
   2  -7  -1   30.30    1.40
   2  -7  -1   26.90    1.20
  -2   7   1   30.60    1.60
  -2   7   1   31.40    1.50
  -2   7   1   32.60    1.70
  -2   7   1   31.90    1.50
  -2   7   1   31.20    1.50
   1  -7  -1    0.20    0.30
   1  -7  -1    0.20    0.40
   1  -7  -1    0.10    0.40
  -1   7   1    0.90    0.40
  -1   7   1   -0.20    0.30
  -1   7   1    0.50    0.50
  -1   7   1   -0.20    0.30
   0  -7  -1    8.10    0.80
   0  -7  -1    8.50    0.80
   0  -7  -1    7.70    0.70
   0   7   1    7.00    0.70
   0   7   1    7.90    0.80
   0   7   1    7.40    0.80
   0   7   1    7.90    0.80
  -1  -7  -1   73.69    2.30
  -1  -7  -1   75.29    2.40
  -1  -7  -1   73.89    2.00
  -1  -7  -1   71.39    2.40
   1   7   1   73.09    2.50
   1   7   1   72.09    2.50
   1   7   1   72.89    2.40
   1   7   1   72.29    2.40
   1   7   1   72.79    2.40
  -2  -7  -1    7.70    0.80
  -2  -7  -1    7.00    0.70
   2   7   1    9.50    0.80
   2   7   1    8.50    0.80
   2   7   1    7.60    0.80
   2   7   1    7.10    0.80
  -3  -7  -1   17.70    1.00
  -3  -7  -1   17.60    1.20
   3   7   1   17.40    1.00
   3   7   1   17.60    1.20
   3   7   1   21.40    1.30
   3   7   1   18.40    1.10
  -4  -7  -1   14.10    1.00
  -4  -7  -1   14.20    1.10
  -4  -7  -1   15.90    0.90
   4   7   1   14.50    1.10
   4   7   1   15.00    1.10
   4   7   1   12.90    0.90
   4   7   1   15.40    1.10
  -5  -7  -1   -0.10    0.40
  -5  -7  -1    0.20    0.40
  -5  -7  -1   -0.30    0.60
   5   7   1    0.30    0.40
   5   7   1    0.10    0.40
   5   7   1    0.20    0.40
   5   7   1    0.10    0.50
  -6  -7  -1    1.40    0.50
  -6  -7  -1    1.30    0.50
   6   7   1    1.00    0.50
   6   7   1    0.50    0.60
   6   7   1    0.60    0.60
   6   7   1    1.30    0.60
   6   7   1    1.50    0.50
  -7  -7  -1    0.50    0.60
   7   7   1   -0.60    0.60
   7   7   1   -0.40    0.70
   7   7   1   -0.50    0.40
   7   7   1    0.50    0.50
  -8  -7  -1    1.10    0.60
   8   7   1   -0.90    0.80
   8   7   1    0.70    0.60
   8   7   1   -0.30    0.80
   8   7   1    1.60    0.70
  -9  -7  -1    0.60    0.70
  -9  -7  -1    0.70    0.70
   9   7   1   -1.20    0.80
   9   7   1    0.00    0.70
   9   7   1    0.20    0.70
   9   7   1    0.30    1.00
   4  -8  -1    4.20    0.90
   4  -8  -1    3.70    1.00
   4  -8  -1    4.10    0.80
  -4   8   1    3.90    0.90
  -4   8   1    4.30    1.00
  -4   8   1    5.20    1.20
   3  -8  -1    6.40    1.00
   3  -8  -1    6.60    1.00
   3  -8  -1    6.00    0.90
  -3   8   1    5.50    1.10
  -3   8   1    6.40    1.00
  -3   8   1    7.50    1.10
   2  -8  -1    6.40    1.00
   2  -8  -1    5.30    0.80
   2  -8  -1    6.90    1.00
  -2   8   1    6.30    0.90
  -2   8   1    6.00    1.00
  -2   8   1    5.30    0.80
  -2   8   1    5.70    0.80
   1  -8  -1    2.80    0.50
   1  -8  -1    4.50    0.80
   1  -8  -1    2.90    0.60
  -1   8   1    2.90    0.60
  -1   8   1    2.80    0.70
  -1   8   1    3.10    0.70
  -1   8   1    3.50    0.70
   0  -8  -1    5.90    0.80
   0  -8  -1    5.10    0.70
   0  -8  -1    6.40    0.70
   0   8   1    5.20    0.80
   0   8   1    6.20    0.80
   0   8   1    6.20    0.80
   0   8   1    5.20    0.70
  -1  -8  -1   10.80    0.80
  -1  -8  -1   11.40    0.90
  -1  -8  -1   11.70    0.90
   1   8   1   12.30    0.90
   1   8   1   11.80    1.00
   1   8   1   11.30    1.00
   1   8   1   12.90    1.00
   1   8   1   11.10    1.00
  -2  -8  -1    9.30    0.90
  -2  -8  -1    9.80    0.90
   2   8   1    9.50    1.00
   2   8   1    8.30    0.90
   2   8   1    8.30    0.90
   2   8   1    9.50    0.90
  -3  -8  -1   17.00    1.20
  -3  -8  -1   18.00    1.10
   3   8   1   18.30    1.10
   3   8   1   18.10    1.10
   3   8   1   18.50    1.30
   3   8   1   16.30    1.20
  -4  -8  -1   15.10    1.10
  -4  -8  -1   12.60    0.90
  -4  -8  -1   12.80    1.20
   4   8   1   13.90    1.20
   4   8   1   13.70    1.00
   4   8   1   13.60    1.00
   4   8   1   12.80    1.20
  -5  -8  -1    0.50    0.50
  -5  -8  -1    1.20    0.50
  -5  -8  -1    0.00    0.70
   5   8   1    0.90    0.50
   5   8   1    1.40    0.60
   5   8   1    0.70    0.50
   5   8   1    1.50    0.60
  -6  -8  -1    1.70    0.60
  -6  -8  -1    1.50    0.50
   6   8   1    1.40    0.70
   6   8   1    1.20    0.60
   6   8   1    0.90    0.70
   6   8   1    1.30    0.50
  -7  -8  -1   -0.30    0.50
   7   8   1    0.50    0.70
   7   8   1   -0.40    0.70
   7   8   1   -0.10    0.50
   7   8   1   -0.80    0.50
  -8  -8  -1   10.00    1.20
   8   8   1    8.70    1.10
   8   8   1    7.30    1.30
   8   8   1    8.50    1.40
   8   8   1    8.50    1.10
  -9  -8  -1    2.00    0.80
   9   8   1    0.60    1.00
   9   8   1    1.80    0.80
   9   8   1    0.90    1.10
   9   8   1    3.20    0.90
   3  -9  -1    4.40    0.90
   3  -9  -1    4.40    1.10
   3  -9  -1    4.10    0.90
  -3   9   1    4.50    1.10
  -3   9   1    3.80    0.90
   2  -9  -1    5.40    0.90
   2  -9  -1    4.60    0.80
   2  -9  -1    2.60    0.70
  -2   9   1    3.00    1.10
  -2   9   1    2.40    0.90
  -2   9   1    3.60    0.80
   1  -9  -1    0.90    0.50
   1  -9  -1    0.20    0.50
  -1   9   1   -0.30    0.50
  -1   9   1   -0.40    0.50
  -1   9   1    0.00    0.60
  -1   9   1   -0.30    0.50
   0  -9  -1    0.90    0.50
   0  -9  -1    1.40    0.50
   0  -9  -1    0.60    0.50
   0   9   1    1.00    0.50
   0   9   1    0.60    0.60
   0   9   1    1.30    0.50
   0   9   1    1.00    0.60
  -1  -9  -1    5.00    0.80
  -1  -9  -1    6.20    0.80
  -1  -9  -1    7.10    0.80
   1   9   1    6.40    0.90
   1   9   1    6.00    0.90
   1   9   1    6.10    0.90
   1   9   1    6.80    0.90
  -2  -9  -1   -0.30    0.50
  -2  -9  -1   -0.10    0.50
   2   9   1    0.20    0.50
   2   9   1   -0.40    0.50
   2   9   1    0.00    0.40
   2   9   1   -0.20    0.40
  -3  -9  -1    0.90    0.60
  -3  -9  -1    1.10    0.50
   3   9   1    2.80    0.60
   3   9   1    0.00    0.50
   3   9   1    1.10    0.60
   3   9   1    1.00    0.60
  -4  -9  -1    1.20    0.50
  -4  -9  -1    1.40    0.70
  -4  -9  -1    0.90    0.60
   4   9   1    1.40    0.70
   4   9   1    2.50    0.60
   4   9   1    1.00    0.60
   4   9   1    3.10    0.70
   4   9   1    1.30    0.60
  -5  -9  -1    6.70    1.10
  -5  -9  -1    4.30    0.70
  -5  -9  -1    5.00    0.80
   5   9   1    4.50    0.90
   5   9   1    4.10    0.90
   5   9   1    5.20    0.80
   5   9   1    5.80    0.90
  -6  -9  -1   -0.10    0.50
  -6  -9  -1    0.00    0.50
   6   9   1    1.00    0.60
   6   9   1    0.50    0.70
   6   9   1   -0.10    0.60
  -7  -9  -1    0.90    0.70
  -7  -9  -1    2.10    0.70
   7   9   1    0.90    0.80
   7   9   1    0.40    0.70
   7   9   1    1.60    0.70
   7   9   1    0.80    0.70
  -8  -9  -1    2.20    0.80
   8   9   1    1.80    0.70
   8   9   1    2.20    0.80
   8   9   1    2.10    1.10
   8   9   1    2.00    1.00
   2 -10  -1   -1.00    0.60
   2 -10  -1    0.00    0.80
   2 -10  -1   -0.30    0.50
  -2  10   1   -1.00    0.60
  -2  10   1   -0.20    0.70
   1 -10  -1    2.00    0.90
   1 -10  -1    2.90    0.80
   1 -10  -1    1.10    0.70
  -1  10   1    2.70    0.80
  -1  10   1    1.10    0.70
  -1  10   1    1.30    0.70
   0 -10  -1    1.90    0.70
   0 -10  -1    2.90    0.70
   0  10   1    3.50    0.90
   0  10   1    5.40    0.90
   0  10   1    3.00    0.80
   0  10   1    2.50    0.80
  -1 -10  -1   -0.30    0.50
  -1 -10  -1   -0.20    0.50
  -1 -10  -1    0.10    0.60
   1  10   1    0.00    0.50
   1  10   1    0.10    0.60
   1  10   1    0.30    0.60
   1  10   1    0.00    0.60
  -2 -10  -1    3.60    0.80
  -2 -10  -1    3.90    0.80
   2  10   1    3.40    0.80
   2  10   1    2.10    0.70
   2  10   1    3.30    0.80
   2  10   1    2.30    0.70
  -3 -10  -1    4.60    0.80
  -3 -10  -1    4.30    0.80
   3  10   1    4.30    0.90
   3  10   1    5.70    0.80
   3  10   1    5.20    1.00
   3  10   1    4.50    0.90
  -4 -10  -1    3.20    0.70
  -4 -10  -1    2.60    0.70
  -4 -10  -1    2.20    0.80
   4  10   1    4.00    0.80
   4  10   1    2.40    0.70
   4  10   1    3.10    0.70
   4  10   1    3.10    0.80
  -5 -10  -1    2.30    0.70
  -5 -10  -1    1.60    0.70
  -5 -10  -1    1.80    0.80
   5  10   1    2.70    0.80
   5  10   1    1.60    0.80
   5  10   1    2.40    0.70
  -6 -10  -1    0.50    0.60
  -6 -10  -1    0.80    0.70
   6  10   1    0.00    0.60
   6  10   1   -0.80    0.70
   6  10   1   -0.30    0.60
  -7 -10  -1    2.20    0.80
  -7 -10  -1    2.10    0.80
   7  10   1    1.50    0.70
   7  10   1    2.00    1.00
   7  10   1    2.10    0.70
   7  10   1    0.70    0.80
   1 -11  -1    1.00    0.80
   0 -11  -1    1.00    0.70
   0 -11  -1    1.10    0.90
   0 -11  -1   -0.20    0.60
   0  11   1   -0.90    0.60
   0  11   1   -0.50    0.60
   0  11   1    0.60    0.70
  -1 -11  -1    1.50    0.70
   1  11   1    1.20    0.70
   1  11   1    0.40    0.70
   1  11   1    0.80    0.70
  -2 -11  -1    3.20    0.80
  -2 -11  -1    2.70    0.80
   2  11   1    3.10    0.90
   2  11   1    3.70    0.90
   2  11   1    4.30    0.90
  -3 -11  -1    4.90    0.90
  -3 -11  -1    5.70    1.00
   3  11   1    7.10    1.00
   3  11   1    5.20    0.90
   3  11   1    3.70    1.00
  -4 -11  -1    0.00    0.60
  -4 -11  -1    0.60    0.70
  -4 -11  -1    0.70    0.80
   4  11   1    0.00    0.70
   4  11   1   -0.70    0.60
   4  11   1    0.80    0.70
   4  11   1    1.60    0.70
  -5 -11  -1    4.70    1.00
  -5 -11  -1    6.20    1.00
   5  11   1    4.00    0.90
   5  11   1    5.10    1.00
   5  11   1    4.60    1.10
  -6 -11  -1    0.30    0.70
  -6 -11  -1    0.10    0.60
   6  11   1    0.70    0.80
   6  11   1    0.80    0.70
   6  11   1    0.40    0.90
  -3 -12  -1    3.20    0.80
  -3 -12  -1    3.50    0.90
   3  12   1    5.40    1.00
   3  12   1    2.00    1.00
   3  12   1    5.40    1.00
  -4 -12  -1    2.00    0.80
  -4 -12  -1    1.30    0.80
   4  12   1    0.40    0.70
   4  12   1   -0.10    0.70
   4  12   1    1.90    0.80
   3  12  -2    1.50    0.70
   3  12  -2    0.20    0.90
  -3 -12   2    1.80    0.70
  -3 -12   2    0.80    0.60
  -3 -12   2    0.50    0.90
  -2 -12   2    3.90    1.10
   6  11  -2    1.00    0.90
   6  11  -2   -0.70    0.80
   6  11  -2    0.70    0.60
  -6 -11   2   -0.10    0.60
  -6 -11   2    1.00    0.80
  -6 -11   2    0.40    0.60
   5  11  -2    0.10    0.50
   5  11  -2   -0.90    0.70
   5  11  -2    0.50    0.80
  -5 -11   2   -0.30    0.50
  -5 -11   2    0.20    0.50
  -5 -11   2    0.30    0.80
   4  11  -2   -0.20    0.60
   4  11  -2    0.50    0.60
   4  11  -2    1.30    0.90
  -4 -11   2    0.40    0.60
  -4 -11   2    1.00    0.80
  -4 -11   2    0.50    0.60
   3  11  -2    2.10    0.70
   3  11  -2    5.00    1.10
   3  11  -2    3.70    0.80
  -3 -11   2    3.20    0.70
  -3 -11   2    2.30    0.70
  -3 -11   2    2.90    1.00
   2  11  -2    1.00    0.70
   2  11  -2    0.50    0.60
   2  11  -2    0.10    0.60
  -2 -11   2    2.10    0.70
  -2 -11   2    2.10    0.90
   1  11  -2    1.40    0.80
   1  11  -2   -0.30    0.60
   1  11  -2    0.60    0.60
  -1 -11   2    0.30    0.50
  -1 -11   2    1.30    0.80
   0  11  -2    2.40    0.80
   0  11  -2    1.70    0.80
   0  11  -2    3.10    0.90
   0 -11   2    0.80    0.80
   0 -11   2    1.30    0.80
   0 -11   2    1.20    0.60
   0 -11   2    2.50    0.70
  -1  11  -2    1.00    0.70
  -1  11  -2    1.60    0.80
  -1  11  -2    0.50    0.80
   1 -11   2   -0.60    0.60
   1 -11   2    1.20    0.80
   1 -11   2    0.20    0.60
   1 -11   2    0.60    0.90
   7  10  -2    0.30    0.80
   7  10  -2    0.10    0.60
   7  10  -2    0.90    0.70
   7  10  -2   -0.50    0.70
  -7 -10   2    0.90    0.70
  -7 -10   2   -0.30    0.50
  -7 -10   2    1.00    0.80
   6  10  -2   -0.60    0.70
   6  10  -2   -0.20    0.70
   6  10  -2   -0.10    0.50
   6  10  -2   -0.10    0.50
  -6 -10   2   -0.40    0.60
  -6 -10   2    1.00    0.80
  -6 -10   2    0.20    0.60
  -6 -10   2   -0.40    0.50
   5  10  -2   -0.20    0.60
   5  10  -2   -0.10    0.70
   5  10  -2    0.20    0.60
  -5 -10   2    0.00    0.50
  -5 -10   2    0.00    0.60
  -5 -10   2   -0.60    0.50
  -5 -10   2    0.40    0.70
   4  10  -2   -0.80    0.40
   4  10  -2   -0.50    0.60
   4  10  -2   -0.20    0.60
  -4 -10   2   -0.60    0.50
  -4 -10   2    0.90    0.60
  -4 -10   2    0.20    0.70
   3  10  -2   14.20    1.20
   3  10  -2   12.40    1.20
   3  10  -2   10.50    1.30
  -3 -10   2   13.00    1.00
  -3 -10   2   13.00    1.40
  -3 -10   2   13.60    1.10
   2  10  -2   -0.70    0.50
   2  10  -2    1.40    0.70
   2  10  -2    0.70    0.60
  -2 -10   2   -0.10    0.50
  -2 -10   2    0.50    0.80
   1  10  -2    0.70    0.60
   1  10  -2    0.20    0.60
   1  10  -2    0.60    0.60
  -1 -10   2    1.00    0.80
  -1 -10   2    0.30    0.50
   0  10  -2    4.70    0.80
   0  10  -2    6.50    1.00
   0  10  -2    5.50    1.00
   0 -10   2    5.40    0.80
   0 -10   2    7.40    1.20
   0 -10   2    6.10    0.80
  -1  10  -2    8.00    1.10
  -1  10  -2    5.90    1.00
  -1  10  -2    5.70    0.90
   1 -10   2    6.40    1.10
   1 -10   2    6.10    1.00
   1 -10   2    7.50    1.00
   1 -10   2    7.50    1.20
  -2  10  -2    0.80    0.70
  -2  10  -2    0.80    0.70
  -2  10  -2    1.20    0.80
   2 -10   2    0.30    0.60
   2 -10   2    1.90    0.90
   2 -10   2    1.20    0.80
   2 -10   2    1.20    0.60
   8   9  -2    0.00    0.50
   8   9  -2   -3.00    0.80
   8   9  -2    0.20    0.60
   8   9  -2   -2.30    0.90
  -8  -9   2    0.60    0.60
  -8  -9   2    0.30    0.80
   7   9  -2    0.80    0.90
   7   9  -2    0.60    0.60
   7   9  -2    0.40    0.80
   7   9  -2    0.50    0.60
  -7  -9   2    0.40    0.60
  -7  -9   2    0.40    0.60
  -7  -9   2    0.70    0.80
   6   9  -2    1.40    0.60
   6   9  -2    1.00    0.80
   6   9  -2    1.20    0.60
   6   9  -2    0.70    0.70
  -6  -9   2    2.10    0.80
  -6  -9   2    2.00    0.80
  -6  -9   2    2.20    0.60
  -6  -9   2    1.60    0.60
   5   9  -2   11.60    1.30
   5   9  -2   15.30    1.10
   5   9  -2   14.40    1.50
  -5  -9   2   15.50    1.30
  -5  -9   2   16.30    1.20
  -5  -9   2   13.80    1.10
  -5  -9   2   13.50    1.30
   4   9  -2   17.00    1.60
   4   9  -2   17.00    1.50
   4   9  -2   17.50    1.20
   4   9  -2   16.30    1.40
  -4  -9   2   16.30    1.10
  -4  -9   2   17.10    1.30
  -4  -9   2   15.70    1.10
   3   9  -2    2.20    0.80
   3   9  -2    1.90    0.60
   3   9  -2    2.70    0.60
   3   9  -2    2.20    0.80
  -3  -9   2    1.50    0.50
  -3  -9   2    2.00    0.60
  -3  -9   2    2.10    0.50
   2   9  -2    9.80    1.20
   2   9  -2    8.50    0.90
   2   9  -2    8.90    0.90
   2   9  -2    8.60    1.10
  -2  -9   2   10.10    0.90
   1   9  -2    6.20    0.80
   1   9  -2    8.00    0.90
   1   9  -2    5.60    1.00
   1   9  -2    6.20    0.90
   1   9  -2    7.30    0.80
  -1  -9   2    5.60    1.00
  -1  -9   2    6.20    0.80
   0   9  -2   24.00    1.40
   0   9  -2   23.60    1.70
   0   9  -2   26.10    1.50
   0   9  -2   23.50    1.40
   0   9  -2   23.50    1.70
   0  -9   2   23.60    1.20
   0  -9   2   24.40    1.60
   0  -9   2   25.20    1.40
  -1   9  -2   10.60    1.20
  -1   9  -2   10.00    1.20
  -1   9  -2    8.00    1.00
  -1   9  -2   10.10    1.10
   1  -9   2   12.70    1.30
   1  -9   2   12.00    1.10
   1  -9   2   12.60    1.30
   1  -9   2   11.10    1.00
  -2   9  -2    2.10    0.80
  -2   9  -2    1.90    0.70
  -2   9  -2    1.90    0.80
  -2   9  -2    1.30    0.80
   2  -9   2    2.30    0.90
   2  -9   2    1.60    0.60
   2  -9   2    2.60    0.90
   2  -9   2    3.10    0.70
  -3   9  -2    0.40    0.80
  -3   9  -2    1.50    0.70
  -3   9  -2    1.00    0.70
   3  -9   2    3.20    0.90
   3  -9   2    0.80    0.60
   3  -9   2    1.90    0.90
   3  -9   2    0.40    0.60
  -4   9  -2    0.30    0.60
  -4   9  -2   -0.20    0.80
   4  -9   2   -0.60    0.70
   4  -9   2   -0.80    0.60
   4  -9   2    0.10    0.50
   8   8  -2   -0.70    1.00
   8   8  -2   -0.70    1.00
   8   8  -2    0.10    0.60
   8   8  -2    0.10    0.70
  -8  -8   2    0.80    0.70
   7   8  -2    1.20    0.80
   7   8  -2    2.10    0.90
   7   8  -2    2.10    0.60
   7   8  -2    1.10    0.60
  -7  -8   2    1.00    0.70
  -7  -8   2    2.80    0.90
   6   8  -2    6.10    1.00
   6   8  -2    6.10    1.00
   6   8  -2    7.60    0.90
   6   8  -2    7.80    0.90
  -6  -8   2    5.70    0.80
  -6  -8   2    6.80    0.90
   5   8  -2    1.10    0.70
   5   8  -2    0.70    0.60
   5   8  -2    2.10    0.70
   5   8  -2    1.50    0.60
  -5  -8   2    0.80    0.50
  -5  -8   2    2.50    0.60
   4   8  -2    7.60    1.00
   4   8  -2    7.30    0.80
   4   8  -2    6.00    1.00
   4   8  -2    6.30    0.90
  -4  -8   2    7.70    0.80
  -4  -8   2    5.70    0.80
  -4  -8   2    6.20    0.70
   3   8  -2    4.70    0.70
   3   8  -2    4.80    0.90
   3   8  -2    5.00    0.70
   3   8  -2    4.50    0.80
  -3  -8   2    4.80    0.60
  -3  -8   2    4.60    0.70
  -3  -8   2    4.00    0.70
   2   8  -2   28.00    1.70
   2   8  -2   29.60    1.30
   2   8  -2   28.90    1.20
   2   8  -2   28.00    1.30
   2   8  -2   27.20    1.60
  -2  -8   2   26.90    1.30
  -2  -8   2   28.00    1.30
   1   8  -2    0.50    0.40
   1   8  -2    0.00    0.50
   1   8  -2    0.30    0.50
   1   8  -2    0.40    0.40
   1   8  -2    0.20    0.40
  -1  -8   2    0.20    0.40
  -1  -8   2    0.90    0.40
   0   8  -2   31.50    1.70
   0   8  -2   33.00    1.50
   0   8  -2   32.30    1.70
   0   8  -2   27.70    1.40
   0  -8   2   31.50    1.40
   0  -8   2   29.70    1.60
   0  -8   2   32.40    1.40
   0  -8   2   30.00    1.30
  -1   8  -2    5.60    0.80
  -1   8  -2    6.00    0.90
  -1   8  -2    4.40    0.80
  -1   8  -2    4.50    0.80
   1  -8   2    4.90    0.70
   1  -8   2    5.30    0.90
   1  -8   2    6.20    0.80
  -2   8  -2   47.00    2.20
  -2   8  -2   44.10    2.10
  -2   8  -2   46.60    2.20
  -2   8  -2   44.90    2.00
   2  -8   2   44.30    2.00
   2  -8   2   40.70    1.70
   2  -8   2   44.70    1.90
   2  -8   2   41.40    2.00
  -3   8  -2    0.70    0.60
  -3   8  -2    1.40    0.70
  -3   8  -2    0.10    0.50
  -3   8  -2    0.60    0.60
  -3   8  -2    1.00    0.80
   3  -8   2    1.00    0.50
   3  -8   2    0.60    0.80
   3  -8   2   -0.10    0.60
   3  -8   2    0.40    0.50
  -4   8  -2    2.00    0.70
  -4   8  -2    1.20    0.90
  -4   8  -2    1.30    0.70
  -4   8  -2    1.20    0.70
   4  -8   2    1.60    0.80
   4  -8   2    1.40    0.70
   4  -8   2    1.90    0.60
  -5   8  -2   -0.70    0.80
  -5   8  -2   -0.20    0.70
  -5   8  -2   -0.10    0.70
   5  -8   2   -0.20    0.50
   5  -8   2    0.90    0.80
   9   7  -2   -0.10    1.00
   9   7  -2   -0.30    1.00
   9   7  -2    1.00    0.70
  -9  -7   2    1.70    0.80
  -9  -7   2    1.00    0.70
   8   7  -2    9.90    1.50
   8   7  -2   13.50    1.20
   8   7  -2   10.50    1.10
   8   7  -2   12.20    1.60
  -8  -7   2   11.90    1.30
  -8  -7   2   15.40    1.30
   7   7  -2    6.60    0.80
   7   7  -2    7.60    1.20
   7   7  -2    6.20    0.80
   7   7  -2    6.70    1.20
  -7  -7   2    7.80    1.00
   6   7  -2   13.70    1.00
   6   7  -2   16.50    1.40
   6   7  -2   15.50    1.40
   6   7  -2   16.80    1.40
   6   7  -2   15.80    1.10
  -6  -7   2   16.20    1.10
  -6  -7   2   14.20    1.00
   5   7  -2   -0.50    0.50
   5   7  -2    0.00    0.40
   5   7  -2    0.10    0.40
   5   7  -2   -0.80    0.40
   5   7  -2   -0.50    0.50
  -5  -7   2    0.00    0.40
  -5  -7   2   -0.10    0.40
   4   7  -2   12.00    0.80
   4   7  -2   12.20    1.10
   4   7  -2   14.00    1.30
   4   7  -2   13.30    1.10
  -4  -7   2   13.70    0.90
  -4  -7   2   12.70    0.90
   3   7  -2   12.20    1.10
   3   7  -2   11.30    1.00
   3   7  -2   11.40    1.10
   3   7  -2   11.40    0.80
  -3  -7   2   11.40    0.80
  -3  -7   2   11.30    0.80
  -3  -7   2   12.20    0.90
   2   7  -2   33.80    1.70
   2   7  -2   32.40    1.30
   2   7  -2   32.20    1.10
   2   7  -2   34.40    1.30
   2   7  -2   33.10    1.60
  -2  -7   2   31.10    1.30
  -2  -7   2   34.40    1.40
  -2  -7   2   33.00    1.40
   1   7  -2   37.70    1.50
   1   7  -2   44.90    1.90
   1   7  -2   41.20    1.80
   1   7  -2   40.10    1.50
   1   7  -2   41.40    1.60
  -1  -7   2   41.70    1.50
  -1  -7   2   40.10    1.50
  -1  -7   2   43.40    1.40
  -1  -7   2   44.10    1.50
   0   7  -2    3.20    0.60
   0   7  -2    3.40    0.50
   0   7  -2    3.10    0.60
   0   7  -2    2.70    0.50
   0  -7   2    3.70    0.50
   0  -7   2    2.50    0.70
   0  -7   2    4.30    0.50
   0  -7   2    3.20    0.50
  -1   7  -2   20.90    1.30
  -1   7  -2   21.60    1.20
  -1   7  -2   22.60    1.30
  -1   7  -2   19.40    1.20
   1  -7   2   21.30    1.00
   1  -7   2   20.10    0.90
   1  -7   2   22.00    1.30
   1  -7   2   21.10    1.10
  -2   7  -2    4.20    0.80
  -2   7  -2    4.10    0.70
  -2   7  -2    5.20    0.80
  -2   7  -2    4.30    0.80
  -2   7  -2    3.90    0.70
   2  -7   2    4.60    0.70
   2  -7   2    4.20    0.80
   2  -7   2    4.10    0.60
   2  -7   2    5.50    0.80
  -3   7  -2   56.69    2.30
  -3   7  -2   55.09    2.40
  -3   7  -2   53.09    2.20
  -3   7  -2   57.99    2.50
  -3   7  -2   54.09    2.30
   3  -7   2   51.89    2.10
   3  -7   2   53.69    2.20
   3  -7   2   56.69    2.30
  -4   7  -2    8.90    1.30
  -4   7  -2   10.10    1.20
  -4   7  -2    8.10    1.00
   4  -7   2    8.50    1.00
   4  -7   2    9.60    1.00
   4  -7   2    8.50    1.10
  -5   7  -2   -0.50    0.60
  -5   7  -2    0.70    0.70
  -5   7  -2    0.00    0.70
   5  -7   2   -0.10    0.60
   5  -7   2    0.50    0.70
  -6   7  -2   -0.30    0.70
  -6   7  -2    1.70    0.80
  -6   7  -2    0.90    1.00
   6  -7   2    1.50    0.90
   6  -7   2    0.80    0.70
   9   6  -2    4.70    1.30
   9   6  -2    5.70    1.30
   9   6  -2    7.20    1.00
  -9  -6   2    5.80    1.00
  -9  -6   2    5.80    1.00
   8   6  -2   14.20    1.60
   8   6  -2   16.30    1.30
   8   6  -2   13.00    1.60
  -8  -6   2   17.30    1.40
  -8  -6   2   13.00    1.30
   7   6  -2    4.80    0.70
   7   6  -2    6.10    1.10
   7   6  -2    5.00    1.00
   7   6  -2    6.50    0.90
  -7  -6   2    5.60    0.90
   6   6  -2   42.80    1.70
   6   6  -2   42.20    1.70
   6   6  -2   43.00    2.10
   6   6  -2   44.50    2.10
   6   6  -2   41.90    2.20
  -6  -6   2   44.50    1.70
  -6  -6   2   42.60    1.80
   5   6  -2    0.20    0.50
   5   6  -2   -0.30    0.50
   5   6  -2    0.80    0.40
   5   6  -2    0.00    0.50
   5   6  -2    0.00    0.40
  -5  -6   2    0.40    0.40
   4   6  -2   10.30    1.10
   4   6  -2   10.50    0.70
   4   6  -2    9.20    0.90
   4   6  -2    9.20    0.90
  -4  -6   2   10.20    0.70
  -4  -6   2    9.60    0.70
   3   6  -2   47.70    2.00
   3   6  -2   49.60    1.60
   3   6  -2   49.70    2.00
   3   6  -2   48.40    1.90
  -3  -6   2   48.20    1.70
  -3  -6   2   46.40    1.60
   2   6  -2    1.30    0.30
   2   6  -2    1.40    0.30
   2   6  -2    1.00    0.40
   2   6  -2    1.10    0.40
   2   6  -2    1.00    0.20
  -2  -6   2    1.10    0.40
  -2  -6   2    0.90    0.40
  -2  -6   2    1.10    0.30
  -2  -6   2    1.00    0.20
   1   6  -2    4.10    0.50
   1   6  -2    3.50    0.40
   1   6  -2    4.60    0.50
   1   6  -2    4.60    0.70
   1   6  -2    3.50    0.60
  -1  -6   2    4.10    0.40
  -1  -6   2    4.20    0.40
  -1  -6   2    4.40    0.50
  -1  -6   2    4.00    0.50
   0   6  -2  127.39    3.10
   0   6  -2  122.89    3.70
   0   6  -2  123.29    3.40
   0   6  -2  119.89    3.40
   0   6  -2  116.59    3.60
   0  -6   2  123.49    3.10
   0  -6   2  121.79    3.30
   0  -6   2  118.09    3.30
   0  -6   2  120.79    3.40
  -1   6  -2   25.80    1.40
  -1   6  -2   26.70    1.30
  -1   6  -2   23.90    1.30
  -1   6  -2   24.90    1.10
   1  -6   2   25.40    1.10
   1  -6   2   26.30    1.10
   1  -6   2   26.90    1.00
   1  -6   2   26.80    1.30
  -2   6  -2   58.49    2.10
  -2   6  -2   60.49    2.10
  -2   6  -2   61.79    2.30
  -2   6  -2   58.69    2.30
   2  -6   2   60.89    2.20
   2  -6   2   57.79    2.00
   2  -6   2   58.79    2.10
   2  -6   2   60.29    1.70
  -3   6  -2    5.00    0.70
  -3   6  -2    4.70    0.80
  -3   6  -2    5.50    0.80
   3  -6   2    5.80    0.80
   3  -6   2    5.00    0.70
   3  -6   2    5.70    0.80
  -4   6  -2    4.90    0.80
  -4   6  -2    5.00    0.80
  -4   6  -2    5.10    0.90
   4  -6   2    4.80    0.70
   4  -6   2    4.50    0.70
   4  -6   2    5.50    0.90
  -5   6  -2    0.20    0.50
  -5   6  -2    0.30    0.60
  -5   6  -2    0.00    0.60
   5  -6   2    0.30    0.40
   5  -6   2    0.10    0.70
  -6   6  -2   11.70    1.40
  -6   6  -2   16.80    1.50
  -6   6  -2   13.40    1.60
   6  -6   2   12.70    1.40
   6  -6   2   10.80    1.10
   9   5  -2    1.30    0.80
   9   5  -2   -0.40    0.80
   9   5  -2    0.80    1.10
  -9  -5   2    1.60    0.80
  -9  -5   2    1.60    0.80
   8   5  -2   12.80    1.40
   8   5  -2   14.20    1.70
   8   5  -2   17.00    1.40
  -8  -5   2   14.80    1.40
  -8  -5   2   17.50    1.40
   7   5  -2   23.80    1.30
   7   5  -2   24.10    1.40
   7   5  -2   23.80    1.80
   7   5  -2   21.20    1.60
   7   5  -2   24.70    1.90
  -7  -5   2   22.60    1.40
  -7  -5   2   22.20    1.40
   6   5  -2   26.60    1.20
   6   5  -2   26.20    1.30
   6   5  -2   23.50    1.60
   6   5  -2   25.00    1.60
   6   5  -2   22.60    1.60
  -6  -5   2   23.80    1.10
  -6  -5   2   23.40    1.20
   5   5  -2    3.30    0.60
   5   5  -2    2.90    0.50
   5   5  -2    3.30    0.50
   5   5  -2    2.10    0.60
   5   5  -2    3.10    0.60
  -5  -5   2    3.70    0.50
  -5  -5   2    3.60    0.50
   4   5  -2   -0.20    0.40
   4   5  -2    0.50    0.30
   4   5  -2    0.00    0.40
   4   5  -2    0.10    0.30
   4   5  -2    0.40    0.40
  -4  -5   2    0.00    0.30
  -4  -5   2    0.40    0.20
  -4  -5   2    0.60    0.30
   3   5  -2    9.00    0.80
   3   5  -2    7.90    0.60
   3   5  -2    8.50    0.80
   3   5  -2    6.70    0.70
  -3  -5   2    8.50    0.60
  -3  -5   2    9.30    0.60
   2   5  -2    0.30    0.20
   2   5  -2    0.20    0.30
   2   5  -2    0.80    0.30
   2   5  -2    0.70    0.10
   2   5  -2    0.60    0.20
  -2  -5   2    0.60    0.30
  -2  -5   2    0.30    0.30
  -2  -5   2    0.50    0.20
  -2  -5   2    0.90    0.10
   1   5  -2    1.50    0.30
   1   5  -2    1.40    0.30
   1   5  -2    1.20    0.40
   1   5  -2    1.60    0.40
   1   5  -2    1.40    0.30
  -1  -5   2    1.80    0.30
  -1  -5   2    1.90    0.30
  -1  -5   2    1.70    0.40
  -1  -5   2    1.80    0.30
  -1  -5   2    1.70    0.40
   0   5  -2    0.50    0.20
   0   5  -2   -0.30    0.20
   0   5  -2    0.40    0.30
   0   5  -2    0.40    0.20
   0   5  -2    0.20    0.30
   0  -5   2    0.90    0.20
   0  -5   2    0.40    0.20
   0  -5   2   -0.20    0.20
   0  -5   2    0.20    0.20
  -1   5  -2  228.18    6.00
  -1   5  -2  226.18    6.10
  -1   5  -2  226.88    5.90
  -1   5  -2  233.08    5.90
  -1   5  -2  227.48    6.10
  -1   5  -2  231.58    5.60
   1  -5   2  225.38    5.80
   1  -5   2  235.48    6.10
   1  -5   2  220.08    5.80
   1  -5   2  232.38    5.70
  -2   5  -2   78.79    2.50
  -2   5  -2   87.59    2.70
  -2   5  -2   79.69    2.50
   2  -5   2   81.79    2.60
   2  -5   2   81.99    2.40
   2  -5   2   84.79    2.10
   2  -5   2   83.19    2.60
  -3   5  -2    9.30    0.80
  -3   5  -2    9.00    1.00
  -3   5  -2   10.10    0.80
   3  -5   2    9.90    0.80
   3  -5   2    9.90    0.40
   3  -5   2   10.40    1.00
   3  -5   2   10.20    0.80
  -4   5  -2   11.60    1.10
  -4   5  -2   10.00    1.10
  -4   5  -2   10.50    1.00
   4  -5   2    9.00    0.80
   4  -5   2    9.30    1.00
   4  -5   2    9.60    0.80
  -5   5  -2    1.20    0.60
  -5   5  -2    0.20    0.70
  -5   5  -2    0.20    0.50
   5  -5   2    0.50    0.50
   5  -5   2    1.10    0.50
   5  -5   2   -0.30    0.60
  -6   5  -2    4.90    1.00
  -6   5  -2    4.20    1.00
  -6   5  -2    3.90    0.80
   6  -5   2    4.40    0.80
   6  -5   2    3.90    0.90
   6  -5   2    4.20    0.90
  -7   5  -2    2.70    0.90
  -7   5  -2    3.60    0.90
  -7   5  -2    1.80    1.00
   7  -5   2    2.50    0.80
   7  -5   2    2.20    0.90
   7  -5   2    3.40    0.80
   9   4  -2    1.30    0.90
   9   4  -2    2.70    1.30
   9   4  -2    1.80    0.70
  -9  -4   2    3.10    0.90
  -9  -4   2    2.00    0.70
   8   4  -2   32.10    2.00
   8   4  -2   31.60    1.70
   8   4  -2   29.60    2.20
  -8  -4   2   29.20    1.70
  -8  -4   2   31.20    1.80
   7   4  -2    2.30    0.80
   7   4  -2    3.10    0.90
   7   4  -2    4.00    0.70
   7   4  -2    1.30    0.80
  -7  -4   2    3.80    0.70
  -7  -4   2    4.30    0.70
   6   4  -2   -0.20    0.50
   6   4  -2    0.20    0.40
   6   4  -2    0.00    0.50
   6   4  -2   -0.10    0.60
   6   4  -2    0.10    0.40
  -6  -4   2    0.20    0.40
  -6  -4   2   -0.70    0.40
  -6  -4   2    0.20    0.20
  -6  -4   2   -0.20    0.20
   5   4  -2   15.30    1.10
   5   4  -2   17.80    0.90
   5   4  -2   18.00    0.90
   5   4  -2   19.60    1.30
   5   4  -2   17.50    1.20
  -5  -4   2   16.60    0.90
  -5  -4   2   17.60    0.80
   4   4  -2   16.10    0.80
   4   4  -2   15.60    1.00
   4   4  -2   16.00    1.00
   4   4  -2   18.70    0.70
   4   4  -2   15.90    0.80
   4   4  -2   16.70    1.00
  -4  -4   2   16.50    0.50
  -4  -4   2   17.10    0.80
   3   4  -2  115.09    3.10
   3   4  -2  114.79    3.40
   3   4  -2  114.89    3.40
   3   4  -2  109.89    3.30
  -3  -4   2  119.79    2.90
  -3  -4   2  124.89    3.50
  -3  -4   2  118.09    3.10
  -3  -4   2  113.89    3.10
   2   4  -2   12.10    0.80
   2   4  -2   13.50    0.80
   2   4  -2   12.30    0.60
  -2  -4   2   12.60    0.60
  -2  -4   2   12.90    0.60
  -2  -4   2   12.30    0.80
   1   4  -2  466.05   11.50
   1   4  -2  455.05   11.20
   1   4  -2  468.85   11.20
   1   4  -2  450.55   11.50
   1   4  -2  474.45   11.30
  -1  -4   2  467.85   11.20
  -1  -4   2  484.45   11.20
  -1  -4   2  458.15   11.50
  -1  -4   2  474.65   11.30
  -1  -4   2  462.05   11.30
   0   4  -2  240.18    6.10
   0   4  -2  258.87    6.20
   0   4  -2  233.98    6.10
   0   4  -2  240.18    6.30
   0   4  -2  253.67    6.00
   0   4  -2  249.68    6.30
   0  -4   2  239.08    6.00
   0  -4   2  244.68    6.00
   0  -4   2  246.18    6.00
   0  -4   2  243.48    6.10
  -1   4  -2  840.42   20.40
  -1   4  -2  868.31   20.20
  -1   4  -2  874.11   20.10
  -1   4  -2  848.92   20.40
  -1   4  -2  849.02   20.50
   1  -4   2  854.81   20.20
   1  -4   2  840.12   20.30
   1  -4   2  831.92   20.50
  -2   4  -2   91.49    2.70
  -2   4  -2   94.29    2.40
  -2   4  -2   92.79    2.70
  -2   4  -2   92.99    2.90
   2  -4   2   92.99    2.80
   2  -4   2   95.19    2.40
   2  -4   2   96.39    2.30
   2  -4   2   93.69    2.60
   2  -4   2   96.19    2.70
  -3   4  -2   57.99    2.20
  -3   4  -2   58.09    2.00
  -3   4  -2   56.69    1.70
  -3   4  -2   58.39    1.90
   3  -4   2   60.19    1.90
   3  -4   2   56.29    2.00
   3  -4   2   58.89    1.60
   3  -4   2   56.39    1.80
   3  -4   2   60.09    1.90
  -4   4  -2    7.40    0.90
  -4   4  -2    9.80    0.90
  -4   4  -2   10.00    0.80
   4  -4   2    8.70    0.90
   4  -4   2    8.70    0.70
   4  -4   2    8.50    0.80
   4  -4   2    8.00    0.80
  -5   4  -2    3.50    0.70
  -5   4  -2    3.70    0.80
  -5   4  -2    2.60    0.60
   5  -4   2    4.20    0.60
   5  -4   2    2.80    0.60
   5  -4   2    4.30    0.50
   5  -4   2    4.60    0.80
  -6   4  -2    0.70    0.50
  -6   4  -2    0.40    0.80
  -6   4  -2    0.10    0.50
   6  -4   2    1.10    0.50
   6  -4   2   -0.10    0.60
   6  -4   2    0.40    0.50
  -7   4  -2    2.80    0.80
  -7   4  -2    2.20    0.90
  -7   4  -2    3.60    0.90
   7  -4   2    2.70    0.80
   7  -4   2    3.00    0.80
   7  -4   2    1.90    0.60
  -8   4  -2    3.70    1.10
  -8   4  -2    2.30    0.90
   8  -4   2    3.90    1.00
   9   3  -2   -1.60    0.80
   9   3  -2   -0.60    0.50
  -9  -3   2    0.30    0.60
  -9  -3   2   -0.20    0.60
   8   3  -2   -0.60    0.60
   8   3  -2   -0.80    0.90
   8   3  -2   -0.50    0.60
  -8  -3   2   -1.10    0.60
  -8  -3   2    0.30    0.60
   7   3  -2    4.60    0.70
   7   3  -2    3.50    1.00
   7   3  -2    4.90    0.90
   7   3  -2    2.70    0.90
  -7  -3   2    5.40    0.80
  -7  -3   2    5.30    0.80
  -7  -3   2    4.80    0.60
   6   3  -2   17.90    1.30
   6   3  -2   17.30    1.00
   6   3  -2   17.70    1.40
   6   3  -2   17.30    1.40
   6   3  -2   17.90    0.70
  -6  -3   2   17.00    0.90
  -6  -3   2   16.80    1.10
  -6  -3   2   17.60    1.10
   5   3  -2   69.09    2.50
   5   3  -2   69.59    2.20
   5   3  -2   68.79    1.90
   5   3  -2   69.79    2.40
   5   3  -2   67.79    2.50
   5   3  -2   69.89    2.20
  -5  -3   2   65.79    2.20
  -5  -3   2   69.89    1.90
  -5  -3   2   67.09    2.00
  -5  -3   2   67.69    2.20
   4   3  -2   26.90    1.10
   4   3  -2   28.10    0.90
   4   3  -2   25.90    1.00
   4   3  -2   27.40    1.20
   4   3  -2   28.60    1.30
   4   3  -2   29.10    1.30
  -4  -3   2   29.70    1.30
  -4  -3   2   28.00    1.00
  -4  -3   2   29.40    0.90
  -4  -3   2   28.90    1.10
   3   3  -2    2.30    0.30
   3   3  -2    3.50    0.30
   3   3  -2    2.80    0.20
   3   3  -2    2.60    0.30
   3   3  -2    2.60    0.40
   3   3  -2    2.30    0.40
   3   3  -2    2.30    0.40
  -3  -3   2    3.90    0.50
  -3  -3   2    3.10    0.20
  -3  -3   2    2.60    0.40
   2   3  -2  128.19    3.20
   2   3  -2  123.89    3.20
   2   3  -2  122.19    3.40
   2   3  -2  121.99    3.40
   2   3  -2  121.49    3.40
  -2  -3   2  126.89    3.20
  -2  -3   2  125.79    3.20
  -2  -3   2  123.19    3.40
   1   3  -2  717.43   16.80
   1   3  -2  686.03   17.10
   1   3  -2  732.53   16.80
   1   3  -2  704.63   17.00
   1   3  -2  724.23   16.70
   1   3  -2  649.04   16.80
   1   3  -2  703.93   16.80
  -1  -3   2  723.23   16.80
  -1  -3   2  751.12   16.80
  -1  -3   2  687.03   17.00
  -1  -3   2  703.23   16.90
  -1  -3   2  699.43   16.80
   0   3  -2  311.77    7.80
   0   3  -2  307.67    8.00
   0   3  -2  325.77    7.70
   0   3  -2  332.27    7.70
   0   3  -2  322.07    7.90
   0   3  -2  326.07    7.70
   0   3  -2  307.07    7.70
   0  -3   2  309.77    7.70
   0  -3   2  314.47    7.70
   0  -3   2  342.17    7.70
   0  -3   2  304.27    7.90
   0  -3   2  337.77    7.80
   0  -3   2  312.67    7.70
   0  -3   2  323.77    7.80
   0  -3   2  312.57    7.70
  -1   3  -2  300.87    7.80
  -1   3  -2  320.47    7.90
  -1   3  -2  330.17    7.70
  -1   3  -2  312.77    8.00
  -1   3  -2  333.97    7.80
   1  -3   2  336.57    7.70
   1  -3   2  325.17    7.80
   1  -3   2  314.17    8.00
   1  -3   2  325.67    7.70
  -2   3  -2   52.99    1.50
  -2   3  -2   49.30    1.70
  -2   3  -2   49.70    1.60
  -2   3  -2   50.09    1.60
   2  -3   2   49.60    1.60
   2  -3   2   52.29    1.60
   2  -3   2   52.69    1.30
   2  -3   2   51.99    1.60
   2  -3   2   50.19    1.40
   2  -3   2   50.89    1.50
  -3   3  -2    0.30    0.30
  -3   3  -2   -0.40    0.30
   3  -3   2   -0.10    0.30
   3  -3   2    0.20    0.30
   3  -3   2   -0.30    0.30
   3  -3   2    0.20    0.30
  -4   3  -2   -0.30    0.40
  -4   3  -2    0.00    0.30
   4  -3   2   -0.20    0.40
   4  -3   2   -0.20    0.30
   4  -3   2    0.10    0.40
   4  -3   2    0.00    0.30
   4  -3   2    0.10    0.10
   4  -3   2    0.00    0.10
   4  -3   2   -0.10    0.40
  -5   3  -2   25.20    1.50
  -5   3  -2   26.70    1.40
   5  -3   2   27.00    1.40
   5  -3   2   27.00    1.00
   5  -3   2   23.90    1.20
   5  -3   2   23.30    1.50
   5  -3   2   25.30    1.20
  -6   3  -2    0.30    0.70
  -6   3  -2   -0.20    0.40
   6  -3   2    0.20    0.50
   6  -3   2    0.80    0.50
   6  -3   2   -0.20    0.60
   6  -3   2    0.90    0.50
  -7   3  -2   -0.20    0.50
  -7   3  -2    0.80    0.70
   7  -3   2   -0.70    0.50
   7  -3   2   -0.30    0.60
   7  -3   2    0.00    0.60
   7  -3   2    0.90    0.60
  -8   3  -2    3.60    1.10
  -8   3  -2    2.90    0.90
   8  -3   2    4.20    0.90
   8  -3   2    4.40    1.00
   8  -3   2    3.80    1.20
   8  -3   2    3.40    0.80
   9   2  -2   -0.40    0.50
   9   2  -2   -0.30    1.10
   9   2  -2    0.00    0.60
  -9  -2   2    0.70    0.60
  -9  -2   2    0.30    0.50
   8   2  -2    9.30    1.10
   8   2  -2    8.60    1.40
  -8  -2   2    9.90    1.10
  -8  -2   2   11.00    1.20
   7   2  -2   17.70    1.30
   7   2  -2   20.70    1.20
   7   2  -2   19.90    1.60
   7   2  -2   21.20    1.70
  -7  -2   2   18.60    1.10
  -7  -2   2   17.40    1.20
  -7  -2   2   18.30    1.20
   6   2  -2  134.09    4.30
   6   2  -2  138.29    4.00
   6   2  -2  132.09    3.80
   6   2  -2  131.89    3.60
   6   2  -2  139.69    4.30
  -6  -2   2  135.79    3.90
  -6  -2   2  132.49    3.80
  -6  -2   2  128.09    3.90
   5   2  -2    9.40    0.80
   5   2  -2   11.10    1.10
   5   2  -2    8.00    0.90
   5   2  -2    7.20    0.70
   5   2  -2    8.70    0.50
  -5  -2   2    7.90    0.80
  -5  -2   2    8.00    0.40
  -5  -2   2    8.60    0.70
  -5  -2   2    8.30    0.70
   4   2  -2   22.20    0.90
   4   2  -2   23.90    1.10
   4   2  -2   23.90    1.20
   4   2  -2   24.20    0.80
   4   2  -2   24.20    1.20
  -4  -2   2   21.90    1.00
  -4  -2   2   23.20    0.70
  -4  -2   2   22.30    0.90
  -4  -2   2   22.70    0.80
  -4  -2   2   22.90    1.00
  -4  -2   2   23.90    1.10
   3   2  -2  785.72   19.10
   3   2  -2  809.42   19.10
   3   2  -2  774.22   19.10
   3   2  -2  820.32   19.10
   3   2  -2  803.12   19.40
   3   2  -2  797.62   19.30
   3   2  -2  779.72   19.40
  -3  -2   2  833.32   19.20
  -3  -2   2  824.62   19.00
  -3  -2   2  812.32   19.40
  -3  -2   2  801.52   19.10
  -3  -2   2  791.82   19.10
   2   2  -2  640.84   16.00
   2   2  -2  669.13   15.80
   2   2  -2  706.23   15.80
   2   2  -2  666.93   15.80
   2   2  -2  629.94   16.00
   2   2  -2  643.44   15.80
   2   2  -2  662.43   15.80
   2   2  -2  654.13   15.70
  -2  -2   2  656.63   15.80
  -2  -2   2  676.93   16.00
  -2  -2   2  672.63   15.80
  -2  -2   2  678.53   15.80
  -2  -2   2  683.03   15.80
   1   2  -2  628.34   15.50
   1   2  -2  679.43   15.50
   1   2  -2  622.54   15.60
   1   2  -2  648.54   15.30
   1   2  -2  618.34   15.30
   1   2  -2  638.94   15.50
  -1  -2   2  629.34   15.50
  -1  -2   2  681.33   15.30
  -1  -2   2  646.14   15.50
  -1  -2   2  699.53   15.40
  -1  -2   2  641.84   15.50
  -1  -2   2  633.74   15.40
  -1  -2   2  653.53   15.50
   0   2  -2   40.20    1.20
   0   2  -2   43.30    1.10
   0   2  -2   39.70    1.10
   0   2  -2   42.70    1.10
   0   2  -2   41.00    1.20
   0   2  -2   40.40    1.30
   0   2  -2   43.10    1.10
   0  -2   2   41.20    1.10
   0  -2   2   42.30    1.20
   0  -2   2   38.70    1.20
   0  -2   2   38.90    1.10
   0  -2   2   40.30    1.10
   0  -2   2   42.40    1.10
   0  -2   2   42.30    1.10
   0  -2   2   42.50    1.20
   0  -2   2   40.50    1.10
  -1   2  -2  153.88    3.90
  -1   2  -2  150.48    4.00
  -1   2  -2  155.98    3.80
  -1   2  -2  160.68    3.90
  -1   2  -2  153.78    3.90
  -1   2  -2  157.28    3.70
   1  -2   2  155.18    4.10
   1  -2   2  165.48    3.90
   1  -2   2  149.19    3.90
   1  -2   2  154.88    3.80
   1  -2   2  157.18    3.80
   1  -2   2  150.78    3.90
   1  -2   2  153.98    3.80
  -2   2  -2   13.00    0.60
  -2   2  -2   13.00    0.70
   2  -2   2   12.80    0.50
   2  -2   2   12.20    0.50
   2  -2   2   11.80    0.60
   2  -2   2   12.10    0.60
   2  -2   2   12.00    0.70
  -3   2  -2    1.80    0.40
  -3   2  -2    0.60    0.40
   3  -2   2    1.70    0.30
   3  -2   2    1.50    0.10
   3  -2   2    1.90    0.30
   3  -2   2    1.80    0.30
   3  -2   2    1.40    0.40
   3  -2   2    1.40    0.10
   3  -2   2    0.80    0.40
  -4   2  -2    2.40    0.50
  -4   2  -2    4.50    0.60
  -4   2  -2    3.20    0.60
   4  -2   2    4.00    0.40
   4  -2   2    2.40    0.50
   4  -2   2    3.60    0.50
   4  -2   2    3.60    0.30
   4  -2   2    4.10    0.60
   4  -2   2    2.80    0.40
  -5   2  -2    6.00    0.70
  -5   2  -2    6.10    0.90
   5  -2   2    6.80    0.90
   5  -2   2    6.70    0.50
   5  -2   2    7.80    0.80
   5  -2   2    7.90    0.70
   5  -2   2    7.00    0.70
  -6   2  -2  117.09    3.70
  -6   2  -2  119.49    3.90
   6  -2   2  118.99    3.50
   6  -2   2  121.49    4.00
   6  -2   2  120.39    3.60
   6  -2   2  118.59    3.70
  -7   2  -2   34.40    1.80
  -7   2  -2   39.60    2.00
   7  -2   2   40.90    2.20
   7  -2   2   40.20    1.90
   7  -2   2   40.50    1.80
   7  -2   2   36.30    1.70
  -8   2  -2   31.60    2.00
  -8   2  -2   35.20    2.20
   8  -2   2   36.70    2.40
   8  -2   2   31.50    1.80
   8  -2   2   31.10    1.70
   8  -2   2   31.40    1.80
   9   1  -2    3.10    0.90
   9   1  -2    1.60    0.70
   9   1  -2    1.30    1.00
  -9  -1   2    1.40    0.80
  -9  -1   2    2.70    0.90
   8   1  -2    5.40    1.30
   8   1  -2    4.10    0.80
   8   1  -2    5.90    0.90
  -8  -1   2    5.10    0.90
  -8  -1   2    5.40    0.90
  -8  -1   2    5.20    0.90
   7   1  -2   54.09    2.00
   7   1  -2   53.49    2.10
   7   1  -2   56.09    2.60
   7   1  -2   48.90    1.80
  -7  -1   2   53.49    2.10
  -7  -1   2   48.40    2.10
  -7  -1   2   50.79    2.10
   6   1  -2   24.70    1.30
   6   1  -2   25.30    1.60
   6   1  -2   24.50    1.30
   6   1  -2   25.40    1.10
   6   1  -2   27.80    1.80
  -6  -1   2   24.80    1.30
  -6  -1   2   24.80    0.90
  -6  -1   2   25.50    1.30
  -6  -1   2   23.50    1.30
   5   1  -2   34.80    1.40
   5   1  -2   37.30    1.70
   5   1  -2   34.00    1.20
   5   1  -2   36.80    1.50
   5   1  -2   36.90    1.80
  -5  -1   2   32.90    1.40
  -5  -1   2   33.10    1.40
  -5  -1   2   36.20    1.20
  -5  -1   2   33.70    1.40
   4   1  -2   67.99    2.10
   4   1  -2   73.59    2.30
   4   1  -2   67.69    1.90
   4   1  -2   65.19    2.30
   4   1  -2   65.49    2.00
  -4  -1   2   68.99    1.90
  -4  -1   2   66.39    2.10
  -4  -1   2   70.29    2.20
  -4  -1   2   64.69    2.00
  -4  -1   2   67.49    2.10
   3   1  -2  146.79    4.10
   3   1  -2  151.08    4.10
   3   1  -2  151.38    3.70
   3   1  -2  152.98    3.90
   3   1  -2  144.99    3.90
  -3  -1   2  153.58    3.80
  -3  -1   2  148.79    3.90
  -3  -1   2  150.08    3.90
  -3  -1   2  149.69    4.00
  -3  -1   2  153.78    3.90
  -3  -1   2  155.28    3.60
   2   1  -2   89.39    2.40
   2   1  -2   91.79    2.40
   2   1  -2   90.99    2.50
   2   1  -2   87.89    2.60
   2   1  -2   97.99    2.40
   2   1  -2   92.09    2.40
   2   1  -2   91.69    2.30
  -2  -1   2   95.49    2.40
  -2  -1   2   92.39    2.50
  -2  -1   2   94.89    2.40
  -2  -1   2   95.89    2.50
  -2  -1   2   91.69    2.40
  -2  -1   2   92.79    2.40
  -2  -1   2   91.59    2.30
  -2  -1   2   92.49    2.40
  -2  -1   2   97.29    2.40
   1   1  -2  315.37    7.40
   1   1  -2  324.47    7.50
   1   1  -2  299.97    7.60
   1   1  -2  310.57    7.40
   1   1  -2  315.77    7.40
   1   1  -2  290.77    7.50
   1   1  -2  302.17    7.40
   1   1  -2  302.47    7.50
   1   1  -2  316.57    7.50
   1   1  -2  310.47    7.40
  -1  -1   2  313.87    7.50
  -1  -1   2  308.07    7.40
  -1  -1   2  316.97    7.50
  -1  -1   2  329.27    7.50
  -1  -1   2  318.37    7.60
  -1  -1   2  319.27    7.40
  -1  -1   2  297.07    7.60
  -1  -1   2  321.37    7.40
  -1  -1   2  304.47    7.60
   0   1  -2   79.89    2.20
   0   1  -2   81.99    2.10
   0   1  -2   84.69    2.10
   0   1  -2   85.49    2.20
   0   1  -2   84.89    2.00
   0   1  -2   82.99    2.20
   0   1  -2   81.79    2.00
   0  -1   2   82.79    2.00
   0  -1   2   86.89    2.20
   0  -1   2   86.19    2.00
   0  -1   2   83.89    2.20
   0  -1   2   87.09    2.00
   0  -1   2   83.29    2.10
   0  -1   2   86.29    2.20
   0  -1   2   82.09    2.00
   0  -1   2   80.39    2.10
  -1   1  -2  142.69    3.50
  -1   1  -2  143.39    3.60
  -1   1  -2  146.39    3.60
  -1   1  -2  145.59    3.60
  -1   1  -2  147.09    3.70
  -1   1  -2  145.59    3.60
  -1   1  -2  141.09    3.70
   1  -1   2  145.49    3.60
   1  -1   2  152.08    3.60
   1  -1   2  140.79    3.60
   1  -1   2  141.69    3.60
   1  -1   2  146.39    3.60
   1  -1   2  152.48    3.70
   1  -1   2  152.48    3.60
   1  -1   2  148.89    3.60
  -2   1  -2  413.96   10.20
  -2   1  -2  446.46   10.20
  -2   1  -2  423.26   10.20
  -2   1  -2  412.26   10.30
   2  -1   2  427.26   10.20
   2  -1   2  422.06   10.20
   2  -1   2  425.86   10.20
   2  -1   2  416.96   10.30
   2  -1   2  427.76   10.00
  -3   1  -2  934.81   21.50
  -3   1  -2  904.21   21.80
  -3   1  -2  894.41   21.60
  -3   1  -2  936.31   21.80
  -3   1  -2  889.91   21.60
   3  -1   2  901.41   21.60
   3  -1   2  948.91   21.40
   3  -1   2  875.51   21.60
   3  -1   2  865.31   21.80
   3  -1   2  903.11   21.60
  -4   1  -2  103.59    2.90
  -4   1  -2  105.29    3.10
  -4   1  -2  100.89    2.90
  -4   1  -2   97.29    3.00
   4  -1   2  101.59    2.90
   4  -1   2  106.29    2.70
   4  -1   2  100.69    2.80
   4  -1   2   98.69    3.10
  -5   1  -2   17.70    1.10
  -5   1  -2   16.70    1.00
  -5   1  -2   16.90    1.00
   5  -1   2   16.50    1.20
   5  -1   2   17.10    0.90
   5  -1   2   16.10    0.90
   5  -1   2   16.90    0.90
  -6   1  -2   36.90    1.60
  -6   1  -2   34.90    1.60
  -6   1  -2   38.40    1.80
   6  -1   2   33.70    1.50
   6  -1   2   37.20    1.80
   6  -1   2   35.90    1.50
   6  -1   2   33.90    1.50
  -7   1  -2   53.89    2.30
  -7   1  -2   57.09    2.40
   7  -1   2   58.09    2.20
   7  -1   2   59.59    2.60
   7  -1   2   58.09    2.20
   7  -1   2   54.89    2.20
  -8   1  -2   41.10    2.20
  -8   1  -2   38.90    2.00
   8  -1   2   39.00    1.90
   8  -1   2   39.60    1.90
   8  -1   2   39.30    1.90
   8  -1   2   43.40    2.40
  -9   1  -2   14.00    1.60
  -9   1  -2   11.60    1.40
   9  -1   2   13.00    1.30
   9  -1   2   14.30    1.40
   9  -1   2   20.20    1.90
   9  -1   2   11.50    1.30
   9   0  -2    0.40    0.90
   9   0  -2    0.60    0.60
   9   0  -2    0.30    0.60
  -9   0   2    0.60    0.70
  -9   0   2   -1.30    0.90
  -9   0   2   -0.30    0.70
   8   0  -2   12.40    1.60
   8   0  -2   15.80    1.30
   8   0  -2   13.80    1.30
  -8   0   2   12.90    1.30
  -8   0   2   12.80    1.40
  -8   0   2   12.10    1.30
   7   0  -2   72.49    2.70
   7   0  -2   79.09    3.30
   7   0  -2   73.29    2.50
   7   0  -2   78.89    2.70
  -7   0   2   75.89    2.80
  -7   0   2   76.49    2.80
   6   0  -2   26.80    1.30
   6   0  -2   29.20    1.70
   6   0  -2   24.90    1.20
   6   0  -2   25.80    1.30
  -6   0   2   26.80    1.40
  -6   0   2   28.00    1.40
  -6   0   2   25.30    1.40
   5   0  -2  341.97    9.00
   5   0  -2  336.57    8.40
   5   0  -2  334.37    8.50
   5   0  -2  336.47    8.50
  -5   0   2  337.97    8.70
  -5   0   2  333.67    8.60
  -5   0   2  339.17    8.60
   4   0  -2   11.90    1.00
   4   0  -2   10.50    0.70
   4   0  -2   10.80    0.70
   4   0  -2   10.00    0.60
   4   0  -2   10.00    0.80
  -4   0   2   10.90    0.70
  -4   0   2    9.40    0.70
  -4   0   2   10.90    0.70
  -4   0   2    8.90    0.70
   3   0  -2   34.90    1.40
   3   0  -2   35.00    1.20
   3   0  -2   34.80    1.10
   3   0  -2   35.70    1.20
   3   0  -2   34.90    1.30
  -3   0   2   36.30    1.20
  -3   0   2   35.50    1.20
  -3   0   2   35.50    1.20
  -3   0   2   35.60    1.20
   2   0  -2  178.68    4.50
   2   0  -2  182.18    4.60
   2   0  -2  182.38    4.50
   2   0  -2  166.48    4.60
   2   0  -2  186.48    4.30
   2   0  -2  185.08    4.60
  -2   0   2  182.48    4.60
  -2   0   2  184.08    4.50
  -2   0   2  177.18    4.50
  -2   0   2  185.18    4.50
  -2   0   2  180.48    4.50
   1   0  -2  719.43   17.50
   1   0  -2  718.13   17.30
   1   0  -2  744.13   17.20
   1   0  -2  707.33   17.40
   1   0  -2  704.93   17.10
   1   0  -2  681.73   17.30
   1   0  -2  742.93   17.40
   1   0  -2  765.12   17.60
   1   0  -2  707.13   17.60
   1   0  -2  748.53   17.20
  -1   0   2  706.73   17.20
  -1   0   2  734.53   17.40
  -1   0   2  729.33   17.50
  -1   0   2  757.62   17.50
  -1   0   2  698.33   17.30
  -1   0   2  708.33   17.50
  -1   0   2  744.83   17.70
  -1   0   2  691.03   17.20
   0   0  -2 1696.33   39.80
   0   0  -2 1690.13   39.60
   0   0  -2 1742.53   39.70
   0   0  -2 1609.74   39.40
   0   0  -2 1727.53   39.40
   0   0  -2 1605.94   39.00
   0   0  -2 1656.73   39.10
   0   0  -2 1607.94   39.00
   0   0   2 1639.14   39.10
   0   0   2 1628.44   39.00
   0   0   2 1655.73   39.60
   0   0   2 1549.14   39.80
   0   0   2 1582.84   39.50
   0   0   2 1701.33   39.70
  -1   0  -2    4.50    0.30
  -1   0  -2    4.30    0.20
  -1   0  -2    4.60    0.30
  -1   0  -2    4.40    0.20
  -1   0  -2    4.10    0.20
  -1   0  -2    4.50    0.30
  -1   0  -2    4.80    0.30
  -1   0  -2    4.20    0.20
   1   0   2    5.70    0.20
   1   0   2    4.40    0.20
   1   0   2    4.50    0.30
   1   0   2    4.50    0.20
   1   0   2    4.10    0.20
   1   0   2    4.30    0.30
   1   0   2    4.00    0.20
   1   0   2    4.40    0.30
  -2   0  -2  174.28    4.20
  -2   0  -2  176.98    4.20
  -2   0  -2  167.98    4.30
  -2   0  -2  166.68    4.20
  -2   0  -2  166.78    4.20
  -2   0  -2  168.08    4.30
  -2   0  -2  162.88    4.30
  -2   0  -2  171.38    4.40
  -2   0  -2  185.38    4.20
   2   0   2  175.48    4.30
   2   0   2  174.58    4.20
   2   0   2  174.58    4.20
   2   0   2  171.78    4.30
   2   0   2  171.08    4.20
   2   0   2  168.38    4.30
  -3   0  -2   47.60    1.50
  -3   0  -2   48.20    1.50
  -3   0  -2   49.99    1.40
  -3   0  -2   47.80    1.50
  -3   0  -2   50.89    1.60
   3   0   2   48.80    1.40
   3   0   2   46.00    1.50
   3   0   2   49.70    1.50
  -4   0  -2   92.99    2.70
  -4   0  -2   90.19    2.70
  -4   0  -2   95.69    2.40
  -4   0  -2   94.89    2.90
  -4   0  -2   89.99    2.70
   4   0   2   91.79    2.60
   4   0   2   94.69    2.60
   4   0   2   90.49    2.80
  -5   0  -2  148.39    4.20
  -5   0  -2  155.08    3.70
  -5   0  -2  151.98    4.20
  -5   0  -2  148.39    4.10
   5   0   2  150.08    4.10
   5   0   2  149.29    4.10
   5   0   2  145.49    4.30
  -6   0  -2   30.60    1.40
  -6   0  -2   30.30    1.50
  -6   0  -2   30.20    1.40
   6   0   2   29.40    1.30
   6   0   2   30.20    1.60
   6   0   2   30.60    1.30
  -7   0  -2   56.99    2.30
  -7   0  -2   63.49    2.40
  -7   0  -2   59.19    2.40
   7   0   2   60.59    2.20
   7   0   2   60.19    2.60
   7   0   2   60.39    2.20
  -8   0  -2   15.40    1.30
  -8   0  -2   15.80    1.30
  -8   0  -2   15.30    1.40
   8   0   2   15.90    1.20
   8   0   2   17.50    1.30
   8   0   2   18.10    1.60
   8   0   2   15.70    1.20
  -9   0  -2    7.10    1.20
  -9   0  -2    8.50    1.20
   9   0   2    6.70    1.00
   9   0   2    7.60    1.30
   9   0   2    9.60    1.30
   9   0   2    6.00    1.00
   8  -1  -2    4.30    0.80
   8  -1  -2    4.10    0.90
   8  -1  -2    4.70    1.20
  -8   1   2    4.20    0.90
  -8   1   2    3.50    0.90
  -8   1   2    4.20    0.90
   7  -1  -2    0.70    0.60
   7  -1  -2    1.00    0.60
   7  -1  -2    0.50    0.50
   7  -1  -2    1.60    0.80
  -7   1   2    0.80    0.60
  -7   1   2    1.20    0.60
  -7   1   2    0.60    0.70
   6  -1  -2    4.10    0.70
   6  -1  -2    4.10    0.90
   6  -1  -2    5.40    0.70
   6  -1  -2    2.80    0.60
  -6   1   2    5.40    0.80
  -6   1   2    4.60    0.80
   5  -1  -2  195.78    5.20
   5  -1  -2  193.88    5.30
   5  -1  -2  203.08    5.80
   5  -1  -2  193.28    5.20
  -5   1   2  196.18    5.50
  -5   1   2  196.08    5.40
   4  -1  -2    3.60    0.70
   4  -1  -2    3.90    0.50
   4  -1  -2    4.10    0.50
   4  -1  -2    3.20    0.50
  -4   1   2    3.50    0.50
  -4   1   2    3.70    0.60
  -4   1   2    3.90    0.50
   3  -1  -2   16.20    1.00
   3  -1  -2   17.80    0.50
   3  -1  -2   17.30    0.80
   3  -1  -2   17.50    0.70
  -3   1   2   17.90    0.80
  -3   1   2   18.10    0.90
   2  -1  -2   81.19    2.20
   2  -1  -2   82.29    2.20
   2  -1  -2   79.69    2.40
  -2   1   2   82.99    2.30
  -2   1   2   81.29    2.30
  -2   1   2   83.39    2.40
  -2   1   2   83.89    2.20
  -2   1   2   86.39    2.20
   1  -1  -2  202.98    5.20
   1  -1  -2  205.48    5.20
   1  -1  -2  212.28    5.10
   1  -1  -2  209.88    5.20
   1  -1  -2  208.68    5.30
   1  -1  -2  215.28    5.20
  -1   1   2  222.78    5.20
  -1   1   2  215.98    5.10
  -1   1   2  206.78    5.20
  -1   1   2  214.88    5.20
  -1   1   2  209.48    5.10
  -1   1   2  209.08    5.30
  -1   1   2  224.78    5.20
   0  -1  -2  110.39    2.70
   0  -1  -2  112.29    2.80
   0  -1  -2  105.49    2.70
   0  -1  -2  109.79    2.70
   0  -1  -2  113.89    2.80
   0  -1  -2  107.99    2.60
   0  -1  -2  107.29    2.70
   0  -1  -2  103.99    2.70
   0  -1  -2  105.99    2.70
   0  -1  -2  106.09    2.70
   0   1   2  108.99    2.60
   0   1   2  107.99    2.70
   0   1   2  107.09    2.70
   0   1   2  108.49    2.70
   0   1   2  104.29    2.70
   0   1   2  108.59    2.70
   0   1   2  111.19    2.70
   0   1   2  114.29    2.70
  -1  -1  -2 1029.10   24.00
  -1  -1  -2 1017.30   24.00
  -1  -1  -2 1019.20   23.90
  -1  -1  -2  971.50   24.00
  -1  -1  -2  966.80   24.10
  -1  -1  -2  978.90   24.00
  -1  -1  -2  981.40   23.70
  -1  -1  -2  990.80   23.90
   1   1   2 1018.80   23.80
   1   1   2 1013.60   23.80
   1   1   2  967.80   23.90
   1   1   2  960.80   24.20
   1   1   2 1021.40   24.20
   1   1   2  995.50   24.00
   1   1   2 1021.70   23.80
  -2  -1  -2    3.80    0.30
  -2  -1  -2    3.00    0.30
  -2  -1  -2    3.40    0.20
  -2  -1  -2    3.00    0.30
  -2  -1  -2    3.10    0.30
  -2  -1  -2    3.00    0.30
  -2  -1  -2    3.10    0.30
   2   1   2    3.10    0.30
   2   1   2    3.20    0.30
   2   1   2    3.20    0.30
   2   1   2    4.60    0.40
   2   1   2    3.40    0.30
   2   1   2    2.90    0.30
   2   1   2    3.70    0.20
   2   1   2    3.30    0.30
   2   1   2    3.50    0.30
  -3  -1  -2   65.59    1.90
  -3  -1  -2   65.99    1.90
  -3  -1  -2   65.99    1.90
  -3  -1  -2   64.59    2.10
  -3  -1  -2   69.99    1.70
   3   1   2   65.59    2.10
   3   1   2   69.79    1.90
   3   1   2   69.59    1.90
   3   1   2   66.89    2.00
   3   1   2   69.39    1.90
  -4  -1  -2  100.59    2.60
  -4  -1  -2   96.69    2.80
  -4  -1  -2  109.09    3.10
  -4  -1  -2   95.59    2.80
  -4  -1  -2   99.29    2.80
  -4  -1  -2  105.29    2.50
   4   1   2   97.19    3.00
   4   1   2  101.49    3.00
   4   1   2  104.69    2.80
   4   1   2  102.29    3.00
   4   1   2  101.19    2.80
   4   1   2  101.99    2.80
  -5  -1  -2   54.99    1.90
  -5  -1  -2   53.39    1.90
  -5  -1  -2   57.99    1.60
  -5  -1  -2   54.89    1.90
  -5  -1  -2   58.39    1.50
   5   1   2   55.19    2.10
   5   1   2   58.39    2.10
   5   1   2   53.09    1.80
   5   1   2   56.49    1.80
  -6  -1  -2   92.59    3.00
  -6  -1  -2   97.69    3.00
   6   1   2   97.89    2.90
   6   1   2   94.59    3.20
   6   1   2   98.79    2.90
  -7  -1  -2   19.80    1.20
  -7  -1  -2   21.70    1.20
  -7  -1  -2   20.00    1.30
   7   1   2   20.20    1.60
   7   1   2   21.60    1.20
   7   1   2   21.30    1.20
  -8  -1  -2   -0.20    0.50
  -8  -1  -2    0.40    0.50
  -8  -1  -2    0.50    0.60
   8   1   2    0.80    0.60
   8   1   2    0.20    0.70
   8   1   2   -0.20    0.40
  -9  -1  -2    3.20    0.90
  -9  -1  -2    1.70    0.80
  -9  -1  -2    1.30    0.70
   9   1   2    1.40    0.70
   9   1   2    1.00    0.70
   9   1   2    1.30    0.90
   8  -2  -2    0.60    0.70
   8  -2  -2    0.50    0.70
   8  -2  -2    0.10    0.70
  -8   2   2   -0.30    0.70
  -8   2   2    1.20    0.80
   7  -2  -2   -0.30    0.80
   7  -2  -2   -0.30    0.50
   7  -2  -2   -0.60    0.50
   7  -2  -2    0.80    0.60
  -7   2   2    0.50    0.60
  -7   2   2    0.50    0.60
   6  -2  -2    0.50    0.50
   6  -2  -2   -0.10    0.40
   6  -2  -2    0.80    0.70
   6  -2  -2    0.70    0.50
  -6   2   2   -0.10    0.50
  -6   2   2   -0.20    0.40
  -6   2   2   -0.60    0.50
   5  -2  -2   91.89    2.80
   5  -2  -2   95.39    3.30
   5  -2  -2   91.29    2.80
   5  -2  -2   93.69    2.90
  -5   2   2   85.99    2.90
  -5   2   2   87.39    3.00
  -5   2   2   89.29    2.90
   4  -2  -2    4.10    0.60
   4  -2  -2    3.10    0.70
   4  -2  -2    4.10    0.50
   4  -2  -2    2.90    0.20
   4  -2  -2    2.80    0.50
  -4   2   2    3.50    0.50
  -4   2   2    2.40    0.50
  -4   2   2    3.50    0.60
   3  -2  -2    7.10    0.50
   3  -2  -2    6.50    0.70
   3  -2  -2    6.70    0.50
  -3   2   2    6.50    0.60
  -3   2   2    6.70    0.60
  -3   2   2    6.80    0.50
  -3   2   2    5.40    0.60
   2  -2  -2  653.93   16.20
   2  -2  -2  660.23   16.00
   2  -2  -2  666.03   15.90
   2  -2  -2  658.63   16.00
   2  -2  -2  645.04   16.00
  -2   2   2  719.43   15.90
  -2   2   2  667.63   16.20
  -2   2   2  681.63   16.10
  -2   2   2  675.33   16.00
  -2   2   2  651.83   16.00
   1  -2  -2  190.38    5.00
   1  -2  -2  206.58    4.80
   1  -2  -2  192.88    4.90
   1  -2  -2  197.18    4.90
  -1   2   2  196.88    5.10
  -1   2   2  199.88    5.00
  -1   2   2  197.18    4.90
  -1   2   2  196.08    5.00
  -1   2   2  216.18    5.20
   0  -2  -2 9999.00  236.18
  -1  -2  -2 7159.38  181.98
  -1  -2  -2 7690.73  182.28
   1   2   2 8015.10  182.28
   1   2   2 7833.92  182.08
   1   2   2 7812.92  181.98
  -2  -2  -2  363.36    8.80
  -2  -2  -2  365.56    8.90
  -2  -2  -2  369.46    8.80
  -2  -2  -2  355.96    8.80
   2   2   2  372.26    8.80
   2   2   2  369.96    8.80
   2   2   2  350.16    8.90
   2   2   2  368.46    8.90
  -3  -2  -2  246.48    6.20
  -3  -2  -2  246.78    6.10
  -3  -2  -2  254.37    6.40
  -3  -2  -2  241.08    6.10
  -3  -2  -2  243.28    6.20
   3   2   2  244.08    6.30
   3   2   2  250.67    6.20
   3   2   2  249.38    6.20
   3   2   2  253.17    6.10
   3   2   2  257.77    5.90
   3   2   2  246.68    6.30
   3   2   2  246.68    6.10
  -4  -2  -2  190.98    5.10
  -4  -2  -2  184.58    4.80
  -4  -2  -2  188.18    4.90
  -4  -2  -2  186.48    4.80
   4   2   2  185.58    5.10
   4   2   2  186.78    5.00
   4   2   2  185.78    4.80
   4   2   2  190.08    4.80
   4   2   2  191.28    5.00
   4   2   2  181.88    4.80
  -5  -2  -2   30.20    1.20
  -5  -2  -2   30.30    1.20
   5   2   2   29.50    1.20
   5   2   2   31.10    1.20
   5   2   2   27.50    1.40
   5   2   2   27.90    1.40
   5   2   2   28.70    1.50
   5   2   2   29.60    1.20
  -6  -2  -2  237.08    6.30
  -6  -2  -2  239.18    6.40
  -6  -2  -2  236.48    6.30
   6   2   2  237.38    6.30
   6   2   2  237.88    6.20
   6   2   2  242.98    6.60
   6   2   2  238.48    6.60
   6   2   2  243.18    6.70
  -7  -2  -2   -0.20    0.40
  -7  -2  -2    0.00    0.50
  -7  -2  -2    0.30    0.40
   7   2   2    0.00    0.30
   7   2   2   -0.50    0.50
   7   2   2   -0.50    0.60
   7   2   2   -0.30    0.40
  -8  -2  -2    1.10    0.50
  -8  -2  -2    2.00    0.70
  -8  -2  -2    2.90    0.70
   8   2   2    0.90    0.70
   8   2   2    0.60    0.80
   8   2   2    1.20    0.50
  -9  -2  -2   -0.50    0.60
  -9  -2  -2   -0.30    0.60
  -9  -2  -2   -0.60    0.60
   9   2   2    0.10    0.80
   9   2   2    0.20    0.60
   7  -3  -2   -0.10    0.60
   7  -3  -2    0.50    0.50
   7  -3  -2    0.30    0.60
   7  -3  -2    1.40    0.80
  -7   3   2   -0.50    0.60
  -7   3   2    0.20    0.70
  -7   3   2    0.10    0.50
   6  -3  -2    2.00    0.60
   6  -3  -2    2.50    0.60
   6  -3  -2    1.30    0.70
   6  -3  -2    0.80    0.60
  -6   3   2    1.30    0.60
  -6   3   2    0.10    0.60
   5  -3  -2   23.90    1.30
   5  -3  -2   24.50    1.30
   5  -3  -2   25.90    1.10
   5  -3  -2   26.90    1.60
   5  -3  -2   30.00    1.40
  -5   3   2   25.90    1.40
  -5   3   2   25.50    1.30
  -5   3   2   24.50    1.50
   4  -3  -2    2.30    0.60
   4  -3  -2    2.30    0.40
   4  -3  -2    1.60    0.50
   4  -3  -2    1.90    0.50
   4  -3  -2    2.10    0.30
  -4   3   2    1.90    0.60
  -4   3   2    1.40    0.50
  -4   3   2    2.00    0.40
  -4   3   2    1.60    0.50
  -4   3   2    1.70    0.50
   3  -3  -2   80.69    2.30
   3  -3  -2   81.49    2.40
   3  -3  -2   77.29    2.40
   3  -3  -2   79.99    2.60
  -3   3   2   79.79    2.30
  -3   3   2   79.49    2.60
  -3   3   2   80.29    2.50
  -3   3   2   80.99    2.50
  -3   3   2   81.29    2.40
   2  -3  -2  197.28    5.30
   2  -3  -2  203.78    5.50
   2  -3  -2  211.18    5.10
   2  -3  -2  213.28    5.30
  -2   3   2  210.18    5.40
  -2   3   2  205.78    5.40
  -2   3   2  211.18    5.10
  -2   3   2  210.08    5.50
   1  -3  -2  124.59    3.20
   1  -3  -2  119.79    3.30
   1  -3  -2  120.19    3.20
   1  -3  -2  128.19    3.00
  -1   3   2  124.29    3.40
  -1   3   2  121.09    3.30
  -1   3   2  126.89    3.10
  -1   3   2  125.49    3.20
  -1   3   2  125.29    3.40
   0  -3  -2  206.98    5.40
   0  -3  -2  211.08    5.40
   0  -3  -2  235.88    5.30
   0  -3  -2  220.48    5.40
   0   3   2  221.68    5.20
   0   3   2  208.38    5.40
   0   3   2  212.38    5.50
   0   3   2  232.28    5.50
   0   3   2  217.08    5.50
   0   3   2  216.28    5.40
  -1  -3  -2  119.19    3.20
  -1  -3  -2  120.79    3.20
  -1  -3  -2  131.89    3.20
  -1  -3  -2  121.19    3.10
  -1  -3  -2  126.19    3.20
  -1  -3  -2  126.49    3.20
   1   3   2  115.89    3.20
   1   3   2  124.39    3.20
   1   3   2  121.99    3.20
   1   3   2  118.19    3.20
  -2  -3  -2    0.40    0.20
  -2  -3  -2   -0.20    0.20
  -2  -3  -2    0.00    0.20
   2   3   2    0.20    0.20
   2   3   2    0.20    0.20
   2   3   2    0.20    0.20
   2   3   2    0.20    0.20
   2   3   2    0.20    0.20
  -3  -3  -2   90.59    2.60
  -3  -3  -2   89.39    2.50
  -3  -3  -2   95.19    2.70
  -3  -3  -2   88.69    2.50
   3   3   2   88.09    2.70
   3   3   2   95.79    2.60
   3   3   2   90.19    2.50
   3   3   2   92.39    2.60
  -4  -3  -2    0.70    0.30
  -4  -3  -2    0.00    0.30
  -4  -3  -2    0.70    0.30
  -4  -3  -2    0.50    0.20
  -4  -3  -2    0.60    0.30
   4   3   2    0.30    0.20
   4   3   2    0.60    0.30
   4   3   2    0.30    0.30
   4   3   2    0.10    0.30
   4   3   2    0.60    0.30
  -5  -3  -2   70.69    2.10
  -5  -3  -2   70.09    2.20
   5   3   2   69.09    2.20
   5   3   2   69.59    2.20
   5   3   2   71.99    2.50
   5   3   2   71.09    2.10
   5   3   2   69.19    2.40
   5   3   2   69.99    2.40
  -6  -3  -2  101.19    2.90
  -6  -3  -2   98.79    3.00
   6   3   2   99.19    3.30
   6   3   2  100.19    3.40
   6   3   2   94.89    2.90
   6   3   2   94.99    3.20
   6   3   2   99.79    3.00
   6   3   2   98.99    3.00
  -7  -3  -2    1.50    0.60
  -7  -3  -2    2.20    0.50
  -7  -3  -2    2.20    0.60
   7   3   2    2.90    0.80
   7   3   2    2.70    0.60
   7   3   2    1.90    0.70
   7   3   2    1.90    0.70
   7   3   2    2.20    0.50
  -8  -3  -2   -0.40    0.40
  -8  -3  -2   -1.20    0.50
  -8  -3  -2   -0.50    0.50
   8   3   2   -0.30    0.80
   8   3   2    0.30    0.60
   8   3   2    0.20    0.40
   8   3   2   -0.40    0.50
  -9  -3  -2    4.30    0.90
  -9  -3  -2    4.40    1.00
   9   3   2    4.80    0.90
   9   3   2    4.30    1.10
 -10  -3  -2    1.30    0.90
 -10  -3  -2    3.50    1.00
  10   3   2    1.80    0.80
  10   3   2    2.50    1.00
   7  -4  -2   11.30    1.50
   7  -4  -2    8.30    1.20
   7  -4  -2    9.30    1.20
   7  -4  -2    8.90    1.10
  -7   4   2    7.70    1.20
  -7   4   2    7.00    1.30
  -7   4   2    7.80    1.10
   6  -4  -2    6.90    1.00
   6  -4  -2    6.20    1.00
   6  -4  -2    6.30    1.20
   6  -4  -2    5.90    0.90
  -6   4   2    6.60    1.00
  -6   4   2    5.00    0.90
  -6   4   2    4.70    1.00
   5  -4  -2    0.10    0.50
   5  -4  -2   -0.20    0.40
   5  -4  -2    0.20    0.60
   5  -4  -2    0.10    0.70
  -5   4   2   -0.20    0.50
  -5   4   2   -0.10    0.60
  -5   4   2    0.40    0.50
   4  -4  -2    1.60    0.50
   4  -4  -2    2.70    0.60
   4  -4  -2    2.20    0.40
   4  -4  -2    2.60    0.70
   4  -4  -2    2.00    0.40
  -4   4   2    1.00    0.50
  -4   4   2    1.70    0.50
  -4   4   2    2.10    0.60
  -4   4   2    2.40    0.70
   3  -4  -2   11.80    0.80
   3  -4  -2   10.30    1.00
   3  -4  -2   12.20    0.70
  -3   4   2   10.80    1.00
  -3   4   2   11.50    0.90
  -3   4   2   11.00    0.60
  -3   4   2   11.80    0.80
   2  -4  -2   70.89    2.40
   2  -4  -2   72.29    2.20
   2  -4  -2   75.29    2.10
   2  -4  -2   75.59    1.80
  -2   4   2   72.19    2.30
  -2   4   2   77.59    1.90
  -2   4   2   71.29    2.30
  -2   4   2   71.89    2.40
   1  -4  -2  144.99    3.90
   1  -4  -2  149.19    3.90
  -1   4   2  150.98    3.90
  -1   4   2  147.09    4.00
  -1   4   2  151.68    3.90
  -1   4   2  152.98    4.10
  -1   4   2  151.08    4.10
   0  -4  -2   10.30    0.60
   0  -4  -2   11.60    0.60
   0  -4  -2    9.20    0.60
   0  -4  -2   11.50    0.40
   0   4   2   10.10    0.60
   0   4   2   10.20    0.60
   0   4   2   11.00    0.40
   0   4   2   10.60    0.60
  -1  -4  -2  780.12   18.80
  -1  -4  -2  783.82   18.70
  -1  -4  -2  791.52   18.80
  -1  -4  -2  803.02   18.70
   1   4   2  781.42   18.80
   1   4   2  772.02   18.70
   1   4   2  770.12   18.70
   1   4   2  768.72   18.80
  -2  -4  -2  106.09    2.60
  -2  -4  -2   99.19    2.80
  -2  -4  -2   97.49    2.80
   2   4   2   96.79    2.80
   2   4   2   93.19    2.80
   2   4   2   95.09    2.70
  -3  -4  -2    1.60    0.40
  -3  -4  -2    1.20    0.30
  -3  -4  -2    1.10    0.40
  -3  -4  -2    1.70    0.30
   3   4   2    1.60    0.40
   3   4   2    1.30    0.30
   3   4   2    1.70    0.30
   3   4   2    1.70    0.30
  -4  -4  -2    0.00    0.30
  -4  -4  -2    0.00    0.30
  -4  -4  -2    0.30    0.20
  -4  -4  -2   -0.10    0.30
  -4  -4  -2    0.30    0.30
   4   4   2   -0.20    0.30
   4   4   2    0.10    0.30
   4   4   2    0.70    0.40
   4   4   2    0.00    0.40
  -5  -4  -2  132.59    3.90
  -5  -4  -2  134.79    3.50
  -5  -4  -2  129.99    3.80
   5   4   2  135.29    3.90
   5   4   2  137.39    4.10
   5   4   2  133.09    4.00
   5   4   2  133.29    3.70
   5   4   2  138.49    3.80
  -6  -4  -2  220.98    5.60
  -6  -4  -2  211.78    5.90
   6   4   2  220.88    5.90
   6   4   2  221.68    6.30
   6   4   2  220.38    6.20
   6   4   2  217.78    5.80
   6   4   2  220.68    6.10
  -7  -4  -2   37.40    1.70
  -7  -4  -2   38.60    1.50
   7   4   2   35.80    2.00
   7   4   2   37.50    1.90
   7   4   2   37.40    2.00
   7   4   2   36.00    1.60
   7   4   2   36.90    1.60
  -8  -4  -2   50.39    2.30
  -8  -4  -2   54.89    2.30
   8   4   2   57.99    2.60
   8   4   2   55.99    2.20
   8   4   2   52.49    2.60
  -9  -4  -2    7.70    1.10
  -9  -4  -2    8.70    1.20
   9   4   2    9.30    1.30
   9   4   2    9.00    1.10
   9   4   2    7.80    1.30
 -10  -4  -2    3.60    0.90
 -10  -4  -2    3.60    1.00
  10   4   2    2.50    0.90
  10   4   2    2.60    1.10
   6  -5  -2    3.30    0.90
   6  -5  -2    3.20    0.80
   6  -5  -2    5.20    1.10
  -6   5   2    2.40    1.00
  -6   5   2    3.80    0.90
  -6   5   2    4.70    1.00
   5  -5  -2    2.20    0.60
   5  -5  -2    1.80    0.70
   5  -5  -2    2.60    0.80
  -5   5   2    1.20    0.80
  -5   5   2    2.10    0.70
  -5   5   2    1.60    0.60
   4  -5  -2    2.70    0.60
   4  -5  -2    2.60    0.40
  -4   5   2    2.20    0.70
  -4   5   2    1.50    0.70
  -4   5   2    2.40    0.60
   3  -5  -2   37.00    1.50
   3  -5  -2   38.50    1.40
  -3   5   2   35.40    1.60
  -3   5   2   40.10    1.80
  -3   5   2   36.70    1.70
   2  -5  -2  302.87    7.70
   2  -5  -2  289.27    7.50
  -2   5   2  303.37    7.60
  -2   5   2  293.97    7.80
  -2   5   2  311.47    8.00
  -2   5   2  294.07    7.70
   1  -5  -2   32.50    1.30
   1  -5  -2   31.40    1.20
   1  -5  -2   32.50    1.30
  -1   5   2   34.10    1.30
  -1   5   2   30.90    1.30
  -1   5   2   32.50    1.30
  -1   5   2   33.30    1.30
   0  -5  -2   37.30    1.40
   0  -5  -2   40.30    1.40
   0  -5  -2   38.00    1.40
   0   5   2   39.80    1.50
   0   5   2   38.90    1.40
   0   5   2   37.70    1.40
   0   5   2   37.90    1.40
  -1  -5  -2   16.10    0.80
  -1  -5  -2   16.20    0.80
  -1  -5  -2   17.10    0.90
  -1  -5  -2   15.10    0.80
   1   5   2   16.70    0.90
   1   5   2   18.80    0.90
   1   5   2   18.00    0.90
  -2  -5  -2    5.60    0.60
  -2  -5  -2    6.50    0.60
  -2  -5  -2    6.40    0.50
   2   5   2    6.90    0.60
   2   5   2    6.40    0.60
   2   5   2    7.10    0.50
   2   5   2    6.20    0.60
  -3  -5  -2   20.40    1.00
  -3  -5  -2   20.10    1.10
  -3  -5  -2   21.30    0.90
  -3  -5  -2   20.90    1.00
   3   5   2   21.60    1.00
   3   5   2   21.80    1.10
   3   5   2   23.30    1.00
   3   5   2   20.90    0.90
   3   5   2   22.20    1.10
  -4  -5  -2    9.50    0.80
  -4  -5  -2   11.00    0.70
  -4  -5  -2    9.90    0.50
  -4  -5  -2   10.90    0.70
   4   5   2   10.30    0.80
   4   5   2   10.70    0.90
   4   5   2   10.40    0.70
   4   5   2   11.20    0.80
  -5  -5  -2  141.49    4.00
  -5  -5  -2  146.79    3.70
  -5  -5  -2  144.99    4.20
  -5  -5  -2  142.49    4.00
   5   5   2  134.59    4.20
   5   5   2  144.29    4.10
   5   5   2  148.09    4.40
   5   5   2  142.39    4.00
  -6  -5  -2  121.09    3.60
  -6  -5  -2  121.89    3.30
   6   5   2  121.99    4.00
   6   5   2  119.29    3.60
   6   5   2  120.69    3.90
   6   5   2  123.89    3.80
   6   5   2  123.59    3.60
  -7  -5  -2   -0.20    0.50
   7   5   2    0.10    0.50
   7   5   2   -0.60    0.50
   7   5   2   -0.60    0.60
   7   5   2    0.00    0.70
   7   5   2    0.40    0.70
  -8  -5  -2   30.10    1.70
  -8  -5  -2   33.00    1.80
   8   5   2   31.80    1.70
   8   5   2   31.50    1.70
   8   5   2   29.60    2.00
   8   5   2   30.40    2.00
  -9  -5  -2    0.50    0.60
  -9  -5  -2    0.70    0.70
   9   5   2    0.20    0.90
   9   5   2    1.10    0.70
   9   5   2    0.50    0.80
   6  -6  -2    5.30    1.10
   6  -6  -2    5.00    1.00
  -6   6   2    4.10    1.10
  -6   6   2    6.10    1.10
  -6   6   2    4.60    1.00
   5  -6  -2    7.10    1.10
   5  -6  -2    6.50    1.00
  -5   6   2    7.20    1.10
  -5   6   2    6.70    1.20
  -5   6   2    4.60    0.90
   4  -6  -2    1.90    0.70
   4  -6  -2    2.20    0.70
  -4   6   2    2.70    0.80
  -4   6   2    3.40    0.70
  -4   6   2    2.20    0.70
   3  -6  -2    3.70    0.50
   3  -6  -2    4.10    0.70
  -3   6   2    3.90    0.60
  -3   6   2    3.00    0.60
  -3   6   2    3.40    0.60
  -3   6   2    2.90    0.70
  -3   6   2    2.40    0.80
   2  -6  -2    4.60    0.50
   2  -6  -2    5.20    0.70
  -2   6   2    5.00    0.70
  -2   6   2    5.40    0.60
  -2   6   2    4.50    0.80
  -2   6   2    4.40    0.70
  -2   6   2    4.80    0.60
   1  -6  -2    1.00    0.40
   1  -6  -2    0.90    0.40
   1  -6  -2    1.20    0.40
  -1   6   2    1.50    0.50
  -1   6   2    1.30    0.40
  -1   6   2    0.70    0.30
  -1   6   2    0.90    0.40
   0  -6  -2    0.40    0.30
   0  -6  -2    0.80    0.40
   0  -6  -2    0.50    0.30
   0   6   2    0.80    0.40
   0   6   2    0.40    0.30
   0   6   2    0.20    0.30
   0   6   2    0.30    0.40
  -1  -6  -2   21.90    1.00
  -1  -6  -2   21.90    1.00
  -1  -6  -2   19.90    1.00
   1   6   2   20.40    1.00
   1   6   2   21.20    1.00
   1   6   2   21.00    1.10
   1   6   2   20.10    1.00
   1   6   2   18.80    1.00
  -2  -6  -2   11.40    0.90
  -2  -6  -2   13.00    0.90
  -2  -6  -2   11.10    0.70
   2   6   2   10.90    0.80
   2   6   2   12.90    0.80
   2   6   2   10.40    0.90
   2   6   2   10.70    0.80
  -3  -6  -2    9.90    0.90
  -3  -6  -2   10.30    0.90
  -3  -6  -2    9.80    0.80
   3   6   2   10.90    0.80
   3   6   2   11.20    0.80
   3   6   2   12.20    1.00
   3   6   2   12.30    1.00
   3   6   2   11.10    0.80
  -4  -6  -2    0.80    0.20
  -4  -6  -2    0.70    0.40
  -4  -6  -2    0.10    0.50
  -4  -6  -2    0.30    0.40
   4   6   2    0.30    0.40
   4   6   2    0.30    0.40
   4   6   2    0.40    0.40
   4   6   2    0.60    0.40
  -5  -6  -2    5.70    0.40
  -5  -6  -2    5.10    0.60
  -5  -6  -2    6.80    0.80
  -5  -6  -2    5.60    0.80
   5   6   2    3.80    0.70
   5   6   2    6.40    0.80
   5   6   2    4.70    0.70
   5   6   2    5.90    0.70
  -6  -6  -2   52.79    2.10
  -6  -6  -2   53.49    2.00
  -6  -6  -2   53.39    2.20
   6   6   2   58.59    2.60
   6   6   2   54.69    2.10
   6   6   2   56.79    2.00
   6   6   2   55.59    2.40
   6   6   2   54.19    2.20
  -7  -6  -2   35.60    1.80
   7   6   2   37.50    2.00
   7   6   2   36.40    1.70
   7   6   2   36.60    2.10
   7   6   2   34.90    1.90
   7   6   2   37.90    1.70
  -8  -6  -2    5.40    0.90
   8   6   2    4.50    1.10
   8   6   2    3.10    1.00
   8   6   2    5.70    0.90
   8   6   2    5.40    0.90
  -9  -6  -2    0.70    0.70
  -9  -6  -2    2.00    0.80
   9   6   2    1.00    1.00
   9   6   2    0.30    1.00
   9   6   2    1.30    0.70
   9   6   2    1.80    0.70
   5  -7  -2    3.10    0.80
   5  -7  -2    2.10    0.90
  -5   7   2    2.20    0.90
  -5   7   2    2.40    1.00
  -5   7   2    1.60    0.80
   4  -7  -2    0.90    0.60
   4  -7  -2    0.50    0.80
  -4   7   2    1.40    0.80
  -4   7   2    0.80    0.70
  -4   7   2    1.60    0.70
   3  -7  -2    0.00    0.40
   3  -7  -2    0.00    0.50
  -3   7   2   -0.50    0.50
  -3   7   2   -0.60    0.50
  -3   7   2    0.20    0.60
   2  -7  -2    8.90    0.70
   2  -7  -2    9.30    0.90
   2  -7  -2   10.80    1.00
  -2   7   2    8.80    1.10
  -2   7   2   10.30    1.10
  -2   7   2   10.20    0.90
  -2   7   2    8.10    0.80
  -2   7   2    7.90    0.90
   1  -7  -2    0.50    0.40
   1  -7  -2    0.60    0.40
   1  -7  -2    0.60    0.40
  -1   7   2    1.00    0.40
  -1   7   2    0.60    0.50
  -1   7   2    1.20    0.40
  -1   7   2    0.70    0.50
   0  -7  -2   59.09    2.10
   0  -7  -2   59.99    2.10
   0  -7  -2   58.59    2.00
   0   7   2   62.59    2.20
   0   7   2   58.39    2.10
   0   7   2   62.09    2.20
   0   7   2   62.19    2.20
  -1  -7  -2    7.60    0.80
  -1  -7  -2    5.20    0.70
  -1  -7  -2    7.40    0.70
   1   7   2    6.40    0.70
   1   7   2    5.50    0.70
   1   7   2    4.70    0.70
   1   7   2    6.60    0.70
   1   7   2    5.90    0.30
  -2  -7  -2   27.80    1.20
  -2  -7  -2   25.60    1.30
   2   7   2   27.10    1.40
   2   7   2   27.10    1.30
   2   7   2   27.20    1.30
   2   7   2   27.80    1.40
  -3  -7  -2   73.69    2.40
  -3  -7  -2   73.89    2.60
   3   7   2   70.19    2.40
   3   7   2   69.69    2.50
   3   7   2   77.49    2.60
   3   7   2   76.99    2.50
   3   7   2   72.49    2.40
  -4  -7  -2   16.60    1.00
  -4  -7  -2   17.40    1.10
  -4  -7  -2   17.10    1.20
   4   7   2   17.10    1.20
   4   7   2   17.10    1.00
   4   7   2   16.80    1.20
   4   7   2   16.60    1.10
  -5  -7  -2   49.10    1.80
  -5  -7  -2   47.20    2.00
  -5  -7  -2   45.70    1.90
   5   7   2   46.80    2.10
   5   7   2   48.10    2.10
   5   7   2   47.10    1.80
   5   7   2   47.00    1.90
  -6  -7  -2   74.69    2.60
  -6  -7  -2   80.59    2.90
  -6  -7  -2   75.09    2.70
   6   7   2   76.39    2.80
   6   7   2   77.99    3.00
   6   7   2   78.39    2.70
   6   7   2   82.09    3.20
  -7  -7  -2    8.40    1.00
   7   7   2    7.40    1.10
   7   7   2    7.30    1.00
   7   7   2    5.90    1.00
   7   7   2    8.30    1.00
  -8  -7  -2   -0.50    0.50
   8   7   2   -0.40    0.60
   8   7   2   -0.30    0.80
   8   7   2   -0.30    0.80
   8   7   2   -0.20    0.50
  -9  -7  -2    0.60    0.70
   9   7   2    0.90    0.70
   9   7   2    0.00    0.90
   9   7   2   -0.30    0.90
   9   7   2    1.20    0.70
   4  -8  -2    1.20    0.80
   4  -8  -2    2.50    0.90
   4  -8  -2    1.80    0.70
  -4   8   2    1.40    0.80
  -4   8   2    2.10    0.90
  -4   8   2    2.90    1.00
   3  -8  -2    2.80    0.70
   3  -8  -2    2.20    0.80
   3  -8  -2    2.60    0.80
  -3   8   2    2.00    0.70
  -3   8   2    1.80    0.90
   2  -8  -2   17.70    1.20
   2  -8  -2   14.10    1.20
  -2   8   2   13.90    1.20
  -2   8   2   17.50    1.40
  -2   8   2   15.30    1.10
   1  -8  -2   11.50    0.90
   1  -8  -2    9.10    1.00
   1  -8  -2   11.40    1.10
  -1   8   2   11.40    1.00
  -1   8   2   12.20    1.00
  -1   8   2    9.50    1.10
  -1   8   2   12.50    1.20
   0  -8  -2   61.69    2.20
   0  -8  -2   61.79    2.20
   0  -8  -2   66.59    2.30
   0   8   2   64.79    2.40
   0   8   2   63.29    2.40
   0   8   2   64.19    2.40
   0   8   2   68.59    2.40
  -1  -8  -2    0.10    0.40
  -1  -8  -2   -0.40    0.40
  -1  -8  -2    0.10    0.40
   1   8   2    0.20    0.50
   1   8   2    0.30    0.40
   1   8   2    0.40    0.40
   1   8   2    1.90    0.60
  -2  -8  -2    0.20    0.40
  -2  -8  -2    1.30    0.50
   2   8   2    1.00    0.50
   2   8   2    0.30    0.40
   2   8   2    0.50    0.40
   2   8   2    0.70    0.50
  -3  -8  -2   42.60    1.90
  -3  -8  -2   45.70    1.80
   3   8   2   43.50    2.00
   3   8   2   43.50    1.80
   3   8   2   46.80    2.00
   3   8   2   45.20    1.80
  -4  -8  -2    2.00    0.70
  -4  -8  -2    2.10    0.60
  -4  -8  -2    2.00    0.60
   4   8   2    2.50    0.60
   4   8   2    1.30    0.50
   4   8   2    2.60    0.70
   4   8   2    2.90    0.60
   4   8   2    2.50    0.60
  -5  -8  -2   18.20    1.10
  -5  -8  -2   18.90    1.20
  -5  -8  -2   18.30    1.30
   5   8   2   20.30    1.50
   5   8   2   18.70    1.20
   5   8   2   20.10    1.40
   5   8   2   17.80    1.20
  -6  -8  -2    3.40    0.70
  -6  -8  -2    4.80    0.80
  -6  -8  -2    5.10    1.00
   6   8   2    2.50    0.80
   6   8   2    5.30    0.80
   6   8   2    3.60    0.90
   6   8   2    4.70    0.80
  -7  -8  -2   -0.50    0.60
  -7  -8  -2   -0.60    0.50
   7   8   2   -0.20    0.50
   7   8   2    0.40    0.50
   7   8   2   -0.90    0.70
   7   8   2    0.50    0.60
  -8  -8  -2    1.00    0.70
   8   8   2   -0.70    0.70
   8   8   2   -1.00    0.80
   8   8   2   -0.30    0.60
   8   8   2    0.10    0.60
  -9  -8  -2    9.70    1.20
   9   8   2    6.70    1.40
   9   8   2    7.80    1.40
   9   8   2    9.90    1.20
   9   8   2   12.10    1.30
   3  -9  -2    5.40    0.90
   3  -9  -2    6.00    1.10
  -3   9   2    6.00    1.20
  -3   9   2    6.20    1.00
   2  -9  -2    3.20    0.90
   2  -9  -2    2.10    0.80
   2  -9  -2    3.50    0.80
  -2   9   2    3.20    0.90
  -2   9   2    3.40    1.00
   1  -9  -2   12.40    1.10
   1  -9  -2   11.00    1.10
  -1   9   2   15.00    1.20
  -1   9   2   10.30    1.20
  -1   9   2   15.90    1.40
   0  -9  -2    8.50    1.00
   0  -9  -2    8.60    1.00
   0  -9  -2    8.80    0.90
   0   9   2    9.10    1.00
   0   9   2    8.70    1.00
   0   9   2    8.40    1.00
   0   9   2    8.60    1.00
  -1  -9  -2   -0.80    0.40
  -1  -9  -2    0.70    0.50
  -1  -9  -2   -0.90    0.40
   1   9   2    0.20    0.50
   1   9   2    0.50    0.50
   1   9   2    0.30    0.50
   1   9   2    0.50    0.60
  -2  -9  -2    0.00    0.50
  -2  -9  -2    0.90    0.50
   2   9   2    0.40    0.50
   2   9   2   -0.30    0.50
   2   9   2    0.70    0.50
   2   9   2    0.80    0.50
  -3  -9  -2    0.40    0.50
  -3  -9  -2    0.70    0.60
   3   9   2    1.50    0.60
   3   9   2    1.10    0.60
   3   9   2    0.10    0.50
   3   9   2    1.20    0.50
  -4  -9  -2    3.50    0.90
  -4  -9  -2    4.00    0.70
  -4  -9  -2    4.00    0.70
   4   9   2    3.80    0.90
   4   9   2    3.90    0.80
   4   9   2    4.60    0.70
   4   9   2    2.80    0.70
   4   9   2    4.20    0.70
  -5  -9  -2    0.60    0.70
  -5  -9  -2   -1.40    0.40
  -5  -9  -2   -0.50    0.50
   5   9   2    0.50    0.50
   5   9   2   -0.10    0.50
   5   9   2   -0.60    0.50
   5   9   2    0.30    0.60
  -6  -9  -2    0.10    0.50
  -6  -9  -2   -1.20    0.70
  -6  -9  -2   -0.20    0.50
   6   9   2   -0.60    0.60
   6   9   2   -0.40    0.50
   6   9   2    0.60    0.60
  -7  -9  -2    1.40    0.60
  -7  -9  -2    1.80    0.80
   7   9   2    1.00    0.90
   7   9   2    2.00    0.70
   7   9   2    1.50    0.80
   7   9   2    2.50    0.80
  -8  -9  -2    0.90    0.70
   8   9   2    0.20    0.60
   8   9   2    0.90    0.70
   8   9   2   -1.10    0.90
   8   9   2   -1.20    0.80
   2 -10  -2    3.90    0.90
   2 -10  -2    3.70    0.90
   2 -10  -2    1.80    0.80
  -2  10   2    1.60    0.90
  -2  10   2    2.00    0.90
   1 -10  -2    2.80    0.80
   1 -10  -2    4.40    0.90
  -1  10   2    4.30    1.00
  -1  10   2    4.70    1.00
   0 -10  -2    3.20    0.80
   0 -10  -2    1.70    0.70
   0  10   2    2.80    0.70
   0  10   2    2.80    0.80
   0  10   2    2.80    0.80
  -1 -10  -2    2.00    0.70
  -1 -10  -2    3.10    0.80
  -1 -10  -2    1.50    0.60
   1  10   2    1.80    0.70
   1  10   2    2.60    0.80
   1  10   2    3.00    0.80
  -2 -10  -2   -0.90    0.50
  -2 -10  -2    0.30    0.50
   2  10   2    0.20    0.50
   2  10   2    0.00    0.50
   2  10   2   -0.80    0.50
   2  10   2    0.90    0.60
  -3 -10  -2    5.20    0.90
  -3 -10  -2    4.60    0.80
   3  10   2    5.30    0.80
   3  10   2    3.50    0.80
   3  10   2    3.10    0.70
   3  10   2    3.90    0.80
  -4 -10  -2    2.30    0.80
  -4 -10  -2    2.50    0.70
  -4 -10  -2    1.80    0.60
   4  10   2    2.00    0.70
   4  10   2    2.70    0.70
   4  10   2    3.30    0.80
   4  10   2    2.50    0.70
   4  10   2    1.50    0.80
  -5 -10  -2    0.70    0.60
  -5 -10  -2   -0.20    0.60
  -5 -10  -2   -2.30    0.50
   5  10   2   -0.30    0.60
   5  10   2   -1.00    0.60
   5  10   2   -0.10    0.50
  -6 -10  -2   -1.10    0.60
  -6 -10  -2    0.70    0.60
  -6 -10  -2    0.70    0.80
   6  10   2    0.20    0.50
   6  10   2   -0.40    0.70
   6  10   2   -0.20    0.50
  -7 -10  -2    0.00    0.60
  -7 -10  -2    1.80    0.80
   7  10   2    0.10    0.80
   7  10   2    2.00    0.70
   7  10   2    1.00    0.90
   8  10   2    0.90    0.70
   0 -11  -2    2.90    0.80
   0 -11  -2    0.70    0.70
   0  11   2    0.90    0.70
   0  11   2    1.20    0.80
  -1 -11  -2   -0.10    0.70
   1  11   2   -0.70    0.60
   1  11   2    0.00    0.60
   1  11   2    0.30    0.70
  -2 -11  -2    0.70    0.60
  -2 -11  -2    0.50    0.60
   2  11   2    0.00    0.60
   2  11   2   -0.30    0.60
   2  11   2    0.20    0.60
  -3 -11  -2    0.40    0.70
  -3 -11  -2    0.60    0.60
   3  11   2    2.20    0.70
   3  11   2    1.20    0.70
   3  11   2    0.30    0.70
  -4 -11  -2    0.30    0.60
  -4 -11  -2    0.60    0.70
  -4 -11  -2    0.60    0.80
   4  11   2    0.50    0.70
   4  11   2    1.10    0.70
   4  11   2   -0.60    0.70
   4  11   2    1.40    1.00
  -5 -11  -2    1.80    0.80
  -5 -11  -2    0.60    0.80
  -5 -11  -2    1.00    0.70
   5  11   2    0.50    0.70
   5  11   2    1.40    0.80
  -6 -11  -2   -0.20    0.70
  -6 -11  -2   -0.10    0.60
   6  11   2   -0.70    0.90
   6  11   2   -0.70    0.60
  -3 -12  -2   -0.40    0.70
  -3 -12  -2    0.10    0.70
   3  12   2    0.30    0.70
   3  12   2   -0.70    0.70
   3  12   2    0.50    0.70
  -4 -12  -2    0.60    0.70
  -4 -12  -2    0.80    0.60
   4  12   2    0.30    0.80
  -6 -11   3    0.90    0.70
   5  11  -3    1.00    0.90
   5  11  -3    1.00    0.60
   5  11  -3    1.60    0.90
  -5 -11   3    1.30    0.80
  -5 -11   3    0.90    0.60
  -5 -11   3    0.50    0.60
   4  11  -3    2.80    0.90
   4  11  -3    1.90    0.70
   4  11  -3    1.40    0.90
  -4 -11   3    1.30    0.60
  -4 -11   3    1.40    0.70
  -4 -11   3    1.30    0.80
   3  11  -3    1.80    0.70
   3  11  -3    2.10    0.80
   3  11  -3    2.50    0.70
   3  11  -3    1.60    0.90
  -3 -11   3    3.10    0.70
  -3 -11   3    2.50    0.90
  -3 -11   3    2.40    0.70
   2  11  -3    1.70    0.70
   2  11  -3    0.90    0.60
   2  11  -3    0.10    0.70
  -2 -11   3    0.40    0.80
  -2 -11   3    0.10    0.50
   1  11  -3    1.60    0.70
   1  11  -3   -0.10    0.60
   1  11  -3   -0.20    0.50
  -1 -11   3    0.70    0.70
  -1 -11   3    0.70    0.70
  -1 -11   3    0.00    0.50
   0  11  -3    0.50    0.60
   0  11  -3    0.50    0.60
   0  11  -3    1.30    0.80
   0 -11   3    0.30    0.80
   0 -11   3    1.10    0.80
   0 -11   3    0.50    0.60
  -1  11  -3   -0.10    0.60
  -1  11  -3    0.40    0.70
  -1  11  -3    0.30    0.60
   1 -11   3    1.70    0.90
   1 -11   3    0.20    0.50
   1 -11   3    0.20    0.60
   1 -11   3    0.60    0.80
   7  10  -3   -0.60    0.90
   7  10  -3   -0.70    0.50
   7  10  -3    0.00    0.80
   7  10  -3    0.70    0.60
  -7 -10   3   -0.10    0.60
  -7 -10   3   -0.30    0.60
   6  10  -3    0.00    0.80
   6  10  -3    0.40    0.80
   6  10  -3    1.00    0.60
   6  10  -3    0.50    0.50
  -6 -10   3    1.00    0.70
  -6 -10   3    0.90    0.70
  -6 -10   3    1.00    0.60
  -6 -10   3    1.00    0.60
   5  10  -3   -0.80    0.40
   5  10  -3    0.00    0.70
   5  10  -3   -0.30    0.80
  -5 -10   3   -0.70    0.50
  -5 -10   3   -0.30    0.60
  -5 -10   3   -0.60    0.40
  -5 -10   3   -0.30    0.60
   4  10  -3    0.10    0.70
   4  10  -3    0.60    0.50
   4  10  -3    1.00    0.70
  -4 -10   3   -0.20    0.50
  -4 -10   3    0.40    0.70
  -4 -10   3    0.40    0.50
   3  10  -3    5.20    1.10
   3  10  -3    6.70    0.90
   3  10  -3    6.50    0.90
  -3 -10   3    7.10    0.80
  -3 -10   3    8.70    0.90
  -3 -10   3    5.60    1.10
   2  10  -3   34.20    2.10
   2  10  -3   36.50    1.70
   2  10  -3   33.10    1.70
  -2 -10   3   36.90    2.00
  -2 -10   3   34.60    1.60
   1  10  -3    2.10    0.80
   1  10  -3    2.20    0.70
   1  10  -3    1.80    0.60
  -1 -10   3    3.40    1.00
  -1 -10   3    3.40    0.70
  -1 -10   3    2.30    0.70
   0  10  -3    4.90    0.80
   0  10  -3    6.40    0.90
   0  10  -3    4.00    0.90
   0 -10   3    5.40    0.80
   0 -10   3    7.10    1.20
   0 -10   3    5.10    0.90
   0 -10   3    6.00    0.80
  -1  10  -3    0.30    0.70
  -1  10  -3    0.60    0.60
  -1  10  -3    0.40    0.60
   1 -10   3   -0.30    0.50
   1 -10   3    0.60    0.80
   1 -10   3   -0.10    0.60
   1 -10   3   -0.30    0.50
  -2  10  -3    1.00    0.60
  -2  10  -3    0.20    0.70
  -2  10  -3    0.70    0.80
   2 -10   3   -0.20    0.60
   2 -10   3   -0.10    0.50
   2 -10   3    0.50    0.70
   2 -10   3   -0.30    0.60
   7   9  -3    0.60    0.60
   7   9  -3   -0.10    0.50
   7   9  -3   -1.00    0.80
   7   9  -3   -0.10    0.90
  -7  -9   3    0.60    0.70
  -7  -9   3   -0.10    0.60
   6   9  -3   -0.10    0.70
   6   9  -3   -0.30    0.70
   6   9  -3   -0.30    0.50
   6   9  -3   -0.60    0.50
  -6  -9   3   -1.10    0.50
  -6  -9   3   -0.50    0.60
  -6  -9   3    0.10    0.70
   5   9  -3    0.20    0.50
   5   9  -3    0.40    0.70
   5   9  -3   -0.70    0.60
  -5  -9   3   -0.70    0.60
  -5  -9   3   -0.60    0.60
  -5  -9   3    0.10    0.50
  -5  -9   3    0.10    0.40
   4   9  -3    1.80    0.80
   4   9  -3    1.70    0.70
   4   9  -3    2.60    0.60
  -4  -9   3    1.30    0.50
  -4  -9   3    2.50    0.60
  -4  -9   3    3.40    0.80
  -4  -9   3    1.80    0.60
   3   9  -3    3.00    0.90
   3   9  -3    3.50    0.90
   3   9  -3    3.10    0.60
   3   9  -3    3.90    0.70
  -3  -9   3    3.40    0.60
  -3  -9   3    3.00    0.60
  -3  -9   3    2.90    0.90
  -3  -9   3    3.40    0.60
   2   9  -3    2.40    0.70
   2   9  -3    1.00    0.50
   2   9  -3    1.30    0.50
   2   9  -3    1.10    0.70
  -2  -9   3    2.20    0.90
  -2  -9   3    1.30    0.50
   1   9  -3    8.00    1.10
   1   9  -3    7.90    0.80
   1   9  -3    7.90    1.10
   1   9  -3    9.90    1.00
  -1  -9   3    7.60    1.10
  -1  -9   3    8.20    0.80
   0   9  -3    1.50    0.50
   0   9  -3    1.90    0.60
   0   9  -3    1.10    0.70
   0   9  -3    1.30    0.60
   0   9  -3    2.10    0.70
   0  -9   3    0.90    0.50
   0  -9   3    1.50    0.50
   0  -9   3    2.50    0.90
   0  -9   3    0.80    0.60
  -1   9  -3    1.20    0.60
  -1   9  -3    1.30    0.70
  -1   9  -3    1.80    0.70
  -1   9  -3    0.80    0.60
   1  -9   3    0.90    0.60
   1  -9   3    1.40    0.80
   1  -9   3    1.20    0.50
   1  -9   3    2.70    0.80
  -2   9  -3    0.60    0.70
  -2   9  -3    0.70    0.60
  -2   9  -3    0.10    0.60
   2  -9   3    1.10    0.70
   2  -9   3    0.30    0.70
   2  -9   3    0.80    0.50
   2  -9   3    1.20    0.60
  -3   9  -3    5.00    1.10
  -3   9  -3    6.60    1.10
  -3   9  -3    5.50    0.90
   3  -9   3    6.80    1.10
   3  -9   3    7.70    1.20
   3  -9   3    7.10    1.00
   3  -9   3    6.90    0.90
  -4   9  -3    5.20    1.10
  -4   9  -3    2.40    0.80
  -4   9  -3    3.50    0.90
   4  -9   3    3.80    0.90
   4  -9   3    2.80    0.70
   4  -9   3    3.70    1.10
   8   8  -3   -1.90    0.80
   8   8  -3   -1.00    0.50
   8   8  -3   -2.30    0.90
   8   8  -3   -0.20    0.50
  -8  -8   3    0.30    0.70
  -8  -8   3    0.30    0.80
  -8  -8   3   -0.40    0.50
   7   8  -3    1.40    0.80
   7   8  -3    1.90    0.70
   7   8  -3    0.60    0.80
   7   8  -3    1.30    0.60
  -7  -8   3    1.30    0.80
  -7  -8   3    2.10    0.70
   6   8  -3    1.20    0.70
   6   8  -3    1.50    0.60
   6   8  -3    2.20    0.80
   6   8  -3    2.50    0.60
  -6  -8   3    2.40    0.90
  -6  -8   3    1.80    0.60
  -6  -8   3    1.80    0.60
   5   8  -3    0.90    0.50
   5   8  -3    1.20    0.70
   5   8  -3    1.00    0.60
   5   8  -3    1.90    0.60
   5   8  -3    0.50    0.70
  -5  -8   3    1.30    0.70
  -5  -8   3    0.80    0.50
  -5  -8   3    0.00    0.60
  -5  -8   3    0.40    0.50
   4   8  -3   13.00    1.30
   4   8  -3   15.80    1.30
   4   8  -3   11.10    1.20
   4   8  -3   15.10    1.00
  -4  -8   3   14.50    1.20
  -4  -8   3   13.80    1.20
  -4  -8   3   14.10    1.00
  -4  -8   3   14.10    0.90
   3   8  -3    4.10    0.80
   3   8  -3    1.40    0.60
   3   8  -3    3.50    0.60
   3   8  -3    3.90    0.80
  -3  -8   3    4.00    0.70
  -3  -8   3    3.50    0.50
  -3  -8   3    3.10    0.60
  -3  -8   3    2.60    0.80
   2   8  -3   64.99    2.20
   2   8  -3   67.89    2.80
   2   8  -3   65.19    2.70
   2   8  -3   62.69    2.10
  -2  -8   3   67.39    2.60
  -2  -8   3   63.99    2.20
  -2  -8   3   61.59    2.10
   1   8  -3   55.89    2.40
   1   8  -3   59.29    2.60
   1   8  -3   60.59    2.10
   1   8  -3   55.59    2.00
   1   8  -3   59.39    2.00
  -1  -8   3   58.99    2.40
  -1  -8   3   54.09    2.00
  -1  -8   3   59.39    1.90
   0   8  -3   -0.30    0.40
   0   8  -3   -0.60    0.40
   0   8  -3   -0.80    0.40
   0   8  -3   -0.20    0.50
   0   8  -3   -0.30    0.40
   0  -8   3    0.60    0.40
   0  -8   3    0.50    0.60
   0  -8   3   -0.30    0.40
  -1   8  -3    2.10    0.60
  -1   8  -3    1.40    0.60
  -1   8  -3    2.00    0.70
  -1   8  -3    3.10    0.70
   1  -8   3    1.90    0.50
   1  -8   3    3.30    0.80
   1  -8   3    2.20    0.70
   1  -8   3    2.50    0.60
  -2   8  -3    0.80    0.60
  -2   8  -3    0.50    0.60
  -2   8  -3   -0.20    0.50
  -2   8  -3    1.10    0.60
   2  -8   3    0.60    0.50
   2  -8   3    0.70    0.70
   2  -8   3    1.10    0.70
   2  -8   3    0.40    0.40
  -3   8  -3   23.40    1.60
  -3   8  -3   24.90    1.80
  -3   8  -3   23.70    1.70
  -3   8  -3   22.90    1.40
   3  -8   3   22.60    1.30
   3  -8   3   23.80    1.40
   3  -8   3   22.90    1.60
   3  -8   3   23.20    1.50
  -4   8  -3    0.70    0.60
  -4   8  -3   -0.20    0.60
  -4   8  -3   -0.50    0.70
  -4   8  -3    0.40    0.70
   4  -8   3    0.20    0.50
   4  -8   3   -0.10    0.60
   4  -8   3   -1.40    0.50
   4  -8   3   -0.80    0.60
  -5   8  -3    0.30    0.60
  -5   8  -3    0.70    0.90
  -5   8  -3    0.60    0.70
  -5   8  -3    1.10    0.70
   5  -8   3    0.90    0.90
   5  -8   3    1.10    0.60
   8   7  -3    2.20    0.70
   8   7  -3    0.80    0.70
   8   7  -3   -0.60    1.00
   8   7  -3   -1.00    0.90
  -8  -7   3    1.90    1.00
  -8  -7   3    0.50    0.70
  -8  -7   3    2.30    0.80
   7   7  -3    6.80    1.10
   7   7  -3    7.60    0.90
   7   7  -3    5.90    1.10
   7   7  -3    6.30    0.80
  -7  -7   3    7.20    0.90
  -7  -7   3    7.10    1.20
   6   7  -3    9.10    0.90
   6   7  -3    8.40    1.20
   6   7  -3    8.80    1.20
   6   7  -3    7.20    1.00
   6   7  -3    8.70    0.90
  -6  -7   3   10.20    0.90
  -6  -7   3    7.70    0.90
   5   7  -3   30.00    1.70
   5   7  -3   31.40    1.80
   5   7  -3   33.60    1.40
   5   7  -3   32.00    1.40
   5   7  -3   33.60    1.90
  -5  -7   3   31.50    1.50
  -5  -7   3   31.30    1.40
  -5  -7   3   31.30    1.40
   4   7  -3  111.29    3.80
   4   7  -3  106.89    3.60
   4   7  -3  106.59    3.60
   4   7  -3  108.89    3.10
  -4  -7   3  102.89    3.10
  -4  -7   3  102.89    3.30
  -4  -7   3  109.99    3.50
  -4  -7   3  100.19    3.00
   3   7  -3   32.70    1.80
   3   7  -3   36.50    1.80
   3   7  -3   35.50    1.70
   3   7  -3   35.10    1.40
  -3  -7   3   35.50    1.30
  -3  -7   3   34.00    1.60
  -3  -7   3   34.60    1.70
  -3  -7   3   32.80    1.40
   2   7  -3   56.39    1.90
   2   7  -3   56.89    1.90
   2   7  -3   58.79    1.70
   2   7  -3   58.79    2.40
   2   7  -3   59.49    2.30
  -2  -7   3   55.89    2.00
  -2  -7   3   53.69    1.80
  -2  -7   3   53.89    2.20
   1   7  -3   33.90    1.70
   1   7  -3   35.00    1.40
   1   7  -3   35.20    1.40
   1   7  -3   37.90    1.40
   1   7  -3   37.40    1.70
  -1  -7   3   36.10    1.40
  -1  -7   3   35.30    1.70
  -1  -7   3   38.20    1.40
   0   7  -3    4.00    0.70
   0   7  -3    3.40    0.70
   0   7  -3    4.10    0.60
   0   7  -3    3.30    0.60
   0  -7   3    4.20    0.50
   0  -7   3    4.30    0.50
   0  -7   3    4.30    0.40
   0  -7   3    4.90    0.80
  -1   7  -3    7.10    0.90
  -1   7  -3    7.50    0.80
  -1   7  -3    7.40    0.90
  -1   7  -3    7.80    0.80
   1  -7   3    8.50    0.90
   1  -7   3    8.00    0.70
   1  -7   3    7.40    0.70
   1  -7   3    8.40    1.00
  -2   7  -3    3.80    0.80
  -2   7  -3    3.80    0.70
  -2   7  -3    5.20    0.80
  -2   7  -3    4.60    0.70
   2  -7   3    4.90    0.70
   2  -7   3    3.80    0.80
   2  -7   3    5.00    0.70
   2  -7   3    4.50    0.80
  -3   7  -3    0.50    0.60
  -3   7  -3    0.50    0.50
  -3   7  -3    0.20    0.50
  -3   7  -3    1.50    0.60
   3  -7   3    0.30    0.40
   3  -7   3    0.10    0.60
   3  -7   3   -1.10    0.50
  -4   7  -3   15.80    1.40
  -4   7  -3   14.90    1.20
  -4   7  -3   14.90    1.50
   4  -7   3   13.30    1.30
   4  -7   3   14.00    1.10
   4  -7   3   14.30    1.10
  -5   7  -3    2.70    0.80
  -5   7  -3    3.50    1.00
  -5   7  -3    3.20    0.90
   5  -7   3    2.50    0.70
   5  -7   3    2.00    0.90
  -6   7  -3   -0.60    0.70
  -6   7  -3    2.70    0.80
  -6   7  -3    0.70    0.90
   6  -7   3    2.30    0.90
   6  -7   3    1.70    0.70
   9   6  -3    2.90    1.20
   9   6  -3    4.60    1.00
   9   6  -3    3.00    1.10
  -9  -6   3    3.10    0.90
  -9  -6   3    7.90    1.50
  -9  -6   3    4.20    0.90
   8   6  -3    9.80    1.50
   8   6  -3    9.90    1.40
   8   6  -3   10.70    1.10
  -8  -6   3   11.10    1.20
  -8  -6   3   12.90    1.40
   7   6  -3    6.00    0.80
   7   6  -3    6.10    1.10
   7   6  -3    6.70    1.10
   7   6  -3    6.60    0.80
  -7  -6   3    5.30    0.90
  -7  -6   3    6.30    0.90
   6   6  -3    1.20    0.70
   6   6  -3    0.00    0.40
   6   6  -3    0.90    0.60
   6   6  -3    0.80    0.50
   6   6  -3    0.00    0.60
  -6  -6   3   -0.30    0.40
  -6  -6   3    1.10    0.40
   5   6  -3   -0.40    0.40
   5   6  -3   -0.40    0.40
   5   6  -3    0.20    0.50
   5   6  -3    0.00    0.50
   5   6  -3   -0.50    0.50
  -5  -6   3    0.00    0.40
  -5  -6   3   -0.50    0.30
   4   6  -3  102.29    3.40
   4   6  -3  108.49    3.00
   4   6  -3  109.59    3.60
   4   6  -3  104.29    3.40
  -4  -6   3  106.29    3.20
  -4  -6   3   99.09    3.00
  -4  -6   3  105.19    3.00
   3   6  -3   72.19    2.20
   3   6  -3   67.39    2.50
   3   6  -3   70.69    2.50
   3   6  -3   69.79    2.70
  -3  -6   3   71.09    2.20
  -3  -6   3   72.09    2.40
  -3  -6   3   71.99    2.50
  -3  -6   3   69.19    2.10
   2   6  -3   80.29    2.40
   2   6  -3   83.09    2.10
   2   6  -3   81.09    2.80
   2   6  -3   80.79    2.80
   2   6  -3   81.99    2.40
  -2  -6   3   80.69    2.30
  -2  -6   3   76.39    2.60
  -2  -6   3   82.99    2.60
   1   6  -3   34.40    1.60
   1   6  -3   34.30    1.20
   1   6  -3   34.90    1.60
   1   6  -3   34.50    1.20
   1   6  -3   34.40    1.30
  -1  -6   3   34.50    1.20
  -1  -6   3   35.30    1.30
  -1  -6   3   33.40    1.50
   0   6  -3   -0.30    0.30
   0   6  -3    0.30    0.40
   0   6  -3    0.20    0.30
   0   6  -3    0.20    0.40
   0  -6   3   -0.70    0.40
   0  -6   3   -0.20    0.20
   0  -6   3    0.40    0.30
   0  -6   3   -0.10    0.20
  -1   6  -3   11.20    0.90
  -1   6  -3   10.90    0.70
  -1   6  -3   11.30    0.90
  -1   6  -3   12.40    0.90
   1  -6   3   11.10    0.70
   1  -6   3    9.90    0.70
   1  -6   3   10.70    0.90
   1  -6   3   10.00    0.80
  -2   6  -3    8.20    0.80
  -2   6  -3    9.40    0.90
  -2   6  -3    6.70    0.90
  -2   6  -3    6.90    0.70
   2  -6   3    9.00    0.90
   2  -6   3    9.20    0.90
   2  -6   3    7.40    0.70
  -3   6  -3   19.00    1.20
  -3   6  -3   18.90    1.20
  -3   6  -3   19.50    1.40
   3  -6   3   18.50    1.20
   3  -6   3   20.50    1.10
   3  -6   3   17.90    1.20
  -4   6  -3   67.29    2.70
  -4   6  -3   57.59    2.40
  -4   6  -3   62.39    2.30
   4  -6   3   57.19    2.10
   4  -6   3   62.69    2.40
   4  -6   3   60.89    2.20
  -5   6  -3   15.20    1.20
  -5   6  -3   14.90    1.30
  -5   6  -3   17.20    1.50
   5  -6   3   16.80    1.50
   5  -6   3   16.10    1.10
  -6   6  -3   14.20    1.60
  -6   6  -3   11.30    1.30
  -6   6  -3   15.60    1.60
   6  -6   3   11.10    1.20
   6  -6   3   14.40    1.50
   9   5  -3   -0.50    0.60
   9   5  -3   -1.80    0.90
   9   5  -3   -0.50    0.70
  -9  -5   3   -0.10    0.70
  -9  -5   3   -1.10    0.50
  -9  -5   3   -0.10    1.00
   8   5  -3    0.30    0.80
   8   5  -3    0.60    1.00
   8   5  -3    0.40    0.70
  -8  -5   3    1.30    0.80
  -8  -5   3   -0.20    0.60
   7   5  -3    0.70    0.80
   7   5  -3    1.20    0.80
   7   5  -3    2.20    0.70
   7   5  -3    1.70    0.90
  -7  -5   3    1.10    0.60
  -7  -5   3    1.50    0.60
   6   5  -3    2.60    0.60
   6   5  -3    2.20    0.50
   6   5  -3    2.40    0.80
   6   5  -3    2.70    0.70
   6   5  -3    3.20    0.80
  -6  -5   3    3.40    0.50
  -6  -5   3    2.20    0.60
   5   5  -3   16.30    1.20
   5   5  -3   15.40    0.90
   5   5  -3   16.40    1.20
   5   5  -3   17.10    1.20
   5   5  -3   16.40    0.90
  -5  -5   3   17.20    0.90
  -5  -5   3   16.20    0.90
   4   5  -3   64.99    2.30
   4   5  -3   62.29    2.40
   4   5  -3   65.09    2.00
   4   5  -3   62.99    2.00
   4   5  -3   65.89    2.40
  -4  -5   3   63.49    2.00
  -4  -5   3   67.29    2.10
   3   5  -3    9.30    0.80
   3   5  -3    9.90    0.90
   3   5  -3    9.80    0.90
   3   5  -3    9.00    0.60
  -3  -5   3    9.80    0.70
  -3  -5   3    9.90    0.60
  -3  -5   3   11.40    0.60
  -3  -5   3    8.40    0.80
   2   5  -3    1.60    0.20
   2   5  -3    1.60    0.40
   2   5  -3    1.80    0.30
   2   5  -3    1.10    0.40
   2   5  -3    1.70    0.30
  -2  -5   3    1.80    0.40
  -2  -5   3    1.90    0.40
  -2  -5   3    0.90    0.40
  -2  -5   3    1.40    0.30
  -2  -5   3    1.50    0.30
   1   5  -3    0.00    0.20
   1   5  -3    0.20    0.30
   1   5  -3    0.10    0.30
   1   5  -3    0.10    0.20
   1   5  -3    0.00    0.20
  -1  -5   3    0.70    0.20
  -1  -5   3    0.70    0.30
  -1  -5   3   -0.20    0.40
  -1  -5   3    0.10    0.20
   0   5  -3  227.38    6.10
   0   5  -3  214.58    5.60
   0   5  -3  225.28    5.70
   0   5  -3  223.88    6.00
   0  -5   3  228.98    5.60
   0  -5   3  226.98    5.60
   0  -5   3  224.28    5.60
   0  -5   3  217.08    5.90
  -1   5  -3   82.79    2.50
  -1   5  -3   85.39    2.80
  -1   5  -3   83.49    2.20
  -1   5  -3   85.49    2.50
  -1   5  -3   81.69    2.60
   1  -5   3   81.39    2.40
   1  -5   3   84.99    2.60
   1  -5   3   85.99    2.40
   1  -5   3   82.89    2.60
  -2   5  -3   22.20    1.00
  -2   5  -3   22.60    1.10
  -2   5  -3   24.70    0.80
  -2   5  -3   22.70    1.30
   2  -5   3   22.60    1.00
   2  -5   3   24.10    1.20
   2  -5   3   24.10    0.70
   2  -5   3   23.40    1.20
  -3   5  -3  152.58    4.40
  -3   5  -3  168.98    4.80
  -3   5  -3  157.98    4.50
   3  -5   3  163.88    4.00
   3  -5   3  162.28    4.40
   3  -5   3  165.78    4.50
   3  -5   3  163.38    4.60
  -4   5  -3   62.69    2.20
  -4   5  -3   59.29    2.20
  -4   5  -3   59.59    2.50
   4  -5   3   60.59    2.30
   4  -5   3   62.59    2.10
   4  -5   3   60.59    2.10
  -5   5  -3   12.40    1.10
  -5   5  -3   10.80    1.10
  -5   5  -3   11.30    1.30
   5  -5   3   10.10    0.90
   5  -5   3   11.10    1.00
   5  -5   3   11.90    1.10
   5  -5   3   12.00    1.20
  -6   5  -3    7.90    1.10
  -6   5  -3    9.00    1.30
  -6   5  -3    8.40    1.00
   6  -5   3    7.80    1.00
   6  -5   3    6.40    0.90
   6  -5   3    8.60    1.20
  -7   5  -3    2.70    1.00
  -7   5  -3    3.90    0.90
  -7   5  -3    2.00    0.90
   7  -5   3    2.00    0.90
   7  -5   3    1.50    0.70
   7  -5   3    3.00    0.80
   9   4  -3    0.10    0.80
   9   4  -3    1.20    0.70
   9   4  -3   -1.10    0.90
  -9  -4   3    0.00    0.60
  -9  -4   3   -1.10    0.90
  -9  -4   3   -0.70    0.70
   8   4  -3    5.40    1.00
   8   4  -3    4.00    1.30
   8   4  -3    5.10    0.90
  -8  -4   3    5.40    0.90
  -8  -4   3    6.60    1.10
   7   4  -3    2.30    0.60
   7   4  -3    2.40    0.70
   7   4  -3    2.00    0.80
   7   4  -3    2.00    0.90
  -7  -4   3    3.20    0.70
  -7  -4   3    1.60    0.60
   6   4  -3    1.50    0.60
   6   4  -3    0.20    0.60
   6   4  -3    1.50    0.50
   6   4  -3    0.60    0.60
  -6  -4   3    1.60    0.50
  -6  -4   3    1.70    0.50
   5   4  -3    0.00    0.40
   5   4  -3   -0.20    0.30
   5   4  -3    0.20    0.30
   5   4  -3   -0.20    0.40
   5   4  -3   -0.50    0.40
  -5  -4   3    0.00    0.30
  -5  -4   3    0.00    0.30
   4   4  -3   28.90    1.40
   4   4  -3   29.10    1.10
   4   4  -3   28.10    1.40
   4   4  -3   30.10    1.30
   4   4  -3   30.10    1.10
  -4  -4   3   29.20    1.10
  -4  -4   3   28.20    1.10
   3   4  -3  138.39    3.60
   3   4  -3  134.89    3.90
   3   4  -3  135.89    3.60
   3   4  -3  137.69    4.00
   3   4  -3  139.29    4.00
  -3  -4   3  137.49    3.60
  -3  -4   3  138.19    3.70
  -3  -4   3  141.89    4.00
  -3  -4   3  137.49    3.60
   2   4  -3   21.70    0.80
   2   4  -3   22.10    0.60
   2   4  -3   19.20    1.00
   2   4  -3   20.90    1.00
   2   4  -3   20.40    1.00
  -2  -4   3   22.10    1.00
  -2  -4   3   20.50    0.80
  -2  -4   3   21.80    1.10
  -2  -4   3   21.60    1.00
  -2  -4   3   22.10    0.80
   1   4  -3  122.19    3.20
   1   4  -3  120.09    3.20
   1   4  -3  117.19    3.50
   1   4  -3  124.99    3.50
   1   4  -3  126.59    3.20
  -1  -4   3  130.99    3.20
  -1  -4   3  127.29    3.40
  -1  -4   3  125.39    3.20
  -1  -4   3  127.39    3.60
  -1  -4   3  126.59    3.50
   0   4  -3   14.80    0.80
   0   4  -3   15.60    0.60
   0   4  -3   15.70    0.90
   0   4  -3   15.30    0.70
   0  -4   3   13.80    0.70
   0  -4   3   15.30    0.70
   0  -4   3   15.90    0.60
   0  -4   3   15.30    0.60
   0  -4   3   14.00    0.80
  -1   4  -3    3.20    0.30
  -1   4  -3    3.30    0.30
  -1   4  -3    3.10    0.40
  -1   4  -3    3.30    0.50
  -1   4  -3    3.30    0.40
   1  -4   3    2.80    0.30
   1  -4   3    2.50    0.40
   1  -4   3    2.60    0.20
   1  -4   3    3.40    0.40
  -2   4  -3  192.38    5.00
  -2   4  -3  191.48    5.00
  -2   4  -3  195.48    5.20
  -2   4  -3  196.58    4.80
   2  -4   3  189.98    4.70
   2  -4   3  188.98    5.10
   2  -4   3  191.68    4.90
   2  -4   3  194.78    5.10
  -3   4  -3  181.48    5.10
  -3   4  -3  177.98    4.90
  -3   4  -3  176.88    4.80
   3  -4   3  177.28    4.80
   3  -4   3  179.48    4.80
   3  -4   3  185.08    4.60
   3  -4   3  187.78    4.90
   3  -4   3  188.88    5.00
  -4   4  -3  219.78    5.80
  -4   4  -3  214.18    6.00
  -4   4  -3  205.78    5.70
   4  -4   3  211.08    5.70
   4  -4   3  209.88    5.60
   4  -4   3  219.88    5.60
   4  -4   3  211.58    5.40
   4  -4   3  214.48    5.80
  -5   4  -3   68.49    2.40
  -5   4  -3   67.59    2.50
  -5   4  -3   68.59    2.70
   5  -4   3   68.59    2.50
   5  -4   3   68.19    2.30
   5  -4   3   66.29    2.30
   5  -4   3   71.49    2.20
  -6   4  -3   -0.50    0.50
  -6   4  -3    0.40    0.50
  -6   4  -3    0.30    0.70
   6  -4   3    0.50    0.70
   6  -4   3    0.00    0.50
   6  -4   3    0.80    0.50
  -7   4  -3    0.40    0.80
  -7   4  -3    0.50    0.50
  -7   4  -3    0.40    0.60
   7  -4   3    1.00    0.60
   7  -4   3    0.30    0.70
   7  -4   3    1.00    0.60
  -8   4  -3    7.40    1.20
  -8   4  -3    7.00    1.10
  -8   4  -3    7.00    1.30
   8  -4   3    8.60    1.20
   8  -4   3    8.60    1.30
   8  -4   3    6.30    1.00
   9   3  -3    2.50    0.80
   9   3  -3    1.30    1.10
   9   3  -3    0.30    0.60
  -9  -3   3    1.30    0.70
  -9  -3   3    1.40    0.70
  -9  -3   3    0.00    0.80
   8   3  -3    4.30    1.30
   8   3  -3    4.60    1.00
   8   3  -3    4.30    0.90
  -8  -3   3    4.50    0.90
  -8  -3   3    4.10    1.00
   7   3  -3    2.00    0.80
   7   3  -3    1.70    0.70
   7   3  -3    2.60    0.90
   7   3  -3    2.80    0.60
  -7  -3   3    2.60    0.70
  -7  -3   3    2.70    0.70
   6   3  -3    3.80    0.90
   6   3  -3    4.70    0.60
   6   3  -3    4.60    0.70
   6   3  -3    5.20    0.90
  -6  -3   3    4.40    0.70
  -6  -3   3    5.20    0.50
  -6  -3   3    4.30    0.60
   5   3  -3    0.00    0.30
   5   3  -3   -0.60    0.40
   5   3  -3    0.40    0.50
   5   3  -3   -0.20    0.50
  -5  -3   3   -0.20    0.20
  -5  -3   3    0.20    0.20
  -5  -3   3   -0.50    0.30
  -5  -3   3    0.40    0.30
   4   3  -3    7.80    0.40
   4   3  -3    8.60    0.70
   4   3  -3    7.40    0.70
   4   3  -3    7.00    0.60
   4   3  -3    6.40    0.70
   4   3  -3    6.80    0.60
  -4  -3   3    7.60    0.60
  -4  -3   3    7.00    0.50
  -4  -3   3    6.90    0.50
   3   3  -3  192.08    5.10
   3   3  -3  189.68    5.20
   3   3  -3  195.38    4.60
   3   3  -3  191.88    4.80
   3   3  -3  193.18    4.80
   3   3  -3  192.38    5.20
  -3  -3   3  192.58    4.90
  -3  -3   3  188.48    4.90
   2   3  -3   12.80    0.70
   2   3  -3   13.30    0.40
   2   3  -3   12.00    0.70
   2   3  -3   13.00    0.40
   2   3  -3   13.10    0.50
   2   3  -3   12.10    0.70
  -2  -3   3   13.80    0.50
  -2  -3   3   13.40    0.80
  -2  -3   3   14.70    0.60
  -2  -3   3   13.10    0.40
  -2  -3   3   12.50    0.60
  -2  -3   3   14.80    0.80
   1   3  -3   52.19    1.40
   1   3  -3   53.79    1.40
   1   3  -3   48.60    1.40
   1   3  -3   50.79    1.60
   1   3  -3   49.90    1.40
   1   3  -3   50.29    1.70
   1   3  -3   50.59    1.40
  -1  -3   3   52.29    1.70
  -1  -3   3   50.09    1.40
  -1  -3   3   52.29    1.60
  -1  -3   3   49.60    1.60
  -1  -3   3   54.59    1.40
  -1  -3   3   49.99    1.40
   0   3  -3    4.90    0.50
   0   3  -3    5.20    0.40
   0   3  -3    5.80    0.40
   0   3  -3    5.30    0.30
   0   3  -3    5.60    0.40
   0   3  -3    6.50    0.30
   0  -3   3    4.80    0.30
   0  -3   3    5.70    0.30
   0  -3   3    6.10    0.30
   0  -3   3    5.90    0.30
   0  -3   3    6.00    0.40
   0  -3   3    6.20    0.40
   0  -3   3    6.20    0.30
   0  -3   3    6.00    0.40
   0  -3   3    4.50    0.40
  -1   3  -3  344.47    8.60
  -1   3  -3  352.46    8.50
  -1   3  -3  349.57    8.50
  -1   3  -3  343.97    8.50
  -1   3  -3  360.76    8.30
  -1   3  -3  359.46    8.40
   1  -3   3  346.07    8.40
   1  -3   3  340.97    8.60
   1  -3   3  333.07    8.50
   1  -3   3  353.66    8.40
  -2   3  -3  236.48    6.00
  -2   3  -3  229.78    6.10
  -2   3  -3  236.18    6.00
  -2   3  -3  238.38    5.90
   2  -3   3  241.48    5.90
   2  -3   3  245.08    5.80
   2  -3   3  235.98    6.00
   2  -3   3  239.78    5.90
   2  -3   3  237.78    6.10
  -3   3  -3  140.59    3.90
  -3   3  -3  143.99    4.10
   3  -3   3  145.79    3.70
   3  -3   3  142.49    3.80
   3  -3   3  149.49    3.90
   3  -3   3  144.79    3.80
   3  -3   3  140.89    4.00
  -4   3  -3  140.39    4.20
  -4   3  -3  140.59    4.00
   4  -3   3  144.09    3.90
   4  -3   3  141.89    3.90
   4  -3   3  148.09    3.90
   4  -3   3  137.99    4.00
  -5   3  -3   34.90    1.60
  -5   3  -3   37.90    1.90
   5  -3   3   37.40    1.50
   5  -3   3   36.50    1.80
   5  -3   3   39.70    1.40
   5  -3   3   37.50    1.50
   5  -3   3   39.10    1.60
  -6   3  -3    9.30    1.00
  -6   3  -3    8.00    1.10
   6  -3   3    9.70    0.90
   6  -3   3    8.30    0.90
   6  -3   3    8.30    1.00
   6  -3   3    8.00    1.10
  -7   3  -3    0.90    0.60
  -7   3  -3   -0.40    0.70
   7  -3   3    1.20    0.60
   7  -3   3    0.70    0.70
   7  -3   3    0.50    0.50
   7  -3   3    1.60    0.80
  -8   3  -3    2.80    0.90
  -8   3  -3    1.80    0.90
   8  -3   3    2.30    0.80
   8  -3   3    1.10    0.80
   8  -3   3    1.10    0.80
   8  -3   3    0.30    0.50
   9   2  -3    0.60    0.60
   9   2  -3    0.60    0.70
   9   2  -3   -0.50    1.00
  -9  -2   3   -0.30    0.60
  -9  -2   3    0.40    0.80
   8   2  -3   19.20    1.30
   8   2  -3   18.50    1.30
   8   2  -3   17.20    1.90
  -8  -2   3   17.70    1.40
  -8  -2   3   19.30    1.40
  -8  -2   3   20.50    1.80
   7   2  -3   -0.70    0.50
   7   2  -3   -0.40    0.60
   7   2  -3   -0.80    0.70
   7   2  -3    0.50    0.60
  -7  -2   3   -0.40    0.40
  -7  -2   3   -0.70    0.30
  -7  -2   3    0.10    0.50
   6   2  -3   -0.20    0.60
   6   2  -3   -0.30    0.40
   6   2  -3   -0.10    0.50
   6   2  -3   -0.60    0.40
   6   2  -3    0.00    0.20
  -6  -2   3   -0.30    0.40
  -6  -2   3   -0.20    0.40
  -6  -2   3   -0.70    0.30
   5   2  -3   40.90    1.50
   5   2  -3   41.10    1.70
   5   2  -3   40.40    1.30
   5   2  -3   41.10    1.80
   5   2  -3   42.40    1.90
  -5  -2   3   43.70    1.60
  -5  -2   3   41.40    1.30
  -5  -2   3   41.70    1.60
  -5  -2   3   41.80    1.50
   4   2  -3  213.08    5.90
   4   2  -3  221.48    5.20
   4   2  -3  217.58    5.80
   4   2  -3  216.38    5.50
   4   2  -3  214.58    5.60
  -4  -2   3  211.88    5.30
  -4  -2   3  212.18    5.50
  -4  -2   3  215.18    5.20
  -4  -2   3  203.88    5.50
  -4  -2   3  211.28    5.40
  -4  -2   3  218.28    5.80
   3   2  -3  132.99    3.50
   3   2  -3  134.19    3.50
   3   2  -3  131.99    3.80
   3   2  -3  138.09    3.30
   3   2  -3  136.59    3.70
   3   2  -3  132.99    3.80
   3   2  -3  135.99    3.50
  -3  -2   3  133.19    3.40
  -3  -2   3  137.79    3.50
  -3  -2   3  138.59    3.50
  -3  -2   3  134.99    3.60
  -3  -2   3  141.09    3.80
  -3  -2   3  135.79    3.40
   2   2  -3 3221.98   72.79
   2   2  -3 2821.32   73.39
   2   2  -3 3216.68   72.29
   2   2  -3 2862.81   72.29
   2   2  -3 3135.99   72.29
   2   2  -3 3033.50   72.39
   2   2  -3 2943.91   71.99
   2   2  -3 2902.41   73.59
   2   2  -3 2961.70   71.99
  -2  -2   3 3039.60   73.39
  -2  -2   3 2999.90   73.39
  -2  -2   3 3067.99   72.49
  -2  -2   3 3199.38   72.39
  -2  -2   3 3001.10   72.29
  -2  -2   3 3091.79   72.69
   1   2  -3  162.88    4.00
   1   2  -3  152.28    4.30
   1   2  -3  171.28    4.00
   1   2  -3  160.18    4.20
  -1  -2   3  165.98    4.20
  -1  -2   3  173.38    4.00
  -1  -2   3  165.88    4.20
  -1  -2   3  165.08    4.30
  -1  -2   3  171.98    4.00
  -1  -2   3  165.98    4.30
  -1  -2   3  167.18    4.00
  -1  -2   3  165.18    4.00
  -1  -2   3  167.48    4.00
   0   2  -3  591.44   13.80
   0   2  -3  563.84   13.90
   0   2  -3  600.14   14.00
   0   2  -3  568.04   14.00
   0   2  -3  582.94   13.90
   0   2  -3  610.24   13.90
   0  -2   3  551.54   13.90
   0  -2   3  584.04   13.80
   0  -2   3  560.24   13.90
   0  -2   3  561.94   13.80
   0  -2   3  584.94   14.00
   0  -2   3  613.84   13.80
   0  -2   3  560.64   13.90
   0  -2   3  607.34   13.80
  -1   2  -3 1256.27   28.80
  -1   2  -3 1157.88   28.60
  -1   2  -3 1237.88   28.70
  -1   2  -3 1227.78   28.60
  -1   2  -3 1237.48   28.90
  -1   2  -3 1142.79   28.80
  -1   2  -3 1189.88   28.90
  -1   2  -3 1174.78   29.00
   1  -2   3 1246.78   28.90
   1  -2   3 1204.28   29.00
   1  -2   3 1237.18   28.70
   1  -2   3 1227.58   28.80
   1  -2   3 1215.88   28.60
   1  -2   3 1190.38   28.60
   1  -2   3 1154.48   29.00
  -2   2  -3   37.00    1.20
  -2   2  -3   37.90    1.30
   2  -2   3   37.70    1.10
   2  -2   3   38.30    1.10
   2  -2   3   36.30    1.20
   2  -2   3   37.50    1.30
   2  -2   3   37.90    1.10
  -3   2  -3  637.44   15.70
  -3   2  -3  636.34   15.50
   3  -2   3  662.53   15.40
   3  -2   3  646.84   15.40
   3  -2   3  652.43   15.40
   3  -2   3  617.14   15.60
   3  -2   3  628.84   15.50
  -4   2  -3  113.29    3.20
  -4   2  -3  109.69    3.30
   4  -2   3  112.29    3.00
   4  -2   3  111.19    3.20
   4  -2   3  110.99    2.70
   4  -2   3  110.49    3.10
   4  -2   3  106.09    3.40
   4  -2   3  109.89    3.10
  -5   2  -3   43.00    1.70
  -5   2  -3   42.60    1.90
   5  -2   3   43.90    1.90
   5  -2   3   43.10    1.60
   5  -2   3   44.90    1.60
   5  -2   3   44.80    1.40
   5  -2   3   42.40    1.70
  -6   2  -3    1.30    0.60
  -6   2  -3    2.60    0.60
   6  -2   3    2.40    0.60
   6  -2   3    2.50    0.70
   6  -2   3    1.40    0.50
   6  -2   3    2.10    0.60
  -7   2  -3   30.00    1.70
  -7   2  -3   28.90    1.80
   7  -2   3   27.90    1.80
   7  -2   3   29.80    1.60
   7  -2   3   29.20    1.50
   7  -2   3   28.30    1.50
  -8   2  -3    0.90    0.80
  -8   2  -3   -0.30    0.60
   8  -2   3    1.50    0.90
   8  -2   3    0.90    0.70
   8  -2   3    1.20    0.60
   8  -2   3    0.00    0.60
   9   1  -3   -0.20    0.90
   9   1  -3   -0.40    0.60
   9   1  -3    0.10    0.60
  -9  -1   3    0.10    0.60
  -9  -1   3    0.80    0.70
   8   1  -3    0.20    0.50
   8   1  -3   -0.80    0.90
   8   1  -3    0.80    0.60
  -8  -1   3    0.20    0.50
  -8  -1   3    0.40    0.70
  -8  -1   3    0.80    0.70
   7   1  -3    9.00    1.00
   7   1  -3    8.90    0.90
   7   1  -3    7.90    1.30
  -7  -1   3    8.10    0.90
  -7  -1   3    8.70    1.00
  -7  -1   3   10.00    1.00
   6   1  -3   54.19    2.50
   6   1  -3   50.49    2.20
   6   1  -3   49.99    1.90
   6   1  -3   49.10    1.90
   6   1  -3   51.99    2.00
   6   1  -3   51.59    1.70
  -6  -1   3   49.80    1.90
  -6  -1   3   51.89    2.00
  -6  -1   3   50.89    1.70
  -6  -1   3   53.69    2.00
   5   1  -3  314.37    7.80
   5   1  -3  330.07    8.30
   5   1  -3  312.37    8.00
   5   1  -3  315.67    8.10
   5   1  -3  306.97    8.40
  -5  -1   3  311.27    8.00
  -5  -1   3  318.77    8.10
  -5  -1   3  317.77    7.80
  -5  -1   3  308.07    8.10
   4   1  -3  301.77    7.60
   4   1  -3  300.87    7.40
   4   1  -3  309.57    7.80
   4   1  -3  296.17    7.50
   4   1  -3  288.87    7.90
  -4  -1   3  301.57    7.60
  -4  -1   3  291.67    7.60
  -4  -1   3  311.97    7.70
  -4  -1   3  302.17    7.60
  -4  -1   3  306.07    7.40
   3   1  -3  403.06    9.60
   3   1  -3  391.66    9.80
   3   1  -3  394.26    9.80
   3   1  -3  391.76   10.10
   3   1  -3  393.26   10.00
  -3  -1   3  411.36    9.80
  -3  -1   3  409.56   10.00
  -3  -1   3  396.26    9.80
  -3  -1   3  416.36    9.60
  -3  -1   3  410.26    9.80
  -3  -1   3  408.96    9.80
   2   1  -3 1548.84   38.20
   2   1  -3 1616.04   38.00
   2   1  -3 1565.54   38.60
   2   1  -3 1665.83   37.70
   2   1  -3 1628.84   37.70
   2   1  -3 1517.85   38.70
   2   1  -3 1544.75   38.60
  -2  -1   3 1572.24   38.70
  -2  -1   3 1555.14   38.20
  -2  -1   3 1546.25   37.90
  -2  -1   3 1620.94   37.70
  -2  -1   3 1729.53   38.80
  -2  -1   3 1551.04   37.80
  -2  -1   3 1615.84   38.40
  -2  -1   3 1597.54   38.20
  -2  -1   3 1665.03   38.30
   1   1  -3  286.67    7.20
   1   1  -3  296.27    7.00
   1   1  -3  289.37    7.10
   1   1  -3  298.17    7.00
   1   1  -3  285.17    7.20
   1   1  -3  291.07    7.00
   1   1  -3  309.17    7.20
   1   1  -3  298.77    7.10
  -1  -1   3  300.57    7.00
  -1  -1   3  297.57    7.10
  -1  -1   3  301.87    7.00
  -1  -1   3  296.17    7.10
  -1  -1   3  275.27    7.20
  -1  -1   3  297.17    7.00
  -1  -1   3  306.07    7.20
  -1  -1   3  298.87    7.00
  -1  -1   3  275.07    7.20
   0   1  -3   23.50    0.80
   0   1  -3   22.60    0.70
   0   1  -3   22.90    0.80
   0   1  -3   22.80    0.70
   0   1  -3   21.40    0.80
   0   1  -3   22.50    0.80
   0  -1   3   22.20    0.80
   0  -1   3   23.60    0.80
   0  -1   3   22.10    0.70
   0  -1   3   22.80    0.80
   0  -1   3   21.90    0.70
  -1   1  -3 1360.36   30.40
  -1   1  -3 1339.37   30.60
  -1   1  -3 1245.38   30.60
  -1   1  -3 1287.67   31.30
  -1   1  -3 1235.68   30.70
  -1   1  -3 1308.57   31.10
  -1   1  -3 1275.07   30.90
  -1   1  -3 1297.47   30.70
  -1   1  -3 1267.67   30.70
   1  -1   3 1198.58   31.00
   1  -1   3 1263.97   30.70
   1  -1   3 1279.77   30.70
   1  -1   3 1228.28   30.50
   1  -1   3 1328.17   31.10
   1  -1   3 1231.38   30.80
   1  -1   3 1363.66   30.70
   1  -1   3 1337.17   30.60
  -2   1  -3   99.79    2.60
  -2   1  -3  102.09    2.60
  -2   1  -3   99.69    2.60
  -2   1  -3  102.79    2.60
  -2   1  -3   97.09    2.50
  -2   1  -3   96.49    2.70
   2  -1   3  100.89    2.40
   2  -1   3   99.79    2.70
   2  -1   3  109.89    2.70
   2  -1   3   97.39    2.70
   2  -1   3   99.89    2.60
   2  -1   3  108.09    2.60
   2  -1   3  102.79    2.70
  -3   1  -3  156.88    4.20
  -3   1  -3  162.68    4.30
  -3   1  -3  159.78    4.20
   3  -1   3  160.88    4.30
   3  -1   3  166.08    4.10
   3  -1   3  162.68    4.10
   3  -1   3  162.08    4.20
   3  -1   3  166.48    3.90
  -4   1  -3    0.90    0.30
  -4   1  -3    1.40    0.40
  -4   1  -3    0.40    0.40
  -4   1  -3   -0.30    0.30
   4  -1   3    0.80    0.30
   4  -1   3    0.80    0.20
   4  -1   3    0.40    0.30
   4  -1   3    0.60    0.30
  -5   1  -3   20.50    1.00
  -5   1  -3   19.10    1.00
  -5   1  -3   20.20    1.20
   5  -1   3   18.20    1.20
   5  -1   3   21.20    1.00
   5  -1   3   20.90    1.00
  -6   1  -3   19.00    1.10
  -6   1  -3   17.00    1.30
  -6   1  -3   18.70    1.10
   6  -1   3   20.00    1.10
   6  -1   3   18.80    1.30
   6  -1   3   18.10    1.10
   6  -1   3   18.20    1.00
  -7   1  -3    8.90    1.10
  -7   1  -3    8.90    1.10
  -7   1  -3    9.00    1.00
   7  -1   3   10.20    1.00
   7  -1   3    9.30    1.10
   7  -1   3    7.80    0.90
   7  -1   3   10.30    1.00
  -8   1  -3    0.40    0.60
  -8   1  -3    0.60    0.70
   8  -1   3    0.40    0.60
   8  -1   3    1.80    0.80
   8  -1   3    0.70    0.60
   8  -1   3    0.80    0.60
  -9   1  -3    0.30    0.70
  -9   1  -3    1.20    0.80
   9  -1   3    0.40    0.60
   9  -1   3    0.30    0.70
   9  -1   3    0.90    0.70
   8   0  -3   -0.40    0.50
   8   0  -3    0.60    0.60
   8   0  -3   -0.90    0.80
  -8   0   3    0.90    0.60
  -8   0   3    0.50    0.60
  -8   0   3    0.30    0.70
   7   0  -3    1.60    0.90
   7   0  -3    3.40    0.70
   7   0  -3    2.00    0.60
  -7   0   3    3.00    0.70
  -7   0   3    2.80    0.80
  -7   0   3    3.30    0.80
   6   0  -3   30.10    1.80
   6   0  -3   32.30    1.40
   6   0  -3   29.70    1.40
   6   0  -3   31.90    1.30
  -6   0   3   30.40    1.20
  -6   0   3   30.50    1.50
  -6   0   3   31.30    1.50
   5   0  -3   53.29    1.90
   5   0  -3   49.50    1.70
   5   0  -3   51.89    1.80
   5   0  -3   55.09    2.40
  -5   0   3   49.99    1.90
  -5   0   3   49.60    1.90
  -5   0   3   53.49    1.90
   4   0  -3   13.50    1.10
   4   0  -3   15.50    0.80
   4   0  -3   13.70    0.80
   4   0  -3   13.60    0.80
   4   0  -3   13.90    0.70
   4   0  -3   15.20    1.00
  -4   0   3   13.50    0.80
  -4   0   3   13.50    0.90
  -4   0   3   13.50    0.80
  -4   0   3   14.10    0.80
   3   0  -3   73.79    2.10
   3   0  -3   72.89    2.40
   3   0  -3   75.99    2.30
   3   0  -3   78.79    2.10
   3   0  -3   77.39    2.10
  -3   0   3   73.69    2.20
  -3   0   3   71.59    2.30
  -3   0   3   75.59    2.20
  -3   0   3   77.89    2.20
   2   0  -3   12.50    0.50
   2   0  -3   11.60    0.70
   2   0  -3   12.90    0.40
   2   0  -3   12.50    0.50
   2   0  -3   12.30    0.50
   2   0  -3   12.60    0.60
  -2   0   3   11.70    0.60
  -2   0   3   12.20    0.50
  -2   0   3   12.30    0.70
  -2   0   3   12.80    0.60
  -2   0   3   11.50    0.50
   1   0  -3 1341.37   33.30
   1   0  -3 1345.27   32.50
   1   0  -3 1314.67   32.50
   1   0  -3 1368.06   32.60
   1   0  -3 1324.47   32.60
   1   0  -3 1467.55   32.80
   1   0  -3 1325.37   32.60
   1   0  -3 1306.77   32.80
   1   0  -3 1410.06   32.40
   1   0  -3 1384.76   32.90
  -1   0   3 1429.56   32.80
  -1   0   3 1442.56   33.40
  -1   0   3 1368.96   32.80
  -1   0   3 1288.87   32.70
  -1   0   3 1334.97   33.00
  -1   0   3 1355.86   33.20
  -1   0   3 1384.66   32.50
   0   0  -3    2.70    0.30
   0   0  -3    2.70    0.20
   0   0  -3    2.20    0.20
   0   0  -3    2.30    0.30
   0   0  -3    2.50    0.20
   0   0  -3    2.70    0.30
   0   0  -3    2.50    0.20
   0   0  -3    2.60    0.20
   0   0  -3    3.10    0.30
   0   0  -3    2.70    0.20
   0   0   3    2.80    0.30
   0   0   3    2.30    0.20
   0   0   3    2.50    0.20
   0   0   3    2.30    0.30
   0   0   3    2.80    0.20
   0   0   3    2.40    0.20
   0   0   3    2.70    0.10
  -1   0  -3  379.96    8.70
  -1   0  -3  355.86    8.60
  -1   0  -3  356.06    8.60
  -1   0  -3  376.96    8.70
  -1   0  -3  348.27    8.70
  -1   0  -3  357.36    8.60
  -1   0  -3  343.47    8.60
   1   0   3  365.36    8.60
   1   0   3  372.46    8.60
   1   0   3  354.66    8.70
   1   0   3  363.36    8.70
   1   0   3  363.86    8.60
   1   0   3  351.56    8.70
   1   0   3  357.36    8.60
   1   0   3  373.16    8.60
  -2   0  -3    0.60    0.20
  -2   0  -3    0.10    0.20
  -2   0  -3    0.20    0.20
  -2   0  -3    0.20    0.10
  -2   0  -3    0.10    0.10
  -2   0  -3    0.40    0.10
  -2   0  -3    0.50    0.20
  -2   0  -3    0.10    0.10
   2   0   3    0.20    0.10
   2   0   3    0.20    0.10
   2   0   3    0.10    0.10
   2   0   3    0.30    0.20
   2   0   3    0.40    0.10
   2   0   3    0.00    0.20
   2   0   3    0.30    0.10
  -3   0  -3  160.88    4.40
  -3   0  -3  162.48    4.20
  -3   0  -3  163.08    4.20
  -3   0  -3  157.78    4.00
  -3   0  -3  159.78    4.20
  -3   0  -3  176.78    4.10
   3   0   3  166.08    4.00
   3   0   3  164.88    4.10
   3   0   3  161.78    4.20
   3   0   3  150.78    4.20
  -4   0  -3   93.29    2.70
  -4   0  -3   91.19    2.70
  -4   0  -3  100.29    2.90
  -4   0  -3   92.79    2.80
   4   0   3   96.19    2.80
   4   0   3   93.49    2.60
   4   0   3   92.29    2.70
  -5   0  -3  101.79    3.10
  -5   0  -3  101.39    3.00
  -5   0  -3   99.89    3.00
   5   0   3   98.29    2.90
   5   0   3   99.59    2.90
   5   0   3   96.89    3.10
  -6   0  -3    0.20    0.40
  -6   0  -3    0.60    0.50
  -6   0  -3    1.70    0.50
   6   0   3    0.80    0.40
   6   0   3   -0.40    0.50
   6   0   3    0.30    0.40
  -7   0  -3    1.60    0.60
  -7   0  -3    0.80    0.60
  -7   0  -3    1.00    0.60
   7   0   3    1.10    0.60
   7   0   3    1.20    0.70
   7   0   3    0.50    0.50
  -8   0  -3    8.50    1.10
  -8   0  -3    7.30    1.00
  -8   0  -3    7.30    1.00
   8   0   3    8.90    1.00
   8   0   3   10.40    1.10
   8   0   3    9.40    1.30
   8   0   3    8.40    1.00
  -9   0  -3   25.90    1.90
  -9   0  -3   23.70    1.80
   9   0   3   21.10    1.60
   9   0   3   22.00    1.70
   9   0   3   24.70    1.90
   9   0   3   19.60    1.50
   8  -1  -3    1.90    0.80
   8  -1  -3    2.20    0.80
   8  -1  -3    1.70    0.90
  -8   1   3    3.00    0.90
  -8   1   3    1.20    0.80
   7  -1  -3   23.30    2.00
   7  -1  -3   21.80    1.30
   7  -1  -3   22.00    1.40
   7  -1  -3   23.60    1.30
  -7   1   3   21.30    1.50
  -7   1   3   22.00    1.60
  -7   1   3   25.40    1.60
   6  -1  -3    0.00    0.70
   6  -1  -3   -0.10    0.40
   6  -1  -3    0.30    0.40
   6  -1  -3    0.40    0.50
  -6   1   3    0.20    0.50
  -6   1   3    0.20    0.50
  -6   1   3   -0.60    0.50
   5  -1  -3  387.96    9.90
   5  -1  -3  385.86    9.90
   5  -1  -3  410.46   10.50
   5  -1  -3  392.76   10.00
  -5   1   3  389.56   10.20
  -5   1   3  403.86   10.10
  -5   1   3  388.06   10.10
   4  -1  -3  334.17    8.30
   4  -1  -3  338.17    8.70
   4  -1  -3  327.17    8.30
   4  -1  -3  326.37    8.30
  -4   1   3  325.87    8.40
  -4   1   3  318.17    8.40
  -4   1   3  332.17    8.50
  -4   1   3  334.27    8.40
   3  -1  -3  156.78    3.70
   3  -1  -3  150.78    4.00
   3  -1  -3  151.18    4.00
   3  -1  -3  149.59    4.30
  -3   1   3  151.78    4.20
  -3   1   3  154.98    4.00
  -3   1   3  159.98    3.90
  -3   1   3  144.39    4.10
  -3   1   3  150.48    4.10
   2  -1  -3   40.10    1.40
   2  -1  -3   40.50    1.30
  -2   1   3   42.50    1.10
  -2   1   3   40.70    1.20
  -2   1   3   42.30    1.30
  -2   1   3   39.40    1.40
  -2   1   3   39.90    1.30
   1  -1  -3    4.50    0.30
   1  -1  -3    4.20    0.30
   1  -1  -3    4.20    0.30
   1  -1  -3    4.20    0.30
   1  -1  -3    3.80    0.40
   1  -1  -3    4.70    0.40
  -1   1   3    4.20    0.40
  -1   1   3    3.50    0.20
  -1   1   3    5.20    0.30
  -1   1   3    4.20    0.20
  -1   1   3    4.50    0.30
  -1   1   3    4.30    0.40
  -1   1   3    4.60    0.40
  -1   1   3    4.40    0.30
  -1   1   3    5.10    0.30
   0  -1  -3  106.99    2.80
   0  -1  -3  109.69    2.70
   0  -1  -3  109.09    2.70
   0  -1  -3  108.19    2.60
   0  -1  -3  109.79    2.70
   0  -1  -3  113.29    2.80
   0  -1  -3  105.59    2.70
   0  -1  -3  105.49    2.70
   0  -1  -3  106.79    2.70
   0   1   3  102.29    2.80
   0   1   3  110.39    2.70
   0   1   3  109.49    2.70
   0   1   3  104.49    2.80
   0   1   3  111.89    2.70
   0   1   3  107.19    2.70
   0   1   3  103.19    2.70
  -1  -1  -3    9.80    0.40
  -1  -1  -3    9.00    0.40
  -1  -1  -3   10.40    0.30
  -1  -1  -3    8.90    0.40
  -1  -1  -3    9.20    0.40
  -1  -1  -3    8.80    0.40
  -1  -1  -3    9.50    0.40
  -1  -1  -3    9.00    0.40
   1   1   3    9.20    0.40
   1   1   3    8.80    0.40
   1   1   3    9.00    0.40
   1   1   3    9.50    0.40
   1   1   3    9.50    0.40
  -2  -1  -3  415.16    9.90
  -2  -1  -3  433.06    9.90
  -2  -1  -3  396.96   10.00
  -2  -1  -3  402.76    9.90
  -2  -1  -3  420.86    9.90
  -2  -1  -3  432.76   10.20
  -2  -1  -3  395.96    9.90
  -2  -1  -3  403.56    9.90
   2   1   3  388.86   10.00
   2   1   3  413.76    9.90
   2   1   3  424.56    9.90
   2   1   3  418.36   10.00
   2   1   3  398.96    9.90
   2   1   3  428.76    9.90
   2   1   3  420.86   10.00
   2   1   3  413.96    9.90
  -3  -1  -3 2299.57   53.69
  -3  -1  -3 2246.58   52.89
  -3  -1  -3 2265.57   54.19
  -3  -1  -3 2285.97   53.29
  -3  -1  -3 2212.18   53.69
   3   1   3 2132.09   53.39
   3   1   3 2375.36   53.29
   3   1   3 2179.38   54.09
   3   1   3 2147.79   53.29
   3   1   3 2229.88   53.79
   3   1   3 2170.28   52.69
   3   1   3 2187.18   53.99
  -4  -1  -3  317.47    7.90
  -4  -1  -3  302.87    7.70
  -4  -1  -3  319.17    7.40
  -4  -1  -3  295.77    7.60
  -4  -1  -3  305.37    7.70
   4   1   3  309.37    7.60
   4   1   3  311.57    7.60
   4   1   3  295.57    7.80
   4   1   3  303.67    7.60
  -5  -1  -3   80.59    2.50
  -5  -1  -3   86.89    2.20
  -5  -1  -3   86.39    2.60
  -5  -1  -3   85.59    2.60
   5   1   3   84.29    2.50
   5   1   3   82.79    2.50
   5   1   3   80.39    2.70
   5   1   3   85.09    2.70
  -6  -1  -3   36.50    1.50
  -6  -1  -3   33.10    1.50
  -6  -1  -3   37.20    1.60
   6   1   3   36.10    1.50
   6   1   3   35.10    1.80
   6   1   3   38.00    1.50
  -7  -1  -3   -0.20    0.50
  -7  -1  -3   -0.60    0.50
  -7  -1  -3    0.20    0.50
   7   1   3   -0.10    0.40
   7   1   3   -0.50    0.60
   7   1   3   -0.10    0.50
  -8  -1  -3    8.80    1.10
  -8  -1  -3    9.30    1.10
  -8  -1  -3   11.60    1.20
   8   1   3   10.10    1.00
   8   1   3    7.90    1.20
   8   1   3    9.90    1.00
  -9  -1  -3   18.80    1.50
  -9  -1  -3   18.60    1.60
  -9  -1  -3   23.10    1.70
   9   1   3   20.30    1.90
   9   1   3   19.30    1.40
   9   1   3   18.80    1.40
   8  -2  -3    5.90    1.30
   8  -2  -3    4.40    0.90
   8  -2  -3    3.00    0.80
  -8   2   3    3.80    1.00
  -8   2   3    2.10    0.80
   7  -2  -3   12.60    1.20
   7  -2  -3   13.00    1.10
   7  -2  -3   13.70    1.30
   7  -2  -3   12.90    1.60
  -7   2   3   11.70    1.30
  -7   2   3   13.30    1.40
   6  -2  -3   25.50    1.30
   6  -2  -3   26.90    1.90
   6  -2  -3   23.00    1.40
   6  -2  -3   22.40    1.40
  -6   2   3   23.40    1.40
  -6   2   3   23.80    1.50
  -6   2   3   25.20    1.60
   5  -2  -3  118.39    3.50
   5  -2  -3  112.39    3.40
   5  -2  -3  114.69    3.90
   5  -2  -3  117.09    3.50
  -5   2   3  119.29    3.60
  -5   2   3  117.59    3.60
  -5   2   3  108.89    3.70
   4  -2  -3   35.20    1.70
   4  -2  -3   32.20    1.30
   4  -2  -3   35.20    0.90
   4  -2  -3   35.00    1.40
  -4   2   3   35.30    1.40
  -4   2   3   34.70    1.60
  -4   2   3   32.60    1.50
  -4   2   3   34.30    1.40
   3  -2  -3    0.90    0.30
   3  -2  -3    1.50    0.30
   3  -2  -3    0.70    0.50
  -3   2   3    1.30    0.40
  -3   2   3    1.20    0.30
  -3   2   3    0.70    0.30
  -3   2   3    0.80    0.40
  -3   2   3    1.10    0.30
   2  -2  -3   -0.30    0.20
   2  -2  -3    0.20    0.30
   2  -2  -3    0.40    0.20
   2  -2  -3    0.10    0.20
  -2   2   3    0.30    0.20
  -2   2   3    0.00    0.20
  -2   2   3   -0.20    0.30
  -2   2   3    0.30    0.20
  -2   2   3    0.00    0.20
  -2   2   3    0.00    0.20
   1  -2  -3  102.59    2.60
   1  -2  -3   96.39    2.60
   1  -2  -3  101.99    2.60
   1  -2  -3  101.49    2.70
   1  -2  -3   99.09    2.70
  -1   2   3   99.89    2.50
  -1   2   3  102.09    2.70
  -1   2   3  100.99    2.50
  -1   2   3  100.09    2.80
  -1   2   3  101.99    2.60
  -1   2   3  101.99    2.70
   0  -2  -3  776.12   19.10
   0  -2  -3  848.62   19.30
   0  -2  -3  830.32   19.10
   0  -2  -3  782.32   19.10
   0  -2  -3  821.42   19.20
   0  -2  -3  798.92   19.00
   0  -2  -3  786.42   19.30
   0   2   3  800.22   19.10
   0   2   3  780.92   19.20
   0   2   3  803.12   19.20
   0   2   3  824.82   19.30
   0   2   3  800.02   19.10
   0   2   3  806.22   19.10
  -1  -2  -3 1412.06   34.20
  -1  -2  -3 1397.06   34.00
  -1  -2  -3 1517.75   34.30
  -1  -2  -3 1350.56   34.10
  -1  -2  -3 1426.06   33.60
  -1  -2  -3 1358.06   34.00
   1   2   3 1401.46   34.30
   1   2   3 1462.85   33.70
   1   2   3 1449.76   34.40
   1   2   3 1415.26   34.30
   1   2   3 1401.26   34.30
   1   2   3 1489.35   33.60
  -2  -2  -3  517.75   12.80
  -2  -2  -3  528.65   12.80
  -2  -2  -3  529.85   12.90
  -2  -2  -3  537.05   12.90
  -2  -2  -3  535.35   12.80
   2   2   3  530.25   12.80
   2   2   3  548.55   12.70
   2   2   3  523.35   12.90
   2   2   3  557.14   12.90
  -3  -2  -3   85.29    2.30
  -3  -2  -3   83.69    2.30
  -3  -2  -3   84.09    2.40
  -3  -2  -3   83.69    2.30
  -3  -2  -3   85.29    2.50
  -3  -2  -3   82.59    2.30
   3   2   3   82.39    2.30
   3   2   3   82.89    2.40
   3   2   3   81.49    2.50
   3   2   3   85.49    2.30
   3   2   3   82.79    2.30
   3   2   3   86.39    2.20
  -4  -2  -3  332.57    8.40
  -4  -2  -3  316.47    8.10
  -4  -2  -3  320.37    8.10
  -4  -2  -3  324.57    8.10
   4   2   3  331.47    8.10
   4   2   3  321.67    8.10
   4   2   3  321.87    8.40
   4   2   3  330.97    8.20
   4   2   3  331.07    8.30
   4   2   3  333.07    8.10
  -5  -2  -3   84.19    2.50
  -5  -2  -3   87.39    2.60
  -5  -2  -3   85.09    2.60
   5   2   3   89.39    2.90
   5   2   3   87.79    2.70
   5   2   3   83.99    2.80
   5   2   3   86.49    2.50
   5   2   3   90.29    2.60
   5   2   3   85.89    2.60
  -6  -2  -3   75.89    2.50
  -6  -2  -3   72.99    2.40
  -6  -2  -3   75.49    2.40
   6   2   3   73.69    2.40
   6   2   3   73.09    2.70
   6   2   3   72.69    2.40
   6   2   3   76.59    2.40
   6   2   3   71.99    2.60
  -7  -2  -3    0.90    0.60
  -7  -2  -3    1.00    0.50
  -7  -2  -3    1.00    0.50
   7   2   3    0.20    0.40
   7   2   3    0.90    0.50
   7   2   3   -0.20    0.60
  -8  -2  -3   14.90    1.20
  -8  -2  -3   14.30    1.20
  -8  -2  -3   20.00    1.30
   8   2   3   15.00    1.50
   8   2   3   18.90    1.20
   8   2   3   16.50    1.10
  -9  -2  -3    9.90    1.10
  -9  -2  -3   11.90    1.40
  -9  -2  -3   10.80    1.20
   9   2   3   11.10    1.50
   9   2   3   11.50    1.20
 -10  -2  -3   -0.10    0.80
  10   2   3    1.20    0.90
   7  -3  -3    0.20    0.70
   7  -3  -3    0.70    0.60
   7  -3  -3    0.30    0.70
   7  -3  -3    1.30    0.60
  -7   3   3    1.10    0.70
  -7   3   3    1.30    0.90
  -7   3   3    0.90    0.60
   6  -3  -3    0.60    0.60
   6  -3  -3    1.50    0.60
   6  -3  -3    0.30    0.70
   6  -3  -3    0.40    0.50
  -6   3   3    0.60    0.60
  -6   3   3    0.60    0.60
  -6   3   3   -0.10    0.60
   5  -3  -3   31.20    1.40
   5  -3  -3   30.20    1.40
   5  -3  -3   32.40    1.60
   5  -3  -3   30.10    1.90
   5  -3  -3   29.00    1.50
  -5   3   3   29.60    1.50
  -5   3   3   33.50    1.80
  -5   3   3   32.60    1.60
  -5   3   3   30.90    1.40
   4  -3  -3   20.60    0.80
   4  -3  -3   19.30    1.00
   4  -3  -3   18.50    1.00
   4  -3  -3   19.90    1.10
   4  -3  -3   18.30    1.30
  -4   3   3   20.40    1.10
  -4   3   3   20.90    1.00
  -4   3   3   20.70    1.30
  -4   3   3   19.30    1.10
  -4   3   3   20.40    1.20
   3  -3  -3   26.90    1.10
   3  -3  -3   26.70    1.20
   3  -3  -3   26.60    1.40
   3  -3  -3   28.00    1.10
  -3   3   3   27.80    1.20
  -3   3   3   28.50    1.30
  -3   3   3   28.60    1.20
  -3   3   3   26.60    1.30
  -3   3   3   28.50    1.10
   2  -3  -3    6.00    0.50
   2  -3  -3    5.80    0.50
   2  -3  -3    5.90    0.60
  -2   3   3    5.30    0.40
  -2   3   3    5.20    0.50
  -2   3   3    5.30    0.60
  -2   3   3    5.70    0.50
  -2   3   3    5.70    0.60
   1  -3  -3  105.59    2.90
   1  -3  -3  108.59    2.70
   1  -3  -3  104.09    2.80
   1  -3  -3  103.99    2.80
  -1   3   3  105.39    2.70
  -1   3   3  106.19    2.70
  -1   3   3  102.69    2.90
  -1   3   3  104.49    2.90
   0  -3  -3   61.49    1.60
   0  -3  -3   55.29    1.70
   0  -3  -3   60.19    1.70
   0  -3  -3   58.29    1.70
   0   3   3   61.59    1.80
   0   3   3   58.09    1.60
   0   3   3   60.59    1.60
   0   3   3   54.39    1.80
   0   3   3   61.79    1.70
   0   3   3   59.19    1.60
  -1  -3  -3  241.58    6.00
  -1  -3  -3  244.68    6.10
  -1  -3  -3  235.68    6.00
  -1  -3  -3  251.97    6.00
  -1  -3  -3  242.08    6.00
   1   3   3  237.68    6.00
   1   3   3  241.38    6.00
   1   3   3  239.48    6.00
   1   3   3  245.48    6.00
  -2  -3  -3  236.48    6.10
  -2  -3  -3  248.88    6.10
  -2  -3  -3  235.38    6.00
   2   3   3  247.48    5.90
   2   3   3  244.78    6.10
   2   3   3  246.18    6.10
   2   3   3  245.08    6.10
   2   3   3  239.18    6.00
  -3  -3  -3  420.36   10.50
  -3  -3  -3  440.96   10.50
  -3  -3  -3  430.46   10.70
  -3  -3  -3  423.16   10.60
  -3  -3  -3  452.85   10.80
   3   3   3  423.46   10.70
   3   3   3  434.16   10.70
   3   3   3  432.26   10.60
   3   3   3  446.16   10.50
  -4  -3  -3  194.78    5.00
  -4  -3  -3  184.38    5.00
  -4  -3  -3  197.38    5.00
  -4  -3  -3  195.18    5.30
  -4  -3  -3  191.08    5.10
   4   3   3  203.08    4.70
   4   3   3  200.78    5.10
   4   3   3  186.98    5.20
   4   3   3  190.98    5.30
   4   3   3  201.48    5.10
   4   3   3  193.28    5.00
  -5  -3  -3    0.00    0.30
  -5  -3  -3    0.00    0.30
  -5  -3  -3   -0.10    0.40
   5   3   3    0.10    0.40
   5   3   3   -0.20    0.30
   5   3   3   -0.50    0.30
   5   3   3    0.10    0.50
   5   3   3    0.40    0.40
   5   3   3   -0.40    0.30
  -6  -3  -3   28.90    1.30
  -6  -3  -3   29.30    1.30
   6   3   3   28.30    1.30
   6   3   3   27.40    1.60
   6   3   3   28.80    1.30
   6   3   3   28.40    1.30
   6   3   3   29.30    1.80
   6   3   3   29.90    1.60
  -7  -3  -3    4.90    0.70
  -7  -3  -3    5.40    0.70
  -7  -3  -3    4.80    0.80
   7   3   3    5.10    0.70
   7   3   3    4.20    0.80
   7   3   3    4.00    0.70
   7   3   3    5.00    0.60
   7   3   3    4.40    0.80
   7   3   3    4.10    0.90
  -8  -3  -3    0.00    0.50
  -8  -3  -3   -0.30    0.40
  -8  -3  -3   -0.30    0.50
   8   3   3    0.50    0.40
   8   3   3    0.00    0.60
   8   3   3   -0.70    0.70
   8   3   3   -0.40    0.60
  -9  -3  -3    9.50    1.20
  -9  -3  -3    8.30    1.10
   9   3   3    7.60    1.00
   9   3   3    6.50    1.20
 -10  -3  -3    0.70    0.80
 -10  -3  -3    1.00    0.70
  10   3   3    1.20    0.80
  10   3   3    0.70    0.80
   7  -4  -3    6.10    1.20
   7  -4  -3    3.70    1.00
   7  -4  -3    3.70    0.80
  -7   4   3    4.70    1.10
  -7   4   3    4.20    0.90
  -7   4   3    3.70    1.10
   6  -4  -3    0.70    0.60
   6  -4  -3    0.30    0.70
   6  -4  -3    0.70    0.50
   6  -4  -3    0.70    0.60
  -6   4   3   -0.10    0.60
  -6   4   3    0.00    0.60
  -6   4   3    0.60    0.70
   5  -4  -3   36.70    1.70
   5  -4  -3   39.50    2.10
   5  -4  -3   38.90    1.70
   5  -4  -3   35.60    1.70
   5  -4  -3   33.70    1.50
  -5   4   3   38.60    1.90
  -5   4   3   37.70    1.80
  -5   4   3   33.20    1.90
   4  -4  -3   47.10    1.80
   4  -4  -3   43.40    2.10
   4  -4  -3   44.00    1.60
  -4   4   3   46.30    1.90
  -4   4   3   44.00    1.80
  -4   4   3   48.00    2.10
   3  -4  -3   73.29    2.60
   3  -4  -3   74.69    2.30
   3  -4  -3   75.49    2.40
  -3   4   3   78.79    2.40
  -3   4   3   76.49    2.10
  -3   4   3   72.09    2.50
  -3   4   3   68.99    2.40
  -3   4   3   71.99    2.60
   2  -4  -3   -0.10    0.30
   2  -4  -3    0.20    0.10
   2  -4  -3    0.00    0.30
   2  -4  -3   -0.20    0.40
  -2   4   3    0.40    0.40
  -2   4   3   -0.50    0.40
  -2   4   3    0.30    0.20
  -2   4   3    0.40    0.20
  -2   4   3    0.10    0.30
   1  -4  -3    3.30    0.40
   1  -4  -3    3.50    0.40
  -1   4   3    3.10    0.50
  -1   4   3    2.60    0.30
  -1   4   3    2.90    0.40
  -1   4   3    2.00    0.40
  -1   4   3    2.80    0.30
   0  -4  -3 1647.04   36.90
   0  -4  -3 1495.85   36.50
   0  -4  -3 1508.55   36.50
   0  -4  -3 1539.75   36.50
   0   4   3 1561.74   36.60
   0   4   3 1471.45   36.90
   0   4   3 1533.45   36.60
   0   4   3 1517.25   36.70
   0   4   3 1560.14   36.50
  -1  -4  -3 1447.06   35.30
  -1  -4  -3 1555.84   35.50
  -1  -4  -3 1475.65   35.80
  -1  -4  -3 1492.75   35.40
   1   4   3 1467.65   35.40
   1   4   3 1467.45   35.40
   1   4   3 1532.95   35.40
  -2  -4  -3    7.10    0.60
  -2  -4  -3    6.60    0.50
  -2  -4  -3    7.60    0.60
   2   4   3    7.60    0.60
   2   4   3    6.70    0.50
   2   4   3    7.30    0.50
   2   4   3    6.80    0.50
  -3  -4  -3  364.46    9.40
  -3  -4  -3  399.86    9.60
  -3  -4  -3  380.76    9.50
  -3  -4  -3  378.16    9.50
   3   4   3  384.06    9.60
   3   4   3  393.86    9.60
   3   4   3  388.46    9.40
   3   4   3  366.86    9.40
  -4  -4  -3    0.30    0.30
  -4  -4  -3   -0.20    0.20
  -4  -4  -3   -0.20    0.30
  -4  -4  -3   -0.10    0.30
  -4  -4  -3    0.40    0.30
   4   4   3    0.30    0.30
   4   4   3   -0.70    0.30
   4   4   3   -0.40    0.20
   4   4   3   -0.10    0.30
  -5  -4  -3   38.40    1.40
  -5  -4  -3   39.00    1.50
  -5  -4  -3   38.40    1.30
  -5  -4  -3   37.30    1.60
   5   4   3   37.60    1.40
   5   4   3   36.90    1.70
   5   4   3   35.40    1.70
   5   4   3   37.70    1.40
   5   4   3   40.10    1.60
  -6  -4  -3  200.58    5.20
  -6  -4  -3  196.68    5.50
  -6  -4  -3  206.18    5.50
   6   4   3  203.18    5.90
   6   4   3  199.68    5.60
   6   4   3  201.28    5.40
   6   4   3  201.08    5.40
   6   4   3  193.68    5.70
  -7  -4  -3   -0.80    0.40
  -7  -4  -3   -0.60    0.30
   7   4   3   -0.80    0.60
   7   4   3   -0.10    0.60
   7   4   3   -0.50    0.40
   7   4   3   -0.10    0.60
   7   4   3    0.10    0.50
  -8  -4  -3    4.60    0.80
  -8  -4  -3    4.90    0.80
   8   4   3    4.80    0.80
   8   4   3    4.50    0.80
   8   4   3    4.60    1.00
   8   4   3    3.60    0.90
  -9  -4  -3    0.40    0.60
  -9  -4  -3   -1.10    0.60
   9   4   3   -0.50    0.50
   9   4   3   -1.40    0.80
   9   4   3   -0.90    0.80
 -10  -4  -3    1.90    0.80
 -10  -4  -3    2.40    0.80
  10   4   3    0.30    0.80
  10   4   3    2.00    1.00
   6  -5  -3    2.20    0.80
   6  -5  -3    2.20    0.90
   6  -5  -3    3.00    0.90
  -6   5   3    2.20    0.90
  -6   5   3    3.30    0.90
  -6   5   3    2.50    0.80
   5  -5  -3   11.10    1.10
   5  -5  -3    9.40    1.10
   5  -5  -3   10.00    1.30
  -5   5   3    9.50    1.10
  -5   5   3   10.90    1.20
  -5   5   3    9.00    1.20
   4  -5  -3   19.90    1.00
   4  -5  -3   20.20    1.20
   4  -5  -3   20.30    1.50
  -4   5   3   23.20    1.60
  -4   5   3   21.80    1.40
  -4   5   3   19.60    1.20
   3  -5  -3    5.70    0.60
   3  -5  -3    5.10    0.70
  -3   5   3    4.80    0.70
  -3   5   3    4.80    0.80
  -3   5   3    4.60    0.70
  -3   5   3    4.60    0.50
   2  -5  -3   38.00    1.50
   2  -5  -3   36.90    1.40
  -2   5   3   36.90    1.30
  -2   5   3   37.90    1.60
  -2   5   3   35.40    1.40
  -2   5   3   37.10    1.50
  -2   5   3   36.70    1.70
   1  -5  -3   43.20    1.50
   1  -5  -3   45.40    1.60
   1  -5  -3   45.10    1.60
  -1   5   3   47.30    1.50
  -1   5   3   45.50    1.70
  -1   5   3   44.70    1.50
  -1   5   3   47.00    1.70
   0  -5  -3   16.10    0.90
   0  -5  -3   14.80    0.80
   0  -5  -3   16.60    0.60
   0  -5  -3   16.20    0.90
   0   5   3   15.60    0.80
   0   5   3   15.60    0.80
   0   5   3   15.60    0.50
   0   5   3   16.60    0.90
   0   5   3   16.60    0.90
  -1  -5  -3    2.70    0.40
  -1  -5  -3    3.20    0.50
  -1  -5  -3    2.50    0.40
  -1  -5  -3    3.00    0.40
   1   5   3    2.10    0.40
   1   5   3    2.80    0.40
   1   5   3    2.70    0.40
  -2  -5  -3   76.29    2.30
  -2  -5  -3   72.79    2.40
  -2  -5  -3   79.29    2.40
   2   5   3   77.79    2.40
   2   5   3   78.29    2.40
   2   5   3   80.29    2.40
  -3  -5  -3    1.50    0.40
  -3  -5  -3    1.40    0.40
  -3  -5  -3    1.70    0.40
   3   5   3    1.10    0.40
   3   5   3    1.30    0.40
   3   5   3    0.90    0.40
   3   5   3    1.20    0.40
   3   5   3    1.80    0.30
  -4  -5  -3   -0.20    0.40
  -4  -5  -3   -0.20    0.30
  -4  -5  -3    0.20    0.30
  -4  -5  -3   -0.20    0.30
   4   5   3   -0.10    0.40
   4   5   3    0.70    0.30
   4   5   3    0.60    0.30
   4   5   3    0.10    0.40
  -5  -5  -3   24.00    1.30
  -5  -5  -3   27.70    1.00
  -5  -5  -3   28.00    1.30
  -5  -5  -3   26.40    1.20
   5   5   3   29.20    1.60
   5   5   3   26.20    1.20
   5   5   3   27.00    0.90
   5   5   3   24.10    1.40
   5   5   3   27.50    1.30
  -6  -5  -3  198.68    5.50
  -6  -5  -3  197.38    5.40
  -6  -5  -3  197.18    5.10
   6   5   3  195.28    5.50
   6   5   3  196.48    5.40
   6   5   3  197.68    5.30
   6   5   3  198.48    5.80
   6   5   3  185.28    5.60
  -7  -5  -3    1.90    0.60
  -7  -5  -3    1.70    0.70
   7   5   3    2.00    0.80
   7   5   3    2.20    0.80
   7   5   3    2.00    0.80
   7   5   3    2.50    0.60
   7   5   3    1.40    0.60
  -8  -5  -3   -0.80    0.50
   8   5   3    0.90    0.70
   8   5   3    0.00    0.80
   8   5   3    0.40    0.60
   8   5   3    0.00    0.50
  -9  -5  -3    4.10    1.00
  -9  -5  -3    3.90    0.90
   9   5   3    4.20    1.10
   9   5   3    4.10    0.90
   9   5   3    4.70    1.10
 -10  -5  -3    5.60    1.10
 -10  -5  -3    4.90    1.00
  10   5   3    6.80    1.10
  10   5   3    7.00    1.30
  10   5   3    6.90    1.30
   6  -6  -3    2.30    0.80
   6  -6  -3    2.30    0.90
  -6   6   3    4.00    1.10
  -6   6   3    1.80    0.90
  -6   6   3    3.60    0.90
   5  -6  -3    3.70    1.00
   5  -6  -3    4.10    0.80
  -5   6   3    5.00    1.00
  -5   6   3    1.90    0.70
  -5   6   3    4.60    1.10
   4  -6  -3   11.30    1.10
  -4   6   3   12.10    1.20
  -4   6   3   10.30    1.30
  -4   6   3   11.10    1.20
   3  -6  -3   30.10    1.50
   3  -6  -3   28.40    1.20
  -3   6   3   27.80    1.40
  -3   6   3   29.00    1.70
  -3   6   3   29.60    1.50
  -3   6   3   27.10    1.50
  -3   6   3   27.70    1.60
   2  -6  -3    0.00    0.30
   2  -6  -3    0.40    0.40
  -2   6   3   -0.60    0.50
  -2   6   3    0.00    0.30
  -2   6   3    0.30    0.40
  -2   6   3    0.20    0.50
  -2   6   3   -0.20    0.30
   1  -6  -3    0.00    0.40
   1  -6  -3    0.30    0.40
   1  -6  -3   -0.10    0.30
  -1   6   3   -0.10    0.30
  -1   6   3    0.30    0.40
  -1   6   3    0.60    0.50
  -1   6   3    0.10    0.30
   0  -6  -3    5.60    0.60
   0  -6  -3    5.90    0.60
   0  -6  -3    6.20    0.70
   0   6   3    5.20    0.50
   0   6   3    6.90    0.80
   0   6   3    5.90    0.60
   0   6   3    7.80    0.80
  -1  -6  -3   21.60    1.10
  -1  -6  -3   22.90    1.10
  -1  -6  -3   23.80    1.10
   1   6   3   23.10    1.10
   1   6   3   22.90    1.10
   1   6   3   23.40    0.80
   1   6   3   22.30    1.10
  -2  -6  -3    6.80    0.60
  -2  -6  -3    6.70    0.70
  -2  -6  -3    7.30    0.80
   2   6   3    7.20    0.70
   2   6   3    7.50    0.70
   2   6   3    6.30    0.70
   2   6   3    6.50    0.60
  -3  -6  -3   70.59    2.40
  -3  -6  -3   72.09    2.30
  -3  -6  -3   73.09    2.50
   3   6   3   71.89    2.40
   3   6   3   68.49    2.30
   3   6   3   72.09    2.30
   3   6   3   74.99    2.40
   3   6   3   76.59    2.30
  -4  -6  -3    0.30    0.40
  -4  -6  -3    0.10    0.30
  -4  -6  -3   -0.40    0.50
   4   6   3   -0.20    0.30
   4   6   3   -0.20    0.40
   4   6   3    0.50    0.30
   4   6   3   -0.30    0.40
  -5  -6  -3    0.30    0.30
  -5  -6  -3    1.10    0.60
  -5  -6  -3    0.30    0.40
  -5  -6  -3    0.00    0.50
   5   6   3    0.20    0.40
   5   6   3    0.60    0.50
   5   6   3    1.20    0.40
   5   6   3    0.90    0.60
  -6  -6  -3   40.90    1.70
  -6  -6  -3   45.20    1.90
  -6  -6  -3   40.30    1.80
  -6  -6  -3   42.10    1.90
   6   6   3   43.30    1.70
   6   6   3   43.90    1.80
   6   6   3   41.50    1.90
   6   6   3   44.30    2.20
   6   6   3   44.80    2.10
  -7  -6  -3    0.00    0.60
   7   6   3    1.00    0.70
   7   6   3    0.10    0.50
   7   6   3    0.10    0.80
   7   6   3    0.70    0.70
   7   6   3    0.20    0.50
  -8  -6  -3   21.80    1.50
   8   6   3   21.00    1.60
   8   6   3   22.70    1.40
   8   6   3   24.10    1.80
   8   6   3   21.60    1.40
  -9  -6  -3    4.80    1.00
  -9  -6  -3    3.80    0.90
   9   6   3    2.00    1.00
   9   6   3    4.30    0.90
   9   6   3    3.30    0.80
   9   6   3    3.30    1.10
   5  -7  -3    3.30    0.80
   5  -7  -3    3.70    1.00
  -5   7   3    4.60    1.00
  -5   7   3    4.20    1.10
  -5   7   3    6.30    1.20
   4  -7  -3    3.40    0.80
  -4   7   3    3.00    0.80
  -4   7   3    4.20    1.00
  -4   7   3    4.10    1.00
   3  -7  -3    2.10    0.70
   3  -7  -3    2.00    0.60
  -3   7   3    2.70    0.90
  -3   7   3    2.30    0.70
  -3   7   3    2.90    0.70
   2  -7  -3   29.00    1.40
   2  -7  -3   29.70    1.50
   2  -7  -3   25.30    1.20
  -2   7   3   27.20    1.60
  -2   7   3   25.10    1.30
  -2   7   3   25.40    1.40
  -2   7   3   28.50    1.70
   1  -7  -3   10.60    1.00
   1  -7  -3    8.20    0.80
   1  -7  -3    8.80    0.90
  -1   7   3    7.70    0.90
  -1   7   3    8.10    0.70
  -1   7   3    8.70    0.80
  -1   7   3    8.00    1.00
   0  -7  -3    2.80    0.50
   0  -7  -3    3.50    0.60
   0  -7  -3    2.30    0.50
   0   7   3    2.20    0.60
   0   7   3    2.30    0.60
   0   7   3    3.00    0.50
   0   7   3    2.20    0.40
  -1  -7  -3    0.30    0.40
  -1  -7  -3    0.40    0.40
  -1  -7  -3    0.10    0.40
   1   7   3    0.10    0.40
   1   7   3    0.20    0.20
   1   7   3    0.10    0.30
   1   7   3    0.60    0.40
   1   7   3    0.10    0.30
  -2  -7  -3    9.30    0.90
  -2  -7  -3   10.50    0.80
  -2  -7  -3    9.40    0.80
   2   7   3    9.60    0.80
   2   7   3    8.80    0.80
   2   7   3    8.80    0.80
   2   7   3    8.30    0.80
  -3  -7  -3   41.00    1.80
  -3  -7  -3   42.60    1.60
   3   7   3   40.80    1.80
   3   7   3   39.70    1.60
   3   7   3   40.00    1.60
   3   7   3   40.10    1.60
   3   7   3   40.20    1.70
  -4  -7  -3   88.69    2.90
  -4  -7  -3   89.89    2.90
  -4  -7  -3   91.89    3.10
   4   7   3   94.89    2.90
   4   7   3   96.79    3.10
   4   7   3   96.29    2.90
   4   7   3   90.99    3.10
   4   7   3   93.39    2.90
  -5  -7  -3    3.30    0.60
  -5  -7  -3    2.90    0.50
  -5  -7  -3    3.50    0.80
  -5  -7  -3    2.70    0.60
   5   7   3    2.70    0.70
   5   7   3    2.50    0.60
   5   7   3    2.80    0.70
   5   7   3    3.30    0.60
  -6  -7  -3   16.70    1.20
  -6  -7  -3   18.00    1.20
  -6  -7  -3   17.10    1.40
   6   7   3   16.40    1.20
   6   7   3   17.50    1.30
   6   7   3   18.10    1.50
   6   7   3   18.10    1.50
  -7  -7  -3   15.60    1.20
   7   7   3   14.00    2.30
   7   7   3   14.80    1.40
   7   7   3   16.80    1.20
   7   7   3   16.50    1.20
   7   7   3   16.90    1.60
  -8  -7  -3    5.60    1.00
   8   7   3    6.90    1.00
   8   7   3    6.40    0.90
   8   7   3    6.80    1.10
   8   7   3    5.40    1.10
  -9  -7  -3    2.50    0.90
   9   7   3    2.60    0.80
   9   7   3    0.90    1.00
   9   7   3    0.80    0.90
   9   7   3    0.80    0.70
   4  -8  -3    1.70    0.90
   4  -8  -3    0.50    0.70
   4  -8  -3   -0.70    0.60
  -4   8   3   -2.10    0.60
  -4   8   3   -0.70    0.80
  -4   8   3   -0.50    0.60
   3  -8  -3    1.20    0.70
   3  -8  -3    1.30    0.60
  -3   8   3    2.80    0.80
  -3   8   3    1.30    0.90
   2  -8  -3    0.90    0.50
   2  -8  -3    1.30    0.60
  -2   8   3    0.40    0.60
  -2   8   3    0.40    0.70
   1  -8  -3    1.30    0.60
   1  -8  -3    0.50    0.50
   1  -8  -3    1.10    0.60
  -1   8   3    1.20    0.50
  -1   8   3    1.90    0.80
  -1   8   3    1.00    0.60
   0  -8  -3    0.80    0.50
   0  -8  -3    0.60    0.50
   0  -8  -3    0.30    0.50
   0   8   3    0.60    0.40
   0   8   3    0.70    0.60
   0   8   3    0.90    0.50
   0   8   3    0.90    0.40
  -1  -8  -3    0.90    0.50
  -1  -8  -3    1.00    0.50
  -1  -8  -3    1.10    0.50
   1   8   3    0.30    0.50
   1   8   3    0.90    0.50
   1   8   3    0.50    0.50
   1   8   3    0.40    0.40
  -2  -8  -3   38.70    1.70
  -2  -8  -3   37.10    1.70
   2   8   3   36.90    1.70
   2   8   3   37.80    1.70
   2   8   3   36.80    1.70
   2   8   3   39.00    1.80
  -3  -8  -3   46.10    2.00
  -3  -8  -3   41.70    1.80
   3   8   3   48.00    2.00
   3   8   3   45.00    1.80
   3   8   3   44.30    1.90
   3   8   3   44.90    1.90
  -4  -8  -3   67.89    2.50
  -4  -8  -3   73.29    2.70
  -4  -8  -3   65.99    2.40
   4   8   3   72.09    2.70
   4   8   3   68.59    2.70
   4   8   3   71.49    2.50
   4   8   3   73.09    2.50
   4   8   3   68.79    2.50
  -5  -8  -3    0.80    0.50
  -5  -8  -3    1.90    0.70
  -5  -8  -3    1.30    0.60
   5   8   3    1.70    0.60
   5   8   3    0.80    0.60
   5   8   3    1.90    0.60
   5   8   3    3.30    0.70
  -6  -8  -3    1.00    0.60
  -6  -8  -3    1.20    0.60
  -6  -8  -3    0.60    0.70
   6   8   3    0.40    0.60
   6   8   3    0.70    0.70
   6   8   3    0.00    0.70
   6   8   3    0.70    0.60
  -7  -8  -3    7.50    1.20
  -7  -8  -3   10.30    1.10
  -7  -8  -3    6.60    1.00
   7   8   3    8.20    1.20
   7   8   3    9.50    1.00
   7   8   3    9.30    1.10
   7   8   3    8.30    1.10
  -8  -8  -3    0.10    0.70
   8   8   3    0.10    0.60
   8   8   3   -0.70    0.70
   8   8   3   -0.40    0.90
   8   8   3    0.30    0.70
  -9  -8  -3    1.70    0.80
   9   8   3    1.90    1.10
   9   8   3    3.00    0.80
   9   8   3    1.30    1.00
   9   8   3    3.40    0.90
   3  -9  -3    1.70    0.80
   3  -9  -3    0.50    0.70
  -3   9   3    1.40    0.80
  -3   9   3   -0.40    0.80
   2  -9  -3    5.40    0.90
   2  -9  -3    3.60    0.80
  -2   9   3    4.20    0.90
  -2   9   3    4.30    1.10
   1  -9  -3    1.00    0.70
   1  -9  -3    0.60    0.60
  -1   9   3    0.30    0.60
  -1   9   3    0.30    0.70
   0  -9  -3   -0.30    0.40
   0  -9  -3   -0.60    0.40
   0  -9  -3   -0.20    0.50
   0   9   3   -0.40    0.40
   0   9   3    0.70    0.60
  -1  -9  -3    4.00    0.80
  -1  -9  -3    3.40    0.70
  -1  -9  -3    4.70    0.80
   1   9   3    2.40    0.70
   1   9   3    2.50    0.60
   1   9   3    3.20    0.80
   1   9   3    2.40    0.70
  -2  -9  -3   13.60    1.20
  -2  -9  -3   13.30    1.10
   2   9   3   13.70    1.20
   2   9   3   13.10    1.10
   2   9   3   12.10    1.20
   2   9   3   13.10    1.10
  -3  -9  -3    0.10    0.60
  -3  -9  -3    0.30    0.50
   3   9   3    0.00    0.40
   3   9   3    1.20    0.60
   3   9   3    0.50    0.50
   3   9   3    0.20    0.50
  -4  -9  -3    5.30    1.00
  -4  -9  -3    5.70    0.80
  -4  -9  -3    4.00    0.80
   4   9   3    4.10    0.80
   4   9   3    5.20    0.80
   4   9   3    5.20    0.80
   4   9   3    4.70    0.80
   4   9   3    4.70    0.70
  -5  -9  -3   -0.50    0.60
  -5  -9  -3    0.20    0.70
  -5  -9  -3    0.50    0.50
   5   9   3   -0.30    0.50
   5   9   3    0.70    0.60
   5   9   3    0.10    0.40
   5   9   3    0.70    0.60
  -6  -9  -3    3.60    0.70
  -6  -9  -3    2.90    0.90
  -6  -9  -3    4.50    0.90
   6   9   3    3.80    0.80
   6   9   3    3.00    0.70
   6   9   3    2.20    0.90
  -7  -9  -3   -0.30    0.60
  -7  -9  -3    0.10    0.60
  -7  -9  -3   -1.00    0.70
   7   9   3   -0.40    0.60
   7   9   3   -1.20    0.60
   7   9   3   -0.50    0.80
   7   9   3   -0.20    0.60
  -8  -9  -3    0.70    0.70
   8   9   3   -0.30    0.90
   8   9   3   -0.30    0.60
   8   9   3    0.40    0.70
   2 -10  -3    1.00    0.70
   2 -10  -3   -0.10    0.60
   2 -10  -3    0.60    0.80
  -2  10   3    0.40    0.90
  -2  10   3   -0.70    0.60
   1 -10  -3    1.30    0.70
   1 -10  -3    0.50    0.60
  -1  10   3   -0.30    0.60
   0 -10  -3    2.10    0.80
   0 -10  -3    3.30    0.80
   0  10   3    2.70    0.80
   0  10   3    2.70    0.80
  -1 -10  -3    1.80    0.70
  -1 -10  -3    2.30    0.70
  -1 -10  -3    2.40    0.70
   1  10   3    2.10    0.80
   1  10   3    1.40    0.70
   1  10   3    1.80    0.70
  -2 -10  -3    1.20    0.60
  -2 -10  -3    1.40    0.70
   2  10   3    1.50    0.70
   2  10   3    1.00    0.70
   2  10   3    1.20    0.90
   2  10   3    1.60    0.70
  -3 -10  -3    0.50    0.70
  -3 -10  -3    0.50    0.60
   3  10   3    0.90    0.60
   3  10   3    0.40    0.60
   3  10   3    0.20    0.50
   3  10   3    1.00    0.60
  -4 -10  -3    4.90    1.00
  -4 -10  -3    4.90    0.90
  -4 -10  -3    4.40    0.80
   4  10   3    3.40    0.80
   4  10   3    4.40    0.90
   4  10   3    5.00    0.90
   4  10   3    4.20    0.80
   4  10   3    5.40    0.90
  -5 -10  -3   -0.60    0.60
  -5 -10  -3   -0.30    0.60
  -5 -10  -3   -0.70    0.70
   5  10   3   -0.10    0.70
   5  10   3    0.00    0.60
   5  10   3   -0.60    0.80
  -6 -10  -3   -1.10    0.70
  -6 -10  -3   -1.20    0.50
  -6 -10  -3   -0.30    0.60
   6  10   3   -1.70    0.60
   6  10   3    0.30    0.60
  -7 -10  -3   -0.70    0.50
  -7 -10  -3   -0.20    0.60
   7  10   3    0.90    0.70
   7  10   3   -1.10    0.80
   8  10   3    0.20    0.70
   0 -11  -3   -0.60    0.60
   0 -11  -3    1.90    0.80
   0  11   3   -0.20    0.60
   0  11   3   -1.40    0.60
  -1 -11  -3    0.30    0.60
   1  11   3    0.20    0.70
   1  11   3    1.40    0.70
  -2 -11  -3   -0.40    0.50
  -2 -11  -3    0.20    0.60
   2  11   3    0.40    0.60
   2  11   3   -0.10    0.60
   2  11   3   -0.40    0.60
  -3 -11  -3    0.70    0.60
  -3 -11  -3    0.90    0.70
   3  11   3    0.90    0.70
   3  11   3    0.40    0.70
   3  11   3    0.70    0.70
  -4 -11  -3    0.00    0.80
  -4 -11  -3    0.30    0.60
  -4 -11  -3    0.10    0.60
   4  11   3    0.00    0.70
   4  11   3   -1.00    0.50
   4  11   3    0.90    0.70
  -5 -11  -3    1.90    0.90
  -5 -11  -3    2.50    0.80
  -5 -11  -3    1.90    0.80
   5  11   3    2.60    0.90
   5  11   3    1.20    0.70
  -6 -11  -3   -1.70    0.80
  -6 -11  -3   -0.30    0.60
  -6 -11  -3    0.10    0.70
   6  11   3   -0.10    0.70
   6  11   3    0.00    0.80
   5  11  -4    1.80    0.90
   5  11  -4    2.30    1.00
  -5 -11   4    3.20    0.90
   4  11  -4    1.90    1.00
   4  11  -4    1.90    1.00
   4  11  -4    0.00    0.80
  -4 -11   4    2.00    0.90
  -4 -11   4    1.30    0.70
  -4 -11   4    0.90    0.60
   3  11  -4    0.70    0.60
   3  11  -4    1.40    0.90
   3  11  -4    0.70    0.80
  -3 -11   4    0.60    0.50
  -3 -11   4    0.90    0.80
  -3 -11   4    0.20    0.50
   2  11  -4    0.60    0.60
   2  11  -4   -0.30    0.70
   2  11  -4   -0.20    0.50
  -2 -11   4    0.70    0.80
  -2 -11   4    0.00    0.50
   1  11  -4    2.70    0.90
   1  11  -4    0.90    0.60
   1  11  -4    3.20    0.70
  -1 -11   4    3.60    0.80
  -1 -11   4    1.60    1.00
  -1 -11   4    3.00    0.70
   0  11  -4    0.50    0.50
   0  11  -4    1.40    0.60
   0  11  -4    0.00    0.70
   0 -11   4    0.10    0.70
   0 -11   4    0.40    0.50
   0 -11   4    0.10    0.70
  -1  11  -4    0.80    0.70
  -1  11  -4    1.40    0.90
   1 -11   4    0.30    0.80
   1 -11   4   -0.50    0.50
   1 -11   4    0.30    0.80
   6  10  -4    3.20    1.10
   6  10  -4    2.10    0.70
   6  10  -4    2.40    0.90
   6  10  -4    0.80    0.60
  -6 -10   4    3.40    0.90
  -6 -10   4    3.30    0.90
  -6 -10   4    2.70    0.70
   5  10  -4    3.00    0.70
   5  10  -4    2.90    0.90
   5  10  -4    2.10    0.90
  -5 -10   4    3.60    0.90
  -5 -10   4    1.50    0.80
  -5 -10   4    1.90    0.60
  -5 -10   4    2.00    0.60
   4  10  -4    2.80    0.70
   4  10  -4    3.40    1.00
   4  10  -4    3.10    0.90
  -4 -10   4    2.30    0.60
  -4 -10   4    2.10    0.60
  -4 -10   4    4.10    1.00
  -4 -10   4    2.70    0.90
   3  10  -4    0.10    0.50
   3  10  -4    1.20    0.80
   3  10  -4   -0.20    0.70
  -3 -10   4    1.30    0.70
  -3 -10   4   -0.20    0.40
  -3 -10   4    0.20    0.50
   2  10  -4    5.30    1.00
   2  10  -4    5.10    0.80
   2  10  -4    6.20    0.80
  -2 -10   4    5.50    0.80
  -2 -10   4    4.00    1.00
  -2 -10   4    6.50    0.80
   1  10  -4    7.20    0.90
   1  10  -4    7.10    0.90
   1  10  -4    5.80    1.10
  -1 -10   4    9.40    1.30
  -1 -10   4    8.70    0.90
  -1 -10   4    8.10    0.90
   0  10  -4    0.50    0.50
   0  10  -4   -0.20    0.60
   0  10  -4   -0.90    0.40
   0 -10   4    0.40    0.80
   0 -10   4   -0.50    0.60
   0 -10   4    0.10    0.40
  -1  10  -4    0.90    0.70
  -1  10  -4   -0.20    0.50
  -1  10  -4   -0.90    0.50
  -1  10  -4    0.50    0.70
   1 -10   4    0.10    0.70
   1 -10   4   -0.50    0.40
   1 -10   4   -0.30    0.70
   1 -10   4    0.40    0.50
  -2  10  -4    1.50    0.80
  -2  10  -4    3.20    0.90
  -2  10  -4    2.70    0.80
   2 -10   4    3.00    0.70
   2 -10   4    2.80    1.00
   2 -10   4    2.80    0.70
   2 -10   4    3.40    1.00
   7   9  -4    8.10    1.00
   7   9  -4    7.10    1.00
   7   9  -4    9.60    1.60
   7   9  -4    7.90    1.40
  -7  -9   4   10.00    1.40
  -7  -9   4    8.50    1.00
   6   9  -4    1.90    0.60
   6   9  -4    2.00    0.90
   6   9  -4    2.50    1.00
   6   9  -4    2.30    0.60
  -6  -9   4    1.30    0.80
  -6  -9   4    2.10    0.60
  -6  -9   4    1.20    0.70
   5   9  -4    1.80    0.80
   5   9  -4    1.80    0.80
   5   9  -4    2.60    0.60
   5   9  -4    4.10    0.70
  -5  -9   4    2.50    0.60
  -5  -9   4    2.30    0.80
  -5  -9   4    2.80    0.60
  -5  -9   4    3.50    0.80
   4   9  -4   -0.30    0.40
   4   9  -4   -0.20    0.70
   4   9  -4   -0.30    0.60
  -4  -9   4   -0.50    0.50
  -4  -9   4    0.90    0.50
  -4  -9   4   -0.30    0.60
  -4  -9   4    0.00    0.40
   3   9  -4    3.40    0.60
   3   9  -4    4.10    0.90
   3   9  -4    2.80    0.90
   3   9  -4    3.40    0.90
  -3  -9   4    4.40    0.70
  -3  -9   4    5.90    1.00
  -3  -9   4    3.20    0.70
  -3  -9   4    3.00    0.60
   2   9  -4   12.10    1.30
   2   9  -4   17.80    1.60
   2   9  -4   14.70    1.10
   2   9  -4   16.10    1.10
  -2  -9   4   17.50    1.00
  -2  -9   4   17.20    1.10
  -2  -9   4   14.70    1.30
   1   9  -4    4.00    0.70
   1   9  -4    3.60    0.90
   1   9  -4    5.10    0.90
   1   9  -4    4.30    0.70
  -1  -9   4    6.50    0.80
  -1  -9   4    4.20    0.90
  -1  -9   4    3.60    0.60
   0   9  -4    7.20    0.90
   0   9  -4    6.90    1.10
   0   9  -4    6.80    0.80
   0   9  -4    8.50    0.90
   0   9  -4    6.50    1.00
   0  -9   4    7.80    0.80
   0  -9   4    6.90    0.80
   0  -9   4    8.80    1.10
   0  -9   4    9.00    1.00
  -1   9  -4    8.50    1.20
  -1   9  -4    9.50    1.00
  -1   9  -4    9.10    1.10
   1  -9   4    7.30    0.80
   1  -9   4    9.80    1.10
   1  -9   4    7.60    1.10
   1  -9   4    9.60    0.90
  -2   9  -4    1.80    0.70
  -2   9  -4    1.30    0.70
  -2   9  -4    0.70    0.70
   2  -9   4    1.60    0.80
   2  -9   4    0.70    0.80
   2  -9   4    1.30    0.50
   2  -9   4    1.20    0.50
  -3   9  -4    0.50    0.60
  -3   9  -4    0.00    0.70
  -3   9  -4   -0.20    0.70
   3  -9   4    0.20    0.70
   3  -9   4   -1.00    0.50
   3  -9   4    0.30    0.50
   3  -9   4   -0.20    0.70
  -4   9  -4    0.10    0.70
  -4   9  -4    0.50    0.80
  -4   9  -4   -0.10    0.60
   4  -9   4    0.10    0.80
   4  -9   4    1.50    0.60
   4  -9   4    0.50    0.70
   8   8  -4    2.30    0.70
   8   8  -4    0.50    0.60
   8   8  -4   -1.60    1.00
   8   8  -4   -1.90    1.00
  -8  -8   4    1.00    0.70
  -8  -8   4    1.60    0.90
  -8  -8   4    0.20    0.60
   7   8  -4    2.10    0.60
   7   8  -4    0.20    0.90
   7   8  -4    0.00    0.80
   7   8  -4    1.30    0.60
  -7  -8   4    1.40    0.60
  -7  -8   4    1.40    0.90
   6   8  -4    0.60    0.40
   6   8  -4    0.40    0.70
   6   8  -4   -0.20    0.40
   6   8  -4    0.30    0.70
  -6  -8   4    0.40    0.50
  -6  -8   4   -0.30    0.50
  -6  -8   4    0.20    0.70
   5   8  -4    5.80    1.00
   5   8  -4    5.80    0.70
   5   8  -4    6.20    1.00
   5   8  -4    5.20    0.70
  -5  -8   4    4.20    0.60
  -5  -8   4    5.20    1.00
  -5  -8   4    4.30    0.70
  -5  -8   4    5.50    0.90
   4   8  -4    6.50    1.00
   4   8  -4    7.60    1.00
   4   8  -4    7.10    0.70
   4   8  -4    6.50    1.00
  -4  -8   4    8.30    1.10
  -4  -8   4    5.90    0.70
  -4  -8   4    7.60    1.00
  -4  -8   4    7.40    0.80
   3   8  -4   32.00    1.80
   3   8  -4   30.30    1.80
   3   8  -4   32.50    1.90
   3   8  -4   31.90    1.40
  -3  -8   4   31.80    1.30
  -3  -8   4   33.70    1.60
  -3  -8   4   31.70    1.40
  -3  -8   4   34.40    1.20
  -3  -8   4   33.00    1.70
   2   8  -4   25.90    1.20
   2   8  -4   25.80    1.70
   2   8  -4   27.60    1.70
   2   8  -4   27.80    1.30
  -2  -8   4   26.00    1.40
  -2  -8   4   24.50    1.20
  -2  -8   4   23.70    1.50
  -2  -8   4   26.70    1.20
   1   8  -4    6.30    0.70
   1   8  -4    5.50    0.90
   1   8  -4    4.50    0.80
   1   8  -4    5.00    0.60
   1   8  -4    5.10    0.60
  -1  -8   4    4.90    0.70
  -1  -8   4    6.50    0.70
  -1  -8   4    5.60    0.60
  -1  -8   4    5.50    0.90
   0   8  -4   24.70    1.30
   0   8  -4   24.60    1.60
   0   8  -4   26.20    1.30
   0   8  -4   28.00    1.40
   0   8  -4   25.30    1.70
   0  -8   4   25.70    1.20
   0  -8   4   26.00    1.60
   0  -8   4   25.70    1.20
   0  -8   4   28.30    1.40
  -1   8  -4   46.80    2.00
  -1   8  -4   47.60    1.80
  -1   8  -4   44.50    2.10
  -1   8  -4   43.90    2.20
   1  -8   4   44.20    1.70
   1  -8   4   46.40    2.00
   1  -8   4   43.60    2.00
   1  -8   4   41.40    1.70
  -2   8  -4   24.20    1.60
  -2   8  -4   22.80    1.70
  -2   8  -4   25.80    1.60
  -2   8  -4   24.60    1.40
   2  -8   4   23.80    1.30
   2  -8   4   26.30    1.60
   2  -8   4   25.80    1.50
   2  -8   4   21.10    1.20
  -3   8  -4   -0.10    0.70
  -3   8  -4    0.90    0.60
  -3   8  -4    0.10    0.50
   3  -8   4    0.20    0.70
   3  -8   4    0.20    0.50
   3  -8   4   -0.10    0.50
   3  -8   4    0.40    0.70
  -4   8  -4    3.90    0.80
  -4   8  -4    2.50    0.80
  -4   8  -4    4.60    1.10
  -4   8  -4    5.20    1.00
   4  -8   4    4.40    0.70
   4  -8   4    5.90    1.00
   4  -8   4    4.00    0.80
   4  -8   4    5.30    1.00
  -5   8  -4    1.20    0.70
  -5   8  -4    2.80    0.90
  -5   8  -4    0.90    0.70
  -5   8  -4    3.30    1.10
   5  -8   4    0.90    0.60
   5  -8   4    2.00    0.90
   8   7  -4    0.90    0.70
   8   7  -4   -0.90    0.80
   8   7  -4   -1.30    0.90
  -8  -7   4    0.60    0.90
  -8  -7   4    0.10    0.60
  -8  -7   4   -0.20    0.60
   7   7  -4   -0.40    0.80
   7   7  -4    0.20    0.50
   7   7  -4   -0.20    0.70
   7   7  -4    0.40    0.50
  -7  -7   4   -0.90    0.70
  -7  -7   4   -0.20    0.50
  -7  -7   4    0.10    0.50
   6   7  -4   -1.00    0.60
   6   7  -4    0.20    0.50
   6   7  -4    0.40    0.50
   6   7  -4   -0.60    0.60
  -6  -7   4    0.30    0.50
  -6  -7   4    0.10    0.70
  -6  -7   4   -0.20    0.40
   5   7  -4   16.30    1.00
   5   7  -4   16.40    0.90
   5   7  -4   15.60    1.40
   5   7  -4   15.60    1.30
   5   7  -4   18.40    1.40
  -5  -7   4   17.90    1.40
  -5  -7   4   17.00    1.00
  -5  -7   4   18.10    1.10
   4   7  -4   25.50    1.20
   4   7  -4   24.40    1.50
   4   7  -4   26.00    1.60
   4   7  -4   24.10    1.60
  -4  -7   4   23.70    1.30
  -4  -7   4   24.60    1.50
  -4  -7   4   21.80    1.10
  -4  -7   4   23.90    1.10
   3   7  -4   19.40    1.50
   3   7  -4   18.20    0.90
   3   7  -4   15.60    1.20
   3   7  -4   18.50    1.30
  -3  -7   4   17.30    1.20
  -3  -7   4   16.50    0.90
  -3  -7   4   17.10    0.80
  -3  -7   4   16.80    1.20
  -3  -7   4   16.50    0.90
   2   7  -4   25.10    1.10
   2   7  -4   24.60    0.90
   2   7  -4   24.30    1.60
   2   7  -4   23.10    1.10
   2   7  -4   24.90    1.50
  -2  -7   4   24.20    1.00
  -2  -7   4   24.00    1.00
  -2  -7   4   24.50    1.30
  -2  -7   4   25.00    1.40
   1   7  -4   68.69    2.60
   1   7  -4   68.19    2.10
   1   7  -4   67.49    2.10
   1   7  -4   67.79    2.20
   1   7  -4   67.29    2.70
  -1  -7   4   67.29    2.10
  -1  -7   4   69.39    2.50
  -1  -7   4   70.59    2.20
  -1  -7   4   71.09    2.20
   0   7  -4   75.99    2.30
   0   7  -4   73.29    2.40
   0   7  -4   73.49    2.70
   0   7  -4   75.39    2.40
   0   7  -4   75.29    2.80
   0  -7   4   76.29    2.40
   0  -7   4   75.99    2.20
   0  -7   4   74.69    2.70
   0  -7   4   71.09    2.30
   0  -7   4   73.39    2.20
  -1   7  -4   70.79    2.70
  -1   7  -4   72.09    2.50
  -1   7  -4   74.49    2.80
  -1   7  -4   74.69    2.40
   1  -7   4   70.29    2.30
   1  -7   4   79.49    2.60
   1  -7   4   68.89    2.30
   1  -7   4   72.99    2.70
  -2   7  -4   23.40    1.40
  -2   7  -4   20.60    1.40
  -2   7  -4   21.10    1.20
  -2   7  -4   20.50    1.40
   2  -7   4   21.30    1.10
   2  -7   4   21.80    1.30
   2  -7   4   20.10    1.30
   2  -7   4   20.90    1.10
  -3   7  -4    0.90    0.50
  -3   7  -4    0.40    0.50
  -3   7  -4    0.80    0.60
  -3   7  -4    0.90    0.70
   3  -7   4    0.30    0.60
   3  -7   4   -0.30    0.60
   3  -7   4    1.00    0.40
  -4   7  -4   -1.10    0.60
  -4   7  -4    0.20    0.60
  -4   7  -4    1.20    0.60
   4  -7   4    1.00    0.60
   4  -7   4    0.10    0.70
   4  -7   4    0.90    0.50
  -5   7  -4    0.10    0.80
  -5   7  -4    0.60    0.60
  -5   7  -4    0.90    0.70
   5  -7   4    0.20    0.50
   5  -7   4    0.00    0.70
  -6   7  -4   -0.10    0.60
  -6   7  -4   -0.80    0.80
  -6   7  -4    0.40    0.70
   6  -7   4   -0.20    0.80
   6  -7   4    0.90    0.60
   8   6  -4    0.00    1.10
   8   6  -4    1.30    0.60
   8   6  -4   -1.00    0.90
  -8  -6   4    1.70    0.70
  -8  -6   4    1.10    0.70
  -8  -6   4    1.80    1.00
   7   6  -4   10.70    1.40
   7   6  -4   11.30    1.50
   7   6  -4   12.90    1.00
  -7  -6   4   10.70    1.00
  -7  -6   4   12.10    1.20
  -7  -6   4   13.90    1.60
   6   6  -4    3.20    0.60
   6   6  -4    3.60    0.80
   6   6  -4    4.40    0.90
   6   6  -4    2.80    0.80
   6   6  -4    3.60    0.60
  -6  -6   4    4.60    0.90
  -6  -6   4    3.90    0.70
  -6  -6   4    3.70    0.60
   5   6  -4   21.00    1.10
   5   6  -4   20.40    1.10
   5   6  -4   19.60    1.30
   5   6  -4   20.40    1.40
   5   6  -4   21.80    1.50
  -5  -6   4   21.10    1.10
  -5  -6   4   21.10    1.50
  -5  -6   4   17.40    1.10
   4   6  -4   10.20    0.70
   4   6  -4    9.30    1.00
   4   6  -4    8.50    1.00
   4   6  -4    8.30    1.00
   4   6  -4    9.40    0.70
  -4  -6   4   11.00    0.90
  -4  -6   4    9.80    0.70
  -4  -6   4   10.10    0.70
  -4  -6   4    9.80    1.00
   3   6  -4   32.60    1.70
   3   6  -4   34.60    1.60
   3   6  -4   34.90    1.70
   3   6  -4   33.10    1.20
  -3  -6   4   33.40    1.60
  -3  -6   4   32.70    1.00
  -3  -6   4   33.20    1.20
  -3  -6   4   33.90    1.50
  -3  -6   4   33.00    1.30
   2   6  -4  125.69    3.40
   2   6  -4  131.19    3.20
   2   6  -4  126.89    3.50
   2   6  -4  128.89    4.00
   2   6  -4  127.39    3.90
  -2  -6   4  128.19    3.50
  -2  -6   4  124.49    3.40
  -2  -6   4  129.69    3.80
  -2  -6   4  127.29    3.40
  -2  -6   4  129.89    3.70
   1   6  -4   25.90    1.40
   1   6  -4   21.50    1.00
   1   6  -4   24.00    1.00
   1   6  -4   23.00    1.00
   1   6  -4   23.60    1.30
  -1  -6   4   23.60    1.10
  -1  -6   4   22.00    1.00
  -1  -6   4   23.60    1.30
  -1  -6   4   23.70    1.00
   0   6  -4   59.79    2.20
   0   6  -4   61.99    2.00
   0   6  -4   59.39    2.30
   0   6  -4   61.39    1.90
   0  -6   4   61.39    1.90
   0  -6   4   56.99    1.80
   0  -6   4   57.79    2.10
   0  -6   4   58.39    1.80
   0  -6   4   61.49    2.00
  -1   6  -4   59.39    2.30
  -1   6  -4   57.99    1.90
  -1   6  -4   56.29    2.20
  -1   6  -4   58.29    2.10
   1  -6   4   58.49    1.90
   1  -6   4   52.99    2.00
   1  -6   4   58.29    1.80
   1  -6   4   56.49    2.10
  -2   6  -4   78.09    2.90
  -2   6  -4   79.39    2.50
  -2   6  -4   75.99    2.50
  -2   6  -4   83.49    2.80
   2  -6   4   77.19    2.40
   2  -6   4   79.69    2.70
   2  -6   4   78.39    2.60
  -3   6  -4   97.19    3.00
  -3   6  -4   95.19    3.30
  -3   6  -4   90.29    3.00
   3  -6   4   93.79    2.90
   3  -6   4   98.89    3.20
   3  -6   4   92.99    3.10
  -4   6  -4    5.30    0.90
  -4   6  -4    5.70    0.80
  -4   6  -4    4.70    0.80
   4  -6   4    5.90    0.90
   4  -6   4    5.50    0.70
   4  -6   4    5.00    0.80
  -5   6  -4    1.00    0.60
  -5   6  -4    0.90    0.60
  -5   6  -4    0.80    0.70
   5  -6   4   -0.10    0.40
   5  -6   4   -0.60    0.60
  -6   6  -4    0.50    0.60
  -6   6  -4   -0.90    0.80
  -6   6  -4    0.70    0.70
   6  -6   4   -0.20    0.70
   6  -6   4    0.00    0.50
   9   5  -4   -1.50    1.00
   9   5  -4    0.30    0.70
   9   5  -4   -0.10    0.80
  -9  -5   4    1.00    0.90
  -9  -5   4    0.10    0.60
  -9  -5   4    0.30    0.70
   8   5  -4   16.10    1.90
   8   5  -4   14.30    1.30
   8   5  -4   10.30    1.30
  -8  -5   4   12.50    1.30
  -8  -5   4   12.60    1.20
  -8  -5   4   17.80    1.90
   7   5  -4   22.00    1.90
   7   5  -4   25.20    1.30
   7   5  -4   25.00    1.80
  -7  -5   4   23.30    1.50
  -7  -5   4   21.40    1.30
  -7  -5   4   23.10    1.80
   6   5  -4   14.70    1.00
   6   5  -4   15.30    1.20
   6   5  -4   16.60    1.40
   6   5  -4   17.60    1.40
   6   5  -4   15.60    1.00
  -6  -5   4   13.10    1.10
  -6  -5   4   18.00    1.50
  -6  -5   4   15.90    1.10
  -6  -5   4   14.80    1.10
   5   5  -4    3.10    0.50
   5   5  -4    2.50    0.50
   5   5  -4    3.60    0.70
   5   5  -4    2.80    0.70
   5   5  -4    4.30    0.80
  -5  -5   4    4.40    0.60
  -5  -5   4    1.90    0.60
  -5  -5   4    2.90    0.50
   4   5  -4    0.30    0.50
   4   5  -4   -0.10    0.30
   4   5  -4   -0.20    0.40
   4   5  -4   -0.20    0.30
   4   5  -4   -0.20    0.40
  -4  -5   4   -0.10    0.40
  -4  -5   4   -0.30    0.50
  -4  -5   4   -0.60    0.30
   3   5  -4    4.00    0.70
   3   5  -4    3.10    0.40
   3   5  -4    3.00    0.60
   3   5  -4    4.10    0.60
  -3  -5   4    4.00    0.60
  -3  -5   4    3.00    0.40
  -3  -5   4    3.50    0.20
  -3  -5   4    3.90    0.60
  -3  -5   4    3.50    0.40
   2   5  -4  158.08    4.10
   2   5  -4  158.38    4.60
   2   5  -4  156.68    4.50
   2   5  -4  160.48    3.90
  -2  -5   4  164.08    4.10
  -2  -5   4  156.28    4.00
  -2  -5   4  159.38    4.40
  -2  -5   4  162.58    4.10
  -2  -5   4  161.18    4.40
   1   5  -4  231.68    6.20
   1   5  -4  227.18    6.10
   1   5  -4  224.08    5.70
   1   5  -4  231.18    5.70
   1   5  -4  222.68    5.70
  -1  -5   4  227.78    5.90
  -1  -5   4  227.08    5.70
  -1  -5   4  224.48    5.70
  -1  -5   4  233.28    6.00
   0   5  -4   56.89    2.10
   0   5  -4   57.79    1.70
   0   5  -4   55.19    1.80
   0   5  -4   55.59    2.00
   0  -5   4   58.79    2.00
   0  -5   4   58.39    1.70
   0  -5   4   56.09    1.70
   0  -5   4   60.19    1.80
   0  -5   4   57.39    1.80
  -1   5  -4   41.30    1.40
  -1   5  -4   43.90    1.30
  -1   5  -4   41.00    1.70
  -1   5  -4   41.70    1.60
   1  -5   4   42.30    1.40
   1  -5   4   42.80    1.40
   1  -5   4   43.50    1.60
   1  -5   4   41.60    1.60
  -2   5  -4   15.80    0.90
  -2   5  -4   16.40    0.90
  -2   5  -4   16.10    1.10
   2  -5   4   15.70    1.00
   2  -5   4   15.90    0.60
   2  -5   4   17.60    1.00
   2  -5   4   15.40    0.80
  -3   5  -4   25.50    1.20
  -3   5  -4   26.90    1.50
  -3   5  -4   26.00    1.30
   3  -5   4   26.90    1.30
   3  -5   4   25.70    0.90
   3  -5   4   26.60    1.30
   3  -5   4   25.80    1.10
  -4   5  -4   99.49    3.40
  -4   5  -4   93.69    3.00
  -4   5  -4   86.09    3.00
   4  -5   4  100.59    3.20
   4  -5   4   95.19    2.90
   4  -5   4   96.39    3.00
  -5   5  -4    7.50    1.00
  -5   5  -4    5.40    0.80
  -5   5  -4    5.90    1.00
   5  -5   4    6.10    0.80
   5  -5   4    6.50    0.80
   5  -5   4    5.90    0.90
   5  -5   4    6.40    0.80
  -6   5  -4    3.70    0.90
  -6   5  -4    2.10    0.80
  -6   5  -4    2.50    0.70
   6  -5   4    3.00    0.70
   6  -5   4    3.60    0.80
   6  -5   4    2.70    0.70
  -7   5  -4   14.70    1.50
  -7   5  -4   12.20    1.60
  -7   5  -4   12.50    1.30
   7  -5   4   12.60    1.40
   7  -5   4   14.30    1.50
   7  -5   4   13.40    1.30
   9   4  -4   -1.00    1.10
   9   4  -4    0.30    0.60
  -9  -4   4    1.70    0.70
  -9  -4   4    0.70    1.00
  -9  -4   4    0.50    0.60
   8   4  -4   46.30    2.40
   8   4  -4   47.80    2.20
   8   4  -4   50.79    2.90
  -8  -4   4   51.49    2.80
  -8  -4   4   46.90    2.20
  -8  -4   4   44.30    2.20
   7   4  -4    6.60    1.00
   7   4  -4    4.70    1.00
   7   4  -4    7.50    0.90
   7   4  -4    5.70    1.20
  -7  -4   4    9.80    1.00
  -7  -4   4    6.30    1.10
  -7  -4   4    6.60    0.90
   6   4  -4   68.49    2.30
   6   4  -4   62.89    2.70
   6   4  -4   66.79    2.80
   6   4  -4   65.19    2.50
  -6  -4   4   63.19    2.30
  -6  -4   4   69.29    2.80
  -6  -4   4   62.09    2.30
   5   4  -4    4.20    0.60
   5   4  -4    3.50    0.80
   5   4  -4    3.60    0.60
   5   4  -4    4.20    0.60
   5   4  -4    3.80    0.70
  -5  -4   4    2.80    0.50
  -5  -4   4    4.00    0.80
  -5  -4   4    4.10    0.60
  -5  -4   4    4.80    0.50
   4   4  -4    0.20    0.30
   4   4  -4    0.00    0.40
   4   4  -4   -0.60    0.30
   4   4  -4   -0.20    0.40
   4   4  -4    0.30    0.30
  -4  -4   4   -0.10    0.50
  -4  -4   4   -0.30    0.30
  -4  -4   4    0.30    0.30
   3   4  -4   28.20    1.40
   3   4  -4   28.60    1.00
   3   4  -4   31.20    1.30
   3   4  -4   29.80    1.40
   3   4  -4   29.20    1.00
  -3  -4   4   29.00    1.40
  -3  -4   4   32.50    1.40
  -3  -4   4   29.90    1.20
  -3  -4   4   30.60    1.10
   2   4  -4   24.40    1.20
   2   4  -4   25.60    0.90
   2   4  -4   25.40    1.20
   2   4  -4   23.90    1.20
   2   4  -4   26.60    0.70
  -2  -4   4   24.00    1.10
  -2  -4   4   27.30    0.90
  -2  -4   4   26.30    1.20
  -2  -4   4   24.50    0.70
  -2  -4   4   23.40    1.00
  -2  -4   4   25.20    0.90
   1   4  -4    5.80    0.60
   1   4  -4    4.90    0.30
   1   4  -4    5.40    0.30
   1   4  -4    5.50    0.60
   1   4  -4    5.10    0.40
  -1  -4   4    5.90    0.60
  -1  -4   4    5.10    0.30
  -1  -4   4    4.20    0.50
  -1  -4   4    4.30    0.50
  -1  -4   4    4.80    0.30
   0   4  -4   54.99    1.90
   0   4  -4   54.09    1.70
   0   4  -4   53.59    1.90
   0   4  -4   52.79    1.50
   0  -4   4   54.69    1.50
   0  -4   4   53.99    1.80
   0  -4   4   55.09    1.60
   0  -4   4   55.79    1.70
   0  -4   4   53.39    1.50
  -1   4  -4  141.19    3.70
  -1   4  -4  143.19    3.90
  -1   4  -4  150.18    3.60
  -1   4  -4  140.39    3.70
   1  -4   4  139.79    3.80
   1  -4   4  145.69    3.70
   1  -4   4  141.19    3.90
   1  -4   4  141.09    3.60
  -2   4  -4   31.80    1.30
  -2   4  -4   29.80    1.10
  -2   4  -4   31.20    1.20
   2  -4   4   30.40    1.20
   2  -4   4   29.00    1.10
   2  -4   4   29.50    1.00
   2  -4   4   30.00    1.30
  -3   4  -4   10.70    0.90
  -3   4  -4   10.90    0.70
  -3   4  -4   11.40    0.80
   3  -4   4   10.20    0.80
   3  -4   4   12.20    0.70
   3  -4   4   11.30    0.70
   3  -4   4   11.50    0.90
   3  -4   4   11.80    0.60
  -4   4  -4   16.30    1.00
  -4   4  -4   14.10    1.20
  -4   4  -4   17.50    1.00
   4  -4   4   16.50    0.80
   4  -4   4   16.30    1.00
   4  -4   4   16.30    1.00
   4  -4   4   16.10    1.20
   4  -4   4   18.20    1.00
  -5   4  -4    0.30    0.40
  -5   4  -4   -0.70    0.40
  -5   4  -4    0.20    0.60
   5  -4   4    0.40    0.40
   5  -4   4   -0.10    0.40
   5  -4   4    0.00    0.40
   5  -4   4    0.30    0.50
   5  -4   4   -0.20    0.30
  -6   4  -4   34.40    2.00
  -6   4  -4   33.10    1.70
   6  -4   4   32.80    1.50
   6  -4   4   34.30    1.70
   6  -4   4   37.30    1.90
  -7   4  -4   30.60    2.10
  -7   4  -4   33.50    1.80
  -7   4  -4   31.60    1.80
   7  -4   4   29.70    1.70
   7  -4   4   28.80    1.60
   7  -4   4   32.70    1.80
  -8   4  -4   14.80    1.50
  -8   4  -4   14.30    1.70
  -8   4  -4   15.60    1.50
   8  -4   4   14.20    1.50
   8  -4   4   14.10    1.30
   8  -4   4   14.50    1.40
   9   3  -4    1.20    1.20
   9   3  -4    0.50    0.60
   9   3  -4    0.10    0.60
  -9  -3   4    0.00    0.60
  -9  -3   4    1.60    1.00
  -9  -3   4    1.60    0.80
   8   3  -4   10.40    1.20
   8   3  -4   10.10    1.70
   8   3  -4   12.10    1.20
  -8  -3   4   12.40    1.60
  -8  -3   4   10.30    1.20
  -8  -3   4   10.50    1.20
   7   3  -4   23.00    1.30
   7   3  -4   22.60    1.50
   7   3  -4   18.10    1.60
   7   3  -4   23.60    1.90
  -7  -3   4   22.50    1.40
  -7  -3   4   20.70    1.30
  -7  -3   4   26.40    1.80
   6   3  -4   32.40    1.90
   6   3  -4   28.60    1.30
   6   3  -4   29.90    1.80
   6   3  -4   28.60    1.50
  -6  -3   4   27.80    1.30
  -6  -3   4   32.60    1.90
  -6  -3   4   27.50    1.40
   5   3  -4   16.60    0.90
   5   3  -4   17.70    1.20
   5   3  -4   15.60    1.10
   5   3  -4   16.40    1.30
  -5  -3   4   17.40    0.70
  -5  -3   4   16.90    0.70
  -5  -3   4   17.20    1.00
  -5  -3   4   17.20    0.90
   4   3  -4    6.80    0.80
   4   3  -4    6.00    0.70
   4   3  -4    7.30    0.60
   4   3  -4    6.50    0.70
   4   3  -4    6.40    0.40
   4   3  -4    6.80    0.60
  -4  -3   4    6.80    0.50
  -4  -3   4    6.80    0.60
  -4  -3   4    5.20    0.80
  -4  -3   4    6.30    0.60
  -4  -3   4    6.60    0.50
  -4  -3   4    7.00    1.00
   3   3  -4    3.60    0.40
   3   3  -4    3.00    0.40
   3   3  -4    3.40    0.40
   3   3  -4    3.30    0.50
   3   3  -4    3.50    0.30
   3   3  -4    4.10    0.50
  -3  -3   4    3.50    0.50
  -3  -3   4    4.20    0.40
  -3  -3   4    3.50    0.40
  -3  -3   4    3.90    0.40
  -3  -3   4    2.90    0.50
   2   3  -4   62.39    1.90
   2   3  -4   56.79    2.00
   2   3  -4   61.79    1.60
   2   3  -4   59.19    1.60
   2   3  -4   58.79    1.60
   2   3  -4   60.59    2.00
   2   3  -4   62.09    1.80
  -2  -3   4   61.19    1.80
  -2  -3   4   60.49    2.00
  -2  -3   4   61.99    1.70
  -2  -3   4   58.19    1.80
  -2  -3   4   60.79    2.00
   1   3  -4   22.50    1.00
   1   3  -4   25.40    0.70
   1   3  -4   22.60    0.70
   1   3  -4   24.00    0.80
   1   3  -4   23.80    1.00
   1   3  -4   24.00    0.70
  -1  -3   4   22.90    1.00
  -1  -3   4   24.10    0.70
  -1  -3   4   23.30    0.70
  -1  -3   4   24.20    0.70
  -1  -3   4   23.50    0.90
  -1  -3   4   24.50    0.70
  -1  -3   4   23.80    1.00
   0   3  -4  369.76    9.50
   0   3  -4  390.66    9.00
   0   3  -4  367.46    9.10
   0   3  -4  368.16    9.20
   0   3  -4  403.16    9.20
   0  -3   4  394.66    9.10
   0  -3   4  397.46    9.10
   0  -3   4  373.66    9.30
   0  -3   4  378.76    9.00
   0  -3   4  373.36    9.00
   0  -3   4  363.26    9.20
   0  -3   4  365.86    9.20
   0  -3   4  376.06    9.30
  -1   3  -4  269.27    7.10
  -1   3  -4  284.67    6.90
  -1   3  -4  294.67    6.90
  -1   3  -4  285.97    6.90
  -1   3  -4  292.47    6.80
  -1   3  -4  271.07    6.90
   1  -3   4  299.77    7.00
   1  -3   4  279.17    7.00
   1  -3   4  286.27    6.90
   1  -3   4  277.17    7.10
   1  -3   4  277.17    6.90
  -2   3  -4   87.09    2.40
  -2   3  -4   88.09    2.70
  -2   3  -4   89.19    2.50
   2  -3   4   88.39    2.60
   2  -3   4   89.29    2.40
   2  -3   4   90.39    2.40
   2  -3   4   89.89    2.60
   2  -3   4   90.39    2.40
  -3   3  -4   43.80    1.60
  -3   3  -4   47.30    1.80
   3  -3   4   47.10    1.50
   3  -3   4   44.00    1.40
   3  -3   4   44.80    1.60
   3  -3   4   48.70    1.60
   3  -3   4   47.50    1.50
  -4   3  -4    9.00    1.00
  -4   3  -4   12.10    0.90
   4  -3   4   10.70    0.70
   4  -3   4   11.00    0.80
   4  -3   4   11.70    0.70
  -5   3  -4    1.40    0.50
  -5   3  -4    0.80    0.50
   5  -3   4    1.50    0.40
   5  -3   4    1.40    0.40
   5  -3   4    1.00    0.40
   5  -3   4    1.10    0.50
  -6   3  -4   31.50    1.80
  -6   3  -4   32.90    1.60
   6  -3   4   30.60    1.60
   6  -3   4   29.80    1.50
   6  -3   4   32.30    1.80
   6  -3   4   33.40    1.50
  -7   3  -4    9.10    1.10
  -7   3  -4    6.40    1.10
   7  -3   4    7.00    0.90
   7  -3   4    8.30    1.20
   7  -3   4    4.00    0.90
   7  -3   4    8.30    1.00
  -8   3  -4    4.00    1.00
  -8   3  -4    3.80    1.00
   8  -3   4    3.80    0.80
   8  -3   4    3.60    0.80
   8  -3   4    3.20    0.90
  -9  -2   4    4.00    1.10
   8   2  -4   18.70    2.10
   8   2  -4   17.20    1.40
   8   2  -4   17.50    1.20
  -8  -2   4   16.20    1.40
  -8  -2   4   14.00    1.40
  -8  -2   4   18.80    1.70
   7   2  -4   28.10    1.40
   7   2  -4   26.20    1.50
   7   2  -4   25.90    1.80
   7   2  -4   30.70    2.10
   7   2  -4   25.10    1.40
  -7  -2   4   29.50    1.90
  -7  -2   4   24.10    1.30
  -7  -2   4   27.70    1.50
  -7  -2   4   26.30    1.50
   6   2  -4   -0.90    0.60
   6   2  -4    0.00    0.50
   6   2  -4   -0.60    0.50
   6   2  -4   -0.10    0.40
  -6  -2   4   -0.20    0.40
  -6  -2   4   -0.70    0.50
  -6  -2   4    0.10    0.40
  -6  -2   4    0.30    0.30
   5   2  -4    0.10    0.30
   5   2  -4   -0.10    0.60
   5   2  -4   -0.20    0.40
   5   2  -4    0.20    0.50
   5   2  -4    0.00    0.20
  -5  -2   4   -0.60    0.40
  -5  -2   4    0.10    0.30
  -5  -2   4    0.40    0.30
  -5  -2   4   -0.40    0.30
  -5  -2   4   -0.30    0.20
   4   2  -4   63.19    1.60
   4   2  -4   61.29    1.90
   4   2  -4   62.79    2.20
   4   2  -4   61.79    2.30
   4   2  -4   62.59    2.00
  -4  -2   4   61.29    1.90
  -4  -2   4   60.79    2.20
  -4  -2   4   61.69    1.80
  -4  -2   4   60.79    1.70
  -4  -2   4   65.59    2.20
  -4  -2   4   57.89    1.90
   3   2  -4  206.78    5.40
   3   2  -4  205.38    5.60
   3   2  -4  212.48    5.50
   3   2  -4  209.38    5.20
   3   2  -4  212.98    5.40
  -3  -2   4  209.28    5.30
  -3  -2   4  211.38    5.30
  -3  -2   4  213.68    5.50
  -3  -2   4  212.28    5.30
  -3  -2   4  209.28    5.20
  -3  -2   4  198.58    5.60
   2   2  -4   22.30    0.80
   2   2  -4   22.30    0.90
   2   2  -4   23.00    0.80
   2   2  -4   22.10    1.00
   2   2  -4   21.90    0.70
   2   2  -4   22.00    0.70
   2   2  -4   21.90    0.70
  -2  -2   4   23.50    0.80
  -2  -2   4   22.20    0.80
  -2  -2   4   22.00    0.90
  -2  -2   4   22.00    0.80
  -2  -2   4   22.70    0.70
  -2  -2   4   22.50    0.90
   1   2  -4  586.94   13.90
   1   2  -4  603.24   13.90
   1   2  -4  591.24   13.90
   1   2  -4  586.54   13.90
   1   2  -4  572.54   14.20
   1   2  -4  565.64   14.20
   1   2  -4  575.64   14.20
  -1  -2   4  572.24   14.00
  -1  -2   4  585.84   14.10
  -1  -2   4  585.64   14.20
  -1  -2   4  611.54   13.90
  -1  -2   4  579.14   14.20
  -1  -2   4  608.24   13.90
  -1  -2   4  593.14   14.20
  -1  -2   4  588.84   14.00
   0   2  -4  683.43   16.00
   0   2  -4  655.73   16.00
   0   2  -4  652.43   16.00
   0   2  -4  676.43   16.00
   0   2  -4  643.74   16.00
   0   2  -4  667.33   16.20
   0   2  -4  687.03   16.00
   0  -2   4  663.83   15.90
   0  -2   4  679.93   16.20
   0  -2   4  691.73   16.20
   0  -2   4  678.73   16.00
   0  -2   4  684.93   15.90
   0  -2   4  649.43   16.10
   0  -2   4  700.93   16.00
   0  -2   4  669.43   16.10
  -1   2  -4 1429.76   34.70
  -1   2  -4 1468.95   35.00
  -1   2  -4 1487.45   34.70
  -1   2  -4 1400.16   34.90
   1  -2   4 1437.66   34.70
   1  -2   4 1440.76   34.60
   1  -2   4 1516.25   34.60
   1  -2   4 1407.06   34.50
   1  -2   4 1427.16   34.50
   1  -2   4 1429.26   34.60
   1  -2   4 1544.25   34.70
  -2   2  -4  281.87    7.20
  -2   2  -4  280.47    7.00
   2  -2   4  278.57    7.00
   2  -2   4  276.67    7.10
   2  -2   4  289.87    7.10
   2  -2   4  294.57    6.90
   2  -2   4  287.47    6.90
  -3   2  -4   17.60    0.80
  -3   2  -4   17.00    1.00
   3  -2   4   18.60    0.90
   3  -2   4   18.20    0.70
   3  -2   4   18.40    0.80
   3  -2   4   18.80    0.90
  -4   2  -4    0.90    0.30
  -4   2  -4    1.00    0.50
   4  -2   4    0.90    0.30
   4  -2   4    0.80    0.30
   4  -2   4    0.60    0.30
   4  -2   4    0.50    0.40
   4  -2   4    0.90    0.40
  -5   2  -4    8.40    0.80
  -5   2  -4    7.70    0.90
   5  -2   4    8.00    0.70
   5  -2   4    7.90    0.70
   5  -2   4    7.00    0.90
   5  -2   4    8.30    0.70
   5  -2   4    7.60    0.80
  -6   2  -4    2.20    0.50
  -6   2  -4    1.40    0.60
   6  -2   4    1.40    0.60
   6  -2   4    0.50    0.50
   6  -2   4    1.50    0.40
   6  -2   4    0.70    0.50
  -7   2  -4    9.30    1.00
  -7   2  -4   10.80    1.30
   7  -2   4   10.30    1.00
   7  -2   4    8.50    1.20
   7  -2   4    7.80    1.00
   7  -2   4    8.50    1.00
  -8   2  -4    0.20    0.70
  -8   2  -4    0.00    0.60
   8  -2   4    2.90    0.90
   8  -2   4   -0.20    0.60
   8  -2   4    1.50    0.60
   8  -2   4    2.70    0.80
  -9   2  -4    0.40    0.90
  -9   2  -4    1.90    0.80
   9  -2   4    0.90    0.60
   9  -2   4    0.80    0.70
   9  -2   4    1.90    0.90
   9  -2   4    1.40    0.80
   8   1  -4    0.70    0.70
   8   1  -4   -0.70    0.50
   8   1  -4    1.00    1.10
  -8  -1   4    0.90    0.70
  -8  -1   4    0.00    0.70
   7   1  -4   -0.20    0.80
   7   1  -4   -1.10    0.50
   7   1  -4   -0.50    0.40
  -7  -1   4    0.60    0.70
  -7  -1   4   -0.20    0.50
  -7  -1   4    0.40    0.60
   6   1  -4    1.40    0.50
   6   1  -4    2.20    0.60
   6   1  -4    0.70    0.60
   6   1  -4    1.90    0.40
   6   1  -4    1.50    0.50
   6   1  -4    0.80    0.80
  -6  -1   4    2.10    0.60
  -6  -1   4    1.40    0.60
  -6  -1   4    1.70    0.50
  -6  -1   4    2.10    0.50
  -6  -1   4    1.50    0.40
   5   1  -4   46.70    1.70
   5   1  -4   46.30    1.70
   5   1  -4   46.20    1.50
   5   1  -4   45.50    1.90
   5   1  -4   46.90    1.70
   5   1  -4   47.40    2.10
  -5  -1   4   46.00    1.70
  -5  -1   4   44.90    2.00
  -5  -1   4   46.20    1.50
  -5  -1   4   43.70    1.70
  -5  -1   4   44.90    1.70
   4   1  -4    0.80    0.20
   4   1  -4    1.20    0.40
   4   1  -4    1.30    0.40
   4   1  -4    0.60    0.40
   4   1  -4    0.60    0.50
  -4  -1   4    1.30    0.40
  -4  -1   4    0.80    0.40
  -4  -1   4    1.00    0.40
  -4  -1   4    0.70    0.30
  -4  -1   4    1.50    0.40
  -4  -1   4    0.90    0.30
   3   1  -4    5.70    0.50
   3   1  -4    4.90    0.40
   3   1  -4    5.50    0.60
   3   1  -4    5.50    0.30
   3   1  -4    4.90    0.60
  -3  -1   4    5.90    0.50
  -3  -1   4    6.20    0.50
  -3  -1   4    5.70    0.40
  -3  -1   4    5.20    0.50
  -3  -1   4    7.00    0.50
  -3  -1   4    4.80    0.60
   2   1  -4    9.30    0.50
   2   1  -4    9.20    0.60
   2   1  -4    8.40    0.40
   2   1  -4    8.70    0.40
  -2  -1   4    9.40    0.50
  -2  -1   4    8.30    0.50
  -2  -1   4    9.20    0.50
  -2  -1   4    8.00    0.40
  -2  -1   4    8.60    0.70
  -2  -1   4    8.70    0.50
  -2  -1   4    6.30    0.50
   1   1  -4   10.40    0.40
   1   1  -4   10.40    0.50
   1   1  -4    9.90    0.40
   1   1  -4    9.20    0.50
   1   1  -4    9.70    0.40
  -1  -1   4    7.90    0.60
  -1  -1   4   10.40    0.40
  -1  -1   4   10.20    0.40
  -1  -1   4    9.80    0.50
  -1  -1   4    8.80    0.50
  -1  -1   4    9.60    0.40
  -1  -1   4   11.20    0.40
  -1  -1   4   10.00    0.50
   0   1  -4 1787.82   45.10
   0   1  -4 1928.11   44.40
   0  -1   4 1831.52   45.20
   0  -1   4 1795.42   44.20
   0  -1   4 1836.62   44.40
   0  -1   4 1916.11   45.30
   0  -1   4 1946.31   45.20
  -1   1  -4   29.80    0.80
  -1   1  -4   30.50    0.80
  -1   1  -4   28.90    1.00
  -1   1  -4   30.60    0.80
  -1   1  -4   29.70    0.90
  -1   1  -4   30.80    0.80
   1  -1   4   31.70    0.80
   1  -1   4   30.80    0.80
   1  -1   4   30.60    1.00
   1  -1   4   28.90    1.00
   1  -1   4   30.10    1.00
  -2   1  -4  701.93   16.70
  -2   1  -4  693.13   16.80
  -2   1  -4  703.13   16.80
  -2   1  -4  691.13   16.90
  -2   1  -4  682.23   16.70
  -2   1  -4  715.13   16.70
   2  -1   4  718.03   16.90
   2  -1   4  747.73   16.80
   2  -1   4  663.03   16.80
   2  -1   4  706.73   16.70
   2  -1   4  720.83   16.90
  -3   1  -4  145.79    3.80
  -3   1  -4  143.59    3.50
  -3   1  -4  142.69    3.70
  -3   1  -4  144.89    3.90
   3  -1   4  148.79    3.50
   3  -1   4  146.39    3.70
   3  -1   4  142.59    3.80
   3  -1   4  138.69    3.90
   3  -1   4  146.19    3.80
  -4   1  -4   17.70    0.90
  -4   1  -4   17.90    1.10
  -4   1  -4   16.60    1.00
  -4   1  -4   17.50    0.90
   4  -1   4   17.90    0.60
   4  -1   4   16.90    0.90
   4  -1   4   18.60    0.80
   4  -1   4   18.10    1.00
   4  -1   4   19.20    0.80
  -5   1  -4   89.99    3.00
  -5   1  -4   92.19    2.80
  -5   1  -4   88.99    2.70
   5  -1   4   90.09    2.40
   5  -1   4   85.69    2.90
   5  -1   4   91.99    2.80
   5  -1   4   90.59    2.70
  -6   1  -4   -0.20    0.50
  -6   1  -4    0.00    0.40
  -6   1  -4    0.30    0.40
   6  -1   4    0.00    0.30
   6  -1   4   -0.10    0.40
   6  -1   4    0.10    0.40
   6  -1   4    0.30    0.50
  -7   1  -4    1.10    0.50
  -7   1  -4    0.00    0.60
  -7   1  -4    0.80    0.50
   7  -1   4    0.00    0.50
   7  -1   4    0.40    0.60
   7  -1   4    0.20    0.50
   7  -1   4    0.60    0.40
  -8   1  -4    4.90    1.00
  -8   1  -4    6.50    1.00
   8  -1   4    6.00    0.80
   8  -1   4    4.80    0.80
   8  -1   4    7.20    1.20
   8  -1   4    5.50    0.90
  -9   1  -4    3.10    0.90
  -9   1  -4    2.30    0.90
   9  -1   4    2.60    0.80
   9  -1   4    2.00    0.80
   9  -1   4    2.30    1.00
   9  -1   4    2.20    0.70
   8   0  -4    8.90    1.10
   8   0  -4    9.20    1.00
   8   0  -4    7.70    1.40
  -8   0   4    6.60    1.20
  -8   0   4    8.10    1.10
  -8   0   4   10.40    1.20
   7   0  -4    4.60    0.80
   7   0  -4    4.10    1.20
   7   0  -4    6.20    0.90
  -7   0   4    5.20    0.90
  -7   0   4    4.80    0.80
  -7   0   4    4.60    1.00
   6   0  -4   52.19    1.90
   6   0  -4   49.10    2.40
   6   0  -4   48.70    1.70
   6   0  -4   48.80    1.90
  -6   0   4   47.00    2.10
  -6   0   4   52.19    2.10
  -6   0   4   49.30    2.00
  -6   0   4   49.70    1.80
   5   0  -4   13.00    0.90
   5   0  -4   16.60    1.40
   5   0  -4   12.60    0.90
   5   0  -4   14.10    0.80
  -5   0   4   13.50    1.00
  -5   0   4   14.50    0.80
  -5   0   4   16.30    1.10
  -5   0   4   14.20    1.00
   4   0  -4    4.10    0.50
   4   0  -4    3.80    0.50
   4   0  -4    3.20    0.50
   4   0  -4    3.80    0.60
   4   0  -4    4.40    0.50
   4   0  -4    3.60    0.70
  -4   0   4    3.50    0.50
  -4   0   4    3.40    0.60
  -4   0   4    3.50    0.50
  -4   0   4    3.60    0.50
  -4   0   4    4.60    0.60
   3   0  -4  146.99    4.00
   3   0  -4  160.38    3.80
   3   0  -4  157.18    4.00
   3   0  -4  156.58    4.40
   3   0  -4  147.39    4.00
   3   0  -4  155.18    4.10
  -3   0   4  158.38    4.00
  -3   0   4  159.88    4.10
  -3   0   4  157.68    4.10
  -3   0   4  151.58    4.10
  -3   0   4  148.59    4.30
  -3   0   4  158.68    4.10
   2   0  -4 2076.69   49.00
   2   0  -4 2033.10   49.50
   2   0  -4 2151.78   49.10
   2   0  -4 2027.50   49.40
   2   0  -4 1915.61   48.90
   2   0  -4 2001.20   48.90
  -2   0   4 2012.70   48.90
  -2   0   4 2191.78   49.99
  -2   0   4 2129.39   49.00
  -2   0   4 2036.10   49.10
  -2   0   4 1992.40   49.20
  -2   0   4 2004.80   49.20
   1   0  -4  744.53   18.00
   1   0  -4  771.22   17.90
   1   0  -4  746.23   17.80
   1   0  -4  743.13   17.90
   1   0  -4  752.22   17.90
   1   0  -4  767.02   17.90
   1   0  -4  744.63   18.00
   1   0  -4  735.53   18.30
  -1   0   4  747.23   18.10
  -1   0   4  790.22   18.10
  -1   0   4  782.52   17.90
  -1   0   4  722.33   18.00
  -1   0   4  768.12   18.00
  -1   0   4  729.53   17.90
  -1   0   4  774.62   18.00
   0   0  -4 1149.39   28.00
   0   0  -4 1180.38   28.20
   0   0  -4 1203.88   28.20
   0   0  -4 1125.59   28.30
   0   0  -4 1151.68   28.80
   0   0  -4 1158.08   28.20
   0   0   4 1236.08   28.00
   0   0   4 1249.38   28.10
   0   0   4 1147.89   28.30
   0   0   4 1203.88   28.00
   0   0   4 1167.58   28.70
   0   0   4 1197.88   28.10
  -1   0  -4    1.10    0.20
  -1   0  -4    1.00    0.10
  -1   0  -4    0.80    0.10
  -1   0  -4    1.00    0.10
  -1   0  -4    1.00    0.20
  -1   0  -4    1.00    0.10
   1   0   4    1.00    0.10
   1   0   4    1.20    0.20
   1   0   4    1.20    0.10
   1   0   4    0.80    0.20
   1   0   4    1.00    0.20
   1   0   4    1.00    0.20
  -2   0  -4  388.66    9.50
  -2   0  -4  374.26    9.30
  -2   0  -4  390.26    9.30
  -2   0  -4  380.56    9.30
  -2   0  -4  392.76    9.40
   2   0   4  402.46    9.30
   2   0   4  384.76    9.30
   2   0   4  382.26    9.30
   2   0   4  401.96    9.30
   2   0   4  391.16    9.40
   2   0   4  385.86    9.40
   2   0   4  388.16    9.30
  -3   0  -4   70.39    2.00
  -3   0  -4   71.49    2.10
  -3   0  -4   72.99    2.00
  -3   0  -4   71.69    1.90
  -3   0  -4   72.89    2.20
   3   0   4   73.69    1.90
   3   0   4   69.79    2.00
   3   0   4   72.09    2.00
   3   0   4   68.29    2.10
   3   0   4   68.29    2.10
  -4   0  -4    0.20    0.20
  -4   0  -4    0.90    0.40
  -4   0  -4    1.20    0.30
  -4   0  -4    0.80    0.40
  -4   0  -4    1.40    0.40
   4   0   4    1.10    0.30
   4   0   4    0.80    0.40
   4   0   4    0.40    0.30
  -5   0  -4    0.60    0.40
  -5   0  -4    0.50    0.40
  -5   0  -4    0.80    0.40
   5   0   4    0.70    0.50
   5   0   4    0.40    0.30
   5   0   4    0.40    0.40
  -6   0  -4   82.99    2.70
  -6   0  -4   83.79    2.70
  -6   0  -4   86.79    2.90
   6   0   4   82.19    2.70
   6   0   4   83.69    2.90
   6   0   4   83.19    2.60
  -7   0  -4  129.79    4.10
  -7   0  -4  130.49    4.00
  -7   0  -4  127.59    4.00
   7   0   4  122.69    3.90
   7   0   4  134.39    4.30
   7   0   4  126.19    3.80
  -8   0  -4   19.90    1.60
  -8   0  -4   20.50    1.50
  -8   0  -4   19.20    1.40
   8   0   4   21.30    1.40
   8   0   4   19.60    1.20
   8   0   4   21.70    1.70
   8   0   4   19.40    1.30
  -9   0  -4   41.40    2.20
  -9   0  -4   46.40    2.40
  -9   0  -4   43.50    2.30
   9   0   4   42.50    2.00
   9   0   4   37.60    2.10
   9   0   4   41.00    2.10
   9   0   4   52.59    2.70
   8  -1  -4    2.10    0.80
   8  -1  -4    2.10    0.70
   8  -1  -4    2.30    1.00
  -8   1   4    2.10    0.80
  -8   1   4    1.30    0.70
   7  -1  -4   10.80    1.50
   7  -1  -4   15.20    1.30
   7  -1  -4   11.70    1.20
  -7   1   4   13.80    1.20
  -7   1   4   16.30    1.50
  -7   1   4   12.60    1.30
   6  -1  -4    1.80    0.60
   6  -1  -4    0.50    0.80
   6  -1  -4    0.90    0.50
   6  -1  -4    1.10    0.60
  -6   1   4    1.70    0.60
  -6   1   4    0.50    0.60
  -6   1   4    0.30    0.60
   5  -1  -4   69.89    2.70
   5  -1  -4   65.19    2.30
   5  -1  -4   67.29    2.20
   5  -1  -4   66.59    2.20
  -5   1   4   70.49    2.50
  -5   1   4   65.29    2.40
  -5   1   4   62.59    2.50
  -5   1   4   67.29    2.50
   4  -1  -4   44.60    1.90
   4  -1  -4   43.60    1.60
   4  -1  -4   43.70    1.60
  -4   1   4   44.60    1.80
  -4   1   4   43.30    1.70
  -4   1   4   45.50    1.70
  -4   1   4   44.90    1.60
   3  -1  -4  150.78    3.90
   3  -1  -4  149.39    3.90
   3  -1  -4  147.89    4.20
   3  -1  -4  149.19    3.70
  -3   1   4  141.79    4.10
  -3   1   4  145.79    3.90
  -3   1   4  144.79    4.00
  -3   1   4  152.28    3.70
  -3   1   4  143.29    4.10
   2  -1  -4   95.89    2.80
   2  -1  -4   93.39    2.60
   2  -1  -4   95.69    2.50
  -2   1   4   93.09    2.70
  -2   1   4   96.99    2.60
  -2   1   4   93.59    2.70
  -2   1   4   92.49    2.50
  -2   1   4   95.99    2.40
   1  -1  -4  280.17    6.90
   1  -1  -4  276.27    6.80
   1  -1  -4  274.87    6.80
   1  -1  -4  276.07    6.60
  -1   1   4  279.07    6.60
  -1   1   4  273.07    6.80
  -1   1   4  274.37    6.80
  -1   1   4  285.37    6.80
  -1   1   4  270.37    6.90
  -1   1   4  294.27    6.90
   0  -1  -4   34.80    1.00
   0  -1  -4   34.20    1.10
   0  -1  -4   33.80    1.00
   0  -1  -4   33.70    0.90
   0  -1  -4   36.30    1.00
   0  -1  -4   36.20    1.00
   0  -1  -4   35.60    0.90
   0  -1  -4   34.00    1.00
   0   1   4   34.10    1.00
   0   1   4   36.00    1.00
   0   1   4   34.60    1.10
   0   1   4   34.10    1.20
   0   1   4   37.30    1.00
   0   1   4   37.00    1.00
  -1  -1  -4   44.90    1.20
  -1  -1  -4   41.70    1.00
  -1  -1  -4   44.00    1.20
  -1  -1  -4   40.10    1.20
  -1  -1  -4   39.70    1.20
  -1  -1  -4   42.20    1.20
   1   1   4   43.50    1.10
   1   1   4   39.90    1.30
   1   1   4   43.70    1.20
   1   1   4   41.90    1.20
   1   1   4   41.10    1.20
   1   1   4   41.30    1.20
   1   1   4   43.70    1.20
  -2  -1  -4    8.20    0.40
  -2  -1  -4    8.40    0.40
  -2  -1  -4    8.50    0.40
  -2  -1  -4    8.30    0.40
  -2  -1  -4    7.70    0.40
  -2  -1  -4    7.90    0.50
  -2  -1  -4    8.30    0.40
  -2  -1  -4    8.90    0.40
   2   1   4    8.70    0.40
   2   1   4    8.30    0.50
   2   1   4    8.50    0.40
   2   1   4    7.40    0.40
   2   1   4    8.10    0.40
   2   1   4    8.50    0.40
   2   1   4    8.00    0.40
   2   1   4    9.60    0.50
  -3  -1  -4  383.96    9.80
  -3  -1  -4  422.66    9.70
  -3  -1  -4  401.56   10.00
  -3  -1  -4  406.76    9.90
  -3  -1  -4  386.56    9.70
  -3  -1  -4  401.36    9.90
   3   1   4  412.76    9.70
   3   1   4  406.26    9.70
   3   1   4  398.16    9.90
   3   1   4  395.96    9.80
   3   1   4  403.36    9.70
   3   1   4  396.26    9.80
  -4  -1  -4  318.07    7.50
  -4  -1  -4  309.27    8.00
  -4  -1  -4  298.07    7.60
  -4  -1  -4  308.17    7.80
  -4  -1  -4  296.67    7.70
   4   1   4  312.77    7.70
   4   1   4  318.27    7.70
   4   1   4  307.37    7.70
   4   1   4  317.57    7.90
   4   1   4  302.27    7.80
  -5  -1  -4   27.50    1.20
  -5  -1  -4   29.00    0.90
  -5  -1  -4   26.10    1.20
  -5  -1  -4   28.20    1.20
  -5  -1  -4   27.60    1.10
   5   1   4   26.30    1.10
   5   1   4   30.00    1.20
   5   1   4   27.90    1.30
   5   1   4   27.10    1.10
  -6  -1  -4   31.40    1.50
  -6  -1  -4   34.40    1.50
  -6  -1  -4   34.90    1.50
   6   1   4   32.30    1.60
   6   1   4   32.90    1.40
   6   1   4   33.70    1.40
  -7  -1  -4   79.99    2.90
  -7  -1  -4   89.39    3.00
  -7  -1  -4   84.69    2.90
   7   1   4   80.39    2.80
   7   1   4   90.99    3.20
   7   1   4   84.89    2.80
  -8  -1  -4   44.50    2.10
  -8  -1  -4   43.80    2.10
  -8  -1  -4   41.80    1.90
   8   1   4   43.00    1.90
   8   1   4   43.80    2.30
   8   1   4   39.80    1.90
  -9  -1  -4   30.40    1.90
  -9  -1  -4   32.20    2.00
  -9  -1  -4   31.20    2.00
   9   1   4   28.20    1.70
   9   1   4   34.40    2.10
   9   1   4   31.40    1.80
   7  -2  -4   20.90    1.50
   7  -2  -4   22.20    2.00
   7  -2  -4   18.10    1.50
   7  -2  -4   21.00    1.40
  -7   2   4   20.80    1.60
  -7   2   4   20.20    1.60
   6  -2  -4   15.60    1.10
   6  -2  -4   13.00    1.20
   6  -2  -4   12.60    1.40
   6  -2  -4   13.40    1.10
   6  -2  -4   14.60    1.10
  -6   2   4   12.60    1.30
  -6   2   4   13.60    1.20
  -6   2   4   12.70    1.20
   5  -2  -4   39.80    1.70
   5  -2  -4   38.70    1.70
   5  -2  -4   39.90    2.00
   5  -2  -4   39.10    1.60
  -5   2   4   39.70    1.90
  -5   2   4   39.50    1.80
  -5   2   4   40.30    1.70
   4  -2  -4   46.00    1.70
   4  -2  -4   49.40    2.10
   4  -2  -4   47.60    1.70
  -4   2   4   47.70    1.80
  -4   2   4   46.80    1.80
  -4   2   4   48.70    1.70
  -4   2   4   42.30    1.90
   3  -2  -4   14.10    0.80
   3  -2  -4   13.20    0.70
   3  -2  -4   13.00    0.80
   3  -2  -4   13.00    1.00
  -3   2   4   13.60    0.60
  -3   2   4   13.20    0.70
  -3   2   4   12.50    0.80
  -3   2   4   12.30    0.80
  -3   2   4   11.50    0.80
   2  -2  -4    1.10    0.30
   2  -2  -4    2.50    0.40
   2  -2  -4    0.80    0.40
   2  -2  -4    1.30    0.30
  -2   2   4    1.30    0.30
  -2   2   4    0.90    0.30
  -2   2   4    0.80    0.20
  -2   2   4    1.10    0.30
  -2   2   4    1.10    0.10
  -2   2   4    0.90    0.30
   1  -2  -4  288.37    7.30
   1  -2  -4  291.87    7.30
   1  -2  -4  300.07    7.40
  -1   2   4  301.67    7.10
  -1   2   4  303.17    7.30
  -1   2   4  293.97    7.30
  -1   2   4  296.07    7.30
  -1   2   4  294.97    7.50
   0  -2  -4  724.33   17.70
   0  -2  -4  820.32   17.90
   0  -2  -4  723.73   17.70
   0  -2  -4  749.73   17.70
   0  -2  -4  734.93   17.80
   0  -2  -4  719.13   17.70
   0   2   4  739.23   17.80
   0   2   4  726.93   17.70
   0   2   4  768.62   17.70
   0   2   4  752.32   17.70
   0   2   4  732.43   17.80
  -1  -2  -4    0.30    0.20
  -1  -2  -4    0.40    0.20
  -1  -2  -4    0.20    0.10
  -1  -2  -4    0.40    0.10
  -1  -2  -4    0.20    0.10
   1   2   4    0.40    0.20
   1   2   4    0.30    0.20
   1   2   4    0.30    0.20
   1   2   4    0.10    0.20
  -2  -2  -4    2.80    0.30
  -2  -2  -4    2.70    0.20
  -2  -2  -4    2.40    0.30
  -2  -2  -4    2.30    0.30
  -2  -2  -4    2.30    0.30
   2   2   4    3.20    0.30
   2   2   4    2.20    0.30
   2   2   4    2.80    0.20
   2   2   4    3.00    0.30
   2   2   4    2.10    0.30
  -3  -2  -4   10.60    0.50
  -3  -2  -4    9.50    0.60
  -3  -2  -4   10.30    0.60
  -3  -2  -4   10.40    0.50
  -3  -2  -4    9.80    0.50
   3   2   4   10.10    0.50
   3   2   4   10.40    0.60
   3   2   4    9.80    0.50
   3   2   4    9.60    0.50
   3   2   4   10.10    0.70
   3   2   4   10.20    0.70
  -4  -2  -4  184.48    4.90
  -4  -2  -4  181.08    4.90
  -4  -2  -4  186.38    4.90
  -4  -2  -4  195.38    5.10
   4   2   4  190.88    4.60
   4   2   4  182.78    5.00
   4   2   4  191.18    4.90
   4   2   4  185.28    4.90
   4   2   4  189.38    4.80
   4   2   4  193.28    4.80
   4   2   4  186.18    5.10
  -5  -2  -4  169.78    4.70
  -5  -2  -4  173.18    4.60
  -5  -2  -4  179.58    4.70
   5   2   4  181.98    4.70
   5   2   4  169.88    4.60
   5   2   4  173.28    4.80
   5   2   4  181.78    5.00
   5   2   4  170.58    4.60
   5   2   4  177.68    4.90
  -6  -2  -4  109.39    3.30
  -6  -2  -4  109.19    3.30
  -6  -2  -4  109.69    3.30
   6   2   4  109.29    3.50
   6   2   4  109.69    3.20
   6   2   4  108.09    3.50
   6   2   4  110.29    3.20
   6   2   4  111.19    3.20
  -7  -2  -4   35.40    1.70
  -7  -2  -4   36.30    1.60
  -7  -2  -4   34.40    1.70
   7   2   4   36.80    1.60
   7   2   4   37.00    1.60
   7   2   4   37.70    1.90
  -8  -2  -4   31.70    1.70
  -8  -2  -4   32.20    1.70
  -8  -2  -4   32.10    1.80
   8   2   4   31.40    1.60
   8   2   4   31.80    1.90
   8   2   4   31.90    1.60
  -9  -2  -4    2.80    0.90
  -9  -2  -4    1.40    0.70
  -9  -2  -4    1.20    0.80
   9   2   4    1.20    0.60
   9   2   4    2.00    0.80
   9   2   4    2.10    0.90
 -10  -2  -4    1.60    0.90
 -10  -2  -4    0.90    0.80
  10   2   4    1.30    0.90
  10   2   4    2.50    0.90
   7  -3  -4    0.40    0.60
   7  -3  -4   -0.10    0.60
   7  -3  -4    0.40    0.70
   7  -3  -4    2.30    0.90
  -7   3   4    0.00    0.70
  -7   3   4   -0.40    0.60
  -7   3   4    0.50    0.70
   6  -3  -4   -0.80    0.50
   6  -3  -4   -0.30    0.70
   6  -3  -4   -0.70    0.50
   6  -3  -4    0.00    0.60
  -6   3   4   -0.10    0.60
  -6   3   4   -0.10    0.60
  -6   3   4    0.20    0.60
   5  -3  -4   78.99    3.10
   5  -3  -4   76.89    2.70
   5  -3  -4   74.79    2.50
   5  -3  -4   73.69    2.60
   5  -3  -4   73.59    2.60
  -5   3   4   76.19    2.70
  -5   3   4   74.09    2.90
  -5   3   4   76.99    2.60
  -5   3   4   77.79    2.80
   4  -3  -4  127.19    4.00
   4  -3  -4  122.09    3.70
   4  -3  -4  122.79    3.60
   4  -3  -4  124.79    3.60
  -4   3   4  131.09    3.60
  -4   3   4  128.59    4.00
  -4   3   4  127.59    3.60
  -4   3   4  121.69    3.70
  -4   3   4  120.69    3.80
   3  -3  -4    0.20    0.50
   3  -3  -4    0.70    0.40
   3  -3  -4   -1.10    0.30
   3  -3  -4   -0.30    0.30
  -3   3   4    0.20    0.20
  -3   3   4   -0.30    0.40
  -3   3   4    0.10    0.30
  -3   3   4   -0.30    0.30
  -3   3   4   -0.50    0.30
  -3   3   4   -0.10    0.30
   2  -3  -4    1.40    0.40
   2  -3  -4    1.40    0.30
   2  -3  -4    0.90    0.40
  -2   3   4    2.10    0.40
  -2   3   4    1.40    0.20
  -2   3   4    1.30    0.40
  -2   3   4    1.50    0.30
  -2   3   4    1.10    0.20
  -2   3   4    1.40    0.30
  -2   3   4    1.80    0.40
   1  -3  -4   86.09    2.40
   1  -3  -4   83.19    2.40
   1  -3  -4   81.99    2.40
   1  -3  -4   80.49    2.40
  -1   3   4   85.49    2.60
  -1   3   4   85.99    2.30
  -1   3   4   85.09    2.50
  -1   3   4   86.99    2.20
  -1   3   4   88.59    2.40
  -1   3   4   87.29    2.20
   0  -3  -4   40.00    1.30
   0  -3  -4   41.10    1.40
   0  -3  -4   44.90    1.30
   0  -3  -4   39.90    1.30
   0   3   4   42.10    1.20
   0   3   4   41.80    1.30
   0   3   4   40.70    1.10
   0   3   4   41.40    1.20
  -1  -3  -4  295.87    7.70
  -1  -3  -4  304.37    7.60
  -1  -3  -4  306.47    7.80
  -1  -3  -4  307.47    7.70
  -1  -3  -4  330.17    7.70
   1   3   4  318.07    7.70
   1   3   4  319.57    7.70
   1   3   4  330.27    7.50
   1   3   4  306.67    7.60
   1   3   4  315.77    7.60
   1   3   4  321.37    7.70
  -2  -3  -4    5.00    0.50
  -2  -3  -4    4.10    0.40
  -2  -3  -4    3.70    0.40
   2   3   4    4.70    0.40
   2   3   4    4.60    0.40
   2   3   4    4.10    0.40
   2   3   4    4.40    0.40
   2   3   4    4.70    0.30
  -3  -3  -4   55.79    1.60
  -3  -3  -4   52.09    1.60
  -3  -3  -4   53.29    1.70
  -3  -3  -4   54.89    1.80
  -3  -3  -4   51.89    1.70
   3   3   4   54.89    1.70
   3   3   4   56.49    1.60
   3   3   4   54.09    1.80
   3   3   4   54.29    1.80
   3   3   4   55.89    1.60
  -4  -3  -4    1.40    0.30
  -4  -3  -4    0.50    0.30
  -4  -3  -4    1.10    0.30
  -4  -3  -4    0.70    0.30
  -4  -3  -4    0.70    0.40
   4   3   4    0.50    0.40
   4   3   4    0.60    0.40
   4   3   4    1.40    0.40
   4   3   4    1.10    0.20
   4   3   4    0.50    0.30
  -5  -3  -4   11.80    0.80
  -5  -3  -4   12.80    0.80
  -5  -3  -4   12.80    0.80
   5   3   4   11.50    0.80
   5   3   4   13.60    0.90
   5   3   4   12.60    0.80
   5   3   4   12.80    1.10
   5   3   4   13.00    1.00
   5   3   4   13.10    0.80
  -6  -3  -4  142.29    3.90
  -6  -3  -4  134.69    4.00
  -6  -3  -4  141.69    4.00
   6   3   4  140.29    3.90
   6   3   4  139.09    4.40
   6   3   4  146.19    4.00
   6   3   4  138.59    3.90
   6   3   4  133.09    4.20
   6   3   4  139.59    4.10
  -7  -3  -4   42.20    1.80
  -7  -3  -4   41.70    1.70
  -7  -3  -4   40.90    1.80
   7   3   4   42.50    1.70
   7   3   4   43.90    1.70
   7   3   4   41.90    2.00
   7   3   4   42.30    2.00
   7   3   4   40.20    1.70
  -8  -3  -4    1.70    0.70
  -8  -3  -4    1.30    0.60
  -8  -3  -4    2.60    0.70
   8   3   4    2.00    0.80
   8   3   4    1.80    0.60
   8   3   4    1.10    0.80
   8   3   4    2.30    0.60
  -9  -3  -4    4.90    1.00
  -9  -3  -4    3.50    0.90
   9   3   4    3.50    1.00
   9   3   4    6.60    1.00
   9   3   4    4.20    0.80
 -10  -3  -4   -0.10    0.60
 -10  -3  -4    0.30    0.80
  10   3   4    0.20    0.80
  10   3   4    1.90    0.70
   7  -4  -4   -0.70    0.60
   7  -4  -4    0.00    0.60
   7  -4  -4    1.50    0.80
  -7   4   4   -0.50    0.80
  -7   4   4    0.80    0.70
  -7   4   4    0.70    0.60
   6  -4  -4    0.90    0.80
   6  -4  -4    0.10    0.50
   6  -4  -4    0.00    0.60
  -6   4   4   -0.40    0.70
  -6   4   4    1.00    0.70
  -6   4   4   -0.20    0.50
   5  -4  -4   20.50    1.40
   5  -4  -4   20.20    1.20
   5  -4  -4   23.50    1.70
   5  -4  -4   19.70    1.30
  -5   4   4   20.70    1.50
  -5   4   4   18.60    1.60
  -5   4   4   20.70    1.40
   4  -4  -4    6.80    0.70
   4  -4  -4    6.90    0.80
   4  -4  -4    7.50    1.00
  -4   4   4    7.40    1.00
  -4   4   4    8.90    1.00
  -4   4   4    7.60    0.90
   3  -4  -4   -0.30    0.40
   3  -4  -4    0.00    0.40
   3  -4  -4   -0.30    0.30
  -3   4   4   -0.50    0.30
  -3   4   4    0.00    0.20
  -3   4   4   -0.40    0.40
  -3   4   4    0.20    0.50
  -3   4   4   -0.20    0.40
   2  -4  -4   37.80    1.40
   2  -4  -4   36.90    1.40
   2  -4  -4   38.50    1.60
  -2   4   4   39.20    1.20
  -2   4   4   40.70    1.30
  -2   4   4   34.30    1.50
  -2   4   4   38.60    1.30
  -2   4   4   35.40    1.40
   1  -4  -4  101.69    2.90
   1  -4  -4   99.49    2.90
  -1   4   4  104.89    2.70
  -1   4   4   99.99    3.00
  -1   4   4  102.19    2.70
  -1   4   4  100.39    2.90
  -1   4   4  101.69    3.10
   0  -4  -4  421.46   10.60
   0  -4  -4  407.76   10.60
   0  -4  -4  428.06   10.60
   0  -4  -4  464.95   10.50
   0   4   4  421.76   10.60
   0   4   4  438.06   10.40
   0   4   4  424.06   10.40
   0   4   4  443.76   10.40
  -1  -4  -4 2848.62   72.79
  -1  -4  -4 3100.89   72.89
  -1  -4  -4 2970.00   72.59
  -1  -4  -4 2957.40   72.39
   1   4   4 3003.50   72.69
   1   4   4 2963.90   72.89
   1   4   4 3053.39   72.19
   1   4   4 3094.89   72.99
   1   4   4 3302.97   72.39
  -2  -4  -4  318.17    7.90
  -2  -4  -4  309.27    7.90
  -2  -4  -4  316.67    8.00
   2   4   4  325.97    7.70
   2   4   4  312.57    7.90
   2   4   4  309.67    7.90
   2   4   4  321.27    7.90
   2   4   4  324.87    7.90
  -3  -4  -4   29.70    1.20
  -3  -4  -4   26.70    1.10
  -3  -4  -4   26.90    1.00
  -3  -4  -4   26.20    1.10
   3   4   4   27.60    0.90
   3   4   4   26.90    1.20
   3   4   4   27.00    1.20
   3   4   4   26.90    1.10
   3   4   4   25.60    1.10
  -4  -4  -4   26.40    1.20
  -4  -4  -4   26.20    1.10
  -4  -4  -4   25.70    1.10
  -4  -4  -4   27.50    1.30
   4   4   4   25.30    0.90
   4   4   4   27.40    1.10
   4   4   4   26.70    1.30
   4   4   4   26.70    1.30
   4   4   4   27.40    1.10
  -5  -4  -4  104.49    3.10
  -5  -4  -4  104.19    2.90
  -5  -4  -4  101.59    3.10
  -5  -4  -4  102.09    3.00
   5   4   4  111.69    3.10
   5   4   4  106.89    2.60
   5   4   4  105.89    3.40
   5   4   4  100.49    3.00
   5   4   4   99.69    3.30
   5   4   4  102.59    3.00
  -6  -4  -4   82.99    2.70
  -6  -4  -4   80.69    2.70
  -6  -4  -4   85.39    2.60
   6   4   4   85.79    3.10
   6   4   4   82.59    2.60
   6   4   4   83.29    2.60
   6   4   4   83.89    2.80
   6   4   4   81.69    2.90
  -7  -4  -4   80.39    2.60
  -7  -4  -4   80.99    2.80
   7   4   4   78.69    2.60
   7   4   4   78.19    3.10
   7   4   4   77.29    3.00
   7   4   4   79.99    2.70
   7   4   4   78.79    2.90
  -8  -4  -4    9.90    0.90
  -8  -4  -4    8.50    1.00
  -8  -4  -4    9.70    1.10
   8   4   4    7.00    1.00
   8   4   4    8.80    1.00
   8   4   4    9.50    1.00
   8   4   4    6.40    1.10
  -9  -4  -4    0.10    0.60
  -9  -4  -4   -0.10    0.70
   9   4   4    0.70    0.90
   9   4   4    0.10    0.60
   9   4   4   -0.10    0.80
 -10  -4  -4    1.20    0.80
 -10  -4  -4   -0.30    0.70
  10   4   4   -0.20    0.60
  10   4   4    2.20    1.00
   6  -5  -4    1.40    0.80
   6  -5  -4   -0.50    0.70
   6  -5  -4    1.00    0.70
  -6   5   4    0.30    0.60
  -6   5   4   -0.40    0.80
  -6   5   4   -0.20    0.60
   5  -5  -4    1.30    0.70
   5  -5  -4    1.10    0.70
   5  -5  -4    0.70    0.70
  -5   5   4    0.80    0.60
  -5   5   4    1.00    0.70
  -5   5   4    0.90    0.70
   4  -5  -4    8.90    0.80
   4  -5  -4    6.50    0.80
   4  -5  -4    8.30    1.10
  -4   5   4    7.80    1.00
  -4   5   4    8.00    1.00
  -4   5   4    8.50    1.10
   3  -5  -4    6.50    0.80
   3  -5  -4    7.70    0.90
   3  -5  -4    7.20    0.70
  -3   5   4    8.00    1.00
  -3   5   4    7.40    0.80
  -3   5   4    7.20    0.90
   2  -5  -4   50.49    1.80
   2  -5  -4   51.89    1.90
  -2   5   4   48.20    1.90
  -2   5   4   51.89    1.90
  -2   5   4   47.10    2.00
  -2   5   4   51.99    1.70
  -2   5   4   51.89    1.60
   1  -5  -4   69.49    2.30
   1  -5  -4   73.59    2.30
   1  -5  -4   76.89    2.40
  -1   5   4   73.39    2.50
  -1   5   4   75.39    2.20
  -1   5   4   75.29    2.40
  -1   5   4   74.89    2.20
  -1   5   4   76.89    2.60
   0  -5  -4   40.90    1.50
   0  -5  -4   42.10    1.50
   0  -5  -4   40.10    1.50
   0  -5  -4   44.80    1.30
   0   5   4   42.00    1.20
   0   5   4   44.00    1.40
   0   5   4   40.40    1.40
   0   5   4   41.10    1.50
  -1  -5  -4   22.90    1.10
  -1  -5  -4   24.60    1.00
  -1  -5  -4   22.70    1.00
  -1  -5  -4   25.10    1.00
   1   5   4   27.00    1.10
   1   5   4   24.60    1.00
   1   5   4   23.80    1.00
   1   5   4   23.90    0.90
  -2  -5  -4    1.20    0.40
  -2  -5  -4    0.60    0.30
  -2  -5  -4    0.10    0.30
   2   5   4    0.40    0.30
   2   5   4    0.50    0.30
   2   5   4    0.80    0.30
   2   5   4    0.40    0.30
  -3  -5  -4    0.50    0.30
  -3  -5  -4   -0.10    0.40
  -3  -5  -4    0.00    0.30
   3   5   4    0.10    0.30
   3   5   4   -0.10    0.30
   3   5   4    0.00    0.30
   3   5   4    0.20    0.20
   3   5   4    0.10    0.30
  -4  -5  -4    7.60    0.80
  -4  -5  -4    4.70    0.50
  -4  -5  -4    4.10    0.60
  -4  -5  -4    5.60    0.60
   4   5   4    5.10    0.50
   4   5   4    5.40    0.70
   4   5   4    5.80    0.70
   4   5   4    4.90    0.60
  -5  -5  -4    6.50    0.60
  -5  -5  -4    6.90    0.70
  -5  -5  -4    6.80    0.70
  -5  -5  -4    5.90    0.80
   5   5   4    5.40    0.80
   5   5   4    7.30    0.80
   5   5   4    7.20    0.50
   5   5   4    6.40    0.70
   5   5   4    6.90    0.70
  -6  -5  -4    0.00    0.50
  -6  -5  -4    0.40    0.30
  -6  -5  -4    0.40    0.50
  -6  -5  -4    0.70    0.40
   6   5   4   -0.20    0.60
   6   5   4    0.20    0.70
   6   5   4    0.30    0.40
   6   5   4   -0.20    0.40
   6   5   4    0.40    0.50
  -7  -5  -4   20.80    1.30
  -7  -5  -4   23.00    1.40
  -7  -5  -4   22.10    1.10
   7   5   4   22.70    1.30
   7   5   4   20.70    1.70
   7   5   4   21.60    1.30
   7   5   4   20.20    1.60
   7   5   4   22.00    1.50
  -8  -5  -4    4.60    0.90
   8   5   4    3.90    0.80
   8   5   4    5.10    1.00
   8   5   4    4.30    0.80
   8   5   4    3.40    0.90
  -9  -5  -4    0.70    0.70
  -9  -5  -4    0.50    0.70
   9   5   4    1.90    0.90
   9   5   4    0.80    0.70
   9   5   4    0.90    0.90
   9   5   4    1.40    0.80
 -10  -5  -4    3.40    1.00
 -10  -5  -4    1.70    0.80
  10   5   4    3.70    1.10
  10   5   4    1.90    0.80
  10   5   4    2.70    1.00
   5  -6  -4   -0.50    0.70
   5  -6  -4    0.10    0.60
  -5   6   4    1.00    0.70
  -5   6   4   -0.10    0.80
  -5   6   4   -0.10    0.60
   4  -6  -4    1.90    0.70
  -4   6   4    3.10    0.80
  -4   6   4    2.70    0.80
  -4   6   4    2.20    0.80
   3  -6  -4   12.40    0.90
   3  -6  -4   13.90    1.20
  -3   6   4   11.90    1.30
  -3   6   4   12.70    1.20
  -3   6   4   13.10    1.10
   2  -6  -4    6.90    0.80
   2  -6  -4    8.50    0.80
   2  -6  -4    7.10    0.80
  -2   6   4    7.40    0.80
  -2   6   4    6.70    0.60
  -2   6   4    7.80    1.00
  -2   6   4    8.30    0.60
  -2   6   4    7.50    0.90
   1  -6  -4   77.09    2.60
   1  -6  -4   78.39    2.50
   1  -6  -4   79.99    2.50
  -1   6   4   76.99    2.30
  -1   6   4   81.89    2.60
  -1   6   4   75.99    2.30
  -1   6   4   77.29    2.70
   0  -6  -4   16.40    1.00
   0  -6  -4   15.10    1.00
   0  -6  -4   18.00    1.00
   0   6   4   16.80    0.90
   0   6   4   16.50    0.90
   0   6   4   16.70    1.00
  -1  -6  -4   21.00    1.10
  -1  -6  -4   21.50    1.10
  -1  -6  -4   21.50    1.10
   1   6   4   21.60    1.10
   1   6   4   22.40    1.00
   1   6   4   19.50    0.80
   1   6   4   23.80    1.20
  -2  -6  -4   44.60    1.80
  -2  -6  -4   49.20    1.80
  -2  -6  -4   45.40    1.70
   2   6   4   49.00    1.80
   2   6   4   47.40    1.70
   2   6   4   47.80    1.70
   2   6   4   49.20    1.80
  -3  -6  -4    0.00    0.40
  -3  -6  -4   -0.20    0.30
  -3  -6  -4   -0.20    0.30
   3   6   4   -0.10    0.20
   3   6   4    0.10    0.30
   3   6   4   -0.10    0.30
   3   6   4   -0.20    0.30
   3   6   4   -0.20    0.30
  -4  -6  -4    1.30    0.50
  -4  -6  -4    0.50    0.40
  -4  -6  -4    1.00    0.40
   4   6   4    1.50    0.50
   4   6   4    0.60    0.40
   4   6   4    0.70    0.40
   4   6   4    1.20    0.40
  -5  -6  -4   10.50    1.00
  -5  -6  -4    8.60    0.80
  -5  -6  -4   10.10    0.90
  -5  -6  -4    9.00    0.70
   5   6   4   11.20    0.90
   5   6   4    8.90    1.00
   5   6   4    9.20    0.80
   5   6   4    9.50    1.00
  -6  -6  -4  123.09    3.40
  -6  -6  -4  122.19    3.90
  -6  -6  -4  120.49    3.70
  -6  -6  -4  121.29    3.60
   6   6   4  124.39    3.60
   6   6   4  123.29    3.70
   6   6   4  119.39    4.10
   6   6   4  121.39    3.70
   6   6   4  115.09    3.90
  -7  -6  -4   20.90    1.50
  -7  -6  -4   25.20    1.40
   7   6   4   24.10    1.70
   7   6   4   26.20    1.40
   7   6   4   25.30    1.80
   7   6   4   28.00    1.40
   7   6   4   25.30    1.60
  -8  -6  -4   15.20    1.30
   8   6   4   17.40    1.60
   8   6   4   16.60    1.30
   8   6   4   17.30    1.50
   8   6   4   15.80    1.20
  -9  -6  -4    8.90    1.20
   9   6   4    8.10    1.30
   9   6   4    8.10    1.30
   9   6   4    9.90    1.20
   9   6   4    9.10    1.10
   5  -7  -4    1.30    0.90
   5  -7  -4    0.50    0.70
  -5   7   4    1.40    0.70
  -5   7   4    1.00    0.90
  -5   7   4   -0.10    0.70
   4  -7  -4    1.30    0.70
  -4   7   4    0.90    0.70
  -4   7   4    0.10    0.70
  -4   7   4    1.70    0.80
   3  -7  -4    1.40    0.60
   3  -7  -4    2.00    0.70
  -3   7   4    2.00    0.80
  -3   7   4    2.00    0.70
  -3   7   4    2.10    0.70
   2  -7  -4   45.10    2.00
   2  -7  -4   45.00    1.80
   2  -7  -4   43.70    1.90
  -2   7   4   46.70    2.00
  -2   7   4   46.90    2.20
   1  -7  -4   44.50    1.80
   1  -7  -4   49.20    2.00
   1  -7  -4   49.30    1.90
  -1   7   4   47.00    1.70
  -1   7   4   47.30    1.70
  -1   7   4   46.30    2.10
  -1   7   4   44.70    1.90
   0  -7  -4    3.10    0.60
   0  -7  -4    2.90    0.60
   0  -7  -4    3.80    0.70
   0   7   4    2.70    0.50
   0   7   4    2.90    0.60
   0   7   4    2.60    0.50
  -1  -7  -4    2.50    0.50
  -1  -7  -4    1.50    0.50
  -1  -7  -4    2.70    0.50
   1   7   4    3.40    0.60
   1   7   4    2.40    0.40
   1   7   4    2.30    0.50
   1   7   4    2.70    0.50
  -2  -7  -4    3.30    0.70
  -2  -7  -4    3.90    0.60
  -2  -7  -4    3.80    0.60
   2   7   4    4.30    0.60
   2   7   4    3.90    0.60
   2   7   4    4.50    0.60
   2   7   4    4.10    0.60
  -3  -7  -4   -0.40    0.40
  -3  -7  -4    0.70    0.40
   3   7   4    0.50    0.40
   3   7   4    0.80    0.40
   3   7   4    0.00    0.40
   3   7   4    0.50    0.30
   3   7   4    0.10    0.40
  -4  -7  -4    1.10    0.60
  -4  -7  -4    0.60    0.50
  -4  -7  -4    1.40    0.50
   4   7   4    0.70    0.40
   4   7   4    0.90    0.40
   4   7   4    0.90    0.50
   4   7   4    1.10    0.50
   4   7   4    0.40    0.40
  -5  -7  -4   26.70    1.50
  -5  -7  -4   28.50    1.50
  -5  -7  -4   28.40    1.30
   5   7   4   27.70    1.40
   5   7   4   28.10    1.60
   5   7   4   25.60    1.30
   5   7   4   26.90    1.60
  -6  -7  -4   89.59    3.00
  -6  -7  -4   94.89    3.30
  -6  -7  -4   92.49    3.10
   6   7   4   90.89    3.50
   6   7   4   93.79    3.10
   6   7   4   90.79    3.00
   6   7   4   90.59    3.30
  -7  -7  -4    5.70    1.00
  -7  -7  -4    4.50    0.80
  -7  -7  -4    4.20    0.90
   7   7   4    4.40    0.80
   7   7   4    3.20    1.00
   7   7   4    2.80    0.80
   7   7   4    4.90    0.80
   7   7   4    3.20    0.90
  -8  -7  -4    1.00    0.70
   8   7   4    2.00    0.80
   8   7   4    2.80    1.00
   8   7   4    3.80    0.90
   8   7   4    1.80    0.70
  -9  -7  -4    2.30    0.80
   9   7   4    1.40    0.70
   9   7   4    2.40    1.10
   9   7   4    1.60    0.80
   9   7   4    1.90    0.90
   4  -8  -4   -0.60    0.60
   4  -8  -4    0.20    0.70
  -4   8   4   -0.50    0.90
  -4   8   4   -0.10    0.60
  -4   8   4   -0.20    0.80
   3  -8  -4    0.90    0.70
   3  -8  -4    2.40    0.80
  -3   8   4    1.40    0.70
  -3   8   4    1.80    0.80
   2  -8  -4    4.10    0.80
   2  -8  -4    5.70    0.90
  -2   8   4    3.20    0.90
  -2   8   4    4.10    0.80
   1  -8  -4   -0.10    0.50
   1  -8  -4   -0.40    0.50
   1  -8  -4    0.10    0.40
  -1   8   4   -0.50    0.50
  -1   8   4    0.00    0.50
   0  -8  -4    0.70    0.50
   0  -8  -4    0.50    0.50
   0  -8  -4    0.20    0.50
   0   8   4    0.30    0.40
   0   8   4    0.70    0.50
  -1  -8  -4    6.50    0.80
  -1  -8  -4    6.90    0.90
  -1  -8  -4    5.40    0.70
   1   8   4    5.00    0.60
   1   8   4    6.90    0.90
   1   8   4    6.40    0.70
   1   8   4    5.70    0.80
  -2  -8  -4   -0.20    0.50
  -2  -8  -4    0.00    0.40
   2   8   4    0.50    0.50
   2   8   4    0.10    0.40
   2   8   4    0.00    0.50
   2   8   4    0.80    0.50
  -3  -8  -4    1.10    0.50
  -3  -8  -4    1.20    0.60
   3   8   4    2.30    0.60
   3   8   4    1.80    0.50
   3   8   4    1.70    0.50
   3   8   4    2.20    0.50
   3   8   4    2.10    0.60
  -4  -8  -4    0.70    0.50
  -4  -8  -4    0.40    0.60
  -4  -8  -4   -1.00    0.50
   4   8   4    0.30    0.60
   4   8   4   -0.20    0.50
   4   8   4    0.40    0.50
   4   8   4    0.20    0.50
   4   8   4   -0.30    0.30
  -5  -8  -4    0.80    0.50
  -5  -8  -4    0.20    0.60
  -5  -8  -4    1.00    0.60
   5   8   4    0.60    0.60
   5   8   4   -0.10    0.50
   5   8   4    1.00    0.50
   5   8   4    0.40    0.50
  -6  -8  -4    5.70    0.90
  -6  -8  -4    5.10    0.80
  -6  -8  -4    7.20    1.10
   6   8   4    4.40    0.90
   6   8   4    5.60    1.00
   6   8   4    7.90    1.00
   6   8   4    5.10    0.80
  -7  -8  -4   13.80    1.30
  -7  -8  -4   16.10    1.30
  -7  -8  -4   15.30    1.60
   7   8   4   16.70    1.30
   7   8   4   15.70    1.20
   7   8   4   14.40    1.50
   7   8   4   15.10    1.40
  -8  -8  -4    0.30    0.70
   8   8   4    0.30    1.00
   8   8   4   -0.20    0.60
   8   8   4    0.50    0.90
   8   8   4    0.90    0.70
  -9  -8  -4   -0.50    0.60
   9   8   4    0.50    0.70
   9   8   4   -0.80    0.60
   9   8   4   -1.30    0.90
   3  -9  -4   -0.20    0.60
   3  -9  -4    0.70    0.80
  -3   9   4   -0.50    0.60
  -3   9   4   -0.90    0.70
   2  -9  -4    0.20    0.70
   2  -9  -4    2.60    0.80
  -2   9   4    1.90    0.90
  -2   9   4    1.80    0.70
   1  -9  -4    1.00    0.70
   1  -9  -4    1.50    0.60
  -1   9   4    0.90    0.60
   0  -9  -4    5.10    0.90
   0  -9  -4    5.10    0.80
   0  -9  -4    3.50    0.80
   0   9   4    4.80    0.90
  -1  -9  -4    3.00    0.70
  -1  -9  -4    3.90    0.70
  -1  -9  -4    3.80    0.80
   1   9   4    3.00    0.80
   1   9   4    3.00    0.70
   1   9   4    2.90    0.70
  -2  -9  -4    2.60    0.70
  -2  -9  -4    1.00    0.70
   2   9   4    1.10    0.60
   2   9   4    1.70    0.50
   2   9   4    0.30    0.50
   2   9   4    2.10    0.60
  -3  -9  -4    2.70    0.80
  -3  -9  -4    3.30    0.70
   3   9   4    3.00    0.70
   3   9   4    3.60    0.70
   3   9   4    3.10    0.70
   3   9   4    3.60    0.70
  -4  -9  -4   24.90    1.40
  -4  -9  -4   24.20    1.60
  -4  -9  -4   26.40    1.50
   4   9   4   22.70    1.50
   4   9   4   28.00    1.60
   4   9   4   26.90    1.40
   4   9   4   26.70    1.50
   4   9   4   25.50    1.60
  -5  -9  -4    7.10    1.10
  -5  -9  -4    5.20    0.80
  -5  -9  -4    6.10    0.90
   5   9   4    6.10    0.90
   5   9   4    6.70    0.80
   5   9   4    4.80    0.90
   5   9   4    5.90    1.00
  -6  -9  -4   28.40    1.80
  -6  -9  -4   28.20    1.60
  -6  -9  -4   29.10    1.80
   6   9   4   28.40    2.00
   6   9   4   30.80    1.70
  -7  -9  -4   13.00    1.30
  -7  -9  -4   14.50    1.60
  -7  -9  -4   13.30    1.30
   7   9   4   10.70    1.40
   7   9   4   13.20    1.30
  -8  -9  -4   -1.10    0.70
   8   9   4   -1.20    0.70
   8   9   4   -1.50    0.80
   8   9   4   -0.10    0.60
   1 -10  -4   -0.30    0.70
   1 -10  -4    1.10    0.70
  -1  10   4    1.20    0.80
   0 -10  -4    6.50    1.00
   0 -10  -4    7.30    1.50
   0 -10  -4    6.30    1.10
   0  10   4    6.70    1.10
   0  10   4    8.60    1.20
  -1 -10  -4    1.20    0.70
  -1 -10  -4    2.20    0.70
  -1 -10  -4    2.20    0.70
   1  10   4    2.60    0.70
   1  10   4    1.30    0.70
   1  10   4    1.30    0.60
  -2 -10  -4    1.20    0.70
  -2 -10  -4    0.20    0.60
   2  10   4    0.30    0.70
   2  10   4    0.20    0.50
   2  10   4    0.40    0.60
  -3 -10  -4    8.90    1.10
  -3 -10  -4    6.70    1.00
   3  10   4    6.50    0.90
   3  10   4    6.30    1.00
   3  10   4    5.00    0.90
  -4 -10  -4   14.40    1.40
  -4 -10  -4    9.70    1.20
  -4 -10  -4   11.20    1.10
   4  10   4   12.00    1.30
   4  10   4   12.50    1.20
   4  10   4   10.50    1.20
   4  10   4   12.90    1.30
  -5 -10  -4    2.30    0.80
  -5 -10  -4    1.10    0.70
  -5 -10  -4    0.70    0.70
   5  10   4    1.40    0.80
   5  10   4    1.30    0.70
  -6 -10  -4    4.60    1.00
  -6 -10  -4    3.80    0.80
  -6 -10  -4    4.50    1.00
   6  10   4    3.80    1.00
   6  10   4    3.90    0.90
  -7 -10  -4   -0.40    0.70
  -7 -10  -4    0.50    0.70
  -7 -10  -4   -0.30    0.90
   7  10   4   -1.20    0.90
   7  10   4   -0.10    0.70
   0 -11  -4    1.60    0.70
   0 -11  -4    1.30    0.80
   0  11   4    2.10    0.90
   0  11   4    1.00    0.80
  -1 -11  -4    0.30    0.70
   1  11   4    0.60    0.70
   1  11   4    1.30    0.80
  -2 -11  -4    0.00    0.70
  -2 -11  -4    0.50    0.70
   2  11   4    0.50    0.70
   2  11   4    1.70    0.70
   2  11   4    0.30    0.70
  -3 -11  -4    0.50    0.70
  -3 -11  -4    0.90    0.60
   3  11   4    0.10    0.70
   3  11   4    0.60    0.70
   3  11   4   -0.20    0.60
  -4 -11  -4    2.40    0.90
  -4 -11  -4    2.10    0.80
  -4 -11  -4    3.30    0.90
   4  11   4    2.00    0.80
   4  11   4    1.70    0.70
   4  11   4    2.00    0.80
  -5 -11  -4    0.50    0.70
  -5 -11  -4    0.30    0.80
  -5 -11  -4   -0.30    0.60
   5  11   4   -0.80    0.70
   5  11   4    0.00    0.70
  -6 -11  -4   -0.10    0.70
  -6 -11  -4    0.00    0.80
  -6 -11  -4    1.40    0.80
   6  11   4    1.50    0.70
   6  11   4   -1.50    0.80
   5  11  -5    0.90    0.90
   5  11  -5    0.30    1.00
  -5 -11   5    0.80    0.70
   4  11  -5    0.70    0.80
   4  11  -5    0.40    0.80
  -4 -11   5    0.00    0.70
   3  11  -5    2.50    1.00
   3  11  -5    2.80    1.00
  -3 -11   5    1.70    0.80
   2  11  -5    1.10    0.90
  -2 -11   5    2.80    1.00
   1  11  -5    1.50    0.90
  -1 -11   5    1.70    0.90
   0  11  -5    0.00    0.70
   0 -11   5   -0.30    0.70
   0 -11   5   -0.10    0.60
   6  10  -5    0.00    0.80
   6  10  -5    0.00    0.90
  -6 -10   5    1.60    0.80
  -6 -10   5    1.60    0.70
   5  10  -5    1.20    0.90
   5  10  -5    1.60    0.90
  -5 -10   5    1.30    0.80
  -5 -10   5    1.50    0.80
   4  10  -5    4.80    1.10
   4  10  -5    3.30    1.00
  -4 -10   5    5.30    1.00
  -4 -10   5    5.00    0.90
  -4 -10   5    3.90    0.80
   3  10  -5    0.80    0.70
   3  10  -5    0.90    0.70
   3  10  -5    0.10    0.50
  -3 -10   5    0.50    0.50
  -3 -10   5    0.80    0.80
  -3 -10   5    0.00    0.40
   2  10  -5    5.20    0.70
   2  10  -5    3.90    1.00
   2  10  -5    4.60    0.70
  -2 -10   5    4.90    0.70
  -2 -10   5    5.00    1.10
  -2 -10   5    4.20    0.70
   1  10  -5    0.30    0.50
   1  10  -5    1.70    0.80
   1  10  -5    0.80    0.50
  -1 -10   5    1.80    0.50
  -1 -10   5    0.20    0.50
  -1 -10   5    1.90    0.80
   0  10  -5    2.70    0.90
   0  10  -5    4.90    0.80
   0  10  -5    4.90    0.80
   0 -10   5    3.70    0.80
   0 -10   5    4.40    1.10
   0 -10   5    4.60    0.70
  -1  10  -5    0.00    0.70
  -1  10  -5    0.10    0.50
  -1  10  -5   -1.00    0.50
   1 -10   5   -0.60    0.40
   1 -10   5   -0.10    0.70
   1 -10   5    1.20    0.70
   1 -10   5   -0.10    0.40
  -2  10  -5   -0.90    0.60
  -2  10  -5    0.90    0.60
  -2  10  -5    0.10    0.70
   2 -10   5    0.10    0.50
   2 -10   5    0.40    0.80
   2 -10   5    0.20    0.80
   2 -10   5   -0.10    0.50
   7   9  -5    4.40    1.10
   7   9  -5    3.60    1.30
  -7  -9   5    5.50    1.20
   6   9  -5    0.40    0.70
   6   9  -5    0.50    0.80
   6   9  -5   -0.20    0.50
  -6  -9   5    0.10    0.60
  -6  -9   5    0.50    0.50
  -6  -9   5    0.80    0.80
   5   9  -5    4.90    1.10
   5   9  -5    4.90    0.70
   5   9  -5    4.80    0.70
   5   9  -5    5.30    1.20
  -5  -9   5    5.20    0.80
  -5  -9   5    6.00    1.10
  -5  -9   5    5.50    0.90
   4   9  -5    8.80    1.20
   4   9  -5    5.10    1.00
   4   9  -5    6.90    0.80
  -4  -9   5    6.30    0.80
  -4  -9   5    6.60    1.00
  -4  -9   5    7.50    1.10
  -4  -9   5    7.10    0.80
   3   9  -5   18.50    1.60
   3   9  -5   19.30    1.60
   3   9  -5   15.70    1.00
  -3  -9   5   17.30    1.40
  -3  -9   5   18.10    1.00
  -3  -9   5   18.30    1.30
  -3  -9   5   17.40    1.10
   2   9  -5    1.20    0.50
   2   9  -5    1.00    0.70
   2   9  -5    1.10    0.50
  -2  -9   5    0.20    0.80
  -2  -9   5    0.60    0.50
  -2  -9   5    1.20    0.80
  -2  -9   5    1.10    0.50
  -2  -9   5    1.90    0.50
   1   9  -5    0.80    0.50
   1   9  -5    1.30    0.50
   1   9  -5    1.30    0.80
  -1  -9   5    1.80    0.60
  -1  -9   5    1.10    0.40
  -1  -9   5    1.80    0.80
   0   9  -5    1.20    0.50
   0   9  -5    0.90    0.50
   0   9  -5    0.70    0.60
   0   9  -5    1.20    0.80
   0  -9   5    0.40    0.40
   0  -9   5    0.20    0.50
   0  -9   5    0.00    0.60
   0  -9   5    1.10    0.40
  -1   9  -5    6.60    0.90
  -1   9  -5    5.50    0.80
  -1   9  -5    5.10    1.00
   1  -9   5    6.80    1.10
   1  -9   5    7.70    1.00
   1  -9   5    5.60    0.70
   1  -9   5    4.60    0.70
  -2   9  -5   -0.20    0.50
  -2   9  -5   -0.30    0.60
  -2   9  -5   -0.70    0.50
   2  -9   5    0.30    0.70
   2  -9   5    0.10    0.50
   2  -9   5   -0.40    0.60
   2  -9   5   -0.40    0.40
  -3   9  -5    1.10    0.60
  -3   9  -5    0.60    0.80
  -3   9  -5    0.30    0.70
   3  -9   5    0.80    0.60
   3  -9   5    0.50    0.50
   3  -9   5   -0.40    0.70
   3  -9   5    1.20    0.70
  -4   9  -5    5.50    1.20
  -4   9  -5    5.20    0.90
  -4   9  -5    5.80    1.10
   4  -9   5    4.80    1.10
   4  -9   5    4.60    1.10
   4  -9   5    5.80    0.90
   4  -9   5    5.30    0.90
   7   8  -5    3.60    1.20
   7   8  -5    3.00    1.10
   7   8  -5    3.40    0.80
   7   8  -5    2.30    0.70
  -7  -8   5    4.20    0.80
  -7  -8   5    4.40    1.10
  -7  -8   5    4.10    0.80
   6   8  -5    1.10    0.90
   6   8  -5    0.60    0.50
   6   8  -5    1.30    0.50
   6   8  -5    0.80    0.70
  -6  -8   5    1.50    0.80
  -6  -8   5   -0.10    0.50
  -6  -8   5    0.40    0.60
   5   8  -5    9.80    0.90
   5   8  -5    9.20    1.20
   5   8  -5    9.90    1.30
   5   8  -5   10.90    0.90
  -5  -8   5   10.20    0.90
  -5  -8   5   10.70    1.10
  -5  -8   5   12.60    1.30
   4   8  -5    0.00    0.60
   4   8  -5   -0.20    0.60
   4   8  -5    0.50    0.70
   4   8  -5    0.10    0.40
  -4  -8   5   -0.20    0.40
  -4  -8   5    0.00    0.30
  -4  -8   5    0.10    0.60
  -4  -8   5   -0.30    0.50
   3   8  -5    4.10    0.90
   3   8  -5    3.50    0.60
   3   8  -5    4.80    0.90
   3   8  -5    3.80    0.80
  -3  -8   5    4.10    0.90
  -3  -8   5    3.30    0.70
  -3  -8   5    2.70    0.50
  -3  -8   5    3.60    0.50
   2   8  -5  111.69    3.30
   2   8  -5  116.59    4.00
   2   8  -5  112.09    3.20
   2   8  -5  109.19    3.80
  -2  -8   5  107.79    3.20
  -2  -8   5  110.39    3.20
  -2  -8   5  108.79    3.20
  -2  -8   5  114.49    3.70
  -2  -8   5  109.09    3.50
   1   8  -5   12.80    1.30
   1   8  -5   12.20    0.90
   1   8  -5   13.70    0.90
   1   8  -5   15.00    0.90
   1   8  -5   13.40    1.40
  -1  -8   5   12.30    0.90
  -1  -8   5   13.30    1.20
  -1  -8   5   13.80    0.90
  -1  -8   5   15.00    0.90
   0   8  -5   10.70    1.20
   0   8  -5   10.30    1.20
   0   8  -5   12.80    0.90
   0   8  -5   11.00    0.80
   0   8  -5   11.00    0.90
   0  -8   5   12.40    1.00
   0  -8   5   11.10    0.80
   0  -8   5   11.80    0.80
   0  -8   5   12.60    1.10
  -1   8  -5    0.10    0.50
  -1   8  -5   -0.60    0.50
  -1   8  -5   -0.20    0.50
  -1   8  -5   -0.10    0.40
   1  -8   5    0.50    0.60
   1  -8   5    0.20    0.30
   1  -8   5   -0.30    0.60
   1  -8   5   -0.50    0.30
  -2   8  -5    0.90    0.60
  -2   8  -5    0.80    0.50
  -2   8  -5    0.70    0.60
  -2   8  -5   -0.10    0.60
   2  -8   5    0.30    0.60
   2  -8   5    0.80    0.60
   2  -8   5   -0.40    0.30
   2  -8   5    1.00    0.50
  -3   8  -5    7.30    0.90
  -3   8  -5    8.40    1.20
  -3   8  -5    9.10    1.20
   3  -8   5    7.20    0.80
   3  -8   5    9.70    1.00
   3  -8   5    8.70    1.10
   3  -8   5    8.80    1.20
  -4   8  -5   19.70    1.70
  -4   8  -5   18.00    1.40
  -4   8  -5   19.80    1.50
  -4   8  -5   21.10    1.70
   4  -8   5   18.20    1.20
   4  -8   5   23.30    1.70
   4  -8   5   21.50    1.50
   4  -8   5   19.60    1.40
  -5   8  -5    8.60    1.40
  -5   8  -5    6.00    1.10
   5  -8   5    3.60    0.80
   5  -8   5    7.30    1.20
   8   7  -5    0.10    1.10
   8   7  -5    1.60    0.70
   8   7  -5    0.10    1.10
  -8  -7   5    2.70    0.70
  -8  -7   5    2.50    0.80
  -8  -7   5    3.40    1.20
   7   7  -5    3.50    1.10
   7   7  -5    4.50    0.80
   7   7  -5    4.40    0.80
   7   7  -5    3.20    1.00
  -7  -7   5    3.60    1.10
  -7  -7   5    3.30    0.80
  -7  -7   5    4.40    0.80
   6   7  -5   -0.80    0.60
   6   7  -5   -0.20    0.40
   6   7  -5   -1.40    0.60
   6   7  -5    0.60    0.40
  -6  -7   5    1.00    0.50
  -6  -7   5   -0.30    0.50
  -6  -7   5    0.80    0.70
   5   7  -5    3.70    0.80
   5   7  -5    4.40    0.60
   5   7  -5    4.30    0.90
   5   7  -5    3.10    0.50
   5   7  -5    4.90    0.90
  -5  -7   5    4.40    0.90
  -5  -7   5    3.80    0.60
  -5  -7   5    5.20    0.80
   4   7  -5   -0.20    0.30
   4   7  -5    0.00    0.50
   4   7  -5   -0.30    0.30
   4   7  -5   -0.50    0.50
   4   7  -5    0.50    0.60
  -4  -7   5   -0.10    0.30
  -4  -7   5    0.00    0.50
  -4  -7   5   -0.10    0.50
  -4  -7   5   -0.20    0.30
   3   7  -5   28.20    1.80
   3   7  -5   28.80    1.60
   3   7  -5   28.90    1.60
   3   7  -5   27.00    1.10
  -3  -7   5   27.50    1.50
  -3  -7   5   27.10    1.40
  -3  -7   5   27.10    1.10
  -3  -7   5   25.90    1.20
   2   7  -5    4.10    0.50
   2   7  -5    4.50    0.50
   2   7  -5    3.00    0.70
   2   7  -5    4.20    0.80
  -2  -7   5    2.90    0.60
  -2  -7   5    3.40    0.50
  -2  -7   5    3.30    0.80
  -2  -7   5    3.20    0.40
  -2  -7   5    3.80    0.50
   1   7  -5    0.30    0.50
   1   7  -5    0.80    0.30
   1   7  -5   -0.10    0.30
   1   7  -5    0.70    0.60
   1   7  -5    0.70    0.30
  -1  -7   5   -0.30    0.40
  -1  -7   5    0.10    0.50
  -1  -7   5    0.10    0.30
  -1  -7   5    0.20    0.30
   0   7  -5    7.90    0.70
   0   7  -5    6.30    0.70
   0   7  -5    6.20    0.90
   0   7  -5    6.20    0.60
   0   7  -5    7.70    1.00
   0  -7   5    6.60    0.70
   0  -7   5    7.10    0.70
   0  -7   5    5.80    0.60
   0  -7   5    7.70    1.00
   0  -7   5    5.90    0.60
  -1   7  -5    1.90    0.50
  -1   7  -5    1.40    0.60
  -1   7  -5    1.60    0.40
  -1   7  -5    0.70    0.60
   1  -7   5    1.50    0.40
   1  -7   5    2.50    0.60
   1  -7   5    3.00    0.70
   1  -7   5    2.00    0.50
  -2   7  -5    0.00    0.50
  -2   7  -5   -0.20    0.50
  -2   7  -5   -0.10    0.40
  -2   7  -5    0.30    0.40
   2  -7   5    0.20    0.40
   2  -7   5    0.40    0.40
   2  -7   5    0.40    0.50
   2  -7   5   -0.30    0.50
  -3   7  -5   16.00    1.10
  -3   7  -5   17.60    1.40
  -3   7  -5   18.00    1.40
  -3   7  -5   17.60    1.10
   3  -7   5   17.80    1.00
   3  -7   5   16.60    1.30
   3  -7   5   16.70    1.30
  -4   7  -5   21.40    1.40
  -4   7  -5   20.50    1.30
  -4   7  -5   23.20    1.80
   4  -7   5   20.60    1.60
   4  -7   5   22.50    1.40
   4  -7   5   17.50    1.10
  -5   7  -5    9.70    1.20
  -5   7  -5   10.70    1.40
  -5   7  -5    8.70    1.20
   5  -7   5   12.20    1.40
   5  -7   5   11.30    1.10
  -6   7  -5    1.40    0.70
  -6   7  -5    0.80    1.00
  -6   7  -5    1.70    0.80
   6  -7   5    0.90    0.90
   6  -7   5    1.50    0.60
   8   6  -5   -1.20    1.00
   8   6  -5   -1.50    0.80
   8   6  -5    1.40    0.60
  -8  -6   5   -0.10    0.50
  -8  -6   5   -1.10    0.80
  -8  -6   5    0.60    0.60
   7   6  -5    0.00    0.40
   7   6  -5   -1.60    0.60
   7   6  -5   -1.30    0.70
  -7  -6   5   -0.40    0.80
  -7  -6   5    0.20    0.50
  -7  -6   5    0.60    0.60
   6   6  -5    4.30    0.90
   6   6  -5    5.90    0.70
   6   6  -5    5.80    0.70
   6   6  -5    5.80    1.10
   6   6  -5    4.50    0.90
  -6  -6   5    6.50    0.90
  -6  -6   5    5.10    0.70
  -6  -6   5    5.10    1.10
  -6  -6   5    4.70    0.70
   5   6  -5   -0.30    0.30
   5   6  -5    0.60    0.60
   5   6  -5    0.10    0.50
   5   6  -5   -0.10    0.40
   5   6  -5   -0.40    0.40
  -5  -6   5   -0.20    0.50
  -5  -6   5    0.00    0.40
  -5  -6   5    0.20    0.30
   4   6  -5   25.30    1.50
   4   6  -5   26.30    1.10
   4   6  -5   27.80    1.60
   4   6  -5   24.70    1.10
   4   6  -5   25.50    1.50
  -4  -6   5   25.60    1.50
  -4  -6   5   25.10    1.20
  -4  -6   5   25.00    1.10
   3   6  -5   27.00    1.10
   3   6  -5   26.50    1.60
   3   6  -5   24.10    1.40
   3   6  -5   26.10    1.50
  -3  -6   5   28.50    1.40
  -3  -6   5   24.70    1.40
  -3  -6   5   26.50    0.80
  -3  -6   5   26.40    1.00
  -3  -6   5   26.80    1.10
   2   6  -5   26.40    1.50
   2   6  -5   21.70    1.00
   2   6  -5   24.20    0.80
   2   6  -5   23.60    1.40
  -2  -6   5   23.10    0.90
  -2  -6   5   24.00    1.30
  -2  -6   5   24.80    0.90
  -2  -6   5   25.20    1.00
  -2  -6   5   22.60    1.30
   1   6  -5  239.18    6.60
   1   6  -5  242.48    6.80
   1   6  -5  241.38    6.10
   1   6  -5  235.88    6.10
   1   6  -5  236.78    6.10
  -1  -6   5  247.38    6.50
  -1  -6   5  248.48    6.40
  -1  -6   5  237.38    6.10
  -1  -6   5  244.28    6.10
   0   6  -5   -0.70    0.30
   0   6  -5    0.30    0.30
   0   6  -5   -0.10    0.40
   0   6  -5    0.00    0.30
   0   6  -5   -0.40    0.40
   0  -6   5   -0.40    0.40
   0  -6   5   -0.10    0.20
   0  -6   5   -0.10    0.30
   0  -6   5    0.20    0.30
   0  -6   5    0.20    0.40
  -1   6  -5    0.30    0.40
  -1   6  -5    0.80    0.50
  -1   6  -5    0.60    0.30
  -1   6  -5    1.30    0.50
   1  -6   5    0.80    0.40
   1  -6   5    0.20    0.50
   1  -6   5    0.60    0.30
   1  -6   5    0.50    0.30
  -2   6  -5   30.30    1.30
  -2   6  -5   28.70    1.50
  -2   6  -5   28.30    1.30
  -2   6  -5   28.80    1.70
   2  -6   5   29.00    1.20
   2  -6   5   29.90    1.40
   2  -6   5   28.90    1.20
   2  -6   5   28.80    1.50
  -3   6  -5   18.50    1.10
  -3   6  -5   17.40    1.10
  -3   6  -5   19.10    1.40
   3  -6   5   16.40    1.20
   3  -6   5   17.60    1.20
   3  -6   5   17.20    0.90
  -4   6  -5    5.00    0.70
  -4   6  -5    3.50    0.90
  -4   6  -5    3.40    0.70
   4  -6   5    4.20    0.80
   4  -6   5    4.70    0.60
   4  -6   5    3.20    0.80
  -5   6  -5    0.40    0.50
  -5   6  -5    0.20    0.70
  -5   6  -5    0.50    0.60
   5  -6   5    0.20    0.70
   5  -6   5    1.00    0.50
   5  -6   5    0.10    0.50
  -6   6  -5    3.60    0.80
  -6   6  -5    5.90    1.10
  -6   6  -5    5.30    1.10
   6  -6   5    5.60    0.80
   6  -6   5    4.90    1.00
   8   5  -5    0.80    0.80
   8   5  -5    3.80    0.80
   8   5  -5    3.80    1.30
  -8  -5   5    3.30    1.20
  -8  -5   5    3.90    0.80
  -8  -5   5    3.80    0.80
   7   5  -5    1.80    0.60
   7   5  -5    1.00    1.00
   7   5  -5    0.60    0.70
  -7  -5   5    1.00    0.50
  -7  -5   5    0.60    0.90
  -7  -5   5    1.30    0.60
   6   5  -5    0.40    0.70
   6   5  -5    0.40    0.50
   6   5  -5    0.50    0.60
   6   5  -5    0.40    0.60
  -6  -5   5    0.60    0.40
  -6  -5   5   -0.20    0.60
  -6  -5   5    0.90    0.50
   5   5  -5   92.79    2.70
   5   5  -5   87.39    3.20
   5   5  -5   89.29    3.20
   5   5  -5   86.29    3.00
   5   5  -5   84.59    2.60
  -5  -5   5   88.19    2.70
  -5  -5   5   91.59    3.20
  -5  -5   5   85.19    2.70
  -5  -5   5   89.69    2.70
   4   5  -5  107.29    3.00
   4   5  -5  105.39    3.40
   4   5  -5  105.09    3.50
   4   5  -5  106.39    3.00
   4   5  -5  108.59    3.50
  -4  -5   5  103.09    3.50
  -4  -5   5  102.29    3.00
  -4  -5   5  107.69    3.10
   3   5  -5  204.98    5.70
   3   5  -5  207.48    5.20
   3   5  -5  200.58    5.20
   3   5  -5  215.78    5.90
   3   5  -5  195.48    5.70
  -3  -5   5  197.48    5.40
  -3  -5   5  209.28    5.20
  -3  -5   5  200.38    5.70
   2   5  -5   20.30    1.20
   2   5  -5   21.10    0.80
   2   5  -5   22.00    0.70
   2   5  -5   21.80    1.30
  -2  -5   5   20.90    0.70
  -2  -5   5   21.00    1.10
  -2  -5   5   22.20    1.20
  -2  -5   5   21.60    0.90
  -2  -5   5   22.20    0.80
   1   5  -5   67.09    1.90
   1   5  -5   68.99    2.00
   1   5  -5   66.49    2.40
   1   5  -5   66.99    2.40
   1   5  -5   66.89    1.90
  -1  -5   5   67.89    2.00
  -1  -5   5   68.99    1.90
  -1  -5   5   69.39    2.20
  -1  -5   5   69.09    2.30
   0   5  -5    3.50    0.60
   0   5  -5    3.00    0.40
   0   5  -5    5.30    0.70
   0   5  -5    2.50    0.30
   0   5  -5    2.10    0.40
   0  -5   5    2.90    0.60
   0  -5   5    3.10    0.30
   0  -5   5    2.60    0.40
   0  -5   5    2.70    0.40
   0  -5   5    3.00    0.30
  -1   5  -5    9.60    0.60
  -1   5  -5   10.00    0.80
  -1   5  -5   11.40    0.60
  -1   5  -5   11.20    1.00
   1  -5   5    9.30    0.60
   1  -5   5    9.40    0.60
   1  -5   5   10.40    0.60
   1  -5   5    8.90    0.80
   1  -5   5    9.70    0.80
  -2   5  -5   45.20    1.60
  -2   5  -5   45.10    1.60
  -2   5  -5   45.70    1.80
   2  -5   5   47.80    1.80
   2  -5   5   47.20    1.40
   2  -5   5   45.70    1.80
   2  -5   5   45.60    1.50
  -3   5  -5    1.40    0.40
  -3   5  -5    1.90    0.50
  -3   5  -5    1.30    0.60
   3  -5   5    1.70    0.40
   3  -5   5    1.60    0.30
   3  -5   5    2.30    0.60
   3  -5   5    1.40    0.50
  -4   5  -5   17.00    1.10
  -4   5  -5   18.40    1.40
  -4   5  -5   19.00    1.20
   4  -5   5   20.20    1.00
   4  -5   5   18.40    1.10
   4  -5   5   21.30    1.30
   4  -5   5   17.50    1.00
  -5   5  -5    2.10    0.60
  -5   5  -5    2.50    0.80
  -5   5  -5    1.10    0.60
   5  -5   5    2.30    0.60
   5  -5   5    1.90    0.70
   5  -5   5    1.50    0.60
   5  -5   5    1.30    0.50
  -6   5  -5    8.50    1.00
  -6   5  -5   10.30    1.40
  -6   5  -5   10.40    1.20
   6  -5   5    9.30    1.00
   6  -5   5    9.20    1.20
   6  -5   5    9.50    1.00
  -7   5  -5    5.00    1.10
  -7   5  -5    3.80    0.80
  -7   5  -5    2.70    0.90
   7  -5   5    3.10    0.90
   7  -5   5    3.80    0.80
   7  -5   5    3.90    0.70
   8   4  -5    7.50    1.20
   8   4  -5    5.70    1.40
   8   4  -5    9.80    1.10
  -8  -4   5   10.40    1.50
  -8  -4   5    8.40    1.00
  -8  -4   5    9.40    1.10
   7   4  -5    3.50    1.00
   7   4  -5    3.90    0.80
   7   4  -5    4.00    1.10
   7   4  -5    4.10    0.70
  -7  -4   5    4.20    1.00
  -7  -4   5    5.60    0.90
  -7  -4   5    4.10    0.70
   6   4  -5    2.10    0.70
   6   4  -5    1.60    0.60
   6   4  -5    1.50    0.80
   6   4  -5    2.50    0.50
  -6  -4   5    2.40    0.80
  -6  -4   5    1.80    0.60
  -6  -4   5    1.80    0.50
   5   4  -5    4.50    0.90
   5   4  -5    3.90    0.50
   5   4  -5    4.60    0.80
   5   4  -5    3.90    0.60
  -5  -4   5    5.10    0.50
  -5  -4   5    4.10    0.80
  -5  -4   5    5.60    0.60
  -5  -4   5    4.90    0.60
   4   4  -5   54.59    2.00
   4   4  -5   54.09    1.70
   4   4  -5   54.89    2.20
   4   4  -5   55.79    2.20
   4   4  -5   54.89    1.70
  -4  -4   5   53.49    1.80
  -4  -4   5   53.19    1.70
  -4  -4   5   54.89    1.80
  -4  -4   5   51.89    2.20
   3   4  -5  271.07    6.50
   3   4  -5  264.97    6.60
   3   4  -5  270.57    7.10
   3   4  -5  263.37    6.60
   3   4  -5  274.97    7.20
   3   4  -5  271.47    7.20
  -3  -4   5  267.37    6.90
  -3  -4   5  256.67    7.10
  -3  -4   5  275.67    6.70
   2   4  -5   94.09    2.40
   2   4  -5   91.39    2.40
   2   4  -5   88.59    2.40
   2   4  -5   89.99    2.90
   2   4  -5   94.99    2.90
   2   4  -5   91.39    3.00
  -2  -4   5  100.09    2.90
  -2  -4   5   90.59    2.90
  -2  -4   5   92.19    2.40
  -2  -4   5   93.99    2.50
  -2  -4   5   93.39    2.30
  -2  -4   5   94.09    2.70
   1   4  -5  102.09    2.60
   1   4  -5   96.39    3.10
   1   4  -5  102.89    2.60
   1   4  -5   99.79    3.00
   1   4  -5   96.89    2.60
   1   4  -5   99.09    2.70
  -1  -4   5  101.49    3.00
  -1  -4   5   96.89    2.60
  -1  -4   5  107.39    2.60
  -1  -4   5   96.09    2.90
  -1  -4   5   99.09    2.60
  -1  -4   5   99.09    2.60
   0   4  -5   18.20    1.00
   0   4  -5   18.00    1.00
   0   4  -5   18.60    0.70
   0   4  -5   19.60    0.60
   0   4  -5   18.40    0.60
   0   4  -5   17.30    0.70
   0   4  -5   18.20    0.80
   0  -4   5   17.80    0.90
   0  -4   5   18.80    0.90
   0  -4   5   18.60    0.70
   0  -4   5   18.80    0.60
   0  -4   5   18.30    0.80
   0  -4   5   20.00    0.80
  -1   4  -5   39.40    1.20
  -1   4  -5   38.50    1.20
  -1   4  -5   37.90    1.40
  -1   4  -5   38.80    1.20
   1  -4   5   38.70    1.20
   1  -4   5   37.50    1.20
   1  -4   5   36.20    1.30
   1  -4   5   36.50    1.40
   1  -4   5   39.50    1.20
  -2   4  -5   15.80    0.70
  -2   4  -5   14.30    0.90
  -2   4  -5   15.40    0.80
   2  -4   5   15.60    0.90
   2  -4   5   17.50    0.70
   2  -4   5   16.90    0.90
   2  -4   5   16.60    0.70
  -3   4  -5    6.30    0.80
  -3   4  -5    6.60    0.60
  -3   4  -5    8.50    0.60
   3  -4   5    7.20    0.50
   3  -4   5    7.20    0.80
   3  -4   5    7.20    0.60
   3  -4   5    6.90    0.50
   3  -4   5    9.20    0.80
  -4   4  -5  186.48    5.10
  -4   4  -5  191.28    5.20
  -4   4  -5  190.98    5.50
   4  -4   5  182.08    5.00
   4  -4   5  199.48    5.30
   4  -4   5  189.28    5.10
   4  -4   5  182.18    4.90
   4  -4   5  183.58    5.00
  -5   4  -5   37.90    1.70
  -5   4  -5   39.70    2.00
   5  -4   5   39.00    1.60
   5  -4   5   36.10    1.50
   5  -4   5   38.40    1.50
   5  -4   5   38.80    1.80
   5  -4   5   39.60    1.40
  -6   4  -5   25.50    1.50
  -6   4  -5   26.00    1.90
   6  -4   5   25.70    1.60
   6  -4   5   24.80    1.30
   6  -4   5   23.60    1.30
  -7   4  -5    7.50    1.30
  -7   4  -5    6.00    0.90
  -7   4  -5    7.90    1.10
   7  -4   5    7.60    1.00
   7  -4   5    7.50    0.90
   7  -4   5    8.90    1.20
  -8   4  -5    1.70    0.70
  -8   4  -5    0.70    0.80
  -8   4  -5    0.70    0.80
   8  -4   5    0.90    0.80
   8  -4   5    0.60    0.60
   8  -4   5    1.40    0.70
   8   3  -5    3.80    0.90
   8   3  -5    4.30    0.80
   8   3  -5    3.70    1.30
  -8  -3   5    4.50    0.90
  -8  -3   5    6.50    1.30
  -8  -3   5    4.20    1.00
   7   3  -5    1.30    0.60
   7   3  -5    1.90    1.00
   7   3  -5    1.90    0.70
   7   3  -5    0.20    0.70
  -7  -3   5    1.30    0.60
  -7  -3   5    0.80    0.50
  -7  -3   5    2.10    0.80
   6   3  -5   26.70    1.70
   6   3  -5   27.30    1.50
   6   3  -5   29.10    1.90
   6   3  -5   24.50    1.20
  -6  -3   5   31.20    1.90
  -6  -3   5   25.80    1.40
  -6  -3   5   24.90    1.30
   5   3  -5   18.30    1.30
   5   3  -5   19.60    1.00
   5   3  -5   17.20    1.10
   5   3  -5   18.40    1.30
  -5  -3   5   17.50    1.30
  -5  -3   5   17.40    1.00
  -5  -3   5   16.70    0.90
  -5  -3   5   18.30    0.80
  -5  -3   5   18.80    0.90
   4   3  -5   95.19    2.60
   4   3  -5   94.99    3.10
   4   3  -5   97.09    2.90
   4   3  -5   92.09    3.00
  -4  -3   5   91.89    2.60
  -4  -3   5   92.89    2.70
  -4  -3   5   91.49    2.70
  -4  -3   5   92.29    3.10
  -4  -3   5   91.79    2.70
   3   3  -5   66.49    1.80
   3   3  -5   66.39    2.30
   3   3  -5   67.29    2.20
   3   3  -5   66.79    1.90
   3   3  -5   66.89    1.90
   3   3  -5   65.89    2.30
  -3  -3   5   69.79    2.30
  -3  -3   5   64.99    1.90
  -3  -3   5   65.09    1.90
  -3  -3   5   64.39    2.00
  -3  -3   5   64.89    2.00
   2   3  -5    6.40    0.40
   2   3  -5    5.10    0.60
   2   3  -5    6.80    0.40
   2   3  -5    6.90    0.40
   2   3  -5    5.30    0.50
   2   3  -5    6.10    0.60
  -2  -3   5    6.90    0.50
  -2  -3   5    6.30    0.60
  -2  -3   5    7.30    0.50
  -2  -3   5    7.00    0.40
  -2  -3   5    7.40    0.60
   1   3  -5    0.30    0.10
   1   3  -5    0.00    0.10
   1   3  -5    0.00    0.10
   1   3  -5    0.90    0.30
   1   3  -5   -0.10    0.10
   1   3  -5    0.00    0.20
  -1  -3   5   -0.10    0.20
  -1  -3   5    0.00    0.20
  -1  -3   5   -0.10    0.20
  -1  -3   5   -0.10    0.10
  -1  -3   5    0.00    0.10
  -1  -3   5    0.30    0.10
  -1  -3   5    0.00    0.10
  -1  -3   5    0.00    0.20
   0   3  -5   45.60    1.20
   0   3  -5   43.60    1.60
   0   3  -5   44.30    1.20
   0   3  -5   40.40    1.40
   0   3  -5   42.50    1.20
   0   3  -5   42.50    1.20
   0  -3   5   43.40    1.40
   0  -3   5   46.40    1.20
   0  -3   5   43.70    1.50
   0  -3   5   43.80    1.50
   0  -3   5   45.70    1.20
   0  -3   5   42.30    1.20
   0  -3   5   43.60    1.30
  -1   3  -5  819.32   18.80
  -1   3  -5  785.52   18.80
  -1   3  -5  789.22   18.80
  -1   3  -5  765.22   19.10
   1  -3   5  771.62   18.90
   1  -3   5  836.22   18.80
   1  -3   5  800.12   18.80
   1  -3   5  761.12   19.10
   1  -3   5  773.22   19.10
   1  -3   5  828.02   18.80
   1  -3   5  777.12   19.00
  -2   3  -5   19.80    0.50
  -2   3  -5   18.70    1.00
  -2   3  -5   19.70    0.80
  -2   3  -5   19.50    0.80
  -2   3  -5   21.30    0.60
   2  -3   5   20.30    0.70
   2  -3   5   20.70    0.70
   2  -3   5   19.50    0.90
   2  -3   5   18.30    0.90
   2  -3   5   21.40    0.80
  -3   3  -5  296.17    7.40
  -3   3  -5  295.47    7.70
   3  -3   5  295.67    7.60
   3  -3   5  292.07    7.30
   3  -3   5  295.77    7.40
   3  -3   5  294.37    7.30
   3  -3   5  300.07    7.50
  -4   3  -5  243.08    6.60
  -4   3  -5  237.68    6.30
   4  -3   5  242.28    6.20
   4  -3   5  241.08    6.20
   4  -3   5  242.98    6.40
   4  -3   5  242.08    6.20
   4  -3   5  245.38    6.30
  -5   3  -5   43.30    1.70
  -5   3  -5   41.40    1.90
   5  -3   5   41.70    1.80
   5  -3   5   43.20    1.60
   5  -3   5   40.50    1.50
   5  -3   5   39.80    1.60
  -6   3  -5   11.80    1.00
  -6   3  -5    9.30    1.10
   6  -3   5   12.10    0.90
   6  -3   5   12.30    1.20
   6  -3   5   11.80    1.00
  -7   3  -5    1.60    0.90
  -7   3  -5    2.30    0.70
   7  -3   5    3.40    0.70
   7  -3   5    2.60    0.80
   7  -3   5    3.80    0.80
  -8   3  -5    2.10    0.80
  -8   3  -5    3.90    1.00
   8  -3   5    3.20    1.00
   8  -3   5    4.50    0.90
   8  -3   5    2.30    0.70
   8   2  -5    0.40    1.10
   8   2  -5    2.30    0.80
   8   2  -5    2.20    0.80
  -8  -2   5    2.90    1.10
  -8  -2   5    1.80    0.80
   7   2  -5    7.30    1.40
   7   2  -5    6.30    1.00
   7   2  -5    4.70    0.80
   7   2  -5    6.60    0.90
   7   2  -5    5.20    1.00
  -7  -2   5    5.10    0.90
  -7  -2   5    5.80    0.90
  -7  -2   5    7.60    1.20
   6   2  -5   14.90    1.50
   6   2  -5   14.20    1.30
   6   2  -5   13.90    1.00
   6   2  -5   14.20    1.10
   6   2  -5   15.40    1.00
  -6  -2   5   14.50    1.00
  -6  -2   5   15.10    1.30
  -6  -2   5   13.00    1.00
   5   2  -5    0.00    0.50
   5   2  -5    0.10    0.40
   5   2  -5    0.10    0.40
   5   2  -5   -0.20    0.50
  -5  -2   5   -0.40    0.50
  -5  -2   5    0.40    0.30
  -5  -2   5    0.10    0.30
  -5  -2   5    0.00    0.30
   4   2  -5   35.70    1.30
   4   2  -5   36.90    1.00
   4   2  -5   36.60    1.60
   4   2  -5   35.60    1.40
   4   2  -5   36.30    1.70
  -4  -2   5   36.70    1.50
  -4  -2   5   34.30    1.30
  -4  -2   5   36.00    1.30
  -4  -2   5   34.70    1.60
  -4  -2   5   34.50    1.30
  -4  -2   5   37.40    1.20
   3   2  -5    2.80    0.30
   3   2  -5    2.30    0.40
   3   2  -5    3.30    0.50
   3   2  -5    2.70    0.40
  -3  -2   5    3.50    0.40
  -3  -2   5    3.00    0.50
  -3  -2   5    3.00    0.40
  -3  -2   5    3.10    0.40
  -3  -2   5    3.30    0.40
  -3  -2   5    3.30    0.40
   2   2  -5   77.69    2.40
   2   2  -5   76.79    2.10
   2   2  -5   77.89    2.10
   2   2  -5   78.99    1.90
   2   2  -5   78.49    2.10
   2   2  -5   75.59    2.30
   2   2  -5   81.69    2.20
   2   2  -5   74.79    2.40
  -2  -2   5   79.89    2.10
  -2  -2   5   77.79    2.10
  -2  -2   5   80.69    2.30
  -2  -2   5   79.29    2.20
  -2  -2   5   75.09    2.40
  -2  -2   5   80.99    2.10
  -2  -2   5   79.99    2.30
   1   2  -5    3.50    0.20
   1   2  -5    3.00    0.40
   1   2  -5    2.50    0.30
   1   2  -5    3.60    0.20
   1   2  -5    3.30    0.20
   1   2  -5    3.20    0.40
  -1  -2   5    3.40    0.20
  -1  -2   5    3.50    0.20
  -1  -2   5    3.70    0.20
  -1  -2   5    2.90    0.40
  -1  -2   5    3.80    0.40
  -1  -2   5    3.80    0.40
  -1  -2   5    3.20    0.40
  -1  -2   5    4.00    0.20
  -1  -2   5    3.70    0.20
   0   2  -5   11.40    0.70
   0   2  -5   11.80    0.30
   0  -2   5   12.80    0.50
   0  -2   5   10.50    0.30
   0  -2   5   12.90    0.30
   0  -2   5   11.30    0.60
   0  -2   5   12.60    0.70
   0  -2   5   12.60    0.30
   0  -2   5   12.10    0.70
   0  -2   5   13.50    0.60
  -1   2  -5  247.78    5.90
  -1   2  -5  242.98    5.90
  -1   2  -5  253.87    5.90
  -1   2  -5  236.78    6.20
   1  -2   5  258.77    5.90
   1  -2   5  234.98    6.10
   1  -2   5  242.78    6.20
   1  -2   5  245.78    5.90
   1  -2   5  238.88    6.20
   1  -2   5  238.78    6.10
   1  -2   5  256.57    5.90
  -2   2  -5   56.59    1.40
  -2   2  -5   55.79    1.60
  -2   2  -5   54.99    1.80
   2  -2   5   54.59    1.70
   2  -2   5   56.79    1.70
   2  -2   5   55.79    1.50
   2  -2   5   57.09    1.50
   2  -2   5   56.69    1.80
  -3   2  -5  826.92   19.80
  -3   2  -5  810.12   19.50
   3  -2   5  792.22   19.50
   3  -2   5  812.22   19.60
   3  -2   5  810.22   19.60
   3  -2   5  813.52   19.40
   3  -2   5  828.42   19.40
  -4   2  -5  195.98    5.50
  -4   2  -5  196.98    5.20
   4  -2   5  196.98    5.10
   4  -2   5  200.48    5.30
   4  -2   5  190.68    5.10
   4  -2   5  199.68    5.20
  -5   2  -5  371.66    9.30
  -5   2  -5  358.96    9.50
   5  -2   5  370.76    9.30
   5  -2   5  352.16    9.10
   5  -2   5  372.76    9.10
   5  -2   5  348.57    9.50
   5  -2   5  362.46    9.10
  -6   2  -5    0.70    0.50
  -6   2  -5    0.50    0.60
   6  -2   5    0.80    0.60
   6  -2   5    1.10    0.40
   6  -2   5    1.60    0.60
   6  -2   5    0.90    0.40
  -7   2  -5    0.00    0.70
  -7   2  -5    0.60    0.50
   7  -2   5    0.10    0.50
   7  -2   5   -0.10    0.40
   7  -2   5    0.60    0.60
   7  -2   5    0.40    0.50
  -8   2  -5   15.80    1.50
  -8   2  -5    9.20    1.40
   8  -2   5   13.40    1.20
   8  -2   5   14.60    1.30
   8  -2   5   14.80    1.60
   8  -2   5   13.40    1.30
  -9   2  -5    9.40    1.30
  -9   2  -5   11.50    1.50
   9  -2   5   10.10    1.20
   9  -2   5   11.70    1.50
   9  -2   5   10.60    1.30
   9  -2   5   12.70    1.40
   8   1  -5    1.60    0.70
   8   1  -5    0.90    0.60
   8   1  -5    1.10    1.10
  -8  -1   5    1.00    0.70
  -8  -1   5    0.70    0.90
   7   1  -5   14.50    1.60
   7   1  -5   14.60    1.20
   7   1  -5   13.80    1.20
  -7  -1   5   14.90    1.30
  -7  -1   5   12.80    1.10
  -7  -1   5   17.80    1.70
   6   1  -5   13.50    1.50
   6   1  -5   13.70    1.20
   6   1  -5   15.20    1.00
   6   1  -5   13.90    1.00
   6   1  -5   14.50    1.00
  -6  -1   5   15.30    1.00
  -6  -1   5   12.90    1.10
  -6  -1   5   14.80    1.40
   5   1  -5    3.60    0.50
   5   1  -5    3.40    0.80
   5   1  -5    3.30    0.50
   5   1  -5    2.60    0.60
   5   1  -5    4.30    0.40
   5   1  -5    3.30    0.50
  -5  -1   5    3.40    0.70
  -5  -1   5    4.40    0.60
  -5  -1   5    3.80    0.60
  -5  -1   5    3.80    0.60
  -5  -1   5    4.60    0.50
   4   1  -5    0.70    0.30
   4   1  -5    0.80    0.50
   4   1  -5    0.70    0.20
   4   1  -5    0.30    0.50
   4   1  -5    0.40    0.30
   4   1  -5    1.10    0.30
  -4  -1   5   -0.20    0.30
  -4  -1   5    0.50    0.40
  -4  -1   5    0.50    0.30
  -4  -1   5    1.00    0.30
  -4  -1   5    0.60    0.30
  -4  -1   5    0.50    0.30
   3   1  -5   69.89    2.20
   3   1  -5   68.79    2.30
   3   1  -5   67.59    1.90
   3   1  -5   65.59    1.90
   3   1  -5   68.79    2.00
  -3  -1   5   68.79    2.00
  -3  -1   5   66.19    2.30
  -3  -1   5   69.69    2.00
  -3  -1   5   70.49    2.10
  -3  -1   5   67.89    2.10
   2   1  -5   59.89    1.80
   2   1  -5   57.59    1.90
   2   1  -5   59.79    1.60
   2   1  -5   61.29    1.70
   2   1  -5   58.39    1.70
  -2  -1   5   58.29    2.00
  -2  -1   5   61.39    1.80
  -2  -1   5   61.89    1.70
  -2  -1   5   60.89    1.70
  -2  -1   5   59.89    1.70
  -2  -1   5   63.69    1.70
  -2  -1   5   61.49    1.80
   1   1  -5    8.20    0.40
   1   1  -5    7.50    0.30
   1   1  -5    7.40    0.50
   1   1  -5    7.80    0.30
   1   1  -5    7.10    0.40
   1   1  -5    8.30    0.30
   1   1  -5    7.80    0.50
  -1  -1   5    7.80    0.30
  -1  -1   5    7.60    0.30
  -1  -1   5    7.00    0.50
  -1  -1   5    6.40    0.60
  -1  -1   5    7.40    0.50
  -1  -1   5    8.30    0.50
  -1  -1   5    8.30    0.30
  -1  -1   5    7.30    0.40
   0   1  -5   21.20    0.70
   0   1  -5   20.10    0.80
   0  -1   5   19.80    0.90
   0  -1   5   21.10    0.80
   0  -1   5   20.40    0.70
   0  -1   5   19.40    0.80
   0  -1   5   20.00    0.80
  -1   1  -5  251.87    6.00
  -1   1  -5  252.07    5.90
  -1   1  -5  249.88    6.00
  -1   1  -5  246.18    6.10
   1  -1   5  255.67    6.30
   1  -1   5  251.77    5.90
   1  -1   5  244.38    6.20
   1  -1   5  256.07    5.90
   1  -1   5  238.68    6.20
   1  -1   5  256.97    6.00
   1  -1   5  244.88    6.30
  -2   1  -5  890.91   21.50
  -2   1  -5  936.01   21.50
  -2   1  -5  880.51   21.80
  -2   1  -5  906.71   21.80
  -2   1  -5  935.01   21.50
  -2   1  -5  899.51   21.80
   2  -1   5  850.61   21.70
   2  -1   5  908.21   21.50
   2  -1   5  905.81   21.70
   2  -1   5  971.40   21.50
   2  -1   5  900.71   21.70
   2  -1   5  921.81   21.80
  -3   1  -5  223.78    5.50
  -3   1  -5  222.98    5.50
  -3   1  -5  206.78    5.70
  -3   1  -5  218.68    5.30
   3  -1   5  231.48    5.30
   3  -1   5  217.78    5.60
   3  -1   5  217.08    5.60
   3  -1   5  217.88    5.50
  -4   1  -5  221.78    5.60
  -4   1  -5  210.28    5.80
  -4   1  -5  218.18    5.60
   4  -1   5  213.08    5.70
   4  -1   5  206.88    5.70
   4  -1   5  226.58    5.30
   4  -1   5  218.98    5.50
  -5   1  -5  103.69    3.30
  -5   1  -5  109.59    3.20
  -5   1  -5  104.99    3.10
   5  -1   5  101.19    3.20
   5  -1   5  104.29    3.30
   5  -1   5  104.59    3.00
   5  -1   5  109.19    2.80
  -6   1  -5   19.60    1.10
  -6   1  -5   18.60    1.10
  -6   1  -5   17.50    1.20
   6  -1   5   19.70    1.00
   6  -1   5   18.10    1.30
   6  -1   5   19.70    1.20
  -7   1  -5    0.10    0.50
  -7   1  -5   -0.70    0.60
  -7   1  -5    0.60    0.50
   7  -1   5    0.40    0.40
   7  -1   5    0.10    0.50
   7  -1   5    0.40    0.60
   7  -1   5    0.00    0.40
  -8   1  -5   -0.30    0.60
  -8   1  -5   -0.80    0.60
   8  -1   5    0.40    0.50
   8  -1   5    0.10    0.50
   8  -1   5    0.50    0.70
   8  -1   5    0.00    0.60
  -9   1  -5   11.20    1.30
  -9   1  -5   10.30    1.40
   9  -1   5   10.20    1.30
   9  -1   5   10.60    1.40
   9  -1   5    9.70    1.10
   9  -1   5   10.20    1.30
   8   0  -5    3.00    1.30
   8   0  -5    3.80    0.80
   8   0  -5    2.90    0.80
  -8   0   5    4.20    1.00
  -8   0   5    4.90    1.00
  -8   0   5    2.80    0.80
   7   0  -5   12.70    1.60
   7   0  -5   11.90    1.10
   7   0  -5    9.50    1.10
  -7   0   5   11.20    1.30
  -7   0   5   12.70    1.30
  -7   0   5   10.20    1.10
   6   0  -5    0.30    0.80
   6   0  -5    0.80    0.50
   6   0  -5    0.30    0.40
  -6   0   5    0.40    0.40
  -6   0   5    0.90    0.50
  -6   0   5    1.00    0.60
  -6   0   5    0.70    0.50
   5   0  -5    3.70    0.50
   5   0  -5    3.60    0.60
   5   0  -5    4.70    0.60
   5   0  -5    3.40    0.80
  -5   0   5    3.30    0.70
  -5   0   5    3.20    0.60
  -5   0   5    4.70    0.60
  -5   0   5    3.30    0.60
   4   0  -5  151.88    4.00
   4   0  -5  149.39    4.50
   4   0  -5  147.39    4.10
   4   0  -5  154.18    4.20
   4   0  -5  155.28    4.10
  -4   0   5  153.58    4.20
  -4   0   5  157.28    4.20
  -4   0   5  147.79    4.40
  -4   0   5  147.79    4.20
   3   0  -5   23.20    0.90
   3   0  -5   23.60    0.80
   3   0  -5   23.70    1.30
   3   0  -5   24.00    1.00
   3   0  -5   23.80    1.00
   3   0  -5   22.10    0.90
  -3   0   5   25.00    0.90
  -3   0   5   23.60    1.00
  -3   0   5   22.90    1.20
  -3   0   5   25.80    1.00
  -3   0   5   25.50    1.10
  -3   0   5   23.60    1.00
   2   0  -5  669.33   16.20
   2   0  -5  662.33   16.40
   2   0  -5  672.83   16.10
   2   0  -5  681.63   16.10
   2   0  -5  674.83   16.10
  -2   0   5  683.23   16.30
  -2   0   5  654.73   16.40
  -2   0   5  684.63   16.20
  -2   0   5  676.23   16.20
  -2   0   5  697.33   16.10
   1   0  -5  409.16    9.80
   1   0  -5  412.96    9.80
   1   0  -5  423.06    9.90
   1   0  -5  426.86    9.90
   1   0  -5  396.16    9.90
   1   0  -5  405.36    9.80
   1   0  -5  403.46   10.00
  -1   0   5  411.86   10.10
  -1   0   5  439.46    9.80
  -1   0   5  403.76   10.00
  -1   0   5  401.56   10.10
  -1   0   5  406.36    9.90
  -1   0   5  408.46    9.90
  -1   0   5  409.16    9.80
   0   0  -5    0.30    0.20
   0   0  -5    0.70    0.10
   0   0  -5    0.60    0.10
   0   0  -5    0.70    0.20
   0   0  -5    0.50    0.10
   0   0   5    0.70    0.10
   0   0   5    0.30    0.20
   0   0   5    0.30    0.20
   0   0   5    0.20    0.30
   0   0   5    0.70    0.10
   0   0   5    0.80    0.10
  -1   0  -5  392.26    9.40
  -1   0  -5  401.06    9.40
  -1   0  -5  384.76    9.40
  -1   0  -5  399.26    9.40
  -1   0  -5  388.56    9.50
   1   0   5  400.36    9.40
   1   0   5  387.56    9.60
   1   0   5  406.96    9.40
   1   0   5  380.16    9.60
   1   0   5  413.46    9.40
   1   0   5  390.86    9.70
  -2   0  -5 1161.38   27.10
  -2   0  -5 1092.39   27.10
  -2   0  -5 1148.49   27.60
  -2   0  -5 1161.38   27.40
   2   0   5 1112.89   27.50
   2   0   5 1127.39   27.30
   2   0   5 1106.69   27.20
   2   0   5 1207.68   27.10
   2   0   5 1183.28   27.30
   2   0   5 1189.88   27.10
   2   0   5 1140.19   27.10
   2   0   5 1121.99   27.50
  -3   0  -5  290.57    7.20
  -3   0  -5  279.27    7.40
  -3   0  -5  293.87    7.50
  -3   0  -5  300.07    7.20
  -3   0  -5  287.17    7.10
   3   0   5  297.07    7.20
   3   0   5  301.17    7.20
   3   0   5  301.17    7.10
   3   0   5  290.97    7.30
   3   0   5  291.47    7.30
   3   0   5  290.97    7.30
  -4   0  -5  769.82   18.30
  -4   0  -5  783.62   18.60
  -4   0  -5  735.23   18.20
  -4   0  -5  750.92   18.10
  -4   0  -5  762.82   18.40
   4   0   5  772.52   18.20
   4   0   5  732.33   18.30
   4   0   5  748.63   18.30
  -5   0  -5   36.10    1.40
  -5   0  -5   32.90    1.40
  -5   0  -5   30.80    1.40
   5   0   5   33.40    1.50
   5   0   5   31.10    1.20
   5   0   5   32.60    1.40
  -6   0  -5   53.89    2.10
  -6   0  -5   52.09    1.90
  -6   0  -5   56.19    2.00
   6   0   5   49.90    1.90
   6   0   5   52.59    2.10
   6   0   5   52.99    1.90
  -7   0  -5   42.50    2.00
  -7   0  -5   44.10    1.90
  -7   0  -5   46.00    1.90
   7   0   5   45.30    1.80
   7   0   5   44.90    1.90
   7   0   5   46.90    2.20
  -8   0  -5    0.20    0.50
  -8   0  -5    0.50    0.50
  -8   0  -5    1.30    0.70
   8   0   5    0.40    0.60
   8   0   5    1.20    0.60
   8   0   5    0.80    0.60
  -9   0  -5   -1.50    0.70
  -9   0  -5   -1.10    0.60
  -9   0  -5    0.20    0.70
   9   0   5    0.80    0.70
   9   0   5   -0.10    0.60
   9   0   5   -0.20    0.60
   9   0   5    1.10    0.80
   8  -1  -5   -0.30    0.60
   8  -1  -5   -0.80    0.60
   8  -1  -5    1.30    0.90
  -8   1   5    0.00    0.60
  -8   1   5    0.50    0.70
   7  -1  -5    2.60    1.00
   7  -1  -5    2.30    0.70
   7  -1  -5    2.00    0.70
  -7   1   5    2.80    0.90
  -7   1   5    2.80    0.80
  -7   1   5    3.40    0.80
   6  -1  -5    0.50    0.50
   6  -1  -5    0.70    0.80
   6  -1  -5    1.00    0.50
   6  -1  -5    0.70    0.50
  -6   1   5    2.30    0.70
  -6   1   5    0.70    0.60
  -6   1   5    0.70    0.60
  -6   1   5    0.70    0.40
   5  -1  -5  115.49    3.90
   5  -1  -5  107.99    3.30
   5  -1  -5  110.69    3.30
   5  -1  -5  110.99    3.20
  -5   1   5  109.49    3.30
  -5   1   5  112.39    3.40
  -5   1   5  106.79    3.50
  -5   1   5  109.19    3.50
   4  -1  -5  211.78    5.50
   4  -1  -5  216.08    6.00
   4  -1  -5  210.78    5.50
  -4   1   5  208.18    5.50
  -4   1   5  213.18    5.60
  -4   1   5  198.58    5.70
  -4   1   5  209.28    5.80
   3  -1  -5   81.29    2.40
   3  -1  -5   82.39    2.40
   3  -1  -5   80.09    2.70
   3  -1  -5   83.69    2.20
  -3   1   5   81.19    2.30
  -3   1   5   84.99    2.20
  -3   1   5   78.79    2.60
  -3   1   5   82.19    2.50
   2  -1  -5  571.14   13.70
   2  -1  -5  565.84   14.00
   2  -1  -5  553.24   13.70
   2  -1  -5  573.04   13.80
  -2   1   5  559.64   13.80
  -2   1   5  572.04   14.00
  -2   1   5  580.84   13.70
  -2   1   5  570.24   13.80
  -2   1   5  592.14   13.50
   1  -1  -5    2.30    0.30
   1  -1  -5    3.30    0.20
   1  -1  -5    2.70    0.40
  -1   1   5    2.90    0.30
  -1   1   5    2.70    0.40
  -1   1   5    2.30    0.30
  -1   1   5    2.50    0.30
  -1   1   5    3.10    0.20
   0  -1  -5   69.69    1.90
   0  -1  -5   67.59    1.70
   0  -1  -5   71.09    1.80
   0  -1  -5   68.29    1.80
   0  -1  -5   71.49    1.90
   0  -1  -5   65.59    2.00
   0  -1  -5   71.49    1.80
   0  -1  -5   72.39    1.90
   0   1   5   71.29    1.80
   0   1   5   66.49    1.90
   0   1   5   70.39    1.90
   0   1   5   69.29    2.00
   0   1   5   72.89    1.80
   0   1   5   67.39    2.10
   0   1   5   69.09    1.80
  -1  -1  -5  270.17    6.60
  -1  -1  -5  273.77    6.90
  -1  -1  -5  290.07    6.80
  -1  -1  -5  274.77    6.70
  -1  -1  -5  269.07    6.70
   1   1   5  286.17    6.70
   1   1   5  291.77    6.70
   1   1   5  275.37    6.90
   1   1   5  273.97    6.70
   1   1   5  280.07    6.70
   1   1   5  278.27    6.90
  -2  -1  -5  209.58    5.30
  -2  -1  -5  212.28    5.20
  -2  -1  -5  213.98    5.20
  -2  -1  -5  217.78    5.30
  -2  -1  -5  207.38    5.20
  -2  -1  -5  209.68    5.40
  -2  -1  -5  203.08    5.30
   2   1   5  212.08    5.40
   2   1   5  217.08    5.20
   2   1   5  211.78    5.40
   2   1   5  229.48    5.40
  -3  -1  -5    5.50    0.60
  -3  -1  -5    5.40    0.40
  -3  -1  -5    4.40    0.50
  -3  -1  -5    4.60    0.40
  -3  -1  -5    4.70    0.40
   3   1   5    5.50    0.40
   3   1   5    4.90    0.40
   3   1   5    5.40    0.40
   3   1   5    4.60    0.50
   3   1   5    5.40    0.40
  -4  -1  -5  123.99    3.40
  -4  -1  -5  125.69    3.50
  -4  -1  -5  131.59    3.80
  -4  -1  -5  127.79    3.60
   4   1   5  125.79    3.50
   4   1   5  132.69    3.40
   4   1   5  131.59    3.40
   4   1   5  129.79    3.60
  -5  -1  -5   47.40    1.80
  -5  -1  -5   47.70    1.70
  -5  -1  -5   44.30    1.50
  -5  -1  -5   46.30    1.60
   5   1   5   47.00    1.60
   5   1   5   48.20    1.70
   5   1   5   45.00    1.70
   5   1   5   47.80    1.60
  -6  -1  -5    0.30    0.40
  -6  -1  -5    0.40    0.40
  -6  -1  -5    0.20    0.40
   6   1   5    0.80    0.50
   6   1   5   -0.20    0.40
   6   1   5    0.10    0.40
  -7  -1  -5    7.10    0.90
  -7  -1  -5    8.70    1.00
  -7  -1  -5    7.60    0.90
   7   1   5    9.10    1.00
   7   1   5    6.90    0.90
   7   1   5    7.40    0.90
  -8  -1  -5    1.50    0.70
  -8  -1  -5    0.80    0.60
  -8  -1  -5    1.60    0.70
   8   1   5    1.80    0.80
   8   1   5    2.50    0.70
   8   1   5    2.70    0.70
  -9  -1  -5    0.90    0.70
  -9  -1  -5    0.30    0.70
  -9  -1  -5    2.20    0.80
   9   1   5    2.00    0.80
   9   1   5    0.80    0.70
   9   1   5    1.00    0.70
   7  -2  -5    2.20    1.00
   7  -2  -5    0.40    0.60
   7  -2  -5    0.90    0.60
  -7   2   5    0.70    0.70
  -7   2   5    1.50    0.70
  -7   2   5    2.40    0.80
   6  -2  -5   19.40    1.20
   6  -2  -5   20.50    1.70
   6  -2  -5   17.60    1.30
   6  -2  -5   21.10    1.30
   6  -2  -5   18.90    1.20
  -6   2   5   22.90    1.60
  -6   2   5   19.80    1.40
  -6   2   5   22.30    1.50
  -6   2   5   17.50    1.30
   5  -2  -5   30.10    1.50
   5  -2  -5   30.00    1.90
   5  -2  -5   30.90    1.50
   5  -2  -5   30.90    1.50
   5  -2  -5   30.60    1.40
  -5   2   5   32.80    1.80
  -5   2   5   30.10    1.50
  -5   2   5   31.40    1.60
  -5   2   5   30.90    1.60
   4  -2  -5   29.60    1.30
   4  -2  -5   28.10    1.70
   4  -2  -5   27.30    1.30
   4  -2  -5   26.70    1.30
  -4   2   5   27.70    1.20
  -4   2   5   28.50    1.40
  -4   2   5   27.30    1.50
  -4   2   5   26.00    1.40
  -4   2   5   30.00    1.30
   3  -2  -5   14.70    0.90
   3  -2  -5   14.20    0.80
   3  -2  -5   15.50    1.10
   3  -2  -5   15.00    0.80
  -3   2   5   15.20    0.70
  -3   2   5   14.30    0.80
  -3   2   5   15.60    0.90
  -3   2   5   13.70    1.00
  -3   2   5   14.80    0.50
  -3   2   5   14.60    0.90
   2  -2  -5    1.90    0.40
   2  -2  -5    2.00    0.40
   2  -2  -5    1.20    0.50
  -2   2   5    1.70    0.40
  -2   2   5    1.90    0.40
  -2   2   5    1.20    0.20
  -2   2   5    1.30    0.30
  -2   2   5    2.40    0.50
   1  -2  -5   27.20    1.00
   1  -2  -5   26.40    1.10
   1  -2  -5   27.10    1.10
  -1   2   5   28.80    1.00
  -1   2   5   26.20    1.00
  -1   2   5   28.00    1.00
  -1   2   5   27.40    1.10
   0  -2  -5   37.70    1.20
   0  -2  -5   38.10    1.20
   0  -2  -5   39.80    1.30
   0  -2  -5   39.60    1.00
   0   2   5   38.40    1.30
   0   2   5   40.50    1.20
   0   2   5   38.90    1.20
   0   2   5   40.70    1.20
  -1  -2  -5    2.90    0.30
  -1  -2  -5    3.10    0.30
  -1  -2  -5    2.60    0.20
  -1  -2  -5    2.70    0.30
  -1  -2  -5    2.70    0.30
   1   2   5    2.50    0.30
   1   2   5    2.20    0.30
   1   2   5    2.20    0.30
   1   2   5    3.10    0.30
  -2  -2  -5    2.30    0.30
  -2  -2  -5    2.70    0.40
  -2  -2  -5    2.20    0.30
  -2  -2  -5    1.90    0.30
   2   2   5    2.70    0.30
   2   2   5    2.60    0.30
   2   2   5    2.90    0.30
   2   2   5    2.70    0.30
  -3  -2  -5   35.30    1.20
  -3  -2  -5   36.60    1.30
  -3  -2  -5   38.00    1.40
  -3  -2  -5   35.90    1.20
  -3  -2  -5   38.00    1.10
   3   2   5   38.50    1.40
   3   2   5   36.40    1.20
   3   2   5   36.80    1.20
   3   2   5   37.80    1.10
  -4  -2  -5   27.00    1.10
  -4  -2  -5   25.40    1.00
  -4  -2  -5   25.00    1.20
  -4  -2  -5   25.30    1.10
   4   2   5   23.90    1.00
   4   2   5   24.50    1.00
   4   2   5   26.70    0.90
   4   2   5   26.10    1.00
   4   2   5   23.90    1.20
   4   2   5   24.60    1.00
  -5  -2  -5   38.80    1.40
  -5  -2  -5   38.10    1.50
  -5  -2  -5   37.80    1.50
   5   2   5   37.40    1.50
   5   2   5   37.30    1.40
   5   2   5   37.50    1.50
   5   2   5   39.50    1.70
   5   2   5   37.80    1.40
  -6  -2  -5    0.60    0.40
  -6  -2  -5    0.10    0.40
  -6  -2  -5    0.10    0.40
  -6  -2  -5    0.60    0.40
   6   2   5   -0.30    0.50
   6   2   5    0.70    0.40
   6   2   5    0.40    0.40
   6   2   5    0.50    0.40
  -7  -2  -5   24.50    1.40
  -7  -2  -5   23.90    1.40
  -7  -2  -5   24.70    1.40
   7   2   5   24.10    1.30
   7   2   5   24.50    1.50
   7   2   5   25.40    1.40
  -8  -2  -5   12.40    1.20
  -8  -2  -5   10.80    1.10
  -8  -2  -5   15.40    1.40
   8   2   5   12.10    1.10
   8   2   5   14.90    1.40
   8   2   5   14.70    1.10
  -9  -2  -5   42.90    2.10
  -9  -2  -5   39.30    2.10
  -9  -2  -5   44.90    2.20
   9   2   5   47.40    2.50
   9   2   5   40.50    2.00
   9   2   5   40.80    2.00
 -10  -2  -5   10.00    1.40
 -10  -2  -5   12.60    1.40
  10   2   5    9.10    1.20
   7  -3  -5    5.70    0.90
   7  -3  -5    5.20    1.10
   7  -3  -5    5.70    1.00
  -7   3   5    4.80    1.10
  -7   3   5    6.00    1.00
  -7   3   5    5.80    1.10
   6  -3  -5    3.70    1.00
   6  -3  -5    2.90    0.80
   6  -3  -5    2.60    0.70
   6  -3  -5    2.50    0.70
   6  -3  -5    2.50    0.70
  -6   3   5    1.60    0.70
  -6   3   5    1.00    0.60
  -6   3   5    1.60    0.80
   5  -3  -5   20.80    1.30
   5  -3  -5   22.20    1.30
   5  -3  -5   23.30    1.60
   5  -3  -5   20.10    1.30
   5  -3  -5   21.80    1.30
  -5   3   5   20.50    1.30
  -5   3   5   23.20    1.40
  -5   3   5   21.30    1.50
  -5   3   5   23.40    1.60
   4  -3  -5  225.58    6.10
   4  -3  -5  222.88    6.10
   4  -3  -5  229.88    6.10
   4  -3  -5  228.08    6.50
  -4   3   5  233.18    6.30
  -4   3   5  227.08    6.20
  -4   3   5  226.08    6.40
  -4   3   5  232.88    6.10
   3  -3  -5   48.70    1.70
   3  -3  -5   50.19    2.00
   3  -3  -5   50.69    1.80
  -3   3   5   51.29    1.80
  -3   3   5   49.20    2.00
  -3   3   5   48.30    1.80
  -3   3   5   52.49    1.60
  -3   3   5   47.70    1.80
   2  -3  -5    0.70    0.40
   2  -3  -5    2.40    0.40
   2  -3  -5    2.20    0.50
  -2   3   5    1.00    0.40
  -2   3   5    1.40    0.30
  -2   3   5    1.50    0.20
  -2   3   5    2.00    0.40
  -2   3   5    1.90    0.10
  -2   3   5    0.80    0.40
   1  -3  -5   14.20    0.70
   1  -3  -5   14.80    0.80
   1  -3  -5   13.10    0.80
  -1   3   5   14.50    0.70
  -1   3   5   14.60    0.70
  -1   3   5   14.50    0.80
   0  -3  -5    2.50    0.30
   0  -3  -5    2.70    0.30
   0  -3  -5    2.20    0.30
   0  -3  -5    2.40    0.40
   0   3   5    2.70    0.30
   0   3   5    2.30    0.30
   0   3   5    2.60    0.20
   0   3   5    2.40    0.30
  -1  -3  -5    8.70    0.50
  -1  -3  -5    7.70    0.60
  -1  -3  -5    8.10    0.50
  -1  -3  -5    7.70    0.40
  -1  -3  -5    7.60    0.50
   1   3   5    7.40    0.50
   1   3   5    8.90    0.50
   1   3   5    8.40    0.50
   1   3   5    8.60    0.30
   1   3   5    8.40    0.50
   1   3   5    8.00    0.40
  -2  -3  -5   38.90    1.30
  -2  -3  -5   38.40    1.40
  -2  -3  -5   39.30    1.30
   2   3   5   42.10    1.30
   2   3   5   40.40    1.30
   2   3   5   38.20    1.30
   2   3   5   41.40    1.00
   2   3   5   38.10    1.30
  -3  -3  -5  676.53   16.30
  -3  -3  -5  655.53   16.30
  -3  -3  -5  662.53   16.20
  -3  -3  -5  674.63   16.40
   3   3   5  686.43   16.20
   3   3   5  679.23   16.00
   3   3   5  694.03   16.40
   3   3   5  671.43   16.40
   3   3   5  667.43   16.20
  -4  -3  -5  499.05   12.50
  -4  -3  -5  525.75   12.70
  -4  -3  -5  493.85   12.40
  -4  -3  -5  495.95   12.40
   4   3   5  517.95   12.30
   4   3   5  499.85   12.40
   4   3   5  521.35   12.60
   4   3   5  501.45   12.60
   4   3   5  511.65   12.20
  -5  -3  -5   32.20    1.30
  -5  -3  -5   33.20    1.30
  -5  -3  -5   31.50    1.30
   5   3   5   30.90    1.30
   5   3   5   32.00    1.30
   5   3   5   33.90    1.00
   5   3   5   31.60    1.60
   5   3   5   32.20    1.30
   5   3   5   33.40    1.50
   5   3   5   33.30    1.30
  -6  -3  -5   15.70    1.00
  -6  -3  -5   15.90    1.00
  -6  -3  -5   16.20    1.00
   6   3   5   16.10    1.00
   6   3   5   17.70    1.00
   6   3   5   16.00    1.00
   6   3   5   16.00    1.20
   6   3   5   17.10    1.10
   6   3   5   15.60    1.40
  -7  -3  -5    0.60    0.50
  -7  -3  -5    0.90    0.50
  -7  -3  -5    0.50    0.50
   7   3   5    0.90    0.50
   7   3   5    0.20    0.50
   7   3   5    1.30    0.60
   7   3   5    0.10    0.60
   7   3   5   -0.20    0.50
  -8  -3  -5   11.70    1.20
  -8  -3  -5   16.10    1.40
  -8  -3  -5   14.70    1.20
   8   3   5   14.20    1.20
   8   3   5   14.50    1.10
   8   3   5   14.20    1.30
  -9  -3  -5   28.40    1.80
  -9  -3  -5   30.40    1.90
  -9  -3  -5   25.00    1.70
   9   3   5   29.90    1.70
   9   3   5   32.10    2.00
   9   3   5   27.70    1.60
 -10  -3  -5    4.40    1.00
 -10  -3  -5    5.30    1.00
  10   3   5    5.00    1.00
  10   3   5    6.00    1.20
   6  -4  -5    7.70    1.00
   6  -4  -5    6.40    1.00
   6  -4  -5    8.20    1.30
  -6   4   5    8.40    1.10
  -6   4   5    5.50    1.00
  -6   4   5    8.10    1.20
   5  -4  -5   38.40    1.80
   5  -4  -5   36.70    1.90
   5  -4  -5   39.80    2.20
   5  -4  -5   33.90    1.60
  -5   4   5   38.30    1.90
  -5   4   5   34.60    1.90
  -5   4   5   39.90    2.10
   4  -4  -5   46.60    1.90
   4  -4  -5   45.70    2.10
   4  -4  -5   41.80    1.80
  -4   4   5   46.30    1.90
  -4   4   5   39.80    1.90
  -4   4   5   44.90    2.20
   3  -4  -5    1.80    0.50
   3  -4  -5    2.80    0.60
   3  -4  -5    2.00    0.50
  -3   4   5    1.60    0.60
  -3   4   5    1.40    0.60
  -3   4   5    2.80    0.40
  -3   4   5    1.70    0.50
   2  -4  -5    5.10    0.60
   2  -4  -5    4.50    0.60
   2  -4  -5    4.90    0.70
  -2   4   5    5.60    0.80
  -2   4   5    5.70    0.70
  -2   4   5    4.50    0.60
  -2   4   5    5.30    0.40
  -2   4   5    5.50    0.50
  -2   4   5    4.70    0.30
  -2   4   5    4.90    0.40
   1  -4  -5    5.00    0.60
   1  -4  -5    5.90    0.60
   1  -4  -5    5.30    0.60
   1  -4  -5    5.40    0.60
  -1   4   5    5.40    0.30
  -1   4   5    5.10    0.60
  -1   4   5    4.30    0.60
  -1   4   5    5.90    0.70
  -1   4   5    4.90    0.30
   0  -4  -5  359.66    9.00
   0  -4  -5  356.96    8.90
   0  -4  -5  356.26    9.00
   0   4   5  370.46    8.80
   0   4   5  362.06    8.60
   0   4   5  354.06    9.00
   0   4   5  360.96    8.70
  -1  -4  -5   37.20    1.40
  -1  -4  -5   38.00    1.30
  -1  -4  -5   37.10    1.20
  -1  -4  -5   37.60    1.30
   1   4   5   37.10    1.20
   1   4   5   36.80    1.20
   1   4   5   39.90    1.40
   1   4   5   40.10    1.20
   1   4   5   35.40    1.20
  -2  -4  -5   13.30    0.80
  -2  -4  -5   13.60    0.80
  -2  -4  -5   14.70    0.70
   2   4   5   12.90    0.70
   2   4   5   14.10    0.70
   2   4   5   13.50    0.80
   2   4   5   13.60    0.80
   2   4   5   14.70    0.50
  -3  -4  -5   58.49    1.80
  -3  -4  -5   62.19    2.00
  -3  -4  -5   57.49    2.00
  -3  -4  -5   57.59    1.90
   3   4   5   59.89    1.90
   3   4   5   57.89    1.80
   3   4   5   59.89    1.60
   3   4   5   56.59    1.90
   3   4   5   55.69    1.80
  -4  -4  -5   73.89    2.40
  -4  -4  -5   76.99    2.30
  -4  -4  -5   79.89    2.50
  -4  -4  -5   72.99    2.30
   4   4   5   76.99    2.20
   4   4   5   69.39    2.40
   4   4   5   72.79    2.50
   4   4   5   74.99    2.30
   4   4   5   74.39    2.20
  -5  -4  -5   29.20    1.20
  -5  -4  -5   28.30    1.30
  -5  -4  -5   29.10    1.30
  -5  -4  -5   28.30    1.20
   5   4   5   28.20    1.20
   5   4   5   27.30    1.50
   5   4   5   28.60    1.50
   5   4   5   29.10    1.20
   5   4   5   30.60    1.30
   5   4   5   29.10    1.00
  -6  -4  -5    8.30    0.90
  -6  -4  -5    6.80    0.80
  -6  -4  -5    7.20    0.70
   6   4   5    8.10    0.80
   6   4   5    8.40    1.00
   6   4   5    7.40    0.80
   6   4   5    7.10    0.80
   6   4   5    6.10    0.90
  -7  -4  -5    0.60    0.60
  -7  -4  -5    1.20    0.50
  -7  -4  -5    0.90    0.40
   7   4   5    0.10    0.60
   7   4   5    0.70    0.70
   7   4   5    1.20    0.50
   7   4   5    1.30    0.50
   7   4   5    1.30    0.70
  -8  -4  -5   14.00    1.30
  -8  -4  -5   12.90    1.10
  -8  -4  -5   13.00    1.20
   8   4   5   13.60    1.40
   8   4   5   12.00    1.20
   8   4   5   13.50    1.20
   8   4   5   11.80    1.10
  -9  -4  -5   11.40    1.30
  -9  -4  -5   15.20    1.40
   9   4   5   11.40    1.20
   9   4   5   16.80    1.60
 -10  -4  -5    3.80    1.00
 -10  -4  -5    3.20    1.00
  10   4   5    3.20    0.90
  10   4   5    4.80    1.10
   6  -5  -5   -0.40    0.70
   6  -5  -5   -1.20    0.50
   6  -5  -5    0.80    0.70
  -6   5   5   -0.90    0.70
  -6   5   5    0.70    0.70
  -6   5   5   -0.90    0.60
   5  -5  -5    7.20    1.10
   5  -5  -5    6.90    0.90
   5  -5  -5    8.00    1.10
  -5   5   5    9.10    1.20
  -5   5   5    7.70    1.00
  -5   5   5    7.90    1.30
   4  -5  -5    7.70    1.00
   4  -5  -5    7.00    0.80
   4  -5  -5    5.80    1.00
  -4   5   5    5.20    0.90
  -4   5   5    6.80    1.00
  -4   5   5    6.00    1.00
   3  -5  -5    0.00    0.40
   3  -5  -5    0.20    0.50
   3  -5  -5    0.40    0.50
  -3   5   5   -0.30    0.50
  -3   5   5    0.00    0.50
  -3   5   5    0.10    0.50
   2  -5  -5    7.00    0.70
   2  -5  -5    6.50    0.70
  -2   5   5    6.00    0.50
  -2   5   5    4.90    0.80
  -2   5   5    7.60    0.80
  -2   5   5    7.00    0.40
  -2   5   5    5.90    0.80
   1  -5  -5    1.50    0.50
   1  -5  -5   -0.40    0.40
   1  -5  -5    1.80    0.50
  -1   5   5    1.20    0.60
  -1   5   5    0.90    0.40
  -1   5   5    1.30    0.30
  -1   5   5    1.40    0.20
  -1   5   5    1.70    0.50
   0  -5  -5    2.70    0.50
   0  -5  -5    2.30    0.50
   0  -5  -5    4.10    0.50
   0   5   5    2.30    0.30
   0   5   5    2.70    0.50
   0   5   5    2.20    0.30
   0   5   5    2.70    0.30
  -1  -5  -5  128.39    3.60
  -1  -5  -5  129.89    3.60
  -1  -5  -5  127.29    3.50
   1   5   5  122.49    3.40
   1   5   5  129.09    3.40
   1   5   5  126.99    3.30
   1   5   5  126.69    3.60
  -2  -5  -5  109.19    3.20
  -2  -5  -5  110.79    3.30
  -2  -5  -5  112.79    3.20
   2   5   5  113.79    3.30
   2   5   5  112.89    3.20
   2   5   5  114.99    3.20
   2   5   5  107.19    3.20
   2   5   5  122.09    3.00
  -3  -5  -5   99.19    3.10
  -3  -5  -5  103.39    3.00
  -3  -5  -5   98.19    2.90
   3   5   5  101.89    2.90
   3   5   5  103.49    3.00
   3   5   5  102.79    2.70
   3   5   5  100.59    3.00
   3   5   5  100.49    3.00
  -4  -5  -5  114.29    3.30
  -4  -5  -5  113.79    3.40
  -4  -5  -5  111.69    3.40
  -4  -5  -5  108.69    3.20
   4   5   5  109.49    3.40
   4   5   5  114.59    3.10
   4   5   5  107.69    3.40
   4   5   5  112.39    3.20
  -5  -5  -5   10.80    0.80
  -5  -5  -5   10.20    0.90
  -5  -5  -5   10.90    0.90
  -5  -5  -5   10.90    0.80
   5   5   5   11.50    0.60
   5   5   5   12.00    0.80
   5   5   5   10.30    1.00
   5   5   5   10.10    0.80
   5   5   5    8.50    0.90
  -6  -5  -5   26.10    1.50
  -6  -5  -5   27.50    1.30
  -6  -5  -5   29.30    1.20
  -6  -5  -5   30.30    1.50
   6   5   5   26.70    1.30
   6   5   5   30.00    1.40
   6   5   5   28.60    1.40
   6   5   5   25.70    1.70
   6   5   5   29.60    1.70
  -7  -5  -5    3.40    0.70
  -7  -5  -5    4.20    0.60
  -7  -5  -5    4.90    0.80
   7   5   5    4.00    0.70
   7   5   5    4.60    0.80
   7   5   5    3.80    0.90
   7   5   5    4.40    1.00
   7   5   5    4.50    0.70
  -8  -5  -5    0.70    0.60
   8   5   5   -0.40    0.50
   8   5   5    0.20    0.60
   8   5   5   -0.30    0.60
   8   5   5    0.50    0.70
  -9  -5  -5    1.20    0.70
  -9  -5  -5    0.50    0.70
   9   5   5    0.40    0.80
   9   5   5    1.40    0.70
   9   5   5    1.30    0.70
   9   5   5   -0.40    0.80
 -10  -5  -5    2.70    0.90
 -10  -5  -5    2.00    0.80
  10   5   5    1.60    0.90
  10   5   5    1.80    0.80
   5  -6  -5    4.30    0.90
   5  -6  -5    4.00    1.00
  -5   6   5    2.90    1.00
  -5   6   5    4.10    0.90
  -5   6   5    2.80    0.90
   4  -6  -5   12.90    1.20
  -4   6   5   11.40    1.30
  -4   6   5   13.00    1.50
  -4   6   5   13.10    1.30
   3  -6  -5   10.00    1.00
   3  -6  -5    9.70    1.00
  -3   6   5    9.50    1.10
  -3   6   5    7.00    0.90
  -3   6   5    8.80    1.10
   2  -6  -5    2.20    0.60
   2  -6  -5    2.00    0.60
   2  -6  -5    2.60    0.60
  -2   6   5    2.80    0.70
  -2   6   5    2.70    0.60
  -2   6   5    2.90    0.80
   1  -6  -5   15.10    1.00
   1  -6  -5   15.40    1.10
   1  -6  -5   14.70    1.00
  -1   6   5   15.50    0.80
  -1   6   5   15.30    1.20
  -1   6   5   14.90    0.80
  -1   6   5   14.80    1.00
   0  -6  -5   81.19    2.70
   0  -6  -5   81.29    2.60
   0  -6  -5   84.09    2.70
   0   6   5   86.69    2.20
   0   6   5   82.09    2.70
   0   6   5   83.89    2.40
   0   6   5   87.29    2.50
  -1  -6  -5  867.71   21.90
  -1  -6  -5  890.11   21.80
  -1  -6  -5  920.31   21.90
   1   6   5  926.41   21.70
   1   6   5  899.21   21.70
   1   6   5  887.51   21.90
   1   6   5  921.01   21.50
  -2  -6  -5   61.59    2.10
  -2  -6  -5   61.39    2.00
  -2  -6  -5   59.19    2.10
   2   6   5   58.29    2.00
   2   6   5   60.49    2.00
   2   6   5   63.39    1.90
   2   6   5   59.49    2.10
   2   6   5   57.39    2.10
  -3  -6  -5  133.69    3.80
  -3  -6  -5  123.89    3.70
  -3  -6  -5  127.49    3.80
   3   6   5  127.39    3.70
   3   6   5  132.59    3.70
   3   6   5  121.49    3.70
   3   6   5  133.19    3.80
   3   6   5  133.89    3.50
  -4  -6  -5    5.80    0.80
  -4  -6  -5    4.90    0.70
  -4  -6  -5    5.60    0.60
   4   6   5    6.70    0.80
   4   6   5    5.20    0.70
   4   6   5    6.10    0.60
   4   6   5    6.70    0.70
  -5  -6  -5    7.20    0.90
  -5  -6  -5    8.50    0.80
  -5  -6  -5    8.10    0.80
   5   6   5    6.10    0.80
   5   6   5   10.20    0.80
   5   6   5    7.00    0.90
   5   6   5   10.10    0.80
  -6  -6  -5   34.70    1.40
  -6  -6  -5   37.50    1.60
  -6  -6  -5   34.90    1.80
  -6  -6  -5   32.70    1.50
   6   6   5   34.60    1.60
   6   6   5   32.80    1.80
   6   6   5   36.20    1.60
   6   6   5   32.50    1.80
  -7  -6  -5   35.40    1.90
  -7  -6  -5   33.20    1.70
   7   6   5   39.00    2.20
   7   6   5   35.60    1.80
   7   6   5   38.40    2.10
   7   6   5   35.20    1.70
   7   6   5   37.90    1.80
  -8  -6  -5   -0.60    0.60
   8   6   5    0.00    0.50
   8   6   5    0.20    0.60
   8   6   5    0.40    0.60
   8   6   5   -0.90    0.70
  -9  -6  -5    2.70    0.80
   9   6   5    2.70    0.80
   9   6   5    4.90    0.90
   9   6   5    1.20    0.90
   9   6   5    3.00    1.10
   4  -7  -5    4.60    1.00
   4  -7  -5    4.40    0.90
  -4   7   5    4.90    1.10
  -4   7   5    5.50    1.00
  -4   7   5    5.50    1.00
   3  -7  -5    2.40    0.70
   3  -7  -5    2.30    0.70
  -3   7   5    1.30    0.70
  -3   7   5    1.00    0.70
  -3   7   5    1.70    0.80
   2  -7  -5   -0.10    0.60
   2  -7  -5    0.40    0.50
   2  -7  -5    0.10    0.40
  -2   7   5    0.30    0.60
  -2   7   5    0.00    0.50
   1  -7  -5    1.60    0.60
   1  -7  -5    2.10    0.60
   1  -7  -5    2.40    0.60
  -1   7   5    2.40    0.70
   0  -7  -5    1.10    0.50
   0  -7  -5   -0.10    0.40
   0  -7  -5   -0.30    0.40
   0   7   5    0.70    0.50
   0   7   5    0.20    0.30
   0   7   5   -0.10    0.30
  -1  -7  -5   10.90    0.90
  -1  -7  -5   10.50    0.90
  -1  -7  -5   11.50    0.90
   1   7   5   11.60    0.90
   1   7   5   11.40    0.90
   1   7   5    9.80    0.80
   1   7   5   11.00    0.80
  -2  -7  -5    7.20    0.70
  -2  -7  -5    6.20    0.70
  -2  -7  -5    7.50    0.90
   2   7   5    7.20    0.70
   2   7   5    6.10    0.70
   2   7   5    7.30    0.90
   2   7   5    7.10    0.70
   2   7   5    7.20    0.60
  -3  -7  -5    9.00    0.80
  -3  -7  -5   11.20    1.10
   3   7   5   10.00    0.90
   3   7   5    9.30    0.90
   3   7   5    8.50    0.90
   3   7   5   10.10    0.70
   3   7   5    9.90    0.90
  -4  -7  -5    0.10    0.40
  -4  -7  -5    1.00    0.60
  -4  -7  -5    0.80    0.50
   4   7   5    0.90    0.40
   4   7   5    0.60    0.30
   4   7   5    0.40    0.40
   4   7   5    0.10    0.50
   4   7   5    0.60    0.40
  -5  -7  -5    0.90    0.50
  -5  -7  -5    0.40    0.40
  -5  -7  -5    1.20    0.60
   5   7   5    1.00    0.60
   5   7   5    0.50    0.40
   5   7   5    0.90    0.50
   5   7   5    0.70    0.60
  -6  -7  -5   32.10    1.50
  -6  -7  -5   30.10    1.60
  -6  -7  -5   32.20    1.80
   6   7   5   33.10    2.00
   6   7   5   29.20    1.50
   6   7   5   32.10    1.50
   6   7   5   30.80    1.90
  -7  -7  -5   17.50    1.30
  -7  -7  -5   17.90    1.30
  -7  -7  -5   19.80    1.60
   7   7   5   17.50    1.40
   7   7   5   20.20    1.30
   7   7   5   19.00    1.60
   7   7   5   21.40    1.30
   7   7   5   15.10    1.60
  -8  -7  -5    0.50    0.70
  -8  -7  -5    0.60    0.70
   8   7   5    0.30    0.70
   8   7   5    2.00    0.70
   8   7   5    2.50    0.70
   8   7   5   -0.20    0.80
  -9  -7  -5   -0.20    0.60
   9   7   5    0.70    0.70
   9   7   5   -0.30    0.70
   9   7   5   -0.30    0.90
   3  -8  -5    4.50    0.90
   3  -8  -5    4.50    0.90
  -3   8   5    3.90    1.00
  -3   8   5    3.70    0.90
   2  -8  -5    0.80    0.70
   2  -8  -5    0.20    0.60
  -2   8   5    1.00    0.60
  -2   8   5   -0.50    0.70
   1  -8  -5    0.70    0.60
   1  -8  -5    0.70    0.60
   1  -8  -5    0.10    0.50
  -1   8   5    0.90    0.60
   0  -8  -5    2.00    0.60
   0  -8  -5    1.90    0.70
   0  -8  -5    2.10    0.60
   0   8   5    1.00    0.60
   0   8   5    1.30    0.40
  -1  -8  -5    5.30    0.80
  -1  -8  -5    5.20    0.80
  -1  -8  -5    5.40    0.80
   1   8   5    4.70    0.60
   1   8   5    4.30    0.70
   1   8   5    6.00    0.90
   1   8   5    5.10    0.70
  -2  -8  -5   21.70    1.20
  -2  -8  -5   20.30    1.40
   2   8   5   22.90    1.30
   2   8   5   21.10    1.20
   2   8   5   21.40    1.20
   2   8   5   20.00    1.30
  -3  -8  -5    2.00    0.60
  -3  -8  -5    1.60    0.70
   3   8   5    2.70    0.70
   3   8   5    2.60    0.60
   3   8   5    2.30    0.60
   3   8   5    2.40    0.50
   3   8   5    2.80    0.60
  -4  -8  -5    0.30    0.60
  -4  -8  -5    0.70    0.50
  -4  -8  -5    0.90    0.60
   4   8   5    1.40    0.40
   4   8   5    1.50    0.60
   4   8   5    0.40    0.50
   4   8   5    0.40    0.50
   4   8   5    0.00    0.40
  -5  -8  -5    0.00    0.60
  -5  -8  -5    0.70    0.60
  -5  -8  -5    0.90    0.50
   5   8   5    0.10    0.60
   5   8   5    0.60    0.60
   5   8   5    1.00    0.40
   5   8   5    1.30    0.60
  -6  -8  -5   19.80    1.40
  -6  -8  -5   26.40    1.70
  -6  -8  -5   23.00    1.40
   6   8   5   23.40    1.80
   6   8   5   22.70    1.80
   6   8   5   23.40    1.40
  -7  -8  -5    2.60    0.80
  -7  -8  -5    2.60    0.80
  -7  -8  -5    2.80    1.00
   7   8   5    2.40    0.70
   7   8   5    2.50    0.90
   7   8   5    3.50    0.80
  -8  -8  -5    3.10    0.90
  -8  -8  -5    4.70    1.00
   8   8   5    5.40    0.90
   8   8   5    1.40    1.00
   8   8   5    3.30    0.90
  -9  -8  -5    8.00    1.20
   9   8   5    8.50    1.10
   9   8   5    8.60    1.20
   9   8   5    5.10    1.20
   2  -9  -5    7.50    1.00
   2  -9  -5    5.70    1.00
  -2   9   5    5.10    1.00
   1  -9  -5    8.00    1.00
   1  -9  -5    8.50    1.10
   1  -9  -5    6.90    1.00
  -1   9   5    6.50    1.00
   0  -9  -5    1.00    0.60
   0  -9  -5    1.20    0.60
   0  -9  -5    2.20    0.70
   0   9   5    1.50    0.70
  -1  -9  -5    1.30    0.60
  -1  -9  -5    1.40    0.70
  -1  -9  -5    1.30    0.60
   1   9   5    0.60    0.60
   1   9   5    1.40    0.50
   1   9   5    1.70    0.70
  -2  -9  -5    1.40    0.60
  -2  -9  -5    1.10    0.70
   2   9   5    0.70    0.50
   2   9   5    1.30    0.60
   2   9   5    2.40    0.70
  -3  -9  -5    1.30    0.80
  -3  -9  -5    1.10    0.60
   3   9   5    2.80    0.70
   3   9   5    1.50    0.50
   3   9   5    1.60    0.60
   3   9   5    2.20    0.70
  -4  -9  -5   18.20    1.40
  -4  -9  -5   18.60    1.30
  -4  -9  -5   22.20    1.60
   4   9   5   21.50    1.40
   4   9   5   20.50    1.40
   4   9   5   21.30    1.50
   4   9   5   21.70    1.50
  -5  -9  -5    1.80    0.70
  -5  -9  -5    1.50    0.60
  -5  -9  -5    0.90    0.70
   5   9   5    0.90    0.60
   5   9   5    0.90    0.70
   5   9   5    0.90    0.70
  -6  -9  -5    0.70    0.70
  -6  -9  -5    0.40    0.70
  -6  -9  -5   -0.20    0.70
   6   9   5    1.40    0.70
   6   9   5   -0.60    0.70
  -7  -9  -5    4.90    0.90
  -7  -9  -5    3.50    1.10
  -7  -9  -5    3.50    0.90
   7   9   5    3.50    0.80
   7   9   5    2.90    1.00
  -8  -9  -5    0.10    0.70
  -8  -9  -5   -0.50    0.70
  -8  -9  -5   -1.00    0.80
   8   9   5   -0.20    0.60
   8   9   5   -0.40    0.90
   8   9   5   -0.50    0.70
   1 -10  -5   -0.10    0.60
   1 -10  -5    0.50    0.80
  -1  10   5    0.40    0.70
   0 -10  -5    0.50    0.60
   0 -10  -5    0.20    0.60
   0 -10  -5   -0.60    0.60
   0  10   5    0.10    0.60
   0  10   5    0.00    0.60
  -1 -10  -5   -0.20    0.60
  -1 -10  -5   -0.10    0.60
  -1 -10  -5   -0.20    0.50
   1  10   5    0.70    0.70
   1  10   5   -0.40    0.70
  -2 -10  -5    2.00    0.80
  -2 -10  -5    3.40    0.80
   2  10   5    2.30    0.70
   2  10   5    2.20    0.70
   2  10   5    3.00    0.80
  -3 -10  -5    3.70    0.90
  -3 -10  -5    2.80    0.80
   3  10   5    2.60    0.80
   3  10   5    3.40    0.80
   3  10   5    3.40    0.80
  -4 -10  -5   10.60    1.30
  -4 -10  -5    9.80    1.10
   4  10   5   10.40    1.20
   4  10   5    9.40    1.10
   4  10   5   10.30    1.20
  -5 -10  -5    3.10    1.00
  -5 -10  -5    1.20    0.70
  -5 -10  -5    2.90    0.80
   5  10   5    1.60    0.70
   5  10   5    2.10    0.90
  -6 -10  -5    0.40    0.60
  -6 -10  -5   -0.20    0.70
  -6 -10  -5    0.20    0.80
   6  10   5   -1.00    0.70
   6  10   5    0.30    0.70
  -7 -10  -5    3.60    1.00
  -7 -10  -5    1.00    0.70
  -7 -10  -5    1.50    0.90
   7  10   5    1.10    0.70
   7  10   5    0.40    1.00
  -1 -11  -5   -0.60    0.70
  -1 -11  -5    0.90    0.70
   1  11   5   -0.20    0.70
   1  11   5    0.00    0.70
  -2 -11  -5    1.30    0.80
  -2 -11  -5    0.40    0.60
   2  11   5    0.60    0.70
   2  11   5    1.40    0.80
  -3 -11  -5    0.30    0.70
  -3 -11  -5    2.00    0.80
   3  11   5    0.20    0.60
   3  11   5    0.10    0.60
   3  11   5   -0.30    0.70
  -4 -11  -5    0.20    0.70
  -4 -11  -5    0.80    0.80
  -4 -11  -5    0.60    0.80
   4  11   5    0.70    0.80
   4  11   5    1.40    0.70
   4  11   5    0.40    0.70
  -5 -11  -5    0.90    0.80
  -5 -11  -5    0.00    0.60
  -5 -11  -5    0.70    0.70
   5  11   5    0.70    0.80
   5  11   5    0.70    0.90
  -6 -11  -5    4.80    1.00
  -6 -11  -5    3.80    1.00
  -6 -11  -5    4.90    1.20
   6  11   5    4.50    1.00
   6  11   5    2.10    1.10
   4  11  -6   -0.90    0.70
   4  11  -6   -0.40    0.70
  -4 -11   6   -0.40    0.60
   3  11  -6   -0.60    0.80
   3  11  -6    0.70    0.80
  -3 -11   6    0.30    0.80
   2  11  -6   -0.10    0.70
  -2 -11   6    0.20    0.70
   1  11  -6    0.30    0.80
  -1 -11   6    2.10    1.00
   0  11  -6    0.90    0.90
   0 -11   6    1.90    0.80
   0 -11   6    1.60    1.00
   6  10  -6   -0.50    0.80
   6  10  -6   -1.00    0.90
  -6 -10   6    1.30    0.70
  -6 -10   6    0.60    0.80
   5  10  -6    0.10    0.80
   5  10  -6   -1.40    0.70
  -5 -10   6    0.30    0.70
  -5 -10   6   -0.50    0.70
   4  10  -6    2.90    0.90
   4  10  -6    3.00    1.10
  -4 -10   6    3.70    0.90
  -4 -10   6    3.00    0.80
   3  10  -6    0.90    0.80
   3  10  -6    2.10    0.80
  -3 -10   6    2.90    0.90
   2  10  -6    0.50    0.70
  -2 -10   6    1.90    0.80
   1  10  -6    0.20    0.80
  -1 -10   6    3.70    0.90
   0  10  -6    3.10    1.00
   0 -10   6    4.80    1.10
   0 -10   6    2.50    0.70
  -1  10  -6   -0.20    0.70
   1 -10   6    1.00    0.90
   1 -10   6    0.80    0.70
  -2  10  -6   -0.30    0.70
   2 -10   6    0.80    0.80
   2 -10   6    0.60    0.70
   6   9  -6    9.40    1.50
   6   9  -6    8.80    1.30
  -6  -9   6    8.10    1.30
  -6  -9   6   11.60    1.20
   5   9  -6    2.10    0.90
   5   9  -6    4.20    1.00
  -5  -9   6    3.90    0.90
  -5  -9   6    3.90    1.00
   4   9  -6    2.60    0.90
   4   9  -6    2.30    0.90
  -4  -9   6    2.00    0.80
  -4  -9   6    2.10    0.70
   3   9  -6    0.70    0.80
   3   9  -6    1.90    0.80
  -3  -9   6    1.30    0.80
  -3  -9   6    0.60    0.40
  -3  -9   6    0.50    0.60
  -3  -9   6    0.50    0.40
   2   9  -6    0.50    0.80
   2   9  -6    0.10    0.40
  -2  -9   6    0.70    0.70
  -2  -9   6   -0.40    0.30
  -2  -9   6   -0.10    0.30
  -2  -9   6    0.60    0.50
   1   9  -6    6.60    0.70
   1   9  -6    6.70    0.70
   1   9  -6    6.10    1.10
  -1  -9   6    6.40    1.10
  -1  -9   6    5.20    0.70
  -1  -9   6    6.60    0.70
   0   9  -6    2.60    0.60
   0   9  -6    2.80    0.60
   0   9  -6    2.10    0.80
   0  -9   6    2.60    0.80
   0  -9   6    2.80    0.50
   0  -9   6    1.70    0.60
  -1   9  -6   -0.30    0.40
  -1   9  -6   -0.20    0.60
  -1   9  -6   -0.70    0.50
  -1   9  -6   -0.50    0.40
   1  -9   6   -0.30    0.60
   1  -9   6    0.60    0.40
   1  -9   6   -0.90    0.60
   1  -9   6    0.30    0.40
  -2   9  -6    4.30    1.00
  -2   9  -6    4.60    0.90
  -2   9  -6    4.10    0.70
   2  -9   6    3.80    0.90
   2  -9   6    4.20    0.70
   2  -9   6    3.60    0.60
   2  -9   6    3.40    1.00
  -3   9  -6    0.50    0.50
  -3   9  -6   -1.80    0.60
  -3   9  -6    0.20    0.70
   3  -9   6    1.20    0.60
   3  -9   6    1.40    0.50
   3  -9   6    1.40    0.70
   3  -9   6    0.70    0.80
   7   8  -6    2.60    1.20
  -7  -8   6    3.40    1.10
   6   8  -6   10.50    1.30
   6   8  -6   12.50    1.50
  -6  -8   6   11.70    1.40
  -6  -8   6   13.10    1.10
   5   8  -6    3.60    1.00
   5   8  -6    2.30    0.60
   5   8  -6    2.90    0.60
   5   8  -6    3.30    0.90
  -5  -8   6    3.90    0.80
  -5  -8   6    3.80    1.00
  -5  -8   6    2.50    0.60
   4   8  -6    5.80    1.00
   4   8  -6    7.00    0.70
   4   8  -6    6.30    1.10
   4   8  -6    6.10    0.70
  -4  -8   6    7.70    1.10
  -4  -8   6    8.70    1.00
  -4  -8   6    7.00    0.70
  -4  -8   6    6.70    0.70
   3   8  -6    4.20    0.90
   3   8  -6    2.60    0.80
   3   8  -6    3.10    0.80
   3   8  -6    2.70    0.50
  -3  -8   6    3.10    0.80
  -3  -8   6    2.30    0.50
  -3  -8   6    3.80    0.70
  -3  -8   6    3.00    0.50
   2   8  -6    0.70    0.60
   2   8  -6    1.70    0.40
   2   8  -6    0.40    0.60
  -2  -8   6    1.20    0.60
  -2  -8   6    1.20    0.40
  -2  -8   6    1.70    0.70
  -2  -8   6    1.40    0.40
  -2  -8   6    1.00    0.40
   1   8  -6   27.90    1.20
   1   8  -6   28.50    1.90
   1   8  -6   29.80    1.30
   1   8  -6   28.00    1.80
  -1  -8   6   25.80    1.10
  -1  -8   6   29.50    1.30
  -1  -8   6   27.20    1.40
  -1  -8   6   28.40    1.60
   0   8  -6    2.80    0.50
   0   8  -6    2.40    0.70
   0   8  -6    2.60    0.50
   0   8  -6    1.90    0.50
   0   8  -6    1.90    0.60
   0  -8   6    2.10    0.70
   0  -8   6    2.50    0.50
   0  -8   6    2.30    0.60
  -1   8  -6   -0.20    0.60
  -1   8  -6   -0.50    0.50
  -1   8  -6   -0.20    0.40
  -1   8  -6   -0.20    0.40
   1  -8   6    0.00    0.30
   1  -8   6   -0.30    0.50
   1  -8   6    0.60    0.60
   1  -8   6    0.00    0.30
  -2   8  -6    2.40    0.60
  -2   8  -6    2.20    0.70
  -2   8  -6    2.10    0.80
   2  -8   6    2.20    0.50
   2  -8   6    3.00    0.50
   2  -8   6    2.10    0.70
   2  -8   6    3.30    0.80
  -3   8  -6    5.20    1.00
  -3   8  -6    4.20    1.00
  -3   8  -6    3.80    0.70
   3  -8   6    5.20    0.90
   3  -8   6    4.60    1.00
   3  -8   6    4.40    0.70
   3  -8   6    3.90    0.70
  -4   8  -6    0.80    0.70
  -4   8  -6    0.40    0.60
  -4   8  -6    0.80    0.80
  -4   8  -6    1.30    0.70
   4  -8   6    0.50    0.50
   4  -8   6    0.20    0.50
   4  -8   6    0.50    0.80
   4  -8   6    0.30    0.60
  -5   8  -6    0.40    0.70
  -5   8  -6    0.00    0.80
  -5   8  -6    0.00    0.50
   5  -8   6   -0.40    0.50
   5  -8   6   -0.10    0.80
  -8  -7   6    0.70    1.00
   7   7  -6    1.40    0.70
   7   7  -6    2.10    0.90
   7   7  -6    1.20    1.00
  -7  -7   6    1.30    0.60
  -7  -7   6    1.90    0.70
  -7  -7   6    2.90    1.10
   6   7  -6   21.60    1.30
   6   7  -6   25.10    2.10
   6   7  -6   20.50    1.20
   6   7  -6   22.30    1.80
  -6  -7   6   22.80    1.80
  -6  -7   6   21.10    1.30
  -6  -7   6   20.60    1.30
   5   7  -6   -0.30    0.70
   5   7  -6    0.20    0.40
   5   7  -6    1.10    0.70
   5   7  -6    0.10    0.40
   5   7  -6   -0.10    0.60
  -5  -7   6    0.50    0.70
  -5  -7   6    0.30    0.60
  -5  -7   6    0.00    0.40
   4   7  -6    2.60    0.80
   4   7  -6    2.20    0.70
   4   7  -6    4.10    0.90
   4   7  -6    4.20    0.50
   4   7  -6    4.00    0.50
  -4  -7   6    2.80    0.70
  -4  -7   6    2.40    0.50
  -4  -7   6    3.10    0.80
   3   7  -6    8.40    1.10
   3   7  -6   10.70    1.20
   3   7  -6    9.30    1.10
   3   7  -6   10.70    0.70
  -3  -7   6   10.30    0.70
  -3  -7   6   10.20    1.10
  -3  -7   6    9.50    1.10
  -3  -7   6    9.90    0.70
   2   7  -6   50.99    2.30
   2   7  -6   52.79    2.40
   2   7  -6   51.19    1.70
  -2  -7   6   47.40    1.60
  -2  -7   6   48.80    1.60
  -2  -7   6   49.40    2.10
  -2  -7   6   47.90    1.60
  -2  -7   6   50.89    2.10
   1   7  -6    9.70    0.70
   1   7  -6    9.30    1.10
   1   7  -6   10.70    0.70
   1   7  -6   11.30    1.20
   1   7  -6   11.50    0.70
  -1  -7   6   11.40    0.80
  -1  -7   6   11.00    1.00
  -1  -7   6   11.80    0.70
  -1  -7   6   12.10    1.00
   0   7  -6   28.50    1.20
   0   7  -6   28.90    1.70
   0   7  -6   28.20    1.20
   0   7  -6   28.00    1.70
   0   7  -6   27.70    1.30
   0  -7   6   27.60    1.50
   0  -7   6   28.00    1.30
   0  -7   6   26.70    1.00
   0  -7   6   26.70    1.10
   0  -7   6   28.30    1.30
  -1   7  -6   22.30    1.50
  -1   7  -6   22.00    1.10
  -1   7  -6   25.00    1.30
  -1   7  -6   25.50    1.60
   1  -7   6   23.50    1.40
   1  -7   6   24.00    1.00
   1  -7   6   24.10    1.30
   1  -7   6   23.40    1.00
  -2   7  -6   12.80    1.30
  -2   7  -6   16.40    1.30
  -2   7  -6   13.70    0.90
  -2   7  -6   15.20    1.40
   2  -7   6   16.20    1.30
   2  -7   6   14.50    0.80
   2  -7   6   14.70    1.20
   2  -7   6   14.50    0.90
  -3   7  -6   -0.50    0.50
  -3   7  -6    0.20    0.60
  -3   7  -6   -0.10    0.40
  -3   7  -6    0.10    0.60
   3  -7   6    0.10    0.40
   3  -7   6   -0.40    0.60
   3  -7   6    0.00    0.40
   3  -7   6    0.90    0.60
  -4   7  -6   -0.20    0.80
  -4   7  -6    0.60    0.60
  -4   7  -6    0.80    0.60
   4  -7   6   -0.10    0.40
   4  -7   6    0.90    0.60
   4  -7   6    2.10    0.90
  -5   7  -6    0.30    0.70
  -5   7  -6    0.50    0.60
  -5   7  -6    1.60    0.70
   5  -7   6    0.90    0.80
   5  -7   6    0.70    0.50
  -6   7  -6    1.30    1.00
   6  -7   6    0.40    0.80
   8   6  -6    0.40    0.60
   8   6  -6   -2.10    0.80
   8   6  -6   -3.00    0.80
  -8  -6   6   -0.40    0.50
  -8  -6   6   -0.20    0.60
  -8  -6   6    0.60    1.00
   7   6  -6   -1.70    0.70
   7   6  -6    0.20    0.50
   7   6  -6   -1.10    1.00
  -7  -6   6    0.20    0.50
  -7  -6   6   -0.40    0.90
  -7  -6   6   -0.20    0.50
   6   6  -6   -0.60    0.70
   6   6  -6   -0.40    0.50
   6   6  -6    0.30    0.40
  -6  -6   6    0.10    0.40
  -6  -6   6   -0.20    0.70
  -6  -6   6    0.20    0.40
   5   6  -6    1.10    0.60
   5   6  -6    0.50    0.40
   5   6  -6    0.50    0.60
   5   6  -6    0.00    0.60
   5   6  -6    0.20    0.40
  -5  -6   6    1.20    0.40
  -5  -6   6    0.00    0.40
  -5  -6   6    0.30    0.70
   4   6  -6    0.00    0.50
   4   6  -6    0.10    0.60
   4   6  -6    0.40    0.30
   4   6  -6    0.60    0.30
   4   6  -6   -0.10    0.50
  -4  -6   6   -0.40    0.50
  -4  -6   6   -0.20    0.40
  -4  -6   6    0.40    0.30
   3   6  -6   -0.70    0.20
   3   6  -6    0.20    0.30
   3   6  -6   -0.20    0.40
   3   6  -6   -0.20    0.40
   3   6  -6   -0.10    0.50
  -3  -6   6   -0.30    0.30
  -3  -6   6    0.00    0.50
  -3  -6   6    0.50    0.50
  -3  -6   6    0.00    0.30
   2   6  -6  227.98    5.70
   2   6  -6  226.08    6.60
   2   6  -6  234.58    6.50
   2   6  -6  228.98    5.80
  -2  -6   6  225.88    6.30
  -2  -6   6  236.28    5.80
  -2  -6   6  223.38    5.70
  -2  -6   6  237.68    5.80
  -2  -6   6  235.88    6.30
   1   6  -6   20.20    0.90
   1   6  -6   21.20    0.80
   1   6  -6   19.00    0.90
   1   6  -6   20.10    1.30
   1   6  -6   25.50    1.40
  -1  -6   6   20.40    0.90
  -1  -6   6   19.80    1.20
  -1  -6   6   20.70    0.80
  -1  -6   6   21.10    1.20
   0   6  -6   79.79    2.80
   0   6  -6   81.59    2.30
   0   6  -6   79.19    2.90
   0   6  -6   76.59    2.50
   0   6  -6   78.09    2.30
   0  -6   6   83.19    2.60
   0  -6   6   82.29    2.50
   0  -6   6   80.49    2.70
   0  -6   6   81.29    2.30
   0  -6   6   82.39    2.20
  -1   6  -6   84.89    2.50
  -1   6  -6   85.49    2.80
  -1   6  -6   87.59    3.10
  -1   6  -6   84.99    3.00
   1  -6   6   84.69    2.90
   1  -6   6   83.59    2.40
   1  -6   6   89.99    2.70
   1  -6   6   84.89    2.40
  -2   6  -6  117.29    3.30
  -2   6  -6  120.59    3.70
  -2   6  -6  118.69    4.00
   2  -6   6  109.59    3.20
   2  -6   6  114.59    3.60
   2  -6   6  113.29    3.10
   2  -6   6  113.79    3.30
   2  -6   6  118.09    3.50
  -3   6  -6   10.50    0.90
  -3   6  -6   13.60    1.20
  -3   6  -6   10.90    0.80
   3  -6   6   12.30    1.20
   3  -6   6   12.50    0.80
   3  -6   6   12.60    1.10
  -4   6  -6   16.80    1.20
  -4   6  -6   18.10    1.10
  -4   6  -6   17.10    1.40
   4  -6   6   14.90    1.00
   4  -6   6   14.50    1.20
   4  -6   6   18.30    1.40
  -5   6  -6    6.80    1.00
  -5   6  -6    6.00    1.10
  -5   6  -6    6.20    0.90
   5  -6   6    6.30    1.00
   5  -6   6    6.40    0.80
   5  -6   6    6.80    0.90
  -6   6  -6   17.90    1.40
  -6   6  -6   17.20    1.40
  -6   6  -6   21.40    1.90
   6  -6   6   18.00    1.20
   6  -6   6   18.80    1.60
   8   5  -6    2.20    0.70
   8   5  -6    1.00    1.20
  -8  -5   6    3.70    0.80
  -8  -5   6    3.00    1.10
  -8  -5   6    2.70    0.80
   7   5  -6    1.10    0.50
   7   5  -6    0.90    1.00
   7   5  -6   -0.60    0.80
  -7  -5   6    1.10    0.60
  -7  -5   6    1.10    0.50
  -7  -5   6   -0.40    0.90
   6   5  -6   -0.70    0.70
   6   5  -6    1.30    0.50
   6   5  -6    0.20    0.70
   6   5  -6    0.40    0.60
  -6  -5   6    0.80    0.50
  -6  -5   6    0.70    0.40
  -6  -5   6    0.40    0.80
   5   5  -6    1.90    0.40
   5   5  -6    1.70    0.70
   5   5  -6    2.30    0.60
   5   5  -6    1.60    0.60
  -5  -5   6    3.40    0.50
  -5  -5   6    2.40    0.50
  -5  -5   6    1.30    0.70
  -5  -5   6    2.60    0.50
   4   5  -6   23.40    1.30
   4   5  -6   22.40    1.40
   4   5  -6   25.40    1.50
   4   5  -6   24.90    1.00
   4   5  -6   23.00    1.00
  -4  -5   6   23.50    1.00
  -4  -5   6   24.60    1.50
  -4  -5   6   24.20    1.20
   3   5  -6   33.00    1.70
   3   5  -6   34.50    1.70
   3   5  -6   33.70    1.20
   3   5  -6   34.00    1.20
   3   5  -6   34.20    1.00
  -3  -5   6   35.00    1.70
  -3  -5   6   33.90    1.40
  -3  -5   6   35.60    1.20
   2   5  -6    2.70    0.60
   2   5  -6    3.40    0.30
   2   5  -6    2.20    0.50
   2   5  -6    3.10    0.30
   2   5  -6    3.00    0.60
  -2  -5   6    3.50    0.40
  -2  -5   6    2.30    0.60
  -2  -5   6    3.10    0.60
  -2  -5   6    3.80    0.30
  -2  -5   6    3.30    0.30
   1   5  -6  186.78    4.70
   1   5  -6  184.68    4.80
   1   5  -6  185.88    5.30
   1   5  -6  187.48    5.40
  -1  -5   6  184.88    4.70
  -1  -5   6  183.38    5.10
  -1  -5   6  185.58    5.10
  -1  -5   6  194.08    4.70
  -1  -5   6  192.28    4.70
   0   5  -6  238.98    6.60
   0   5  -6  236.78    5.90
   0   5  -6  242.18    6.10
   0   5  -6  232.38    5.90
   0   5  -6  228.78    6.40
   0  -5   6  239.38    6.20
   0  -5   6  236.88    6.00
   0  -5   6  243.48    5.90
   0  -5   6  233.38    6.30
  -1   5  -6  164.08    4.60
  -1   5  -6  169.78    5.00
  -1   5  -6  166.78    4.30
   1  -5   6  162.68    4.40
   1  -5   6  172.68    4.30
   1  -5   6  167.48    4.50
   1  -5   6  172.58    4.30
   1  -5   6  161.08    4.70
  -2   5  -6  105.09    3.00
  -2   5  -6  102.29    3.30
  -2   5  -6  107.39    3.00
   2  -5   6  106.69    3.20
   2  -5   6  104.09    2.90
   2  -5   6  103.09    3.30
   2  -5   6  107.99    2.90
  -3   5  -6   -0.20    0.30
  -3   5  -6    0.20    0.50
  -3   5  -6    0.40    0.30
   3  -5   6   -0.20    0.40
   3  -5   6    0.40    0.30
   3  -5   6    0.80    0.50
   3  -5   6    0.20    0.20
  -4   5  -6    7.90    0.80
  -4   5  -6    7.10    1.10
  -4   5  -6    7.40    0.70
   4  -5   6    7.80    0.60
   4  -5   6    6.60    0.90
   4  -5   6    8.50    0.90
   4  -5   6    6.70    0.70
  -5   5  -6    2.50    0.70
  -5   5  -6    3.20    0.60
  -5   5  -6    2.30    0.90
   5  -5   6    3.00    0.80
   5  -5   6    2.30    0.60
   5  -5   6    1.90    0.50
   5  -5   6    4.30    0.80
  -6   5  -6    1.60    0.60
  -6   5  -6    1.70    1.00
  -6   5  -6    3.10    0.80
   6  -5   6    2.30    0.60
   6  -5   6   -0.40    0.70
   6  -5   6    2.10    0.60
  -7   5  -6   -0.90    0.70
  -7   5  -6   -0.20    0.60
  -7   5  -6    0.50    0.60
   7  -5   6    0.20    0.50
   7  -5   6    0.50    0.50
   7  -5   6   -0.40    0.70
   8   4  -6    0.90    1.20
   8   4  -6    0.20    0.50
   8   4  -6    0.60    0.50
  -8  -4   6    0.70    0.60
  -8  -4   6    2.00    0.70
  -8  -4   6    1.20    1.00
   7   4  -6    1.20    1.00
   7   4  -6    2.60    0.60
   7   4  -6    1.10    0.80
  -7  -4   6    2.20    0.70
  -7  -4   6    4.60    1.10
  -7  -4   6    3.40    0.70
   6   4  -6   15.90    1.30
   6   4  -6   13.80    1.50
   6   4  -6   14.40    1.30
   6   4  -6   16.10    1.00
  -6  -4   6   17.90    1.10
  -6  -4   6   15.40    1.00
  -6  -4   6   18.40    1.60
   5   4  -6   12.40    1.20
   5   4  -6   12.80    1.00
   5   4  -6   12.80    0.80
   5   4  -6   11.30    1.10
  -5  -4   6   12.40    1.20
  -5  -4   6   11.90    0.70
  -5  -4   6   11.80    0.80
  -5  -4   6   11.70    0.80
   4   4  -6   11.00    1.00
   4   4  -6   11.60    0.90
   4   4  -6    8.60    0.60
   4   4  -6    8.40    0.90
  -4  -4   6    7.70    0.70
  -4  -4   6    8.50    0.60
  -4  -4   6    9.60    0.70
  -4  -4   6    8.20    0.90
  -4  -4   6    7.50    0.70
   3   4  -6    7.20    0.50
   3   4  -6    8.20    0.50
   3   4  -6    8.50    0.60
   3   4  -6    8.30    0.90
   3   4  -6    6.80    0.80
   3   4  -6    8.70    0.90
  -3  -4   6    7.90    0.90
  -3  -4   6    7.90    0.60
  -3  -4   6    8.10    0.70
   2   4  -6   40.80    1.30
   2   4  -6   39.30    1.70
   2   4  -6   40.80    1.20
   2   4  -6   42.00    1.80
   2   4  -6   40.00    1.60
   2   4  -6   42.20    1.20
  -2  -4   6   40.20    1.50
  -2  -4   6   42.10    1.20
  -2  -4   6   44.50    1.90
  -2  -4   6   41.70    1.10
   1   4  -6  470.15   11.40
   1   4  -6  472.35   12.10
   1   4  -6  472.45   11.60
   1   4  -6  495.55   11.40
   1   4  -6  461.85   11.90
  -1  -4   6  475.65   11.90
  -1  -4   6  481.45   11.40
  -1  -4   6  461.75   11.80
  -1  -4   6  500.85   11.50
  -1  -4   6  480.65   11.40
  -1  -4   6  498.55   11.40
  -1  -4   6  460.85   11.50
   0   4  -6   45.90    1.20
   0   4  -6   43.60    1.70
   0   4  -6   44.80    1.30
   0   4  -6   47.90    1.20
   0   4  -6   43.30    1.30
   0   4  -6   45.30    1.80
   0   4  -6   43.80    1.50
   0  -4   6   43.20    1.60
   0  -4   6   46.00    1.20
   0  -4   6   44.50    1.40
   0  -4   6   43.80    1.60
   0  -4   6   47.20    1.30
   0  -4   6   44.20    1.50
  -1   4  -6  206.18    5.50
  -1   4  -6  205.28    5.20
  -1   4  -6  211.38    5.80
   1  -4   6  202.48    5.60
   1  -4   6  213.88    5.20
   1  -4   6  211.88    5.50
   1  -4   6  208.78    5.40
   1  -4   6  207.48    5.30
   1  -4   6  209.88    5.10
  -2   4  -6   83.69    2.70
  -2   4  -6   88.39    2.20
  -2   4  -6   86.39    2.20
  -2   4  -6   85.99    2.40
  -2   4  -6   85.39    2.50
   2  -4   6   89.09    2.40
   2  -4   6   85.19    2.70
   2  -4   6   90.09    2.70
   2  -4   6   86.19    2.50
  -3   4  -6  319.67    7.90
  -3   4  -6  316.47    8.30
  -3   4  -6  309.17    7.90
   3  -4   6  307.57    8.10
   3  -4   6  312.27    7.80
   3  -4   6  311.57    7.80
   3  -4   6  311.07    7.80
   3  -4   6  318.67    8.10
  -4   4  -6   28.30    1.30
  -4   4  -6   29.50    1.30
  -4   4  -6   31.50    1.70
   4  -4   6   28.40    1.40
   4  -4   6   30.40    1.50
   4  -4   6   30.70    1.20
   4  -4   6   29.80    1.20
   4  -4   6   28.40    1.20
  -5   4  -6    2.50    0.60
  -5   4  -6    2.80    0.80
   5  -4   6    3.70    0.50
   5  -4   6    3.70    0.70
   5  -4   6    3.60    0.60
   5  -4   6    3.70    0.70
   5  -4   6    3.50    0.50
  -6   4  -6   12.40    1.20
  -6   4  -6   13.20    1.40
   6  -4   6   13.70    1.00
   6  -4   6   11.80    1.00
   6  -4   6   12.70    1.30
  -7   4  -6    0.40    0.80
  -7   4  -6    0.30    0.60
   7  -4   6    0.80    0.50
   7  -4   6   -0.40    0.40
   7  -4   6    0.00    0.60
  -8   4  -6    0.60    0.70
  -8   4  -6    0.00    0.80
  -8   4  -6    1.80    0.70
   8  -4   6    0.90    0.90
   8  -4   6    1.90    0.70
   8  -4   6    1.30    0.60
   8   3  -6    4.80    0.80
   8   3  -6    2.60    1.30
   8   3  -6    7.00    1.00
  -8  -3   6    6.60    1.00
  -8  -3   6    6.10    1.30
   7   3  -6   26.00    2.20
   7   3  -6   20.90    1.80
   7   3  -6   19.60    1.20
   7   3  -6   23.70    1.40
  -7  -3   6   23.40    1.40
  -7  -3   6   22.40    1.40
  -7  -3   6   24.70    2.10
   6   3  -6   17.40    1.50
   6   3  -6   18.30    1.10
   6   3  -6   16.90    1.30
   6   3  -6   19.60    1.70
  -6  -3   6   16.80    1.10
  -6  -3   6   17.00    1.10
  -6  -3   6   19.20    1.60
   5   3  -6   -0.30    0.50
   5   3  -6    0.10    0.60
   5   3  -6   -0.60    0.40
   5   3  -6   -0.10    0.40
  -5  -3   6   -0.10    0.30
  -5  -3   6   -0.40    0.30
  -5  -3   6    0.10    0.30
  -5  -3   6    1.20    0.60
  -5  -3   6    0.20    0.30
   4   3  -6    2.20    0.50
   4   3  -6    1.10    0.40
   4   3  -6    1.30    0.40
   4   3  -6    1.10    0.60
  -4  -3   6    2.20    0.40
  -4  -3   6    1.90    0.40
  -4  -3   6    1.40    0.40
  -4  -3   6    1.70    0.40
  -4  -3   6    2.00    0.60
   3   3  -6   61.09    2.30
   3   3  -6   62.59    2.20
   3   3  -6   59.69    1.80
   3   3  -6   62.89    2.10
  -3  -3   6   60.99    2.00
  -3  -3   6   62.79    1.80
  -3  -3   6   60.39    1.90
  -3  -3   6   60.09    2.30
  -3  -3   6   63.39    2.20
  -3  -3   6   62.79    1.80
   2   3  -6   89.19    2.90
   2   3  -6   91.09    2.90
   2   3  -6   95.89    2.40
   2   3  -6   91.19    2.80
   2   3  -6   91.19    2.40
  -2  -3   6   93.19    2.40
  -2  -3   6   94.39    2.80
  -2  -3   6   88.79    2.70
  -2  -3   6   92.99    2.70
  -2  -3   6   95.79    2.40
  -2  -3   6   90.19    2.90
  -2  -3   6   93.09    2.40
  -2  -3   6   93.59    2.40
   1   3  -6  741.13   17.40
   1   3  -6  716.13   18.00
   1   3  -6  702.83   17.90
   1   3  -6  760.92   17.40
   1   3  -6  759.22   17.40
   1   3  -6  739.43   17.40
  -1  -3   6  727.13   18.00
  -1  -3   6  757.92   17.40
  -1  -3   6  709.23   17.80
  -1  -3   6  729.63   17.50
  -1  -3   6  735.33   17.90
  -1  -3   6  775.52   17.50
   0   3  -6  287.37    6.90
   0   3  -6  285.67    7.20
   0   3  -6  295.87    6.80
   0   3  -6  288.07    6.90
   0   3  -6  296.57    6.80
   0   3  -6  282.07    7.40
   0  -3   6  293.17    6.80
   0  -3   6  279.37    7.10
   0  -3   6  290.77    7.40
   0  -3   6  273.67    7.20
   0  -3   6  281.17    7.30
   0  -3   6  300.57    6.90
  -1   3  -6   22.80    0.70
  -1   3  -6   23.30    0.70
  -1   3  -6   20.20    1.00
  -1   3  -6   22.00    0.70
   1  -3   6   19.00    0.90
   1  -3   6   22.90    0.70
   1  -3   6   20.70    1.00
   1  -3   6   21.20    0.90
   1  -3   6   23.60    0.70
   1  -3   6   22.30    1.00
   1  -3   6   22.60    0.70
  -2   3  -6  108.89    3.30
  -2   3  -6  111.79    2.80
  -2   3  -6  110.89    3.00
  -2   3  -6  114.39    2.90
   2  -3   6  113.39    2.90
   2  -3   6  111.19    3.10
   2  -3   6  115.49    2.90
   2  -3   6  111.29    3.20
   2  -3   6  112.39    3.20
  -3   3  -6    0.50    0.30
  -3   3  -6    0.20    0.40
   3  -3   6   -0.20    0.40
   3  -3   6    0.20    0.20
   3  -3   6    0.20    0.30
   3  -3   6    0.40    0.40
   3  -3   6    0.70    0.30
  -4   3  -6  152.68    4.60
  -4   3  -6  152.18    4.20
   4  -3   6  154.08    4.10
   4  -3   6  156.58    4.40
   4  -3   6  154.18    4.10
   4  -3   6  154.38    4.30
   4  -3   6  154.98    4.10
  -5   3  -6    2.00    0.70
  -5   3  -6    2.60    0.60
   5  -3   6    1.70    0.50
   5  -3   6    2.10    0.60
   5  -3   6    2.60    0.60
   5  -3   6    2.40    0.50
   5  -3   6    2.20    0.40
  -6   3  -6   29.50    1.80
  -6   3  -6   26.80    1.50
   6  -3   6   28.00    1.40
   6  -3   6   27.30    1.30
   6  -3   6   29.20    1.60
   6  -3   6   30.40    1.30
  -7   3  -6   23.80    1.90
  -7   3  -6   23.00    1.50
   7  -3   6   25.10    1.30
   7  -3   6   23.80    1.30
   7  -3   6   23.70    1.40
   7  -3   6   25.40    1.60
  -8   3  -6   13.40    1.40
  -8   3  -6   12.60    1.50
   8  -3   6   13.90    1.30
   8  -3   6   12.60    1.40
   8  -3   6   13.20    1.30
   8   2  -6   17.70    1.40
   8   2  -6   17.20    1.30
   8   2  -6   18.10    2.10
  -8  -2   6   21.50    2.00
  -8  -2   6   17.50    1.40
   7   2  -6   30.50    1.50
   7   2  -6   27.00    1.50
   7   2  -6   26.50    2.10
   7   2  -6   26.10    1.90
  -7  -2   6   29.40    2.00
  -7  -2   6   27.90    1.60
   6   2  -6   18.70    1.20
   6   2  -6   20.30    1.10
   6   2  -6   19.40    1.10
   6   2  -6   19.80    1.70
   6   2  -6   18.90    1.50
  -6  -2   6   19.70    1.50
  -6  -2   6   17.40    1.20
  -6  -2   6   19.80    1.20
   5   2  -6   29.30    1.40
   5   2  -6   30.90    1.20
   5   2  -6   30.90    1.80
   5   2  -6   31.00    1.30
   5   2  -6   29.50    1.60
  -5  -2   6   35.10    1.80
  -5  -2   6   30.70    1.40
  -5  -2   6   31.10    1.30
  -5  -2   6   31.20    1.30
   4   2  -6    3.20    0.60
   4   2  -6    3.80    0.50
   4   2  -6    3.50    0.50
   4   2  -6    4.20    0.20
   4   2  -6    3.70    0.80
  -4  -2   6    3.90    0.50
  -4  -2   6    3.50    0.50
  -4  -2   6    4.00    0.50
  -4  -2   6    4.20    0.70
  -4  -2   6    3.70    0.50
   3   2  -6   43.30    1.60
   3   2  -6   41.50    1.50
   3   2  -6   42.50    1.00
   3   2  -6   40.80    1.30
   3   2  -6   42.60    1.70
  -3  -2   6   41.20    1.40
  -3  -2   6   43.20    1.60
  -3  -2   6   43.40    1.40
  -3  -2   6   41.10    1.30
  -3  -2   6   39.90    1.70
  -3  -2   6   42.70    1.50
   2   2  -6  111.39    3.10
   2   2  -6  109.09    2.80
   2   2  -6  106.19    3.20
   2   2  -6  111.69    2.80
   2   2  -6  110.09    2.70
   2   2  -6  103.39    3.00
   2   2  -6  106.99    2.80
  -2  -2   6  108.09    3.00
  -2  -2   6  102.89    3.20
  -2  -2   6  107.39    2.80
  -2  -2   6  112.49    2.80
  -2  -2   6  108.29    2.80
  -2  -2   6  110.59    3.10
  -2  -2   6  108.39    3.10
   1   2  -6   47.20    1.30
   1   2  -6   44.50    1.60
   1   2  -6   44.30    1.20
   1   2  -6   45.50    1.20
   1   2  -6   45.20    1.20
   1   2  -6   46.00    1.50
   1   2  -6   44.60    1.60
  -1  -2   6   45.80    1.20
  -1  -2   6   45.20    1.50
  -1  -2   6   46.50    1.20
  -1  -2   6   44.60    1.60
  -1  -2   6   45.00    1.20
  -1  -2   6   44.00    1.50
   0   2  -6    0.10    0.20
   0  -2   6    0.10    0.20
   0  -2   6   -0.10    0.20
   0  -2   6    0.10    0.20
   0  -2   6   -0.30    0.20
   0  -2   6    0.00    0.20
  -1   2  -6   90.79    2.20
  -1   2  -6   91.39    2.60
  -1   2  -6   91.69    2.20
  -1   2  -6   91.69    2.20
  -1   2  -6   89.69    2.20
   1  -2   6   86.89    2.60
   1  -2   6   91.99    2.20
   1  -2   6   92.89    2.20
   1  -2   6   89.29    2.50
   1  -2   6   85.89    2.60
   1  -2   6   91.19    2.70
   1  -2   6   87.39    2.50
  -2   2  -6   48.60    1.40
  -2   2  -6   49.70    1.40
  -2   2  -6   49.80    1.40
  -2   2  -6   46.90    1.70
  -2   2  -6   49.80    1.40
   2  -2   6   49.00    1.70
   2  -2   6   49.60    1.60
   2  -2   6   52.89    1.40
   2  -2   6   50.29    1.40
   2  -2   6   50.69    1.40
   2  -2   6   46.80    1.60
  -3   2  -6    0.40    0.10
  -3   2  -6    0.30    0.30
  -3   2  -6    0.50    0.20
   3  -2   6    2.40    0.50
   3  -2   6    0.60    0.20
   3  -2   6    0.00    0.20
   3  -2   6    0.40    0.20
   3  -2   6    0.20    0.40
  -4   2  -6   96.49    2.70
  -4   2  -6   93.09    3.00
   4  -2   6   95.59    2.60
   4  -2   6   96.69    2.80
   4  -2   6   89.19    2.70
   4  -2   6   90.89    2.60
   4  -2   6   86.59    2.80
  -5   2  -6   50.09    2.10
  -5   2  -6   51.59    1.90
   5  -2   6   54.59    1.90
   5  -2   6   51.69    1.80
   5  -2   6   53.69    2.00
   5  -2   6   52.59    1.80
  -6   2  -6   31.30    1.70
   6  -2   6   32.20    1.40
   6  -2   6   33.10    1.50
   6  -2   6   33.40    1.60
  -7   2  -6   87.39    3.10
  -7   2  -6   90.29    3.40
   7  -2   6   88.99    3.10
   7  -2   6   88.79    2.90
   7  -2   6   87.49    2.90
  -8   2  -6   35.50    2.20
  -8   2  -6   29.30    1.80
   8  -2   6   31.40    1.90
   8  -2   6   33.00    1.80
   8  -2   6   30.70    1.60
  -9   2  -6   13.10    1.50
  -9   2  -6   13.30    1.60
   9  -2   6   15.30    1.60
   8   1  -6    2.20    0.80
   8   1  -6    0.10    0.50
   8   1  -6    0.00    1.10
  -8  -1   6    1.70    0.70
  -8  -1   6    0.00    0.80
   7   1  -6   21.60    1.40
   7   1  -6   19.10    1.30
   7   1  -6   21.90    2.00
  -7  -1   6   23.10    1.90
  -7  -1   6   20.60    1.50
   6   1  -6    3.50    1.10
   6   1  -6    3.60    0.60
   6   1  -6    1.80    0.60
   6   1  -6    3.20    0.70
  -6  -1   6    3.20    0.60
  -6  -1   6    2.90    0.80
   5   1  -6   28.50    1.20
   5   1  -6   30.30    1.60
   5   1  -6   28.50    1.30
   5   1  -6   30.50    1.80
   5   1  -6   29.40    1.30
  -5  -1   6   29.30    1.30
  -5  -1   6   28.00    1.30
  -5  -1   6   29.20    1.60
   4   1  -6   30.50    1.60
   4   1  -6   31.80    1.20
   4   1  -6   32.30    1.10
   4   1  -6   32.60    1.50
   4   1  -6   32.80    1.20
   4   1  -6   33.80    1.30
  -4  -1   6   32.10    1.60
  -4  -1   6   31.40    1.30
  -4  -1   6   29.90    1.30
  -4  -1   6   34.50    1.40
   3   1  -6    1.10    0.30
   3   1  -6    1.50    0.30
   3   1  -6    1.20    0.30
   3   1  -6    1.20    0.50
   3   1  -6    1.70    0.30
  -3  -1   6    1.60    0.30
  -3  -1   6    1.40    0.30
  -3  -1   6    1.70    0.40
  -3  -1   6    1.20    0.50
   2   1  -6   59.49    1.80
   2   1  -6   60.19    1.70
   2   1  -6   60.59    1.90
   2   1  -6   59.39    1.60
   2   1  -6   59.29    2.00
  -2  -1   6   57.09    2.00
  -2  -1   6   59.79    1.90
  -2  -1   6   60.99    1.80
  -2  -1   6   60.59    1.70
  -2  -1   6   60.79    1.80
   1   1  -6    6.90    0.40
   1   1  -6    6.90    0.40
   1   1  -6    7.50    0.50
   1   1  -6    7.50    0.30
   1   1  -6    7.20    0.30
   1   1  -6    7.40    0.30
   1   1  -6    7.40    0.50
  -1  -1   6    7.70    0.30
  -1  -1   6    7.90    0.30
  -1  -1   6    7.90    0.50
  -1  -1   6    7.50    0.60
  -1  -1   6    7.40    0.50
  -1  -1   6    8.00    0.30
  -1  -1   6    6.30    0.50
   0   1  -6  240.38    6.20
   0  -1   6  247.58    6.20
   0  -1   6  241.68    6.00
   0  -1   6  248.28    6.30
   0  -1   6  251.07    6.20
   0  -1   6  242.28    6.20
  -1   1  -6   77.59    1.80
  -1   1  -6   75.09    2.10
  -1   1  -6   74.09    1.90
  -1   1  -6   74.29    1.80
  -1   1  -6   76.49    1.80
   1  -1   6   76.69    2.30
   1  -1   6   77.39    1.80
   1  -1   6   76.79    1.80
   1  -1   6   73.79    2.20
   1  -1   6   76.49    2.10
   1  -1   6   73.59    2.20
   1  -1   6   72.79    2.20
  -2   1  -6  133.39    3.30
  -2   1  -6  130.49    3.30
  -2   1  -6  134.09    3.30
  -2   1  -6  122.49    3.60
  -2   1  -6  130.19    3.30
   2  -1   6  136.99    3.30
   2  -1   6  125.09    3.50
   2  -1   6  128.19    3.60
   2  -1   6  134.19    3.30
   2  -1   6  128.69    3.50
   2  -1   6  128.29    3.50
   2  -1   6  135.59    3.30
  -3   1  -6    6.00    0.40
  -3   1  -6    5.20    0.40
  -3   1  -6    4.30    0.60
  -3   1  -6    6.50    0.50
   3  -1   6    6.10    0.60
   3  -1   6    6.10    0.40
   3  -1   6    4.50    0.50
   3  -1   6    6.20    0.50
  -4   1  -6   33.40    1.30
  -4   1  -6   33.80    1.00
  -4   1  -6   35.60    1.30
  -4   1  -6   33.90    1.50
   4  -1   6   33.60    1.40
   4  -1   6   35.10    1.00
   4  -1   6   34.90    1.20
  -5   1  -6   20.70    1.10
  -5   1  -6   16.70    1.20
  -5   1  -6   20.40    1.10
   5  -1   6   18.90    1.20
   5  -1   6   18.70    1.10
   5  -1   6   18.60    0.90
  -6   1  -6   26.90    1.50
  -6   1  -6   27.30    1.40
  -6   1  -6   28.20    1.40
   6  -1   6   28.00    1.50
   6  -1   6   26.80    1.20
   6  -1   6   28.30    1.50
  -7   1  -6   39.00    2.00
  -7   1  -6   38.90    1.80
  -7   1  -6   39.30    1.80
   7  -1   6   38.50    1.70
   7  -1   6   36.60    1.80
   7  -1   6   35.30    1.60
   7  -1   6   41.30    2.00
  -8   1  -6   14.10    1.40
  -8   1  -6   12.00    1.40
   8  -1   6   12.80    1.20
   8  -1   6   12.30    1.30
   8  -1   6   12.40    1.10
   8  -1   6   14.90    1.40
  -9   1  -6    2.90    0.90
  -9   1  -6    1.90    0.90
   9  -1   6    3.40    0.90
   9  -1   6    2.90    0.80
   9  -1   6    2.90    0.90
   9  -1   6    3.60    0.80
   8   0  -6    2.70    1.10
   8   0  -6    3.10    0.80
   8   0  -6    2.20    0.80
  -8   0   6    3.50    0.90
  -8   0   6    3.80    1.00
   7   0  -6   25.90    2.10
   7   0  -6   27.40    1.60
   7   0  -6   25.60    1.50
  -7   0   6   26.50    1.60
  -7   0   6   30.40    2.00
   6   0  -6   -0.10    0.50
   6   0  -6    0.00    0.80
   6   0  -6    0.20    0.40
  -6   0   6    0.30    0.40
  -6   0   6    0.60    0.50
  -6   0   6    0.20    0.60
  -6   0   6   -0.10    0.50
   5   0  -6    4.50    0.60
   5   0  -6    5.20    0.60
   5   0  -6    3.70    1.00
   5   0  -6    5.30    0.60
  -5   0   6    4.50    0.80
  -5   0   6    4.80    0.70
  -5   0   6    4.20    0.70
  -5   0   6    4.30    0.70
   4   0  -6   35.80    1.40
   4   0  -6   35.20    1.20
   4   0  -6   35.10    1.70
   4   0  -6   34.60    1.50
   4   0  -6   35.70    1.30
  -4   0   6   33.10    1.40
  -4   0   6   34.50    1.40
  -4   0   6   33.20    1.70
  -4   0   6   34.50    1.40
   3   0  -6   35.40    1.30
   3   0  -6   33.70    1.10
   3   0  -6   33.60    1.20
   3   0  -6   33.90    1.20
   3   0  -6   37.60    1.60
  -3   0   6   36.40    1.30
  -3   0   6   35.90    1.10
  -3   0   6   35.00    1.40
  -3   0   6   33.90    1.30
  -3   0   6   35.00    1.60
   2   0  -6  107.19    3.10
   2   0  -6  105.59    2.80
   2   0  -6  107.99    2.80
   2   0  -6  107.99    2.70
   2   0  -6  105.89    2.90
  -2   0   6  107.19    2.90
  -2   0   6  106.49    3.20
  -2   0   6  110.29    2.90
  -2   0   6  103.29    3.00
   1   0  -6  177.78    4.30
   1   0  -6  168.28    4.30
   1   0  -6  169.08    4.20
   1   0  -6  164.58    4.50
   1   0  -6  169.08    4.20
   1   0  -6  180.48    4.30
  -1   0   6  179.38    4.60
  -1   0   6  179.28    4.20
  -1   0   6  166.38    4.50
  -1   0   6  158.18    4.60
  -1   0   6  170.88    4.20
  -1   0   6  174.08    4.30
   0   0  -6  487.35   11.80
   0   0  -6  488.25   11.80
   0   0  -6  487.75   12.00
   0   0  -6  472.65   12.00
   0   0  -6  521.35   11.90
   0   0   6  489.55   12.30
   0   0   6  489.45   12.10
   0   0   6  492.05   12.20
   0   0   6  489.95   11.80
   0   0   6  534.85   11.80
   0   0   6  533.85   11.80
  -1   0  -6  562.54   13.90
  -1   0  -6  577.54   13.70
  -1   0  -6  579.04   13.70
  -1   0  -6  568.54   13.70
   1   0   6  578.74   14.00
   1   0   6  566.24   13.90
   1   0   6  581.64   13.70
   1   0   6  596.84   13.70
   1   0   6  562.34   13.90
   1   0   6  597.34   13.70
  -2   0  -6  400.36    9.60
  -2   0  -6  409.16    9.60
  -2   0  -6  390.66    9.70
  -2   0  -6  391.16    9.60
  -2   0  -6  409.96    9.80
   2   0   6  397.46    9.60
   2   0   6  399.66    9.90
   2   0   6  399.66    9.90
   2   0   6  407.66    9.70
   2   0   6  398.26    9.60
   2   0   6  402.66    9.90
   2   0   6  415.56    9.60
  -3   0  -6   22.80    0.90
  -3   0  -6   23.80    1.10
  -3   0  -6   22.10    0.80
  -3   0  -6   23.10    0.90
   3   0   6   24.30    1.00
   3   0   6   23.60    0.80
   3   0   6   22.90    1.00
  -4   0  -6   14.40    0.90
  -4   0  -6   15.50    0.70
  -4   0  -6   16.60    0.80
  -4   0  -6   14.80    0.80
  -4   0  -6   16.30    1.10
   4   0   6   18.80    0.90
   4   0   6   15.50    0.90
   4   0   6   15.50    0.70
  -5   0  -6  128.19    3.60
  -5   0  -6  130.69    3.90
  -5   0  -6  134.19    3.60
  -5   0  -6  125.49    3.40
   5   0   6  127.39    3.50
   5   0   6  128.09    3.70
   5   0   6  125.19    3.70
  -6   0  -6    4.50    0.70
  -6   0  -6    5.20    0.70
  -6   0  -6    4.80    0.80
   6   0   6    5.20    0.80
   6   0   6    4.50    0.60
   6   0   6    4.20    0.70
  -7   0  -6    9.20    1.10
  -7   0  -6    9.80    1.00
  -7   0  -6   10.30    1.00
   7   0   6    9.30    0.90
   7   0   6    8.50    1.00
   7   0   6    9.10    1.00
  -8   0  -6    1.20    0.60
  -8   0  -6   -0.10    0.60
  -8   0  -6    1.60    0.60
   8   0   6    0.70    0.60
   8   0   6    1.20    0.60
   8   0   6    1.20    0.70
  -9   0  -6    5.30    1.00
  -9   0  -6    4.60    0.90
  -9   0  -6    4.00    1.00
   9   0   6    4.40    1.10
   9   0   6    6.30    0.90
   9   0   6    4.30    0.90
   9   0   6    5.40    1.00
   7  -1  -6    3.60    1.20
   7  -1  -6    3.60    0.80
   7  -1  -6    4.50    0.80
  -7   1   6    4.90    0.90
  -7   1   6    3.10    0.90
  -7   1   6    3.40    0.80
   6  -1  -6    3.50    0.70
   6  -1  -6    3.70    1.10
   6  -1  -6    3.90    0.70
  -6   1   6    3.40    0.80
  -6   1   6    3.80    0.90
  -6   1   6    4.00    0.70
  -6   1   6    3.70    0.80
   5  -1  -6   14.00    0.90
   5  -1  -6   15.10    0.90
   5  -1  -6   12.80    1.40
   5  -1  -6   13.40    1.00
  -5   1   6   12.40    1.00
  -5   1   6   13.60    1.20
  -5   1   6   12.50    1.00
  -5   1   6   13.40    1.10
   4  -1  -6    2.10    0.50
   4  -1  -6    1.80    0.50
   4  -1  -6    2.00    0.70
  -4   1   6    1.10    0.60
  -4   1   6    1.20    0.60
  -4   1   6    1.80    0.50
  -4   1   6    1.10    0.50
  -4   1   6    1.30    0.30
   3  -1  -6    1.20    0.30
   3  -1  -6    1.20    0.60
   3  -1  -6    1.30    0.40
  -3   1   6    1.10    0.40
  -3   1   6    1.30    0.20
  -3   1   6    1.60    0.30
  -3   1   6    1.20    0.40
  -3   1   6    1.30    0.40
   2  -1  -6   61.29    1.70
   2  -1  -6   60.69    1.80
   2  -1  -6   59.19    1.80
   2  -1  -6   59.79    2.10
  -2   1   6   59.69    1.80
  -2   1   6   62.69    1.70
  -2   1   6   61.39    2.10
  -2   1   6   64.09    1.90
  -2   1   6   62.09    2.00
   1  -1  -6    0.20    0.20
   1  -1  -6    0.50    0.10
   1  -1  -6   -0.20    0.30
   1  -1  -6    0.80    0.30
  -1   1   6    0.20    0.30
  -1   1   6    1.00    0.30
  -1   1   6    0.40    0.20
  -1   1   6    0.30    0.20
  -1   1   6    0.50    0.20
   0  -1  -6  600.64   14.10
   0  -1  -6  573.14   14.40
   0  -1  -6  575.14   14.10
   0  -1  -6  579.74   14.20
   0  -1  -6  599.94   14.20
   0  -1  -6  598.14   14.20
   0  -1  -6  581.94   14.20
   0  -1  -6  597.04   14.20
   0   1   6  629.14   14.20
   0   1   6  604.54   14.20
   0   1   6  584.44   14.30
   0   1   6  631.24   14.20
   0   1   6  593.34   14.50
   0   1   6  573.94   14.50
  -1  -1  -6   22.70    0.70
  -1  -1  -6   21.10    0.70
  -1  -1  -6   22.30    0.80
  -1  -1  -6   19.70    0.80
  -1  -1  -6   21.50    0.70
   1   1   6   22.30    0.70
   1   1   6   21.30    0.70
   1   1   6   23.20    0.70
   1   1   6   21.00    0.90
   1   1   6   22.80    0.70
   1   1   6   20.20    0.90
  -2  -1  -6   43.30    1.30
  -2  -1  -6   47.00    1.30
  -2  -1  -6   47.60    1.50
  -2  -1  -6   43.80    1.30
  -2  -1  -6   43.60    1.40
   2   1   6   46.00    1.30
   2   1   6   46.50    1.50
   2   1   6   46.10    1.50
   2   1   6   45.50    1.50
  -3  -1  -6    5.30    0.60
  -3  -1  -6    5.10    0.40
  -3  -1  -6    5.70    0.40
  -3  -1  -6    4.30    0.40
   3   1   6    5.60    0.40
   3   1   6    5.60    0.60
   3   1   6    5.10    0.50
   3   1   6    5.50    0.40
  -4  -1  -6   39.70    1.60
  -4  -1  -6   37.20    1.30
  -4  -1  -6   37.90    1.50
  -4  -1  -6   37.90    1.30
   4   1   6   39.30    1.30
   4   1   6   37.00    1.30
   4   1   6   39.10    1.30
   4   1   6   40.00    1.50
   4   1   6   38.30    1.40
  -5  -1  -6   38.10    1.60
  -5  -1  -6   36.80    1.30
  -5  -1  -6   37.40    1.50
  -5  -1  -6   38.40    1.40
   5   1   6   38.60    1.50
   5   1   6   39.40    1.40
   5   1   6   36.00    1.50
   5   1   6   36.70    1.40
  -6  -1  -6   39.20    1.60
  -6  -1  -6   36.00    1.40
  -6  -1  -6   36.50    1.70
  -6  -1  -6   41.10    1.60
   6   1   6   38.00    1.70
   6   1   6   39.40    1.50
   6   1   6   38.40    1.60
  -7  -1  -6    0.60    0.60
  -7  -1  -6    0.60    0.60
  -7  -1  -6   -0.20    0.50
   7   1   6    0.30    0.60
   7   1   6    1.00    0.50
   7   1   6    1.30    0.50
  -8  -1  -6    0.50    0.60
  -8  -1  -6    0.70    0.60
  -8  -1  -6    1.10    0.70
   8   1   6    0.10    0.50
   8   1   6    0.60    0.60
   8   1   6    0.30    0.50
  -9  -1  -6    0.70    0.70
  -9  -1  -6   -0.50    0.70
  -9  -1  -6    0.80    0.70
   9   1   6    1.50    0.80
   9   1   6    0.90    0.70
   9   1   6   -0.20    0.60
   7  -2  -6    8.30    1.10
   7  -2  -6    6.40    1.20
   7  -2  -6    6.10    1.00
  -7   2   6    5.90    1.00
  -7   2   6    5.70    1.00
  -7   2   6    5.40    1.00
   6  -2  -6    3.70    0.80
   6  -2  -6    1.30    0.90
   6  -2  -6    4.40    0.90
   6  -2  -6    4.30    0.80
   6  -2  -6    4.10    0.70
  -6   2   6    2.80    0.80
  -6   2   6    4.90    0.90
  -6   2   6    3.40    0.80
  -6   2   6    2.40    0.70
  -6   2   6    2.60    0.80
   5  -2  -6   18.00    1.10
   5  -2  -6   17.70    1.60
   5  -2  -6   17.40    1.20
   5  -2  -6   21.10    1.20
   5  -2  -6   19.70    1.20
  -5   2   6   15.50    1.30
  -5   2   6   19.40    1.30
  -5   2   6   16.40    1.20
  -5   2   6   18.60    1.20
   4  -2  -6   26.70    1.30
   4  -2  -6   22.90    1.50
   4  -2  -6   21.70    1.10
   4  -2  -6   23.40    1.20
  -4   2   6   23.40    1.20
  -4   2   6   24.20    1.30
  -4   2   6   25.60    1.30
  -4   2   6   21.10    1.40
   3  -2  -6   19.40    1.00
   3  -2  -6   20.00    1.00
   3  -2  -6   19.50    1.20
   3  -2  -6   20.90    1.10
  -3   2   6   19.50    0.80
  -3   2   6   17.80    1.00
  -3   2   6   19.40    1.10
  -3   2   6   19.80    1.00
  -3   2   6   18.00    1.10
   2  -2  -6  707.03   17.50
   2  -2  -6  717.13   17.40
   2  -2  -6  732.13   17.20
  -2   2   6  688.73   17.30
  -2   2   6  709.93   17.40
  -2   2   6  717.33   17.30
  -2   2   6  737.43   17.00
   1  -2  -6  682.23   16.30
   1  -2  -6  670.03   16.50
   1  -2  -6  683.13   16.40
  -1   2   6  692.83   16.30
  -1   2   6  676.43   16.30
  -1   2   6  671.93   16.50
  -1   2   6  669.13   16.30
   0  -2  -6  484.75   11.90
   0  -2  -6  475.75   11.70
   0  -2  -6  492.75   11.50
   0  -2  -6  483.75   11.70
   0  -2  -6  483.75   11.70
   0   2   6  486.45   11.80
   0   2   6  487.85   11.70
   0   2   6  474.05   11.90
   0   2   6  497.35   11.60
  -1  -2  -6   47.50    1.40
  -1  -2  -6   44.60    1.50
  -1  -2  -6   44.20    1.30
  -1  -2  -6   44.40    1.40
  -1  -2  -6   46.00    1.30
   1   2   6   44.80    1.60
   1   2   6   46.30    1.40
   1   2   6   48.60    1.40
   1   2   6   47.90    1.50
  -2  -2  -6    0.90    0.20
  -2  -2  -6    0.90    0.20
  -2  -2  -6    0.50    0.20
  -2  -2  -6    0.40    0.30
   2   2   6    0.10    0.30
   2   2   6    0.50    0.20
   2   2   6    0.50    0.20
   2   2   6    0.50    0.20
   2   2   6    0.80    0.30
  -3  -2  -6    5.90    0.50
  -3  -2  -6    5.30    0.30
  -3  -2  -6    6.20    0.40
  -3  -2  -6    6.20    0.60
  -3  -2  -6    5.70    0.60
   3   2   6    5.90    0.50
   3   2   6    4.10    0.50
   3   2   6    5.40    0.30
   3   2   6    5.20    0.40
  -4  -2  -6  190.78    5.00
  -4  -2  -6  190.68    5.10
  -4  -2  -6  202.38    5.30
  -4  -2  -6  188.48    5.00
   4   2   6  190.68    5.00
   4   2   6  194.68    4.90
   4   2   6  191.38    4.90
   4   2   6  198.88    5.00
   4   2   6  195.08    5.10
   4   2   6  189.48    5.20
  -5  -2  -6    7.00    0.70
  -5  -2  -6    8.30    0.70
  -5  -2  -6    7.50    0.70
   5   2   6    8.00    0.70
   5   2   6    7.90    0.70
   5   2   6    7.90    0.60
   5   2   6    8.40    0.60
  -6  -2  -6    2.10    0.60
  -6  -2  -6    1.70    0.50
  -6  -2  -6    4.30    0.60
  -6  -2  -6    2.70    0.50
   6   2   6    2.10    0.50
   6   2   6    2.20    0.50
   6   2   6    2.20    0.50
   6   2   6    3.20    0.50
  -7  -2  -6  176.28    5.00
  -7  -2  -6  171.28    4.90
  -7  -2  -6  168.48    4.90
   7   2   6  162.98    5.00
   7   2   6  178.88    4.80
   7   2   6  170.08    4.90
  -8  -2  -6   11.30    1.20
  -8  -2  -6   12.30    1.20
  -8  -2  -6   13.40    1.20
   8   2   6   12.00    1.10
   8   2   6   12.90    1.20
   8   2   6   10.40    1.20
  -9  -2  -6   29.10    1.90
  -9  -2  -6   27.70    1.80
  -9  -2  -6   30.90    1.90
   9   2   6   29.70    1.70
   9   2   6   27.40    1.70
   9   2   6   34.20    2.00
 -10  -2  -6    6.50    1.30
 -10  -2  -6    8.70    1.30
  10   2   6    7.70    1.40
  10   2   6    9.10    1.20
  10   2   6    6.40    1.10
   7  -3  -6   -0.50    0.50
   7  -3  -6    2.60    0.90
  -7   3   6    1.70    0.80
  -7   3   6    0.60    0.70
  -7   3   6   -0.10    0.70
   6  -3  -6    7.80    1.00
   6  -3  -6    5.80    1.20
   6  -3  -6    5.90    0.90
   6  -3  -6    5.90    0.90
  -6   3   6    3.90    0.90
  -6   3   6    5.90    1.10
  -6   3   6    6.70    1.10
   5  -3  -6   37.40    2.10
   5  -3  -6   40.20    1.70
   5  -3  -6   36.60    1.80
  -5   3   6   38.50    2.10
  -5   3   6   39.40    1.90
  -5   3   6   36.70    1.80
   4  -3  -6    4.20    0.70
   4  -3  -6    5.50    0.80
   4  -3  -6    3.70    0.80
  -4   3   6    4.00    0.70
  -4   3   6    3.50    0.60
  -4   3   6    4.20    0.80
  -4   3   6    5.30    0.70
   3  -3  -6   15.70    1.10
   3  -3  -6   15.00    0.90
   3  -3  -6   15.50    1.00
  -3   3   6   13.50    0.80
  -3   3   6   14.10    1.00
  -3   3   6   14.50    1.10
  -3   3   6   15.60    0.90
  -3   3   6   15.00    0.90
   2  -3  -6  123.89    3.50
   2  -3  -6  122.89    3.60
   2  -3  -6  122.09    3.60
  -2   3   6  128.29    3.50
  -2   3   6  124.79    3.10
  -2   3   6  124.69    3.50
  -2   3   6  125.59    3.60
   1  -3  -6   83.59    2.40
   1  -3  -6   80.29    2.50
   1  -3  -6   80.69    2.40
  -1   3   6   81.49    2.40
  -1   3   6   81.99    2.40
  -1   3   6   82.29    2.50
  -1   3   6   84.99    2.30
   0  -3  -6   15.10    0.70
   0  -3  -6   15.50    0.70
   0  -3  -6   15.00    0.80
   0  -3  -6   14.50    0.70
   0   3   6   16.10    0.70
   0   3   6   15.20    0.80
   0   3   6   15.40    0.70
   0   3   6   15.40    0.50
  -1  -3  -6    0.50    0.10
  -1  -3  -6    0.50    0.30
  -1  -3  -6    0.30    0.30
  -1  -3  -6    0.90    0.30
  -1  -3  -6    0.50    0.20
   1   3   6    0.70    0.10
   1   3   6    0.30    0.20
   1   3   6    0.20    0.20
   1   3   6    0.60    0.30
   1   3   6    0.40    0.20
  -2  -3  -6   -0.20    0.20
  -2  -3  -6   -0.30    0.20
  -2  -3  -6   -0.20    0.20
   2   3   6    0.00    0.20
   2   3   6   -0.50    0.20
   2   3   6   -0.30    0.20
   2   3   6    0.00    0.20
   2   3   6    0.00    0.20
  -3  -3  -6    8.10    0.70
  -3  -3  -6    7.90    0.60
  -3  -3  -6    8.20    0.50
  -3  -3  -6    7.60    0.60
   3   3   6    8.40    0.50
   3   3   6    7.80    0.60
   3   3   6    8.30    0.70
   3   3   6    8.30    0.40
   3   3   6    7.60    0.70
  -4  -3  -6  255.57    6.60
  -4  -3  -6  246.98    6.50
  -4  -3  -6  261.77    6.80
  -4  -3  -6  253.47    6.50
  -4  -3  -6  268.97    6.50
   4   3   6  252.47    6.70
   4   3   6  248.18    6.70
   4   3   6  257.77    6.40
   4   3   6  253.37    6.50
   4   3   6  260.07    6.40
  -5  -3  -6   12.40    0.80
  -5  -3  -6   11.30    0.80
  -5  -3  -6   10.10    0.80
   5   3   6   11.80    0.60
   5   3   6   10.90    0.70
   5   3   6   11.20    0.70
   5   3   6   10.70    1.00
   5   3   6   12.20    0.80
  -6  -3  -6    9.70    0.80
  -6  -3  -6    9.40    0.80
  -6  -3  -6   10.50    0.90
   6   3   6    9.70    0.80
   6   3   6   10.30    0.80
   6   3   6    9.30    0.80
   6   3   6    7.80    1.00
   6   3   6    9.40    0.80
  -7  -3  -6   67.69    2.40
  -7  -3  -6   71.49    2.50
  -7  -3  -6   74.69    2.60
   7   3   6   70.49    2.80
   7   3   6   70.99    2.60
   7   3   6   69.49    2.40
   7   3   6   70.79    2.50
   7   3   6   69.29    2.50
  -8  -3  -6   19.80    1.40
  -8  -3  -6   20.20    1.40
  -8  -3  -6   20.50    1.40
   8   3   6   20.00    1.50
   8   3   6   20.20    1.30
   8   3   6   18.50    1.30
  -9  -3  -6   25.50    1.70
  -9  -3  -6   26.00    1.80
  -9  -3  -6   30.70    1.80
   9   3   6   33.10    2.00
   9   3   6   27.80    1.70
   9   3   6   25.10    1.60
 -10  -3  -6    0.70    0.90
 -10  -3  -6    0.10    0.80
  10   3   6    3.80    0.90
  10   3   6    0.50    0.80
   6  -4  -6    3.90    0.90
   6  -4  -6    4.10    0.90
   6  -4  -6    5.00    1.00
  -6   4   6    3.70    1.00
  -6   4   6    4.70    1.00
  -6   4   6    4.00    0.90
   5  -4  -6    3.00    0.80
   5  -4  -6    2.30    0.60
   5  -4  -6    2.10    0.70
  -5   4   6    2.40    0.80
  -5   4   6    2.20    0.70
  -5   4   6    2.10    0.80
   4  -4  -6    6.40    0.80
   4  -4  -6    7.70    1.00
   4  -4  -6    7.20    0.90
  -4   4   6    6.00    1.00
  -4   4   6    6.80    0.90
  -4   4   6    7.90    1.00
   3  -4  -6    2.40    0.60
   3  -4  -6    2.60    0.60
   3  -4  -6    2.00    0.60
  -3   4   6    0.80    0.50
  -3   4   6    2.00    0.60
  -3   4   6    2.20    0.50
  -3   4   6    1.60    0.60
   2  -4  -6    6.40    0.70
   2  -4  -6    5.80    0.70
   2  -4  -6    7.50    0.80
  -2   4   6    7.20    0.90
  -2   4   6    6.00    0.70
  -2   4   6    6.20    0.60
  -2   4   6    6.10    0.30
  -2   4   6    6.30    0.30
  -2   4   6    6.20    0.70
   1  -4  -6   46.80    1.80
   1  -4  -6   49.40    1.70
   1  -4  -6   49.30    1.70
   1  -4  -6   49.70    1.70
  -1   4   6   46.60    1.70
  -1   4   6   49.90    1.80
   0  -4  -6    3.50    0.60
   0  -4  -6    3.60    0.50
   0  -4  -6    3.80    0.50
   0   4   6    4.30    0.40
   0   4   6    4.30    0.50
   0   4   6    4.40    0.40
  -1  -4  -6   93.99    2.50
  -1  -4  -6   88.69    2.80
  -1  -4  -6   94.79    2.70
  -1  -4  -6   92.89    2.70
   1   4   6   98.29    2.60
   1   4   6   95.69    2.60
   1   4   6   98.19    2.50
   1   4   6   92.89    2.50
   1   4   6   96.39    2.70
  -2  -4  -6   38.60    1.30
  -2  -4  -6   36.60    1.30
  -2  -4  -6   37.00    1.40
   2   4   6   37.60    0.90
   2   4   6   37.10    1.30
   2   4   6   37.60    0.90
   2   4   6   36.50    1.30
   2   4   6   36.30    1.30
   2   4   6   34.80    1.30
   2   4   6   36.90    1.30
  -3  -4  -6    4.10    0.60
  -3  -4  -6    4.20    0.50
  -3  -4  -6    2.80    0.50
  -3  -4  -6    3.70    0.50
   3   4   6    4.10    0.30
   3   4   6    3.10    0.40
   3   4   6    4.60    0.50
   3   4   6    3.10    0.50
   3   4   6    3.50    0.50
  -4  -4  -6  115.19    3.40
  -4  -4  -6  115.09    3.30
  -4  -4  -6  112.79    3.30
  -4  -4  -6  120.49    3.50
   4   4   6  118.69    3.10
   4   4   6  119.69    3.20
   4   4   6  112.79    3.30
   4   4   6  115.59    3.40
   4   4   6  115.89    3.50
  -5  -4  -6   63.99    2.20
  -5  -4  -6   61.49    2.10
  -5  -4  -6   64.39    2.10
  -5  -4  -6   63.19    2.10
   5   4   6   60.49    2.30
   5   4   6   62.79    2.10
   5   4   6   63.69    2.00
   5   4   6   62.39    2.40
   5   4   6   65.29    1.90
  -6  -4  -6   97.29    3.10
  -6  -4  -6   95.49    3.00
  -6  -4  -6  100.49    3.00
   6   4   6   94.29    3.30
   6   4   6   97.49    3.00
   6   4   6   99.69    3.00
   6   4   6   96.69    3.40
   6   4   6   95.19    3.00
  -7  -4  -6   16.70    1.10
  -7  -4  -6   14.60    1.20
  -7  -4  -6   15.00    1.20
   7   4   6   13.80    1.30
   7   4   6   14.60    1.10
   7   4   6   16.80    1.10
   7   4   6   15.20    1.20
  -8  -4  -6   18.00    1.20
  -8  -4  -6   16.80    1.40
  -8  -4  -6   17.80    1.40
   8   4   6   17.30    1.20
   8   4   6   17.70    1.40
   8   4   6   19.00    1.60
   8   4   6   16.90    1.20
  -9  -4  -6   -0.10    0.70
  -9  -4  -6    1.00    0.80
   9   4   6    0.50    0.70
   9   4   6    1.30    0.70
 -10  -4  -6    0.40    0.70
 -10  -4  -6   -0.30    0.80
  10   4   6    0.50    0.70
  10   4   6    1.80    0.70
   5  -5  -6    9.10    1.30
   5  -5  -6   10.10    1.20
  -5   5   6    8.10    1.10
  -5   5   6    8.60    1.20
  -5   5   6   10.00    1.40
   4  -5  -6   93.99    3.10
   4  -5  -6   89.39    3.00
   4  -5  -6   90.69    3.40
  -4   5   6   86.79    3.20
  -4   5   6   90.49    3.50
  -4   5   6   90.59    3.20
   3  -5  -6   12.30    1.10
   3  -5  -6   12.60    1.00
   3  -5  -6   14.70    1.20
  -3   5   6   12.50    1.20
  -3   5   6   13.60    1.40
  -3   5   6   12.90    1.10
   2  -5  -6    3.50    0.60
   2  -5  -6    3.60    0.60
  -2   5   6    3.60    0.80
  -2   5   6    2.60    0.70
  -2   5   6    3.30    0.70
   1  -5  -6   13.30    0.90
   1  -5  -6   13.40    0.90
   1  -5  -6   11.90    0.90
  -1   5   6   11.90    0.50
  -1   5   6   12.50    0.50
  -1   5   6   12.20    0.50
  -1   5   6   12.50    0.90
   0  -5  -6    1.00    0.50
   0  -5  -6    0.60    0.40
   0  -5  -6    2.10    0.40
   0   5   6    1.10    0.20
   0   5   6    1.50    0.30
   0   5   6    0.50    0.40
   0   5   6    1.10    0.30
  -1  -5  -6   77.49    2.40
  -1  -5  -6   74.99    2.50
  -1  -5  -6   79.19    2.40
   1   5   6   83.59    2.70
   1   5   6   73.89    2.40
   1   5   6   76.19    2.20
   1   5   6   76.89    2.20
   1   5   6   78.69    2.20
  -2  -5  -6    9.10    0.80
  -2  -5  -6    9.00    0.70
  -2  -5  -6    9.20    0.60
   2   5   6    9.70    0.70
   2   5   6    8.20    0.70
   2   5   6    9.30    0.70
   2   5   6    9.90    0.60
   2   5   6   10.20    0.50
   2   5   6    8.70    0.70
  -3  -5  -6   18.70    1.00
  -3  -5  -6   19.90    1.00
  -3  -5  -6   19.40    1.10
   3   5   6   18.20    0.90
   3   5   6   18.90    1.00
   3   5   6   19.30    1.00
   3   5   6   17.40    1.00
   3   5   6   19.50    0.70
  -4  -5  -6   50.99    2.00
  -4  -5  -6   52.99    1.90
  -4  -5  -6   52.19    1.90
  -4  -5  -6   55.59    2.00
   4   5   6   53.99    1.90
   4   5   6   52.89    2.00
   4   5   6   54.69    1.60
   4   5   6   51.79    2.00
  -5  -5  -6    2.20    0.60
  -5  -5  -6    3.20    0.60
  -5  -5  -6    2.90    0.50
   5   5   6    3.60    0.50
   5   5   6    2.40    0.60
   5   5   6    2.70    0.50
   5   5   6    2.20    0.60
   5   5   6    2.40    0.50
  -6  -5  -6   73.39    2.40
  -6  -5  -6   75.19    2.40
  -6  -5  -6   75.69    2.70
  -6  -5  -6   75.19    2.60
   6   5   6   76.39    2.50
   6   5   6   72.79    2.50
   6   5   6   69.39    2.70
   6   5   6   72.69    2.40
   6   5   6   69.19    2.70
  -7  -5  -6   37.40    1.80
  -7  -5  -6   41.00    1.80
  -7  -5  -6   38.70    1.60
   7   5   6   36.90    1.80
   7   5   6   37.90    1.70
   7   5   6   36.20    2.00
   7   5   6   38.40    1.70
   7   5   6   36.50    2.00
  -8  -5  -6    5.00    0.90
  -8  -5  -6    6.10    1.00
   8   5   6    5.30    1.00
   8   5   6    4.20    0.80
   8   5   6    4.30    0.80
   8   5   6    5.50    0.90
  -9  -5  -6    3.50    0.90
  -9  -5  -6    2.00    0.90
   9   5   6    3.50    1.10
   9   5   6    3.10    0.90
   9   5   6    3.30    0.80
   9   5   6    4.00    0.90
 -10  -5  -6    1.80    0.80
 -10  -5  -6    1.80    0.90
  10   5   6    0.50    0.70
   5  -6  -6    5.20    1.10
   5  -6  -6    5.90    1.00
  -5   6   6    5.60    1.30
  -5   6   6    5.60    1.10
  -5   6   6    5.30    1.10
   4  -6  -6    5.70    0.90
  -4   6   6    6.80    1.10
  -4   6   6    5.70    1.00
  -4   6   6    5.20    1.10
   3  -6  -6    1.30    0.60
   3  -6  -6    2.80    0.70
   3  -6  -6    1.70    0.60
  -3   6   6    2.70    0.80
  -3   6   6    2.50    0.70
  -3   6   6    2.50    0.80
   2  -6  -6    2.20    0.70
   2  -6  -6    2.00    0.60
   2  -6  -6    2.70    0.60
  -2   6   6    2.20    0.70
  -2   6   6    1.70    0.60
   1  -6  -6   13.90    1.10
   1  -6  -6   14.60    1.00
   1  -6  -6   15.10    1.00
  -1   6   6   15.90    1.00
   0  -6  -6   19.00    1.10
   0  -6  -6   20.50    1.20
   0  -6  -6   17.80    1.10
   0   6   6   17.40    1.10
   0   6   6   18.10    0.80
   0   6   6   18.30    0.80
   0   6   6   18.40    0.70
  -1  -6  -6  256.57    6.70
  -1  -6  -6  257.07    6.80
  -1  -6  -6  252.07    6.80
   1   6   6  249.58    6.70
   1   6   6  267.97    6.40
   1   6   6  256.07    6.80
   1   6   6  262.47    6.60
   1   6   6  254.87    6.50
  -2  -6  -6  238.38    6.40
  -2  -6  -6  236.18    6.50
  -2  -6  -6  240.88    6.20
   2   6   6  239.08    6.40
   2   6   6  240.18    6.30
   2   6   6  248.38    6.20
   2   6   6  245.58    6.40
   2   6   6  240.78    6.20
  -3  -6  -6    0.40    0.30
  -3  -6  -6   -0.70    0.40
  -3  -6  -6    1.20    0.50
   3   6   6    1.00    0.40
   3   6   6   -0.60    0.40
   3   6   6    0.50    0.20
   3   6   6    0.50    0.40
   3   6   6   -1.10    0.40
  -4  -6  -6    1.30    0.60
  -4  -6  -6    0.70    0.40
  -4  -6  -6    0.90    0.40
   4   6   6    1.60    0.60
   4   6   6    0.70    0.40
   4   6   6    0.60    0.50
   4   6   6    0.70    0.40
   4   6   6    0.80    0.30
  -5  -6  -6   65.99    2.30
  -5  -6  -6   64.59    2.40
  -5  -6  -6   65.09    2.20
   5   6   6   66.09    2.50
   5   6   6   64.29    2.10
   5   6   6   63.89    2.10
   5   6   6   65.19    2.20
   5   6   6   64.19    2.50
  -6  -6  -6   20.50    1.20
  -6  -6  -6   19.40    1.20
  -6  -6  -6   19.40    1.10
  -6  -6  -6   19.30    1.40
   6   6   6   18.00    1.50
   6   6   6   16.80    1.50
   6   6   6   17.90    1.10
   6   6   6   17.50    1.10
  -7  -6  -6   62.89    2.40
  -7  -6  -6   58.49    2.10
  -7  -6  -6   64.79    2.50
   7   6   6   59.39    2.30
   7   6   6   56.39    2.20
   7   6   6   58.39    2.30
   7   6   6   57.89    2.70
   7   6   6   59.79    2.70
  -8  -6  -6    0.20    0.70
  -8  -6  -6   -0.30    0.60
   8   6   6   -0.30    0.50
   8   6   6   -0.80    0.60
   8   6   6    0.00    0.60
   8   6   6    0.10    0.80
  -9  -6  -6    0.60    0.80
   9   6   6    1.30    0.70
   9   6   6    0.10    0.60
   9   6   6    0.60    0.90
   4  -7  -6   -0.10    0.60
   4  -7  -6    0.50    0.60
  -4   7   6   -0.20    0.60
  -4   7   6    0.30    0.70
  -4   7   6    0.90    0.90
   3  -7  -6    0.00    0.60
   3  -7  -6    1.80    0.70
  -3   7   6   -0.10    0.70
  -3   7   6    0.80    0.70
  -3   7   6   -0.10    0.70
   2  -7  -6   11.40    1.20
   2  -7  -6   11.70    1.10
   2  -7  -6   10.60    1.10
  -2   7   6    9.80    1.10
   1  -7  -6    6.20    0.80
   1  -7  -6    8.20    1.00
   1  -7  -6    8.10    0.90
  -1   7   6    6.00    0.80
   0  -7  -6   15.90    1.10
   0  -7  -6   17.40    1.10
   0  -7  -6   17.30    1.10
   0   7   6   16.40    1.10
   0   7   6   18.00    1.00
  -1  -7  -6    1.10    0.50
  -1  -7  -6    0.70    0.50
  -1  -7  -6    0.80    0.50
   1   7   6    0.70    0.30
   1   7   6    0.70    0.40
   1   7   6    0.20    0.50
   1   7   6    0.70    0.50
  -2  -7  -6    1.30    0.50
  -2  -7  -6    0.90    0.60
   2   7   6    1.10    0.40
   2   7   6    0.70    0.40
   2   7   6    1.00    0.30
   2   7   6    1.70    0.50
   2   7   6    1.20    0.50
  -3  -7  -6    7.00    0.90
  -3  -7  -6    6.10    0.80
  -3  -7  -6    7.40    0.70
   3   7   6    5.90    0.70
   3   7   6    5.90    0.80
   3   7   6    4.90    0.70
   3   7   6    7.20    0.60
   3   7   6    6.40    0.70
  -4  -7  -6    3.50    0.60
  -4  -7  -6    3.90    0.70
  -4  -7  -6    3.50    0.80
   4   7   6    4.20    0.70
   4   7   6    3.10    0.60
   4   7   6    4.30    0.50
   4   7   6    3.60    0.70
   4   7   6    4.10    0.70
  -5  -7  -6    2.60    0.70
  -5  -7  -6    3.30    0.70
  -5  -7  -6    2.70    0.60
   5   7   6    2.10    0.70
   5   7   6    3.00    0.60
   5   7   6    3.40    0.80
   5   7   6    3.00    0.50
  -6  -7  -6    7.50    1.10
  -6  -7  -6    7.50    0.90
  -6  -7  -6    9.50    1.00
  -6  -7  -6    9.40    0.80
   6   7   6    6.90    1.00
   6   7   6    8.40    0.90
   6   7   6    5.60    1.00
   6   7   6    6.80    1.30
  -7  -7  -6    5.00    0.90
  -7  -7  -6    5.90    0.90
  -7  -7  -6    7.60    1.10
   7   7   6    4.50    1.00
   7   7   6    6.70    0.90
   7   7   6    3.90    1.00
   7   7   6    7.40    0.90
  -8  -7  -6    0.00    0.70
  -8  -7  -6    0.60    0.70
   8   7   6   -0.80    0.50
   8   7   6   -0.60    0.60
   8   7   6   -0.80    0.70
  -9  -7  -6   -1.20    0.60
   9   7   6    0.00    0.60
   9   7   6   -0.90    0.90
   9   7   6   -0.40    0.60
   3  -8  -6    2.80    0.90
   3  -8  -6    4.70    0.90
  -3   8   6    3.30    0.90
   2  -8  -6    0.60    0.60
   2  -8  -6    1.30    0.60
   2  -8  -6    0.60    0.70
  -2   8   6    0.10    0.60
   1  -8  -6   10.60    1.10
   1  -8  -6    9.30    1.00
   1  -8  -6    9.60    1.10
  -1   8   6    9.20    1.10
   0  -8  -6    0.40    0.50
   0  -8  -6   -0.20    0.60
   0  -8  -6    0.40    0.50
   0   8   6    0.00    0.50
  -1  -8  -6   11.80    1.10
  -1  -8  -6   11.60    1.10
  -1  -8  -6   13.10    1.20
   1   8   6   14.50    1.20
   1   8   6   11.50    1.10
   1   8   6   12.00    0.90
  -2  -8  -6    3.30    0.80
  -2  -8  -6    2.30    0.60
   2   8   6    2.80    0.70
   2   8   6    2.20    0.50
   2   8   6    2.40    0.70
   2   8   6    1.60    0.50
  -3  -8  -6    0.30    0.60
  -3  -8  -6   -1.00    0.50
   3   8   6    0.40    0.30
   3   8   6   -0.10    0.50
   3   8   6   -0.30    0.40
   3   8   6    0.10    0.50
   3   8   6    0.40    0.50
  -4  -8  -6    0.60    0.60
  -4  -8  -6    0.90    0.70
  -4  -8  -6    0.60    0.50
   4   8   6    1.50    0.60
   4   8   6    1.40    0.60
   4   8   6    0.70    0.50
   4   8   6    0.30    0.60
  -5  -8  -6    0.10    0.60
  -5  -8  -6   -0.30    0.50
  -5  -8  -6   -0.30    0.50
   5   8   6   -0.70    0.60
   5   8   6   -0.40    0.60
   5   8   6    0.70    0.50
  -6  -8  -6   27.10    1.60
  -6  -8  -6   29.80    1.80
  -6  -8  -6   22.70    1.40
   6   8   6   27.00    1.80
   6   8   6   23.20    1.80
   6   8   6   25.80    1.50
  -7  -8  -6   26.00    1.60
  -7  -8  -6   28.20    1.80
  -7  -8  -6   28.00    1.90
   7   8   6   25.00    1.60
   7   8   6   23.30    1.90
  -8  -8  -6    1.30    0.70
  -8  -8  -6    0.90    0.90
   8   8   6    0.20    0.70
   8   8   6    1.10    0.70
   8   8   6    2.00    1.00
  -9  -8  -6    6.20    1.10
   9   8   6    5.10    1.00
   9   8   6    4.40    1.00
   9   8   6    5.00    1.20
   2  -9  -6    1.60    0.70
   2  -9  -6    0.50    0.60
  -2   9   6    0.60    0.70
   1  -9  -6   11.90    1.20
   1  -9  -6   12.70    1.30
   1  -9  -6   15.10    1.40
  -1   9   6   14.50    1.40
   0  -9  -6    1.70    0.70
   0  -9  -6    2.00    0.70
   0  -9  -6    1.30    0.70
   0   9   6    2.00    0.80
  -1  -9  -6    1.30    0.60
  -1  -9  -6   -0.60    0.60
  -1  -9  -6    0.90    0.70
   1   9   6    1.30    0.70
   1   9   6    1.20    0.70
  -2  -9  -6    0.10    0.70
  -2  -9  -6    1.40    0.70
   2   9   6    0.70    0.50
   2   9   6    0.40    0.50
   2   9   6    0.80    0.60
  -3  -9  -6    0.00    0.70
  -3  -9  -6    0.30    0.60
   3   9   6    0.10    0.60
   3   9   6    0.10    0.60
   3   9   6   -0.10    0.50
  -4  -9  -6   -0.10    0.70
  -4  -9  -6    0.60    0.60
   4   9   6    0.30    0.50
   4   9   6   -0.10    0.50
   4   9   6    0.80    0.60
   4   9   6    0.50    0.50
  -5  -9  -6   -1.40    0.60
  -5  -9  -6    0.20    0.60
  -5  -9  -6    0.00    0.70
   5   9   6   -1.20    0.60
   5   9   6   -0.70    0.50
   5   9   6   -0.60    0.60
  -6  -9  -6   30.40    2.00
  -6  -9  -6   24.80    1.60
  -6  -9  -6   24.00    1.50
   6   9   6   25.30    2.00
   6   9   6   24.90    2.20
   6   9   6   27.50    1.60
  -7  -9  -6    6.00    1.10
  -7  -9  -6    8.40    1.30
  -7  -9  -6    6.30    1.00
   7   9   6    7.90    1.10
   7   9   6    6.30    1.20
  -8  -9  -6    0.50    0.90
  -8  -9  -6   -0.70    0.70
  -8  -9  -6   -0.80    0.70
   8   9   6   -0.60    0.90
   8   9   6    0.80    0.70
   8   9   6    1.70    0.80
   1 -10  -6   -0.80    0.60
   1 -10  -6   -0.20    0.70
  -1  10   6   -0.20    0.60
   0 -10  -6    0.20    0.60
   0 -10  -6    0.70    0.60
   0 -10  -6    0.20    0.70
   0  10   6   -0.60    0.70
   0  10   6    0.10    0.70
  -1 -10  -6    2.00    0.70
  -1 -10  -6    0.60    0.70
  -1 -10  -6    0.50    0.60
   1  10   6    0.00    0.60
   1  10   6    0.80    0.70
  -2 -10  -6    0.70    0.70
  -2 -10  -6    0.70    0.60
   2  10   6    0.50    0.60
   2  10   6    0.30    0.70
  -3 -10  -6    0.10    0.60
  -3 -10  -6   -1.00    0.70
   3  10   6   -1.50    0.50
   3  10   6   -0.30    0.60
   3  10   6    0.50    0.60
  -4 -10  -6    0.80    0.70
  -4 -10  -6    2.10    0.80
   4  10   6    0.10    0.70
   4  10   6    0.50    0.60
   4  10   6    1.30    0.70
  -5 -10  -6    0.80    0.80
  -5 -10  -6    2.00    0.90
  -5 -10  -6    1.00    0.70
   5  10   6    1.00    0.60
   5  10   6   -0.20    0.80
  -6 -10  -6    0.10    0.70
  -6 -10  -6   -0.20    0.70
  -6 -10  -6   -0.90    0.60
   6  10   6   -0.80    0.80
   6  10   6    0.10    0.60
  -7 -10  -6    4.10    1.10
  -7 -10  -6    0.40    0.80
  -7 -10  -6    2.10    0.90
   7  10   6    0.40    0.90
   7  10   6    1.50    0.80
  -1 -11  -6    0.60    0.80
  -1 -11  -6    0.30    0.70
   1  11   6    0.50    0.80
   1  11   6    1.00    0.80
  -2 -11  -6    0.40    0.70
  -2 -11  -6    0.40    0.70
   2  11   6    0.20    0.70
   2  11   6   -0.20    0.60
  -3 -11  -6    0.00    0.70
  -3 -11  -6   -0.40    0.70
   3  11   6    0.30    0.70
   3  11   6   -0.30    0.60
  -4 -11  -6    5.00    0.90
  -4 -11  -6    4.70    1.00
  -4 -11  -6    3.90    1.10
   4  11   6    3.80    0.90
   4  11   6    5.20    1.00
   4  11   6    2.70    0.90
  -5 -11  -6    2.00    0.80
  -5 -11  -6    1.80    0.90
  -5 -11  -6    2.20    0.90
   5  11   6    1.50    1.00
   5  11   6    2.30    0.80
  -6 -11  -6    3.90    1.10
  -6 -11  -6    3.00    0.80
  -6 -11  -6    1.70    0.90
   6  11   6    0.20    0.90
   6  11   6    2.40    0.80
   3  11  -7   -0.50    0.80
   3  11  -7    0.10    0.90
  -3 -11   7   -0.10    0.80
   2  11  -7    0.30    0.80
  -2 -11   7   -0.10    0.70
   1  11  -7   -0.30    0.70
  -1 -11   7    1.20    0.90
   5  10  -7    1.80    1.00
   5  10  -7    3.50    1.20
  -5 -10   7    2.50    0.90
  -5 -10   7    4.00    1.10
   4  10  -7    0.40    0.90
   4  10  -7    0.90    0.90
  -4 -10   7    1.30    0.80
  -4 -10   7   -0.10    0.70
   3  10  -7    0.80    0.80
   3  10  -7    2.60    0.90
  -3 -10   7    3.90    1.00
   2  10  -7    1.30    0.80
  -2 -10   7   -0.10    0.70
   1  10  -7    2.40    0.90
  -1 -10   7    1.80    0.80
   0  10  -7    1.50    0.90
   0 -10   7    1.30    0.60
   0 -10   7    1.90    0.90
  -1  10  -7    0.30    0.80
   1 -10   7    0.90    0.70
   1 -10   7    0.80    0.90
  -2  10  -7   -0.10    0.80
   2 -10   7    3.40    1.00
   2 -10   7    1.10    0.90
   6   9  -7    0.60    0.90
   6   9  -7    3.10    1.00
  -6  -9   7    3.50    1.10
   5   9  -7    2.00    1.00
   5   9  -7    1.60    0.90
  -5  -9   7    2.10    0.80
  -5  -9   7    0.40    0.80
   4   9  -7    0.90    0.90
   4   9  -7    0.80    0.80
  -4  -9   7    2.10    0.80
  -4  -9   7    1.10    0.80
   3   9  -7    9.50    1.40
   3   9  -7   13.30    1.50
  -3  -9   7    9.70    1.20
  -3  -9   7   11.80    1.30
   2   9  -7    3.10    0.90
  -2  -9   7    4.40    1.00
  -2  -9   7    3.10    0.70
   1   9  -7    4.40    1.10
  -1  -9   7    5.00    0.80
  -1  -9   7    6.40    1.10
   0   9  -7   -0.20    0.70
   0  -9   7    0.80    0.70
   0  -9   7    0.10    0.50
  -1   9  -7    2.80    0.90
  -1   9  -7    3.50    0.80
   1  -9   7    3.80    0.80
   1  -9   7    3.80    1.00
  -2   9  -7    4.10    0.90
  -2   9  -7    5.80    1.10
   2  -9   7    3.40    0.90
   2  -9   7    4.60    1.10
  -3   9  -7    2.40    0.90
  -3   9  -7    1.20    0.80
   3  -9   7   -0.10    0.80
   3  -9   7    2.80    1.00
   7   8  -7    2.60    1.00
   7   8  -7    3.00    1.30
  -7  -8   7    3.30    1.10
   6   8  -7    0.60    0.70
   6   8  -7    1.60    0.90
  -6  -8   7    1.70    1.00
   5   8  -7    0.40    0.90
   5   8  -7    0.30    0.70
  -5  -8   7   -0.40    0.70
  -5  -8   7   -0.10    0.50
   4   8  -7   26.50    1.90
   4   8  -7   26.70    1.90
  -4  -8   7   27.30    1.80
  -4  -8   7   27.50    1.60
   3   8  -7    8.30    1.20
   3   8  -7    6.30    1.10
  -3  -8   7    6.90    1.00
  -3  -8   7    8.00    1.10
   2   8  -7    7.70    1.10
   2   8  -7    8.50    1.20
  -2  -8   7    8.70    1.00
  -2  -8   7    9.40    0.80
  -2  -8   7    8.70    1.10
   1   8  -7    4.60    0.90
   1   8  -7    5.30    0.70
   1   8  -7    5.70    1.00
   1   8  -7    5.20    0.70
  -1  -8   7    5.10    0.50
  -1  -8   7    5.50    0.80
  -1  -8   7    5.00    0.60
  -1  -8   7    4.70    0.90
   0   8  -7    4.10    0.90
   0   8  -7    4.70    0.60
   0   8  -7    4.00    0.70
   0   8  -7    5.80    1.00
   0   8  -7    6.10    0.60
   0  -8   7    4.90    0.70
   0  -8   7    5.50    0.60
   0  -8   7    4.10    0.90
  -1   8  -7    1.60    0.60
  -1   8  -7    1.80    0.50
  -1   8  -7    2.60    0.80
  -1   8  -7    3.20    0.50
   1  -8   7    3.20    0.50
   1  -8   7    1.80    0.70
   1  -8   7    3.00    0.80
   1  -8   7    2.90    0.50
  -2   8  -7   -1.10    0.50
  -2   8  -7   -0.10    0.40
  -2   8  -7   -1.20    0.50
   2  -8   7    0.40    0.30
   2  -8   7   -0.50    0.60
   2  -8   7   -0.30    0.30
   2  -8   7   -0.10    0.60
  -3   8  -7    0.60    0.50
  -3   8  -7   -0.80    0.60
  -3   8  -7   -0.30    0.60
   3  -8   7   -0.70    0.30
   3  -8   7    0.50    0.70
   3  -8   7    0.50    0.40
   3  -8   7    0.20    0.60
  -4   8  -7   -0.30    0.70
  -4   8  -7    0.40    0.50
   4  -8   7    0.00    0.50
   4  -8   7    0.70    0.80
   4  -8   7    0.50    0.40
   4  -8   7    0.90    0.70
   7   7  -7   12.30    1.70
   7   7  -7   10.70    1.40
  -7  -7   7   12.00    1.60
   6   7  -7   10.60    1.50
   6   7  -7    9.60    1.20
  -6  -7   7   10.40    1.50
   5   7  -7    4.20    1.10
   5   7  -7    3.50    0.90
  -5  -7   7    4.90    1.10
  -5  -7   7    3.00    0.90
  -5  -7   7    3.50    0.70
   4   7  -7   32.10    1.40
   4   7  -7   33.50    1.40
   4   7  -7   35.50    2.00
   4   7  -7   35.90    2.00
   4   7  -7   37.60    2.10
  -4  -7   7   37.70    2.00
  -4  -7   7   35.50    1.40
  -4  -7   7   36.90    1.80
   3   7  -7   29.30    1.80
   3   7  -7   27.00    1.10
   3   7  -7   27.50    1.70
   3   7  -7   28.00    1.10
   3   7  -7   29.00    1.80
  -3  -7   7   28.20    1.70
  -3  -7   7   27.70    1.50
  -3  -7   7   26.40    1.10
  -3  -7   7   26.40    1.10
   2   7  -7   43.20    1.50
   2   7  -7   48.30    2.30
   2   7  -7   43.30    2.10
  -2  -7   7   43.80    1.80
  -2  -7   7   47.80    1.50
  -2  -7   7   47.10    2.00
  -2  -7   7   48.20    1.50
  -2  -7   7   50.39    2.10
   1   7  -7    4.30    0.50
   1   7  -7    6.10    0.50
   1   7  -7    5.30    0.50
   1   7  -7    5.90    0.90
   1   7  -7    4.80    0.90
  -1  -7   7    5.30    0.50
  -1  -7   7    4.30    0.70
  -1  -7   7    5.80    0.50
  -1  -7   7    5.30    0.60
  -1  -7   7    5.30    0.90
   0   7  -7    3.30    0.40
   0   7  -7    3.50    0.60
   0   7  -7    2.40    0.70
   0   7  -7    3.20    0.70
   0   7  -7    3.60    0.40
   0  -7   7    3.50    0.40
   0  -7   7    3.50    0.70
   0  -7   7    2.90    0.50
   0  -7   7    3.40    0.60
  -1   7  -7    2.40    0.60
  -1   7  -7    0.80    0.60
  -1   7  -7    1.90    0.40
  -1   7  -7    1.70    0.70
   1  -7   7    2.00    0.40
   1  -7   7    2.70    0.40
   1  -7   7    2.30    0.60
   1  -7   7    2.10    0.70
  -2   7  -7    3.70    0.80
  -2   7  -7    2.40    0.60
  -2   7  -7    4.00    0.60
  -2   7  -7    3.70    0.80
   2  -7   7    3.90    0.50
   2  -7   7    4.30    0.50
   2  -7   7    5.50    0.90
   2  -7   7    3.20    0.70
  -3   7  -7    3.70    0.60
  -3   7  -7    4.70    0.90
   3  -7   7    5.10    0.90
   3  -7   7    3.00    0.80
   3  -7   7    4.50    0.60
   3  -7   7    4.60    0.60
  -4   7  -7    6.90    0.90
  -4   7  -7    9.80    1.00
  -4   7  -7    8.50    1.20
   4  -7   7    9.00    1.20
   4  -7   7    9.10    0.90
   4  -7   7   10.30    1.20
  -5   7  -7   13.60    1.60
  -5   7  -7   11.20    1.10
  -5   7  -7   11.20    1.20
   5  -7   7    9.90    1.30
   5  -7   7   13.70    1.10
   5  -7   7   13.90    1.40
   7   6  -7    2.30    1.20
   7   6  -7    1.40    0.90
  -7  -6   7    1.50    1.00
  -7  -6   7    1.40    0.70
   6   6  -7    4.80    1.20
   6   6  -7    4.00    0.90
   6   6  -7    3.70    0.70
  -6  -6   7    4.30    0.70
  -6  -6   7    6.10    1.10
  -6  -6   7    4.70    0.70
   5   6  -7   21.90    1.10
   5   6  -7   26.90    1.90
   5   6  -7   24.80    1.70
   5   6  -7   24.40    1.70
  -5  -6   7   23.40    1.30
  -5  -6   7   25.20    1.80
  -5  -6   7   23.10    1.20
  -5  -6   7   24.70    1.20
   4   6  -7    8.80    1.10
   4   6  -7    7.80    0.60
   4   6  -7    8.60    1.10
   4   6  -7    8.90    0.70
   4   6  -7    8.70    1.10
  -4  -6   7    8.20    0.70
  -4  -6   7    8.40    1.10
  -4  -6   7   10.70    1.00
   3   6  -7   19.90    1.40
   3   6  -7   20.30    0.80
   3   6  -7   21.70    1.50
   3   6  -7   20.20    0.90
   3   6  -7   21.00    1.40
  -3  -6   7   19.30    0.90
  -3  -6   7   21.60    1.40
  -3  -6   7   19.30    1.20
   2   6  -7   37.10    1.80
   2   6  -7   33.50    1.70
   2   6  -7   33.50    1.20
   2   6  -7   35.50    1.70
   2   6  -7   35.30    1.20
  -2  -6   7   34.00    1.70
  -2  -6   7   34.40    1.20
  -2  -6   7   36.40    1.60
  -2  -6   7   35.10    1.10
  -2  -6   7   34.30    1.10
   1   6  -7  122.59    3.90
   1   6  -7  114.89    3.20
   1   6  -7  112.59    3.10
   1   6  -7  114.89    3.80
  -1  -6   7  114.59    3.60
  -1  -6   7  120.49    3.00
  -1  -6   7  116.09    3.10
  -1  -6   7  117.79    3.60
  -1  -6   7  113.29    3.20
   0   6  -7    2.10    0.30
   0   6  -7    2.50    0.60
   0   6  -7    2.60    0.50
   0   6  -7    2.80    0.40
   0   6  -7    2.40    0.60
   0  -6   7    3.10    0.30
   0  -6   7    2.00    0.50
   0  -6   7    2.50    0.60
   0  -6   7    3.00    0.50
  -1   6  -7    0.80    0.30
  -1   6  -7    0.70    0.50
  -1   6  -7    0.50    0.40
  -1   6  -7    0.70    0.50
   1  -6   7    0.10    0.20
   1  -6   7    1.00    0.40
   1  -6   7    0.60    0.60
   1  -6   7    0.50    0.20
  -2   6  -7   23.70    1.40
  -2   6  -7   22.30    1.50
  -2   6  -7   22.10    1.00
   2  -6   7   23.90    1.00
   2  -6   7   24.50    1.00
   2  -6   7   21.60    0.90
   2  -6   7   23.60    1.20
   2  -6   7   24.10    1.40
  -3   6  -7   19.60    1.10
  -3   6  -7   23.20    1.50
  -3   6  -7   18.60    1.10
   3  -6   7   19.10    1.30
   3  -6   7   23.60    1.40
   3  -6   7   19.20    1.00
  -4   6  -7   55.29    2.20
  -4   6  -7   57.09    2.20
  -4   6  -7   65.29    2.70
   4  -6   7   54.19    2.00
   4  -6   7   59.69    2.40
   4  -6   7   66.79    2.50
  -5   6  -7   25.70    1.90
  -5   6  -7   23.30    1.50
  -5   6  -7   25.30    1.50
   5  -6   7   31.40    1.80
   5  -6   7   28.30    1.60
   5  -6   7   25.50    1.30
  -6   6  -7    7.10    1.00
  -6   6  -7    7.40    1.30
  -6   6  -7    7.90    1.10
   6  -6   7    8.50    0.90
   6  -6   7    7.80    1.20
   8   5  -7    3.50    1.50
  -8  -5   7    6.20    1.40
  -8  -5   7    3.60    1.10
   7   5  -7    1.80    1.10
   7   5  -7    3.00    0.60
   7   5  -7    1.10    0.90
  -7  -5   7    3.30    0.70
  -7  -5   7    2.80    0.60
  -7  -5   7    1.80    1.10
   6   5  -7    2.30    0.90
   6   5  -7    1.50    0.70
   6   5  -7    1.70    0.50
   6   5  -7    2.30    0.80
  -6  -5   7    2.90    0.60
  -6  -5   7    3.50    1.00
  -6  -5   7    3.10    0.60
   5   5  -7    3.40    0.70
   5   5  -7    2.70    0.50
   5   5  -7    4.10    0.80
   5   5  -7    3.10    0.90
  -5  -5   7    4.30    0.60
  -5  -5   7    3.80    0.90
  -5  -5   7    4.10    0.60
  -5  -5   7    4.50    0.70
   4   5  -7    2.20    0.70
   4   5  -7    2.20    0.60
   4   5  -7    2.80    0.40
   4   5  -7    1.80    0.60
  -4  -5   7    3.10    0.60
  -4  -5   7    2.50    0.40
  -4  -5   7    1.20    0.60
  -4  -5   7    2.90    0.40
   3   5  -7    3.70    0.40
   3   5  -7    2.70    0.60
   3   5  -7    4.50    0.70
   3   5  -7    4.20    0.40
   3   5  -7    3.50    0.70
  -3  -5   7    4.70    0.70
  -3  -5   7    3.30    0.70
  -3  -5   7    4.30    0.40
   2   5  -7  106.89    2.80
   2   5  -7  102.09    3.40
   2   5  -7  107.79    2.80
   2   5  -7  108.99    2.90
   2   5  -7  108.09    3.50
   2   5  -7  107.29    3.40
  -2  -5   7  106.59    2.80
  -2  -5   7  105.89    3.40
  -2  -5   7  106.49    3.30
  -2  -5   7  104.99    2.70
   1   5  -7    6.40    0.60
   1   5  -7    7.30    0.40
   1   5  -7    5.90    0.80
   1   5  -7    5.40    0.70
  -1  -5   7    6.80    0.40
  -1  -5   7    5.90    0.50
  -1  -5   7    6.40    0.80
  -1  -5   7    6.70    0.40
  -1  -5   7    7.50    0.90
   0   5  -7    6.40    0.80
   0   5  -7    7.40    0.40
   0   5  -7    6.50    0.60
   0   5  -7    6.20    0.80
   0   5  -7    7.40    0.40
   0  -5   7    9.20    0.90
   0  -5   7    6.60    0.70
   0  -5   7    7.80    0.40
   0  -5   7    8.90    0.60
  -1   5  -7    2.00    0.60
  -1   5  -7    2.90    0.50
  -1   5  -7    2.50    0.30
   1  -5   7    2.70    0.50
   1  -5   7    2.80    0.30
   1  -5   7    3.20    0.30
   1  -5   7    2.00    0.40
   1  -5   7    2.80    0.60
  -2   5  -7   34.20    1.30
  -2   5  -7   34.40    1.30
  -2   5  -7   37.60    1.60
   2  -5   7   34.20    1.30
   2  -5   7   34.30    1.60
   2  -5   7   34.90    1.20
   2  -5   7   35.10    1.50
  -3   5  -7    7.60    0.70
  -3   5  -7    8.20    0.70
  -3   5  -7    7.20    0.90
   3  -5   7    8.00    0.60
   3  -5   7    7.60    0.80
   3  -5   7    8.30    0.90
   3  -5   7    7.50    0.60
  -4   5  -7   68.19    2.30
  -4   5  -7   68.39    2.80
  -4   5  -7   65.19    2.30
   4  -5   7   65.29    2.10
   4  -5   7   66.99    2.50
   4  -5   7   62.49    2.10
   4  -5   7   66.59    2.50
  -5   5  -7   21.50    1.30
  -5   5  -7   26.60    1.80
  -5   5  -7   22.70    1.40
   5  -5   7   24.40    1.50
   5  -5   7   23.90    1.40
   5  -5   7   22.80    1.20
  -6   5  -7   13.40    1.20
  -6   5  -7   13.70    1.30
  -6   5  -7   11.50    1.40
   6  -5   7   10.60    1.30
   6  -5   7   12.70    1.00
   6  -5   7   11.70    1.10
  -7   5  -7    0.40    0.60
  -7   5  -7    1.40    1.00
  -7   5  -7    1.00    0.60
   7  -5   7    0.60    0.80
   7  -5   7    0.60    0.60
   7  -5   7    1.30    0.60
   8   4  -7   -1.00    0.50
   8   4  -7   -1.90    1.00
   8   4  -7   -0.60    0.50
  -8  -4   7    0.50    0.60
  -8  -4   7   -0.10    0.80
   7   4  -7   -1.90    0.80
   7   4  -7   -1.00    0.40
   7   4  -7   -0.60    0.40
  -7  -4   7   -1.90    0.80
  -7  -4   7   -0.50    0.40
  -7  -4   7   -0.20    0.40
   6   4  -7    0.60    0.90
   6   4  -7    0.70    0.60
   6   4  -7    2.40    0.50
   6   4  -7    0.90    0.70
  -6  -4   7    1.70    0.50
  -6  -4   7    3.10    0.60
  -6  -4   7    2.20    0.90
   5   4  -7    0.80    0.70
   5   4  -7    2.50    0.50
   5   4  -7    1.60    0.60
   5   4  -7    1.80    0.60
  -5  -4   7    2.10    0.50
  -5  -4   7    1.70    0.40
  -5  -4   7    2.10    0.50
  -5  -4   7    2.30    0.50
  -5  -4   7    1.80    0.70
   4   4  -7    5.00    0.80
   4   4  -7    4.60    0.70
   4   4  -7    4.90    0.50
   4   4  -7    4.30    0.70
  -4  -4   7    3.50    0.80
  -4  -4   7    5.20    0.50
  -4  -4   7    6.30    0.60
  -4  -4   7    5.20    0.50
  -4  -4   7    5.70    0.70
   3   4  -7   85.09    2.40
   3   4  -7   85.49    2.80
   3   4  -7   88.09    3.00
   3   4  -7   86.49    3.00
  -3  -4   7   84.49    2.70
  -3  -4   7   86.69    2.40
  -3  -4   7   88.09    2.40
  -3  -4   7   88.39    3.10
  -3  -4   7   87.49    2.70
   2   4  -7    5.50    0.70
   2   4  -7    6.00    0.80
   2   4  -7    6.60    0.40
   2   4  -7    6.60    0.80
   2   4  -7    6.40    0.40
   2   4  -7    5.70    0.50
   2   4  -7    6.20    0.40
   2   4  -7    6.40    0.40
  -2  -4   7    7.20    0.40
  -2  -4   7    6.50    0.70
  -2  -4   7    4.80    0.70
  -2  -4   7    6.10    0.70
   1   4  -7  285.97    7.40
   1   4  -7  272.57    7.00
   1   4  -7  272.87    6.60
   1   4  -7  279.47    7.30
   1   4  -7  273.97    6.70
   1   4  -7  282.17    6.60
  -1  -4   7  285.97    7.20
  -1  -4   7  287.47    6.70
  -1  -4   7  277.27    6.70
  -1  -4   7  270.67    6.80
  -1  -4   7  279.27    6.70
  -1  -4   7  262.47    7.30
   0   4  -7    2.10    0.20
   0   4  -7    2.50    0.40
   0   4  -7    1.00    0.40
   0   4  -7    2.20    0.20
   0   4  -7    2.50    0.20
   0   4  -7    1.60    0.50
   0   4  -7    2.20    0.20
   0  -4   7    2.50    0.40
   0  -4   7    2.40    0.20
   0  -4   7    1.90    0.50
   0  -4   7    2.50    0.20
   0  -4   7    1.40    0.50
   0  -4   7    1.40    0.40
  -1   4  -7   20.50    0.70
  -1   4  -7   19.40    1.30
  -1   4  -7   20.10    1.10
  -1   4  -7   21.20    0.70
   1  -4   7   22.40    0.80
   1  -4   7   20.20    1.00
   1  -4   7   21.40    1.10
   1  -4   7   21.20    0.80
   1  -4   7   19.60    0.90
   1  -4   7   21.40    0.70
   1  -4   7   20.80    0.70
   1  -4   7   21.00    1.10
  -2   4  -7  218.68    5.90
  -2   4  -7  214.08    5.50
  -2   4  -7  227.78    5.30
  -2   4  -7  219.58    5.30
  -2   4  -7  213.78    5.50
   2  -4   7  212.48    5.90
   2  -4   7  214.68    5.60
   2  -4   7  217.68    5.80
   2  -4   7  219.38    5.40
  -3   4  -7   15.80    0.80
  -3   4  -7   15.00    0.80
  -3   4  -7   14.90    1.10
   3  -4   7   16.00    0.70
   3  -4   7   14.60    1.00
   3  -4   7   15.00    1.00
   3  -4   7   15.20    0.80
  -4   4  -7    9.80    0.70
  -4   4  -7    9.30    1.00
  -4   4  -7   10.50    0.80
   4  -4   7    9.10    0.90
   4  -4   7   10.00    0.70
   4  -4   7   10.60    0.70
   4  -4   7   10.70    1.00
   4  -4   7   10.00    0.70
  -5   4  -7    1.70    0.80
  -5   4  -7    3.10    0.60
  -5   4  -7    1.50    0.50
   5  -4   7    2.40    0.70
   5  -4   7    2.70    0.50
   5  -4   7    1.50    0.40
   5  -4   7    2.40    0.60
   5  -4   7    2.10    0.50
  -6   4  -7    3.70    0.90
  -6   4  -7    5.00    0.80
   6  -4   7    4.90    0.80
   6  -4   7    4.50    0.90
   6  -4   7    4.80    0.70
   6  -4   7    4.00    0.70
  -7   4  -7    3.90    0.80
  -7   4  -7    3.60    1.00
   7  -4   7    4.80    1.00
   7  -4   7    5.10    0.70
   7  -4   7    4.30    0.70
  -8   4  -7    1.50    0.80
  -8   4  -7    0.00    0.90
   8  -4   7    0.80    0.70
   8   3  -7    1.00    1.20
   8   3  -7    3.40    0.70
   8   3  -7    3.00    0.70
  -8  -3   7    3.30    1.20
  -8  -3   7    2.80    0.80
   7   3  -7    3.10    0.70
   7   3  -7    2.10    0.60
   7   3  -7    2.20    1.10
  -7  -3   7    0.80    1.00
  -7  -3   7    3.70    0.70
   6   3  -7    1.40    0.50
   6   3  -7   -0.30    0.60
   6   3  -7    1.90    0.50
   6   3  -7    0.20    0.60
   6   3  -7    0.60    0.80
  -6  -3   7    0.10    0.70
  -6  -3   7    1.60    0.50
  -6  -3   7    0.70    0.40
   5   3  -7   27.90    1.80
   5   3  -7   25.70    1.50
   5   3  -7   24.90    1.10
   5   3  -7   26.70    1.40
  -5  -3   7   26.10    1.20
  -5  -3   7   27.20    1.70
  -5  -3   7   26.10    1.20
  -5  -3   7   24.70    1.20
   4   3  -7  144.69    3.90
   4   3  -7  145.79    4.20
   4   3  -7  152.88    4.40
   4   3  -7  150.58    4.60
  -4  -3   7  147.89    4.60
  -4  -3   7  144.89    4.10
  -4  -3   7  142.19    4.00
  -4  -3   7  149.59    4.00
  -4  -3   7  148.89    4.00
   3   3  -7  161.58    4.80
   3   3  -7  174.88    4.70
   3   3  -7  165.28    4.30
   3   3  -7  168.98    4.80
  -3  -3   7  165.38    4.30
  -3  -3   7  163.58    4.60
  -3  -3   7  168.18    4.50
  -3  -3   7  168.08    4.90
  -3  -3   7  174.58    5.00
  -3  -3   7  166.78    4.30
   2   3  -7  104.29    3.20
   2   3  -7  105.49    3.10
   2   3  -7  103.29    2.70
   2   3  -7  107.69    2.70
   2   3  -7  102.79    3.20
  -2  -3   7   98.59    3.30
  -2  -3   7  106.89    2.70
  -2  -3   7  101.59    3.10
  -2  -3   7  106.49    2.70
  -2  -3   7  102.39    3.00
  -2  -3   7  105.69    2.70
  -2  -3   7  106.49    2.70
  -2  -3   7  106.99    3.20
   1   3  -7    8.20    0.80
   1   3  -7    5.80    0.60
   1   3  -7    5.70    0.20
   1   3  -7    5.90    0.30
   1   3  -7    5.30    0.60
  -1  -3   7    6.10    0.70
  -1  -3   7    5.60    0.60
  -1  -3   7    6.10    0.40
  -1  -3   7    5.20    0.70
  -1  -3   7    5.90    0.30
  -1  -3   7    5.70    0.20
  -1  -3   7    6.10    0.30
   0   3  -7    3.10    0.40
   0   3  -7    3.70    0.50
   0  -3   7    2.90    0.50
   0  -3   7    2.70    0.50
   0  -3   7    2.90    0.40
   0  -3   7    3.70    0.50
   0  -3   7    3.80    0.60
  -1   3  -7  103.79    2.60
  -1   3  -7  102.99    2.60
  -1   3  -7  105.89    2.60
  -1   3  -7  101.19    3.00
   1  -3   7  108.79    2.60
   1  -3   7  106.49    2.60
   1  -3   7  100.19    2.90
   1  -3   7  106.29    2.60
   1  -3   7   99.49    2.90
   1  -3   7  102.19    3.10
   1  -3   7   94.89    3.00
   1  -3   7  106.79    2.60
  -2   3  -7   97.59    3.00
  -2   3  -7   94.99    2.50
  -2   3  -7   95.39    2.50
  -2   3  -7   97.99    2.50
   2  -3   7   93.59    2.70
   2  -3   7   95.89    2.80
   2  -3   7   92.69    2.90
   2  -3   7   97.29    2.50
  -3   3  -7   59.99    2.20
  -3   3  -7   62.49    1.90
   3  -3   7   62.19    1.80
   3  -3   7   59.99    2.10
   3  -3   7   60.59    2.00
   3  -3   7   62.19    1.80
   3  -3   7   61.69    2.10
  -4   3  -7    3.70    0.70
  -4   3  -7    4.00    0.50
   4  -3   7    3.80    0.50
   4  -3   7    3.70    0.40
   4  -3   7    4.60    0.70
   4  -3   7    4.00    0.50
   4  -3   7    4.20    0.70
  -5   3  -7   31.20    1.40
  -5   3  -7   29.80    1.70
   5  -3   7   31.00    1.60
   5  -3   7   31.00    1.30
   5  -3   7   31.60    1.30
   5  -3   7   30.80    1.30
   5  -3   7   30.30    1.40
  -6   3  -7    8.00    1.20
  -6   3  -7    8.00    0.90
   6  -3   7    8.00    1.00
   6  -3   7    7.50    0.80
   6  -3   7    7.50    0.80
   6  -3   7    8.50    0.90
  -7   3  -7    1.90    1.00
  -7   3  -7    4.60    0.90
   7  -3   7    3.50    0.70
   7  -3   7    3.20    0.80
   7  -3   7    3.80    0.70
   7  -3   7    2.30    0.60
  -8   3  -7    5.30    1.00
  -8   3  -7    4.60    1.20
   8  -3   7    6.30    1.10
   8  -3   7    6.20    1.00
   8  -3   7    6.00    0.90
   8   2  -7    1.80    1.30
   8   2  -7    2.80    0.70
   8   2  -7    2.60    0.70
  -8  -2   7    3.60    1.20
  -8  -2   7    4.00    0.90
   7   2  -7    4.30    0.80
   7   2  -7    2.50    0.60
   7   2  -7    2.30    1.20
  -7  -2   7    3.80    1.10
  -7  -2   7    5.00    0.80
   6   2  -7    4.90    0.70
   6   2  -7    2.00    0.80
   6   2  -7    3.70    1.00
   6   2  -7    4.10    0.70
  -6  -2   7    3.80    0.90
  -6  -2   7    3.80    0.70
   5   2  -7    4.60    0.60
   5   2  -7    3.70    0.90
   5   2  -7    4.40    0.60
   5   2  -7    3.50    0.70
   5   2  -7    4.50    0.60
  -5  -2   7    5.70    0.70
  -5  -2   7    5.00    0.70
  -5  -2   7    5.00    1.00
   4   2  -7   33.80    1.20
   4   2  -7   32.30    1.30
   4   2  -7   31.60    1.70
   4   2  -7   34.30    1.60
   4   2  -7   32.70    1.20
  -4  -2   7   32.90    1.30
  -4  -2   7   31.90    1.70
  -4  -2   7   31.00    1.30
   3   2  -7   87.59    2.40
   3   2  -7   85.79    2.20
   3   2  -7   86.69    2.60
   3   2  -7   86.79    2.70
   3   2  -7   89.09    2.40
   3   2  -7   87.29    2.90
  -3  -2   7   86.79    2.50
  -3  -2   7   91.69    2.70
  -3  -2   7   86.89    2.50
  -3  -2   7   91.69    3.00
  -3  -2   7   84.79    2.70
   2   2  -7  263.07    6.40
   2   2  -7  264.17    6.50
   2   2  -7  263.57    6.90
   2   2  -7  260.97    6.70
   2   2  -7  267.67    6.40
   2   2  -7  260.07    6.40
   2   2  -7  267.17    7.00
   2   2  -7  267.87    6.40
  -2  -2   7  259.77    6.80
  -2  -2   7  270.97    6.80
  -2  -2   7  275.97    6.50
  -2  -2   7  257.87    6.40
  -2  -2   7  251.57    7.00
  -2  -2   7  262.97    6.70
   1   2  -7    2.70    0.20
   1   2  -7    2.80    0.50
   1   2  -7    3.10    0.40
   1   2  -7    2.60    0.20
   1   2  -7    3.60    0.30
   1   2  -7    2.10    0.40
   1   2  -7    2.50    0.20
  -1  -2   7    2.50    0.40
  -1  -2   7    2.70    0.20
  -1  -2   7    2.50    0.20
  -1  -2   7    2.70    0.40
  -1  -2   7    2.60    0.20
  -1  -2   7    2.30    0.50
  -1  -2   7    2.90    0.50
   0   2  -7  197.48    5.20
   0  -2   7  197.58    5.10
   0  -2   7  197.78    5.30
   0  -2   7  197.08    4.90
   0  -2   7  192.58    5.20
   0  -2   7  197.68    5.20
  -1   2  -7  201.48    4.90
  -1   2  -7  204.58    4.90
  -1   2  -7  202.38    5.40
   1  -2   7  199.48    5.40
   1  -2   7  199.68    5.50
   1  -2   7  210.48    4.90
   1  -2   7  204.38    5.20
   1  -2   7  211.28    4.90
   1  -2   7  211.58    5.40
   1  -2   7  199.38    5.30
   1  -2   7  214.08    4.90
  -2   2  -7    1.00    0.20
  -2   2  -7    1.40    0.20
  -2   2  -7    1.00    0.20
  -2   2  -7    1.00    0.30
  -2   2  -7    1.10    0.20
   2  -2   7    1.30    0.40
   2  -2   7    1.00    0.20
   2  -2   7    0.40    0.20
   2  -2   7    1.20    0.20
   2  -2   7    1.10    0.20
   2  -2   7    1.30    0.40
  -3   2  -7  261.47    6.90
  -3   2  -7  258.77    6.30
  -3   2  -7  253.07    6.50
   3  -2   7  261.47    6.80
   3  -2   7  253.57    6.80
   3  -2   7  259.37    6.70
   3  -2   7  269.57    6.40
   3  -2   7  271.37    6.50
  -4   2  -7   78.49    2.70
  -4   2  -7   77.69    2.40
   4  -2   7   77.19    2.50
   4  -2   7   80.49    2.60
   4  -2   7   78.79    2.30
   4  -2   7   75.49    2.20
   4  -2   7   77.29    2.40
  -5   2  -7   88.09    2.80
  -5   2  -7   93.69    3.20
   5  -2   7   90.99    3.00
   5  -2   7   91.49    2.70
   5  -2   7   88.89    2.70
   5  -2   7   97.69    2.80
  -6   2  -7   10.60    0.90
  -6   2  -7    9.70    1.10
   6  -2   7   11.20    1.10
   6  -2   7   11.80    0.80
   6  -2   7   11.30    0.80
  -7   2  -7    7.90    0.90
  -7   2  -7    8.90    1.20
   7  -2   7    9.00    1.10
   7  -2   7    8.60    0.90
   7  -2   7   10.10    1.00
  -8   2  -7    2.20    0.90
  -8   2  -7    1.30    0.70
   8  -2   7    0.10    0.60
   8  -2   7    1.50    0.80
   8  -2   7   -0.30    0.40
  -8  -1   7    0.70    0.80
   7   1  -7   10.40    1.10
   7   1  -7   11.00    1.60
   7   1  -7   12.00    1.20
  -7  -1   7   10.90    1.40
  -7  -1   7   12.00    1.20
   6   1  -7    9.90    0.90
   6   1  -7   10.30    0.90
   6   1  -7   10.30    1.40
  -6  -1   7    9.70    1.30
  -6  -1   7   11.20    1.10
   5   1  -7   35.40    1.50
   5   1  -7   38.90    1.80
   5   1  -7   37.30    1.50
   5   1  -7   40.30    2.20
  -5  -1   7   34.50    1.50
  -5  -1   7   39.90    1.60
  -5  -1   7   43.80    2.10
   4   1  -7   25.30    1.60
   4   1  -7   25.10    1.00
   4   1  -7   23.70    1.20
   4   1  -7   25.80    1.10
   4   1  -7   24.60    1.10
   4   1  -7   26.00    0.90
  -4  -1   7   25.80    1.20
  -4  -1   7   23.90    1.10
  -4  -1   7   24.20    1.40
  -4  -1   7   26.00    1.20
   3   1  -7   98.79    2.70
   3   1  -7  101.99    3.20
   3   1  -7  100.49    2.90
   3   1  -7   97.89    2.70
   3   1  -7   99.39    2.70
  -3  -1   7   95.09    3.20
  -3  -1   7   96.99    2.90
  -3  -1   7   99.39    2.80
  -3  -1   7  100.89    2.90
   2   1  -7    9.90    0.60
   2   1  -7   10.90    0.90
   2   1  -7   11.40    0.70
   2   1  -7   10.90    0.50
   2   1  -7    9.80    0.50
  -2  -1   7   11.80    0.90
  -2  -1   7   10.30    0.70
  -2  -1   7   11.20    0.50
  -2  -1   7   11.10    0.70
   1   1  -7   21.60    0.90
   1   1  -7   20.20    1.00
   1   1  -7   22.20    0.70
   1   1  -7   20.50    0.90
   1   1  -7   22.60    0.70
  -1  -1   7   22.70    1.00
  -1  -1   7   23.20    0.70
  -1  -1   7   22.40    1.00
  -1  -1   7   22.50    0.70
  -1  -1   7   22.50    0.70
  -1  -1   7   21.80    1.00
  -1  -1   7   22.50    0.70
  -1  -1   7   22.50    1.10
   0   1  -7   58.19    1.80
   0   1  -7   60.09    1.90
   0  -1   7   62.29    1.90
   0  -1   7   60.99    1.90
   0  -1   7   60.69    2.00
   0  -1   7   58.29    1.90
  -1   1  -7  400.96    9.90
  -1   1  -7  411.16    9.60
  -1   1  -7  401.46    9.60
   1  -1   7  398.56   10.20
   1  -1   7  405.56   10.10
   1  -1   7  403.16   10.10
   1  -1   7  414.86    9.60
   1  -1   7  406.56    9.60
   1  -1   7  404.76    9.90
   1  -1   7  419.76    9.60
  -2   1  -7  209.88    5.20
  -2   1  -7  209.08    5.60
  -2   1  -7  216.08    5.10
  -2   1  -7  207.78    5.30
  -2   1  -7  207.28    5.10
   2  -1   7  205.28    5.40
   2  -1   7  205.18    5.50
   2  -1   7  213.28    5.10
   2  -1   7  216.98    5.20
   2  -1   7  212.38    5.50
   2  -1   7  219.08    5.10
   2  -1   7  205.38    5.40
  -3   1  -7  104.39    2.90
  -3   1  -7  106.49    3.20
  -3   1  -7  103.89    2.90
  -3   1  -7  110.39    2.80
   3  -1   7  111.79    3.10
   3  -1   7  107.69    3.10
   3  -1   7  113.19    2.80
   3  -1   7  104.49    3.00
  -4   1  -7  415.06   10.40
  -4   1  -7  425.26   10.20
  -4   1  -7  435.26   10.80
  -4   1  -7  425.56   10.40
   4  -1   7  415.16   10.30
   4  -1   7  431.66   10.50
   4  -1   7  417.86   10.60
  -5   1  -7  111.79    3.50
  -5   1  -7  106.09    3.20
  -5   1  -7  108.09    3.20
   5  -1   7  106.29    3.10
   5  -1   7  110.49    3.40
  -6   1  -7    6.40    0.80
  -6   1  -7    6.30    0.80
  -6   1  -7    6.60    0.90
   6  -1   7    5.70    0.70
   6  -1   7    5.80    0.80
  -7   1  -7    0.90    0.70
  -7   1  -7    0.70    0.60
  -7   1  -7    0.50    0.60
   7  -1   7    1.50    0.60
   7  -1   7    1.00    0.50
   7  -1   7    0.10    0.60
   7  -1   7    0.70    0.50
  -8   1  -7    0.20    0.70
  -8   1  -7    0.30    0.60
  -8   1  -7    0.90    0.70
   8  -1   7    0.90    0.70
   8  -1   7   -0.50    0.50
   8  -1   7   -0.50    0.70
   8  -1   7    0.10    0.50
  -9   1  -7   -0.40    0.60
  -9   1  -7    1.70    0.90
   9  -1   7    0.60    0.80
   9  -1   7    0.10    0.50
   9  -1   7   -0.80    0.50
   7   0  -7    3.00    0.80
   7   0  -7    2.50    0.80
   7   0  -7    2.50    1.10
  -7   0   7    2.40    0.80
  -7   0   7    3.00    0.90
   6   0  -7    0.50    0.50
   6   0  -7   -0.30    0.80
   6   0  -7    0.20    0.60
  -6   0   7    0.40    0.60
  -6   0   7    0.00    0.60
   5   0  -7   37.10    1.50
   5   0  -7   38.10    2.10
   5   0  -7   37.00    1.60
  -5   0   7   35.40    1.60
  -5   0   7   39.10    2.00
  -5   0   7   37.10    1.60
   4   0  -7   -0.20    0.30
   4   0  -7   -0.60    0.60
   4   0  -7    0.80    0.30
   4   0  -7   -0.10    0.40
   4   0  -7   -0.10    0.20
  -4   0   7   -0.30    0.30
  -4   0   7   -0.40    0.20
  -4   0   7    0.40    0.40
  -4   0   7    0.40    0.40
   3   0  -7   56.69    1.70
   3   0  -7   56.59    1.70
   3   0  -7   54.19    2.10
   3   0  -7   53.79    1.80
   3   0  -7   55.69    1.60
  -3   0   7   51.89    2.10
  -3   0   7   56.79    1.80
  -3   0   7   54.29    1.80
  -3   0   7   52.19    1.90
   2   0  -7  124.19    3.60
   2   0  -7  126.19    3.20
   2   0  -7  128.49    3.40
   2   0  -7  128.49    3.30
   2   0  -7  127.19    3.30
  -2   0   7  123.29    3.60
  -2   0   7  131.59    3.30
  -2   0   7  126.89    3.40
  -2   0   7  126.89    3.70
  -2   0   7  129.59    3.40
   1   0  -7   48.30    1.40
   1   0  -7   42.30    1.30
   1   0  -7   48.60    1.40
   1   0  -7   44.70    1.40
   1   0  -7   44.40    1.50
   1   0  -7   47.00    1.30
  -1   0   7   45.70    1.30
  -1   0   7   44.60    1.60
  -1   0   7   44.60    1.70
  -1   0   7   46.40    1.60
  -1   0   7   45.30    1.30
   0   0  -7   75.39    1.90
   0   0  -7   73.09    2.20
   0   0  -7   74.79    1.90
   0   0  -7   75.39    2.20
   0   0  -7   77.79    2.00
   0   0  -7   71.99    2.10
   0   0   7   76.29    2.30
   0   0   7   80.39    1.90
   0   0   7   74.99    2.20
   0   0   7   71.19    2.40
   0   0   7   75.69    1.90
   0   0   7   81.29    1.90
  -1   0  -7  377.46    8.80
  -1   0  -7  370.86    8.80
  -1   0  -7  364.86    8.80
  -1   0  -7  360.36    8.80
  -1   0  -7  354.66    9.00
   1   0   7  357.46    9.20
   1   0   7  368.16    8.80
   1   0   7  386.66    8.80
   1   0   7  351.86    9.10
   1   0   7  383.96    8.80
  -2   0  -7   33.10    1.00
  -2   0  -7   31.20    1.10
  -2   0  -7   32.60    1.00
  -2   0  -7   33.10    1.00
  -2   0  -7   34.70    1.10
   2   0   7   30.20    1.20
   2   0   7   34.00    1.00
   2   0   7   29.80    1.20
   2   0   7   32.30    1.20
   2   0   7   32.70    1.00
   2   0   7   34.30    1.00
  -3   0  -7  507.45   13.10
  -3   0  -7  536.65   12.80
  -3   0  -7  528.75   12.80
   3   0   7  548.15   12.80
   3   0   7  525.95   13.00
   3   0   7  542.05   13.00
   3   0   7  513.95   13.00
   3   0   7  544.75   12.80
  -4   0  -7  188.78    4.90
  -4   0  -7  187.98    5.00
  -4   0  -7  187.18    5.30
  -4   0  -7  199.88    5.00
   4   0   7  195.18    5.20
   4   0   7  199.98    4.90
  -5   0  -7  219.78    5.60
  -5   0  -7  227.58    5.80
  -5   0  -7  225.08    6.10
  -5   0  -7  220.88    5.80
   5   0   7  205.78    5.90
   5   0   7  220.38    5.90
   5   0   7  226.08    5.70
  -6   0  -7   56.29    2.00
  -6   0  -7   49.30    1.90
  -6   0  -7   50.69    2.10
   6   0   7   49.99    2.00
   6   0   7   49.40    1.80
   6   0   7   51.79    2.10
  -7   0  -7   20.70    1.30
  -7   0  -7   21.20    1.30
  -7   0  -7   18.90    1.40
   7   0   7   19.20    1.30
   7   0   7   21.60    1.40
   7   0   7   20.70    1.20
  -8   0  -7    9.80    1.10
  -8   0  -7    9.60    1.30
  -8   0  -7   10.70    1.20
   8   0   7    9.10    1.10
   8   0   7    9.40    1.20
   8   0   7   10.60    1.10
  -9   0  -7   31.50    2.10
  -9   0  -7   30.00    1.90
  -9   0  -7   31.80    1.90
   9   0   7   28.60    1.60
   9   0   7   29.30    1.70
   9   0   7   29.80    1.90
   9   0   7   32.00    1.90
   7  -1  -7    8.00    1.40
   7  -1  -7    7.60    1.10
   7  -1  -7    7.40    1.00
  -7   1   7    8.80    1.20
  -7   1   7    7.60    1.20
  -7   1   7    6.90    1.00
   6  -1  -7   18.20    1.70
   6  -1  -7   16.60    1.20
   6  -1  -7   17.20    1.20
  -6   1   7   16.60    1.30
  -6   1   7   19.10    1.50
  -6   1   7   16.10    1.20
  -6   1   7   16.90    1.20
   5  -1  -7    7.20    1.10
   5  -1  -7    7.90    0.90
   5  -1  -7    7.30    0.80
   5  -1  -7    7.70    0.80
  -5   1   7    6.70    0.80
  -5   1   7    7.10    0.80
  -5   1   7    8.70    1.00
  -5   1   7    9.50    0.90
   4  -1  -7    1.20    0.70
   4  -1  -7    2.40    0.50
   4  -1  -7    1.40    0.40
  -4   1   7    1.70    0.40
  -4   1   7    1.40    0.50
  -4   1   7    0.60    0.50
  -4   1   7    1.00    0.60
   3  -1  -7    4.40    0.50
   3  -1  -7    4.10    0.50
   3  -1  -7    3.60    0.80
  -3   1   7    4.90    0.50
  -3   1   7    3.30    0.60
  -3   1   7    3.60    0.60
  -3   1   7    3.90    0.40
  -3   1   7    3.90    0.50
   2  -1  -7   50.29    1.50
   2  -1  -7   47.80    1.40
   2  -1  -7   49.00    1.80
  -2   1   7   49.99    1.40
  -2   1   7   49.60    1.60
  -2   1   7   46.70    1.80
  -2   1   7   49.70    1.60
   1  -1  -7    4.30    0.50
   1  -1  -7    4.10    0.40
   1  -1  -7    4.30    0.30
   1  -1  -7    5.30    0.50
  -1   1   7    3.20    0.50
  -1   1   7    3.40    0.50
  -1   1   7    5.10    0.40
  -1   1   7    3.70    0.50
  -1   1   7    4.00    0.40
   0  -1  -7   19.10    0.90
   0  -1  -7   19.50    0.80
   0  -1  -7   19.40    0.70
   0  -1  -7   20.90    0.70
   0  -1  -7   18.40    0.70
   0  -1  -7   19.30    0.60
   0   1   7   19.30    0.70
   0   1   7   19.80    0.90
   0   1   7   19.70    1.00
   0   1   7   19.70    1.00
  -1  -1  -7    4.30    0.40
  -1  -1  -7    3.70    0.30
  -1  -1  -7    4.60    0.30
  -1  -1  -7    4.10    0.30
  -1  -1  -7    4.60    0.30
  -1  -1  -7    4.20    0.50
   1   1   7    4.40    0.50
   1   1   7    3.80    0.50
   1   1   7    4.50    0.30
   1   1   7    4.30    0.30
   1   1   7    4.10    0.30
   1   1   7    4.10    0.30
  -2  -1  -7  753.72   18.00
  -2  -1  -7  747.83   18.20
  -2  -1  -7  785.22   17.90
  -2  -1  -7  781.12   18.20
  -2  -1  -7  741.53   18.00
   2   1   7  742.23   18.30
   2   1   7  721.13   18.20
   2   1   7  773.82   18.00
  -3  -1  -7  235.88    5.80
  -3  -1  -7  232.48    5.80
  -3  -1  -7  234.48    5.80
  -3  -1  -7  228.58    5.90
  -3  -1  -7  231.78    6.10
   3   1   7  230.18    6.00
   3   1   7  236.58    5.80
   3   1   7  223.38    6.00
   3   1   7  233.98    5.80
   3   1   7  233.18    6.00
  -4  -1  -7  232.68    6.00
  -4  -1  -7  228.38    5.90
  -4  -1  -7  223.08    6.20
  -4  -1  -7  240.58    6.30
   4   1   7  235.88    5.90
   4   1   7  231.88    6.10
   4   1   7  237.28    5.90
   4   1   7  238.18    6.00
  -5  -1  -7   72.79    2.30
  -5  -1  -7   71.79    2.20
  -5  -1  -7   73.89    2.50
  -5  -1  -7   76.79    2.30
   5   1   7   72.29    2.20
   5   1   7   71.99    2.40
   5   1   7   71.49    2.20
   5   1   7   72.89    2.30
  -6  -1  -7   41.10    1.70
  -6  -1  -7   43.70    1.50
  -6  -1  -7   44.10    1.70
  -6  -1  -7   43.50    1.90
   6   1   7   43.30    1.80
   6   1   7   39.30    1.60
   6   1   7   42.00    1.70
  -7  -1  -7    0.80    0.50
  -7  -1  -7    0.80    0.50
  -7  -1  -7   -0.10    0.50
   7   1   7    1.10    0.50
   7   1   7    1.00    0.50
   7   1   7    0.40    0.50
  -8  -1  -7   -0.60    0.50
  -8  -1  -7    0.00    0.50
  -8  -1  -7    0.30    0.60
   8   1   7    0.60    0.50
   8   1   7    1.00    0.60
   8   1   7    0.00    0.50
  -9  -1  -7    2.90    0.90
  -9  -1  -7    2.70    0.90
  -9  -1  -7    3.40    0.80
   9   1   7    2.60    0.80
   9   1   7    4.40    0.90
   9   1   7    4.50    1.00
   7  -2  -7    6.90    1.00
   7  -2  -7    5.30    0.90
   7  -2  -7    6.90    1.30
  -7   2   7    5.60    1.00
  -7   2   7    6.60    1.10
   6  -2  -7    2.50    1.00
   6  -2  -7    1.70    0.70
   6  -2  -7    2.40    0.80
   6  -2  -7    1.70    0.60
  -6   2   7    2.20    0.80
  -6   2   7    2.00    0.70
  -6   2   7    2.90    0.70
   5  -2  -7    0.80    0.50
   5  -2  -7   -0.30    0.50
   5  -2  -7    0.60    0.50
   5  -2  -7    0.90    0.80
  -5   2   7    0.70    0.50
  -5   2   7    0.40    0.50
  -5   2   7    0.10    0.50
  -5   2   7    1.70    0.60
   4  -2  -7   17.60    1.30
   4  -2  -7   17.10    1.10
   4  -2  -7   18.80    1.10
   4  -2  -7   18.90    1.00
  -4   2   7   18.20    1.20
  -4   2   7   18.60    1.20
  -4   2   7   17.80    1.10
  -4   2   7   20.20    1.20
   3  -2  -7   42.30    1.80
   3  -2  -7   40.90    1.50
   3  -2  -7   40.80    1.70
  -3   2   7   41.10    1.30
  -3   2   7   41.70    1.60
  -3   2   7   39.30    1.50
  -3   2   7   37.90    1.70
   2  -2  -7    8.60    0.80
   2  -2  -7    9.30    0.60
   2  -2  -7   10.40    0.80
  -2   2   7    9.10    0.70
  -2   2   7   10.10    0.70
  -2   2   7   10.30    0.80
   1  -2  -7  198.48    5.00
   1  -2  -7  197.98    5.20
   1  -2  -7  190.78    5.10
  -1   2   7  195.48    5.10
  -1   2   7  198.68    5.00
  -1   2   7  192.28    5.10
  -1   2   7  191.98    5.20
   0  -2  -7   43.10    1.30
   0  -2  -7   42.80    1.40
   0  -2  -7   42.40    1.30
   0  -2  -7   43.10    1.60
   0  -2  -7   44.60    1.10
   0   2   7   45.00    1.30
   0   2   7   44.00    1.40
   0   2   7   44.60    1.60
   0   2   7   42.90    1.60
   0   2   7   42.80    1.40
  -1  -2  -7  103.29    2.80
  -1  -2  -7  104.59    2.70
  -1  -2  -7  104.69    2.60
  -1  -2  -7  106.09    3.00
  -1  -2  -7  104.29    2.80
  -1  -2  -7  110.39    2.80
   1   2   7  107.79    2.80
   1   2   7  107.69    2.90
   1   2   7  105.39    2.80
   1   2   7   99.69    3.00
  -2  -2  -7  788.72   19.00
  -2  -2  -7  793.92   19.10
  -2  -2  -7  770.62   18.90
  -2  -2  -7  805.22   19.00
   2   2   7  785.52   19.10
   2   2   7  784.12   19.20
   2   2   7  813.62   19.00
   2   2   7  807.32   19.00
  -3  -2  -7  195.28    5.00
  -3  -2  -7  187.18    5.10
  -3  -2  -7  198.98    4.80
  -3  -2  -7  194.88    5.20
  -3  -2  -7  192.78    5.00
   3   2   7  197.88    5.10
   3   2   7  197.68    5.00
  -4  -2  -7  359.16    9.20
  -4  -2  -7  355.76    9.30
  -4  -2  -7  370.06    9.40
  -4  -2  -7  367.86    9.10
  -4  -2  -7  371.06    9.10
   4   2   7  369.36    9.00
   4   2   7  374.26    9.10
   4   2   7  375.16    9.10
   4   2   7  363.46    9.10
   4   2   7  369.56    9.30
  -5  -2  -7   78.09    2.60
  -5  -2  -7   76.29    2.40
  -5  -2  -7   76.49    2.40
   5   2   7   79.09    2.30
   5   2   7   81.29    2.40
   5   2   7   77.99    2.40
   5   2   7   81.59    2.60
   5   2   7   79.89    2.40
  -6  -2  -7   34.50    1.50
  -6  -2  -7   30.20    1.40
  -6  -2  -7   35.50    1.60
   6   2   7   35.00    1.40
   6   2   7   32.60    1.50
   6   2   7   33.50    1.40
   6   2   7   31.50    1.40
  -7  -2  -7    0.20    0.50
  -7  -2  -7   -0.10    0.40
  -7  -2  -7    1.40    0.60
  -7  -2  -7    0.70    0.40
   7   2   7    1.00    0.50
   7   2   7    0.00    0.40
   7   2   7   -0.20    0.50
  -8  -2  -7   10.30    1.10
  -8  -2  -7    8.50    1.00
  -8  -2  -7    8.90    1.10
   8   2   7   10.80    1.10
   8   2   7   11.10    1.10
   8   2   7    9.70    1.00
  -9  -2  -7    3.80    0.90
  -9  -2  -7    4.30    0.90
  -9  -2  -7    3.00    0.90
   9   2   7    3.60    0.90
   9   2   7    4.60    0.90
   9   2   7    4.60    0.90
   6  -3  -7    1.10    0.60
   6  -3  -7    1.60    0.80
   6  -3  -7    0.30    0.60
  -6   3   7    0.40    0.70
  -6   3   7    0.40    0.60
  -6   3   7    1.20    0.70
   5  -3  -7   12.00    1.10
   5  -3  -7   12.60    1.40
   5  -3  -7   13.50    1.20
  -5   3   7   13.90    1.20
  -5   3   7   14.10    1.30
   4  -3  -7   73.69    2.50
   4  -3  -7   76.39    2.90
   4  -3  -7   76.49    2.70
  -4   3   7   70.09    2.60
  -4   3   7   76.49    2.70
  -4   3   7   76.19    2.60
   3  -3  -7   25.10    1.40
   3  -3  -7   26.00    1.40
   3  -3  -7   25.70    1.20
  -3   3   7   23.80    1.30
  -3   3   7   24.40    1.20
  -3   3   7   23.90    1.30
   2  -3  -7   61.09    2.00
   2  -3  -7   59.39    2.10
   2  -3  -7   60.89    2.10
  -2   3   7   60.29    2.10
  -2   3   7   61.09    2.00
  -2   3   7   61.39    2.10
   1  -3  -7   27.30    1.10
   1  -3  -7   26.30    1.20
   1  -3  -7   27.90    1.20
   1  -3  -7   27.10    1.10
  -1   3   7   27.40    1.20
  -1   3   7   28.80    1.20
  -1   3   7   27.90    1.20
  -1   3   7   28.80    1.10
   0  -3  -7   35.60    1.30
   0  -3  -7   36.20    1.50
   0  -3  -7   37.70    1.30
   0  -3  -7   37.80    1.20
   0   3   7   40.20    1.30
   0   3   7   39.30    1.20
   0   3   7   41.30    1.40
  -1  -3  -7   93.19    2.80
  -1  -3  -7   98.39    2.60
  -1  -3  -7   95.59    2.70
  -1  -3  -7   94.19    2.40
  -1  -3  -7   99.09    2.70
   1   3   7   96.99    2.70
   1   3   7   94.69    2.70
   1   3   7  100.49    2.70
  -2  -3  -7   99.89    2.80
  -2  -3  -7  103.19    2.80
  -2  -3  -7   97.59    2.90
   2   3   7  102.59    3.00
   2   3   7   99.29    2.80
   2   3   7  103.09    2.80
   2   3   7  102.19    2.80
   2   3   7   99.39    2.90
  -3  -3  -7   33.90    1.40
  -3  -3  -7   36.30    1.30
  -3  -3  -7   35.80    1.30
  -3  -3  -7   38.30    1.40
   3   3   7   37.00    1.30
   3   3   7   37.20    1.40
   3   3   7   40.00    1.50
  -4  -3  -7    8.40    0.60
  -4  -3  -7    7.70    0.70
  -4  -3  -7    7.90    0.50
  -4  -3  -7    8.10    0.80
  -4  -3  -7    8.60    0.70
   4   3   7    8.10    0.60
   4   3   7    8.10    0.60
   4   3   7    6.40    0.70
   4   3   7    8.10    0.50
  -5  -3  -7    7.10    0.70
  -5  -3  -7    8.90    0.80
  -5  -3  -7    7.40    0.70
   5   3   7    7.70    0.70
   5   3   7    7.30    0.60
   5   3   7    9.00    0.80
   5   3   7    6.90    0.80
   5   3   7    8.70    0.60
  -6  -3  -7   26.10    1.30
  -6  -3  -7   25.60    1.30
  -6  -3  -7   26.40    1.30
   6   3   7   25.80    1.20
   6   3   7   25.60    1.30
   6   3   7   24.50    1.50
   6   3   7   27.40    1.30
   6   3   7   26.00    1.20
  -7  -3  -7    2.50    0.60
  -7  -3  -7    3.90    0.70
  -7  -3  -7    3.90    0.70
   7   3   7    4.00    0.70
   7   3   7    4.40    0.70
   7   3   7    4.40    0.70
   7   3   7    3.70    0.80
  -8  -3  -7    0.30    0.60
  -8  -3  -7    0.80    0.60
  -8  -3  -7    0.70    0.60
   8   3   7    1.00    0.60
   8   3   7    1.20    0.60
   8   3   7    1.10    0.60
   8   3   7    1.40    0.60
  -9  -3  -7    7.70    1.20
  -9  -3  -7    9.00    1.10
  -9  -3  -7    8.40    1.20
   9   3   7    8.40    1.10
   9   3   7    8.60    1.10
   9   3   7    9.60    1.20
 -10  -3  -7    4.40    1.10
 -10  -3  -7    3.60    1.00
  10   3   7    6.90    1.00
  10   3   7    5.30    1.00
  10   3   7    3.90    1.00
   6  -4  -7    5.40    1.10
   6  -4  -7    5.20    0.90
  -6   4   7    4.70    1.00
  -6   4   7    3.40    0.90
   5  -4  -7   15.00    1.50
   5  -4  -7   12.60    1.20
   5  -4  -7   12.20    1.20
  -5   4   7   11.80    1.30
  -5   4   7   12.20    1.20
   4  -4  -7    6.00    0.90
   4  -4  -7    6.50    0.90
   4  -4  -7    6.60    0.90
  -4   4   7    5.10    0.90
  -4   4   7    6.10    0.90
   3  -4  -7    5.90    0.80
   3  -4  -7    5.80    0.70
   3  -4  -7    5.80    0.80
  -3   4   7    7.20    0.90
  -3   4   7    5.30    0.70
  -3   4   7    6.80    0.80
   2  -4  -7    8.00    0.80
   2  -4  -7    9.80    0.80
   2  -4  -7    8.90    0.90
  -2   4   7    8.40    0.80
  -2   4   7    8.50    0.70
  -2   4   7    7.70    0.90
   1  -4  -7   14.40    0.80
   1  -4  -7   14.60    0.90
   1  -4  -7   14.30    1.00
   1  -4  -7   15.80    0.90
  -1   4   7   14.30    0.90
  -1   4   7   15.00    1.00
   0  -4  -7    0.70    0.40
   0  -4  -7    0.50    0.30
   0  -4  -7    0.40    0.40
   0   4   7    0.60    0.40
   0   4   7    0.70    0.30
   0   4   7    1.00    0.20
  -1  -4  -7   13.20    0.70
  -1  -4  -7   12.40    0.80
  -1  -4  -7   11.50    0.80
  -1  -4  -7   12.80    0.50
  -1  -4  -7   12.60    0.70
   1   4   7   12.40    0.70
   1   4   7   14.10    0.80
   1   4   7   13.00    0.70
   1   4   7   12.10    0.60
   1   4   7   13.00    0.50
  -2  -4  -7   14.70    0.70
  -2  -4  -7   13.40    0.70
  -2  -4  -7   12.90    0.90
   2   4   7   14.70    0.80
   2   4   7   13.70    0.70
   2   4   7   13.90    0.80
   2   4   7   13.50    0.80
   2   4   7   15.00    0.80
  -3  -4  -7   -0.10    0.20
  -3  -4  -7   -0.20    0.30
  -3  -4  -7    0.30    0.30
  -3  -4  -7   -0.30    0.30
   3   4   7    0.10    0.30
   3   4   7    0.20    0.30
   3   4   7   -0.20    0.30
   3   4   7   -0.40    0.40
   3   4   7    0.10    0.30
  -4  -4  -7   17.60    1.00
  -4  -4  -7   18.20    0.90
  -4  -4  -7   17.70    1.00
  -4  -4  -7   17.50    1.00
   4   4   7   17.70    1.10
   4   4   7   16.90    0.90
   4   4   7   18.50    0.70
   4   4   7   20.10    1.00
   4   4   7   17.90    1.10
  -5  -4  -7    3.80    0.70
  -5  -4  -7    4.30    0.60
  -5  -4  -7    3.50    0.50
   5   4   7    3.30    0.70
   5   4   7    4.00    0.50
   5   4   7    4.20    0.50
   5   4   7    5.00    0.60
   5   4   7    2.90    0.60
  -6  -4  -7    1.60    0.50
  -6  -4  -7    1.80    0.60
  -6  -4  -7    1.30    0.50
   6   4   7    1.20    0.50
   6   4   7    1.20    0.60
   6   4   7    0.90    0.40
   6   4   7    1.40    0.50
  -7  -4  -7   55.09    2.10
  -7  -4  -7   53.59    2.10
  -7  -4  -7   50.79    2.10
   7   4   7   56.09    2.10
   7   4   7   54.79    2.10
   7   4   7   52.29    2.00
   7   4   7   51.09    2.40
  -8  -4  -7   14.00    1.10
  -8  -4  -7   12.90    1.10
  -8  -4  -7   13.10    1.20
   8   4   7   12.50    1.10
   8   4   7   12.70    1.20
   8   4   7   12.20    1.10
  -9  -4  -7   40.20    2.20
  -9  -4  -7   37.10    2.10
   9   4   7   41.90    2.10
   9   4   7   39.70    2.00
 -10  -4  -7   16.60    1.60
 -10  -4  -7   17.40    1.80
  10   4   7   16.90    1.60
   5  -5  -7    1.00    0.70
   5  -5  -7    1.00    0.70
  -5   5   7    0.10    0.70
  -5   5   7    0.50    0.80
   4  -5  -7   34.40    1.90
   4  -5  -7   28.20    1.60
   4  -5  -7   31.20    1.70
  -4   5   7   30.80    1.80
  -4   5   7   31.20    1.80
   3  -5  -7   42.60    1.90
   3  -5  -7   39.40    1.80
   3  -5  -7   39.00    1.90
  -3   5   7   40.30    2.00
  -3   5   7   40.40    1.90
   2  -5  -7    0.40    0.40
   2  -5  -7    0.90    0.50
   2  -5  -7    0.00    0.50
   2  -5  -7   -0.50    0.50
  -2   5   7    0.30    0.50
  -2   5   7    0.50    0.50
   1  -5  -7   -0.40    0.40
   1  -5  -7    0.70    0.50
   1  -5  -7    0.20    0.40
  -1   5   7    0.10    0.40
   0  -5  -7   15.70    0.90
   0  -5  -7   14.50    1.00
   0  -5  -7   16.30    0.90
   0   5   7   14.70    0.90
   0   5   7   16.50    0.70
   0   5   7   17.50    0.80
  -1  -5  -7    9.20    0.80
  -1  -5  -7   10.60    0.80
  -1  -5  -7    9.10    0.70
   1   5   7    9.60    0.70
   1   5   7    9.80    0.70
   1   5   7    9.20    0.60
   1   5   7   10.20    0.50
   1   5   7    9.40    0.80
   1   5   7   10.50    0.70
  -2  -5  -7   11.60    0.80
  -2  -5  -7   11.20    0.70
  -2  -5  -7   12.40    0.90
   2   5   7   12.00    0.40
   2   5   7   10.50    0.70
   2   5   7   11.20    0.40
   2   5   7   11.60    0.80
   2   5   7   12.00    0.80
   2   5   7   11.00    0.80
   2   5   7   11.10    0.70
  -3  -5  -7  126.99    3.50
  -3  -5  -7  118.79    3.60
  -3  -5  -7  120.99    3.50
   3   5   7  121.79    3.50
   3   5   7  126.09    3.50
   3   5   7  121.29    3.50
   3   5   7  125.29    3.60
  -4  -5  -7  154.58    4.30
  -4  -5  -7  155.68    4.30
  -4  -5  -7  156.48    4.40
  -4  -5  -7  150.28    4.40
   4   5   7  154.98    4.30
   4   5   7  155.28    3.90
   4   5   7  154.18    4.40
   4   5   7  148.99    4.40
   4   5   7  154.18    4.30
  -5  -5  -7   42.60    1.60
  -5  -5  -7   45.80    1.80
  -5  -5  -7   40.70    1.80
   5   5   7   40.60    1.80
   5   5   7   43.20    1.50
   5   5   7   40.50    1.60
   5   5   7   43.40    1.40
   5   5   7   41.60    1.80
  -6  -5  -7   -0.20    0.40
  -6  -5  -7    0.20    0.60
  -6  -5  -7   -0.10    0.40
  -6  -5  -7   -0.10    0.40
   6   5   7   -0.10    0.40
   6   5   7    0.00    0.40
   6   5   7    0.40    0.60
   6   5   7   -0.60    0.50
   6   5   7   -0.20    0.40
  -7  -5  -7    1.00    0.60
  -7  -5  -7    0.70    0.60
  -7  -5  -7    0.00    0.40
   7   5   7    0.30    0.70
   7   5   7    0.50    0.50
   7   5   7    0.20    0.50
   7   5   7    0.00    0.60
   7   5   7   -0.10    0.50
  -8  -5  -7    8.10    0.90
  -8  -5  -7    8.90    1.10
  -8  -5  -7    9.40    1.10
   8   5   7   10.70    1.10
   8   5   7   10.40    1.10
   8   5   7    8.70    1.20
   8   5   7   10.80    1.10
  -9  -5  -7   21.40    1.60
  -9  -5  -7   15.90    1.60
   9   5   7   21.30    1.60
   9   5   7   20.20    1.40
   4  -6  -7   20.80    1.50
  -4   6   7   18.70    1.50
  -4   6   7   19.60    1.60
   3  -6  -7    0.60    0.60
   3  -6  -7    1.30    0.70
   3  -6  -7    0.90    0.60
  -3   6   7    0.60    0.70
  -3   6   7    0.80    0.60
   2  -6  -7    2.50    0.70
   2  -6  -7    2.80    0.70
   2  -6  -7    1.70    0.60
  -2   6   7    2.80    0.70
   1  -6  -7    2.90    0.60
   1  -6  -7    4.40    0.70
   1  -6  -7    3.80    0.70
  -1   6   7    3.10    0.70
   0  -6  -7   15.20    1.00
   0  -6  -7   15.40    1.10
   0  -6  -7   13.90    0.90
   0   6   7   15.80    0.70
   0   6   7   14.20    1.00
  -1  -6  -7   24.10    1.20
  -1  -6  -7   25.80    1.40
  -1  -6  -7   26.50    1.30
   1   6   7   23.60    0.90
   1   6   7   27.80    1.00
   1   6   7   24.70    1.30
   1   6   7   27.00    1.30
   1   6   7   24.60    1.10
  -2  -6  -7    6.00    0.80
  -2  -6  -7    4.40    0.60
  -2  -6  -7    4.60    0.50
   2   6   7    5.10    0.70
   2   6   7    5.00    0.50
   2   6   7    4.30    0.60
   2   6   7    3.70    0.50
   2   6   7    5.00    0.60
  -3  -6  -7   15.40    1.00
  -3  -6  -7   15.20    1.10
  -3  -6  -7   15.50    0.90
   3   6   7   17.30    0.90
   3   6   7   15.10    1.00
   3   6   7   15.30    1.00
   3   6   7   16.40    0.60
   3   6   7   16.30    1.10
   3   6   7   15.10    1.00
  -4  -6  -7    4.50    0.70
  -4  -6  -7    3.60    0.60
  -4  -6  -7    5.00    0.70
   4   6   7    3.60    0.60
   4   6   7    3.70    0.60
   4   6   7    3.30    0.40
   4   6   7    3.30    0.60
   4   6   7    3.60    0.60
  -5  -6  -7    5.10    0.70
  -5  -6  -7    7.20    1.00
  -5  -6  -7    6.50    0.80
   5   6   7    5.70    0.70
   5   6   7    5.60    0.70
   5   6   7    5.00    0.80
   5   6   7    6.40    0.70
   5   6   7    5.50    0.80
  -6  -6  -7    0.70    0.40
  -6  -6  -7    1.20    0.60
  -6  -6  -7    0.10    0.50
  -6  -6  -7    0.90    0.60
   6   6   7    0.80    0.70
   6   6   7    0.60    0.60
   6   6   7    0.60    0.50
  -7  -6  -7    0.20    0.40
  -7  -6  -7    1.00    0.60
  -7  -6  -7    0.80    0.60
   7   6   7    0.00    0.70
   7   6   7   -0.20    0.50
   7   6   7    0.80    0.70
   7   6   7    1.70    0.60
  -8  -6  -7    5.00    1.00
  -8  -6  -7    4.10    0.90
   8   6   7    5.60    1.10
   8   6   7    5.90    0.90
   8   6   7    6.50    0.90
  -9  -6  -7    6.60    1.10
   9   6   7    8.50    1.10
   9   6   7    8.00    1.10
   9   6   7    7.30    1.30
   4  -7  -7    8.70    1.20
   4  -7  -7    7.00    1.00
  -4   7   7    5.20    1.00
  -4   7   7    5.50    1.10
   3  -7  -7    2.00    0.80
   3  -7  -7    1.30    0.90
   3  -7  -7    2.20    0.70
  -3   7   7    1.60    0.70
   2  -7  -7   -0.80    0.50
   2  -7  -7   -0.30    0.50
   2  -7  -7   -0.50    0.50
  -2   7   7    0.20    0.50
   1  -7  -7    2.70    0.70
   1  -7  -7    1.60    0.70
   1  -7  -7    1.90    0.60
  -1   7   7    1.80    0.60
   0  -7  -7    2.90    0.70
   0  -7  -7    1.80    0.70
   0  -7  -7    2.00    0.60
   0   7   7    1.70    0.60
  -1  -7  -7   11.50    1.10
  -1  -7  -7   13.30    1.00
  -1  -7  -7   12.60    1.10
   1   7   7   12.20    0.80
   1   7   7   13.30    1.00
   1   7   7   11.50    1.00
  -2  -7  -7   64.59    2.30
  -2  -7  -7   64.29    2.50
   2   7   7   61.99    2.30
   2   7   7   62.69    2.00
   2   7   7   63.79    2.10
   2   7   7   65.69    2.30
   2   7   7   64.99    2.20
  -3  -7  -7   11.90    1.00
  -3  -7  -7   12.70    1.10
   3   7   7   10.40    1.00
   3   7   7    9.70    0.90
   3   7   7   11.20    0.90
   3   7   7   11.30    1.00
   3   7   7   11.00    0.80
  -4  -7  -7   25.10    1.30
  -4  -7  -7   26.70    1.50
  -4  -7  -7   25.90    1.60
   4   7   7   26.00    1.30
   4   7   7   25.20    1.50
   4   7   7   25.10    1.50
   4   7   7   26.20    1.40
  -5  -7  -7    6.00    0.80
  -5  -7  -7    6.10    1.00
  -5  -7  -7    5.30    0.90
   5   7   7    4.70    0.90
   5   7   7    5.60    0.80
   5   7   7    5.70    0.90
  -6  -7  -7    6.40    0.90
  -6  -7  -7    5.00    0.80
  -6  -7  -7    5.40    0.90
   6   7   7    6.90    0.90
   6   7   7    5.30    0.90
   6   7   7    5.70    1.00
  -7  -7  -7   17.10    1.30
  -7  -7  -7   20.30    1.60
  -7  -7  -7   17.90    1.30
   7   7   7   20.40    1.40
   7   7   7   15.10    1.50
   7   7   7   12.90    1.40
   7   7   7   17.70    1.20
  -8  -7  -7   -0.20    0.60
  -8  -7  -7   -0.80    0.70
   8   7   7   -0.50    0.70
   8   7   7   -0.20    0.60
   8   7   7   -0.30    0.60
  -9  -7  -7   -1.10    0.60
   9   7   7   -1.40    0.90
   9   7   7    0.10    0.60
   9   7   7   -0.60    0.60
   3  -8  -7    2.30    0.90
   3  -8  -7    1.10    0.70
  -3   8   7    1.50    0.80
   2  -8  -7    0.70    0.60
   2  -8  -7    0.20    0.60
   2  -8  -7    1.60    0.80
  -2   8   7    0.60    0.70
   1  -8  -7    2.90    0.80
   1  -8  -7    2.80    0.70
   1  -8  -7    2.60    0.80
  -1   8   7    1.70    0.70
   0  -8  -7    8.70    1.10
   0  -8  -7    5.60    0.90
   0  -8  -7    7.30    0.90
   0   8   7    5.90    0.90
  -1  -8  -7  143.49    4.30
  -1  -8  -7  140.59    4.20
  -1  -8  -7  134.99    4.30
   1   8   7  136.29    4.30
   1   8   7  139.89    4.30
  -2  -8  -7   97.39    3.20
  -2  -8  -7   93.99    3.30
   2   8   7   98.79    3.30
   2   8   7   92.79    3.00
   2   8   7   93.89    3.20
  -3  -8  -7   16.60    1.40
  -3  -8  -7   15.80    1.20
   3   8   7   15.20    0.90
   3   8   7   12.70    1.10
   3   8   7   16.60    1.20
   3   8   7   14.30    1.50
   3   8   7   14.70    1.20
  -4  -8  -7   10.40    1.10
  -4  -8  -7   10.40    1.20
  -4  -8  -7   10.10    1.10
   4   8   7    9.90    1.10
   4   8   7   10.70    1.10
   4   8   7    9.20    1.00
   4   8   7   10.10    1.10
  -5  -8  -7    0.00    0.60
  -5  -8  -7   -0.30    0.60
  -5  -8  -7   -0.20    0.50
   5   8   7    0.00    0.50
   5   8   7   -0.60    0.60
   5   8   7   -1.20    0.50
  -6  -8  -7    1.20    0.60
  -6  -8  -7    1.50    0.80
  -6  -8  -7    0.70    0.60
   6   8   7    0.30    0.70
   6   8   7    0.30    0.60
   6   8   7    1.00    0.80
  -7  -8  -7   33.30    2.00
  -7  -8  -7   38.00    2.00
  -7  -8  -7   34.10    1.90
   7   8   7   31.70    1.80
   7   8   7   30.30    2.20
  -8  -8  -7    0.00    0.70
  -8  -8  -7    0.70    0.80
   8   8   7    1.10    0.70
   8   8   7   -0.20    0.90
   8   8   7    0.60    0.70
  -9  -8  -7   -0.80    0.70
  -9  -8  -7   -0.40    0.70
   9   8   7    0.00    0.70
   9   8   7   -0.70    0.90
   9   8   7   -0.10    0.70
   2  -9  -7   -0.90    0.60
   2  -9  -7    0.70    0.70
  -2   9   7   -0.90    0.60
   1  -9  -7   -0.20    0.60
   1  -9  -7    0.10    0.60
   1  -9  -7    0.30    0.60
  -1   9   7    0.10    0.60
   0  -9  -7   -0.10    0.60
   0  -9  -7   -0.30    0.60
   0  -9  -7    0.20    0.60
   0   9   7   -0.30    0.60
   0   9   7    0.30    0.70
  -1  -9  -7    0.40    0.60
  -1  -9  -7    2.80    0.80
  -1  -9  -7    2.10    0.80
   1   9   7    2.20    0.70
   1   9   7    2.50    0.80
  -2  -9  -7    1.30    0.70
  -2  -9  -7    2.00    0.70
   2   9   7    1.40    0.70
   2   9   7    0.60    0.60
  -3  -9  -7    1.60    0.70
  -3  -9  -7    0.90    0.70
   3   9   7    2.10    0.70
   3   9   7    1.70    0.70
   3   9   7    1.30    0.70
  -4  -9  -7    0.00    0.60
  -4  -9  -7    0.00    0.70
   4   9   7    0.10    0.60
   4   9   7    0.30    0.60
   4   9   7   -0.50    0.60
  -5  -9  -7   -0.40    0.50
  -5  -9  -7   -0.50    0.60
  -5  -9  -7   -0.90    0.60
   5   9   7    0.40    0.80
   5   9   7   -0.60    0.60
   5   9   7   -1.90    0.60
  -6  -9  -7    0.50    0.60
  -6  -9  -7    0.20    0.70
  -6  -9  -7    0.00    0.70
   6   9   7    0.40    0.70
   6   9   7   -1.60    0.70
   6   9   7   -0.70    0.80
  -7  -9  -7   14.50    1.60
  -7  -9  -7   11.10    1.40
  -7  -9  -7    9.90    1.20
   7   9   7   11.40    1.50
   7   9   7   10.90    1.20
  -8  -9  -7   -0.40    0.80
  -8  -9  -7   -1.50    0.70
  -8  -9  -7   -1.10    0.60
   8   9   7   -1.10    0.70
   8   9   7   -0.40    0.90
   8   9   7    0.40    0.60
   0 -10  -7    0.20    0.70
   0 -10  -7    0.10    0.70
   0 -10  -7    1.00    0.70
   0  10   7   -1.00    0.60
   0  10   7    0.60    0.70
  -1 -10  -7    0.40    0.60
  -1 -10  -7    0.60    0.70
  -1 -10  -7    0.40    0.70
   1  10   7    0.60    0.70
   1  10   7   -0.50    0.60
  -2 -10  -7    4.70    0.90
  -2 -10  -7    6.20    1.00
   2  10   7    4.60    0.90
   2  10   7    6.60    1.00
  -3 -10  -7   -0.90    0.50
  -3 -10  -7    0.80    0.80
   3  10   7    0.60    0.70
   3  10   7   -0.50    0.60
  -4 -10  -7    0.00    0.60
  -4 -10  -7   -0.10    0.70
   4  10   7   -0.10    0.60
   4  10   7    0.10    0.60
   4  10   7   -1.00    0.70
  -5 -10  -7   -1.30    0.60
  -5 -10  -7    0.00    0.80
  -5 -10  -7    0.60    0.70
   5  10   7    1.10    0.70
   5  10   7   -0.50    0.80
  -6 -10  -7    6.80    1.10
  -6 -10  -7    8.70    1.20
  -6 -10  -7    9.00    1.30
   6  10   7    9.90    1.20
   6  10   7    6.30    1.20
  -7 -10  -7    4.20    1.20
  -7 -10  -7    3.10    0.90
  -7 -10  -7    2.40    0.90
   7  10   7    1.10    1.10
   7  10   7    1.90    0.80
  -2 -11  -7   -0.30    0.70
  -2 -11  -7    0.30    0.70
   2  11   7    0.30    0.70
   2  11   7   -0.60    0.60
  -3 -11  -7    1.20    0.80
  -3 -11  -7   -0.50    0.80
   3  11   7   -0.80    0.60
   3  11   7    0.30    0.60
  -4 -11  -7    2.10    0.80
  -4 -11  -7    0.20    0.80
   4  11   7    1.50    0.80
   4  11   7    0.70    0.70
  -5 -11  -7    1.80    0.90
  -5 -11  -7    3.00    0.90
  -5 -11  -7    3.70    1.00
   5  11   7   -0.80    0.80
   5  11   7    3.90    0.90
   4  10  -8    4.50    1.20
   4  10  -8    1.90    1.00
  -4 -10   8    1.90    0.90
  -4 -10   8    3.60    1.00
   3  10  -8   -0.80    0.70
   3  10  -8   -1.80    0.60
  -3 -10   8   -0.60    0.70
   2  10  -8    1.20    0.80
  -2 -10   8   -0.70    0.80
   1  10  -8    0.10    0.80
  -1 -10   8    2.90    1.00
   0  10  -8    0.80    0.80
   0 -10   8    2.10    0.90
  -1  10  -8    1.20    0.90
   1 -10   8    1.80    0.90
   1 -10   8    2.00    0.70
   6   9  -8   -0.70    0.70
   6   9  -8    0.10    0.90
  -6  -9   8   -1.70    0.80
   5   9  -8    0.10    0.90
   5   9  -8    0.90    0.90
  -5  -9   8   -1.20    0.70
  -5  -9   8    1.50    0.70
   4   9  -8    3.70    1.10
   4   9  -8    1.70    0.90
  -4  -9   8    1.90    0.80
  -4  -9   8    3.20    0.90
   3   9  -8    2.70    0.90
   3   9  -8    3.90    1.00
  -3  -9   8    5.20    1.00
  -3  -9   8    3.50    0.90
   2   9  -8    0.20    0.80
  -2  -9   8    0.20    0.60
  -2  -9   8    0.30    0.60
   1   9  -8    8.40    1.30
  -1  -9   8   10.20    1.30
   0   9  -8    3.20    0.90
   0  -9   8    3.20    0.70
   0  -9   8    3.90    0.90
  -1   9  -8   10.40    1.40
   1  -9   8   12.40    1.20
   1  -9   8   12.70    1.50
  -2   9  -8    3.40    0.90
  -2   9  -8    3.20    1.00
   2  -9   8    2.30    0.90
   2  -9   8    2.10    0.80
  -3   9  -8    0.60    0.80
  -3   9  -8    1.00    0.90
   3  -9   8   -1.30    0.70
   3  -9   8    1.40    0.80
   6   8  -8   -1.00    0.90
   6   8  -8   -0.40    0.70
  -6  -8   8    0.00    0.90
   5   8  -8   -1.00    0.70
   5   8  -8   -0.90    0.70
  -5  -8   8   -0.40    0.80
  -5  -8   8    0.00    0.60
   4   8  -8    0.10    0.70
   4   8  -8    2.20    0.80
  -4  -8   8    1.70    0.70
  -4  -8   8    1.40    0.80
   3   8  -8    1.00    0.80
   3   8  -8    1.50    0.70
  -3  -8   8    2.10    0.80
  -3  -8   8    2.20    0.70
   2   8  -8    1.00    0.70
  -2  -8   8    0.90    0.60
  -2  -8   8    1.40    0.70
   1   8  -8    7.30    1.20
  -1  -8   8    8.60    1.00
  -1  -8   8    8.40    1.10
  -1  -8   8    8.10    0.80
   0   8  -8   18.10    1.60
   0  -8   8   19.90    1.20
   0  -8   8   18.50    1.40
   0  -8   8   19.40    1.40
  -1   8  -8    7.20    0.90
  -1   8  -8    9.50    1.20
   1  -8   8    8.20    1.20
   1  -8   8    8.40    1.00
  -2   8  -8    2.10    0.70
  -2   8  -8    2.10    0.80
   2  -8   8    2.20    0.80
   2  -8   8    3.30    0.80
  -3   8  -8    0.50    0.80
  -3   8  -8    1.00    0.70
   3  -8   8    0.80    0.80
   3  -8   8    1.30    0.70
  -4   8  -8    1.30    0.80
   4  -8   8    2.60    0.90
   4  -8   8    1.90    0.90
   7   7  -8    9.10    1.60
   7   7  -8   12.10    1.50
  -7  -7   8   11.80    1.70
   6   7  -8   20.70    2.00
   6   7  -8   20.10    1.80
  -6  -7   8   24.90    2.20
   5   7  -8   11.40    1.30
   5   7  -8   12.00    1.50
  -5  -7   8   12.80    1.50
  -5  -7   8   13.40    1.10
   4   7  -8    0.00    0.70
   4   7  -8    1.10    0.80
   4   7  -8    0.50    0.60
  -4  -7   8    0.30    0.60
  -4  -7   8    1.80    0.80
   3   7  -8    0.20    0.60
   3   7  -8    0.50    0.60
   3   7  -8    0.50    0.60
  -3  -7   8    0.40    0.60
  -3  -7   8    1.10    0.70
   2   7  -8    7.40    1.10
   2   7  -8    7.90    1.10
   2   7  -8    8.70    1.10
  -2  -7   8    8.00    1.00
  -2  -7   8   10.30    1.10
   1   7  -8   14.50    1.30
   1   7  -8   14.60    1.40
  -1  -7   8   13.20    1.10
  -1  -7   8   13.80    1.20
  -1  -7   8   13.90    0.80
   0   7  -8   31.80    1.50
   0   7  -8   31.40    1.80
   0   7  -8   34.70    2.00
   0  -7   8   31.90    1.70
   0  -7   8   30.90    1.50
   0  -7   8   34.30    1.40
  -1   7  -8    0.40    0.60
  -1   7  -8   -1.10    0.40
  -1   7  -8    0.30    0.50
   1  -7   8   -0.10    0.50
   1  -7   8   -0.10    0.60
   1  -7   8   -0.10    0.20
   1  -7   8   -0.10    0.20
  -2   7  -8    4.00    0.90
  -2   7  -8    4.10    0.90
  -2   7  -8    4.40    0.80
  -2   7  -8    5.70    0.70
   2  -7   8    5.70    0.80
   2  -7   8    5.90    0.60
   2  -7   8    5.00    0.90
   2  -7   8    5.30    0.50
  -3   7  -8    0.10    0.60
  -3   7  -8    0.70    0.40
   3  -7   8    0.30    0.30
   3  -7   8    0.00    0.30
   3  -7   8    0.20    0.60
   3  -7   8    0.00    0.60
  -4   7  -8    1.30    0.80
  -4   7  -8    1.70    0.90
  -4   7  -8   -0.60    0.60
   4  -7   8    0.30    0.40
   4  -7   8   -0.30    0.70
   4  -7   8    0.20    0.70
  -5   7  -8   -0.30    0.80
   5  -7   8   -0.50    0.70
   5  -7   8    0.10    0.60
   5  -7   8    0.60    0.60
   7   6  -8    2.50    1.00
   7   6  -8    3.10    1.30
  -7  -6   8    6.00    1.30
   6   6  -8    4.00    1.20
   6   6  -8    3.70    0.90
  -6  -6   8    6.40    1.30
   5   6  -8   14.10    1.40
   5   6  -8   11.80    1.40
   5   6  -8   12.10    1.30
  -5  -6   8   13.20    1.00
  -5  -6   8   12.20    1.40
   4   6  -8   -0.50    0.60
   4   6  -8   -0.60    0.60
   4   6  -8   -0.90    0.50
  -4  -6   8   -0.20    0.40
  -4  -6   8   -0.30    0.50
  -4  -6   8    0.80    0.60
   3   6  -8    6.10    1.00
   3   6  -8    6.20    1.00
   3   6  -8    6.00    0.90
  -3  -6   8    7.70    1.00
  -3  -6   8    6.70    0.70
  -3  -6   8    5.40    0.80
   2   6  -8    0.20    0.50
   2   6  -8    0.10    0.60
   2   6  -8    0.10    0.50
  -2  -6   8    0.10    0.20
  -2  -6   8    0.10    0.50
  -2  -6   8    1.10    0.50
   1   6  -8   38.10    1.80
   1   6  -8   33.40    1.30
   1   6  -8   33.10    1.10
   1   6  -8   38.80    1.90
  -1  -6   8   34.20    1.30
  -1  -6   8   35.70    1.10
  -1  -6   8   35.60    1.70
  -1  -6   8   35.10    1.10
  -1  -6   8   37.30    1.70
   0   6  -8   28.80    1.30
   0   6  -8   25.90    1.50
   0   6  -8   27.80    1.60
   0   6  -8   29.30    1.00
   0   6  -8   28.00    1.00
   0  -6   8   29.40    1.00
   0  -6   8   28.30    1.50
   0  -6   8   29.30    1.50
   0  -6   8   29.10    1.20
  -1   6  -8    6.20    0.50
  -1   6  -8    6.10    0.90
  -1   6  -8    5.40    0.70
  -1   6  -8    4.70    0.80
  -1   6  -8    6.50    0.50
   1  -6   8    5.60    0.80
   1  -6   8    6.90    0.70
   1  -6   8    6.50    0.50
   1  -6   8    6.60    0.40
  -2   6  -8    0.80    0.50
  -2   6  -8    0.60    0.30
  -2   6  -8    0.80    0.50
   2  -6   8    0.60    0.30
   2  -6   8    0.20    0.30
   2  -6   8    0.70    0.50
   2  -6   8    0.60    0.60
   2  -6   8    0.40    0.30
  -3   6  -8    1.60    0.70
  -3   6  -8    1.20    0.40
  -3   6  -8    1.60    0.40
   3  -6   8    1.50    0.40
   3  -6   8    2.40    0.70
   3  -6   8    1.70    0.60
   3  -6   8    1.90    0.40
  -4   6  -8    1.60    0.80
  -4   6  -8    2.50    0.60
  -4   6  -8    1.60    0.50
   4  -6   8    2.10    0.80
   4  -6   8    2.40    0.70
   4  -6   8    1.60    0.50
  -5   6  -8    3.20    0.70
  -5   6  -8    3.50    0.70
  -5   6  -8    1.80    0.90
   5  -6   8    3.30    0.90
   5  -6   8    3.10    0.90
   5  -6   8    3.30    0.60
  -6   6  -8    5.30    0.90
  -6   6  -8    3.20    0.80
  -6   6  -8    5.20    1.20
   6  -6   8    3.60    0.70
   6  -6   8    5.50    1.10
   7   5  -8    0.90    1.20
  -7  -5   8    3.00    1.10
   6   5  -8   22.20    1.60
   6   5  -8   20.30    1.90
  -6  -5   8   27.00    2.10
  -6  -5   8   17.50    1.30
   5   5  -8    1.70    0.70
   5   5  -8    0.50    0.50
   5   5  -8    0.80    0.80
   5   5  -8    0.70    0.60
  -5  -5   8    2.60    0.90
  -5  -5   8   -0.10    0.40
  -5  -5   8    0.80    0.40
  -5  -5   8    1.10    0.50
   4   5  -8    0.20    0.50
   4   5  -8    0.90    0.30
   4   5  -8    0.60    0.60
   4   5  -8    0.20    0.50
  -4  -5   8    1.10    0.50
  -4  -5   8    0.60    0.30
  -4  -5   8    0.50    0.30
  -4  -5   8    1.10    0.60
   3   5  -8   23.20    0.90
   3   5  -8   24.30    1.50
   3   5  -8   23.60    1.40
   3   5  -8   23.20    1.50
  -3  -5   8   24.80    1.50
  -3  -5   8   23.40    1.30
  -3  -5   8   25.20    1.00
  -3  -5   8   24.50    0.90
   2   5  -8    0.30    0.50
   2   5  -8    0.20    0.20
   2   5  -8    0.30    0.20
   2   5  -8    0.10    0.40
   2   5  -8    0.10    0.40
   2   5  -8   -0.20    0.20
  -2  -5   8    0.50    0.50
  -2  -5   8    0.00    0.20
  -2  -5   8   -0.20    0.40
  -2  -5   8    0.00    0.20
   1   5  -8   53.99    2.20
   1   5  -8   53.69    1.80
   1   5  -8   52.79    1.40
   1   5  -8   53.29    1.40
   1   5  -8   54.89    2.20
  -1  -5   8   53.09    1.60
  -1  -5   8   54.49    2.10
  -1  -5   8   54.69    2.20
  -1  -5   8   54.29    1.50
   0   5  -8   13.50    1.10
   0   5  -8   12.10    0.50
   0   5  -8   10.00    1.00
   0   5  -8   12.00    0.80
   0   5  -8   10.90    0.50
   0  -5   8   12.50    0.90
   0  -5   8    9.70    0.90
   0  -5   8   12.20    0.50
   0  -5   8   12.20    0.70
  -1   5  -8   46.10    1.40
  -1   5  -8   44.50    1.80
  -1   5  -8   46.40    2.00
   1  -5   8   46.40    1.30
   1  -5   8   49.20    1.70
   1  -5   8   47.90    1.40
   1  -5   8   45.00    1.90
   1  -5   8   43.20    1.60
  -2   5  -8   32.70    1.20
  -2   5  -8   31.90    1.50
   2  -5   8   32.40    1.40
   2  -5   8   32.20    1.30
   2  -5   8   31.60    1.10
   2  -5   8   32.50    1.10
   2  -5   8   28.80    1.50
  -3   5  -8   -0.60    0.40
  -3   5  -8   -0.20    0.30
  -3   5  -8   -0.60    0.20
   3  -5   8   -0.30    0.40
   3  -5   8   -0.20    0.30
   3  -5   8   -0.60    0.50
   3  -5   8   -0.10    0.20
  -4   5  -8   14.20    0.90
  -4   5  -8   12.60    1.00
  -4   5  -8   13.60    1.40
   4  -5   8   11.50    0.80
   4  -5   8   14.00    1.20
   4  -5   8   14.10    0.90
   4  -5   8   15.80    1.20
  -5   5  -8   13.70    1.10
  -5   5  -8   11.10    1.40
  -5   5  -8   13.20    1.00
   5  -5   8   13.30    1.30
   5  -5   8   13.70    1.30
   5  -5   8   13.90    0.90
  -6   5  -8    2.40    0.70
  -6   5  -8    2.40    0.70
  -6   5  -8    4.20    1.00
   6  -5   8    4.50    1.00
   6  -5   8    2.10    0.60
   6  -5   8    3.70    0.60
  -7   5  -8    2.60    0.80
  -7   5  -8    8.20    1.40
  -7   5  -8    5.90    1.00
   7  -5   8    5.50    0.90
   7  -5   8    6.20    1.20
   7  -5   8    5.90    0.80
   7   4  -8   -0.70    1.10
  -7  -4   8   -0.20    0.50
  -7  -4   8   -0.40    0.90
   6   4  -8   -0.20    0.70
   6   4  -8    0.10    0.40
   6   4  -8   -0.40    0.80
   6   4  -8   -0.90    0.60
   6   4  -8    0.20    0.40
  -6  -4   8    0.10    0.50
  -6  -4   8   -0.30    0.80
  -6  -4   8    0.10    0.40
   5   4  -8    2.30    0.60
   5   4  -8    3.80    0.50
   5   4  -8    2.10    0.80
   5   4  -8    2.50    0.70
  -5  -4   8    3.10    0.90
  -5  -4   8    3.30    0.50
  -5  -4   8    3.60    0.60
  -5  -4   8    3.10    0.50
   4   4  -8    2.90    0.40
   4   4  -8    2.20    0.70
   4   4  -8    2.80    0.70
   4   4  -8    2.80    0.60
  -4  -4   8    1.80    0.50
  -4  -4   8    3.10    0.40
  -4  -4   8    3.00    0.40
  -4  -4   8    2.90    0.80
  -4  -4   8    3.40    0.60
   3   4  -8    1.30    0.50
   3   4  -8    2.60    0.30
   3   4  -8    2.20    0.60
   3   4  -8    1.90    0.50
  -3  -4   8    1.40    0.50
  -3  -4   8    2.20    0.50
  -3  -4   8    2.30    0.30
  -3  -4   8    2.30    0.30
  -3  -4   8    1.20    0.60
   2   4  -8  136.79    4.20
   2   4  -8  138.19    4.10
   2   4  -8  137.29    3.40
   2   4  -8  139.09    4.20
  -2  -4   8  137.49    4.00
  -2  -4   8  139.09    4.20
  -2  -4   8  140.09    3.50
  -2  -4   8  130.49    4.00
  -2  -4   8  140.69    3.40
   1   4  -8  302.27    7.00
   1   4  -8  300.17    7.00
   1   4  -8  289.57    7.90
   1   4  -8  296.27    7.00
   1   4  -8  292.87    7.80
   1   4  -8  299.07    7.50
  -1  -4   8  291.67    7.90
  -1  -4   8  302.97    7.00
  -1  -4   8  285.17    7.30
  -1  -4   8  301.87    7.10
  -1  -4   8  297.77    7.10
  -1  -4   8  295.37    7.70
  -1  -4   8  300.37    7.10
   0   4  -8   21.90    0.60
   0   4  -8   22.00    1.30
   0   4  -8   21.70    1.20
   0   4  -8   20.30    1.00
   0  -4   8   22.20    0.90
   0  -4   8   21.00    1.10
   0  -4   8   23.60    1.30
   0  -4   8   23.60    0.60
   0  -4   8   21.90    1.20
  -1   4  -8  236.58    6.30
  -1   4  -8  234.28    5.80
  -1   4  -8  240.38    5.80
  -1   4  -8  237.28    6.60
   1  -4   8  226.38    6.40
   1  -4   8  243.98    6.50
   1  -4   8  239.78    6.20
   1  -4   8  253.77    5.80
   1  -4   8  241.68    5.80
   1  -4   8  245.48    5.80
   1  -4   8  238.98    5.80
   1  -4   8  231.78    6.20
  -2   4  -8   48.60    1.50
  -2   4  -8   49.60    1.50
  -2   4  -8   49.70    1.40
  -2   4  -8   47.80    1.90
   2  -4   8   49.60    1.70
   2  -4   8   44.30    1.90
   2  -4   8   47.40    1.70
   2  -4   8   49.60    1.40
  -3   4  -8  124.39    3.50
  -3   4  -8  124.79    3.40
  -3   4  -8  128.29    3.90
   3  -4   8  128.29    3.60
   3  -4   8  129.39    3.40
   3  -4   8  127.19    3.70
   3  -4   8  123.09    3.80
  -4   4  -8   57.39    2.40
  -4   4  -8   57.09    1.90
  -4   4  -8   56.89    2.00
   4  -4   8   57.19    1.80
   4  -4   8   60.99    2.30
   4  -4   8   58.69    2.00
   4  -4   8   55.29    2.20
   4  -4   8   57.89    1.90
  -5   4  -8   20.60    1.60
  -5   4  -8   19.10    1.10
  -5   4  -8   19.80    1.20
   5  -4   8   22.10    1.30
   5  -4   8   21.10    1.10
   5  -4   8   20.60    1.10
   5  -4   8   22.80    1.40
   5  -4   8   21.80    1.10
  -6   4  -8   51.29    2.60
  -6   4  -8   44.40    2.00
  -6   4  -8   46.00    1.90
   6  -4   8   45.40    2.20
   6  -4   8   46.40    2.40
   6  -4   8   48.40    2.00
   6  -4   8   43.80    1.80
   6  -4   8   42.70    1.80
  -7   4  -8   29.50    1.70
  -7   4  -8   31.90    2.10
  -7   4  -8   32.00    1.70
   7  -4   8   34.90    1.70
   7  -4   8   26.60    1.50
   7  -4   8   30.80    1.90
   7   3  -8    1.60    0.60
   7   3  -8    2.00    0.60
   7   3  -8    0.40    1.10
  -7  -3   8    1.30    1.00
  -7  -3   8    2.20    0.60
   6   3  -8    0.90    0.40
   6   3  -8   -1.10    0.80
   6   3  -8   -0.40    0.70
   6   3  -8    1.30    0.50
  -6  -3   8    0.90    0.50
  -6  -3   8   -0.40    0.80
   5   3  -8   -0.30    0.30
   5   3  -8   -1.20    0.40
   5   3  -8    0.10    0.30
   5   3  -8   -1.10    0.70
   5   3  -8   -1.10    0.40
  -5  -3   8   -0.70    0.60
  -5  -3   8   -0.10    0.30
  -5  -3   8    0.10    0.30
   4   3  -8   10.40    0.60
   4   3  -8   10.80    0.80
   4   3  -8   10.80    0.70
   4   3  -8    9.90    1.10
   4   3  -8    8.70    0.90
  -4  -3   8    9.00    0.80
  -4  -3   8    9.80    0.60
  -4  -3   8   13.10    1.30
  -4  -3   8    9.70    0.70
  -4  -3   8    9.70    0.70
   3   3  -8   20.40    0.80
   3   3  -8   19.90    1.20
   3   3  -8   18.50    0.70
   3   3  -8   19.00    1.20
   3   3  -8   18.70    1.10
  -3  -3   8   16.30    1.00
  -3  -3   8   19.80    0.80
  -3  -3   8   18.00    1.00
  -3  -3   8   19.40    0.80
  -3  -3   8   18.30    1.30
   2   3  -8   28.90    0.90
   2   3  -8   29.30    0.90
   2   3  -8   30.30    0.90
   2   3  -8   29.40    1.40
   2   3  -8   28.60    1.30
   2   3  -8   27.90    1.40
   2   3  -8   28.60    0.90
  -2  -3   8   28.70    1.30
  -2  -3   8   30.20    0.90
  -2  -3   8   27.90    1.30
  -2  -3   8   28.40    1.50
  -2  -3   8   30.90    0.90
  -2  -3   8   31.50    1.40
  -2  -3   8   28.90    0.90
   1   3  -8  111.09    3.10
   1   3  -8  104.59    3.20
   1   3  -8   99.29    3.20
  -1  -3   8  101.59    3.10
  -1  -3   8   97.39    3.20
  -1  -3   8  101.49    3.10
   0   3  -8  277.57    7.30
   0   3  -8  278.27    7.10
   0  -3   8  268.97    7.30
   0  -3   8  276.87    6.90
   0  -3   8  280.87    7.20
   0  -3   8  270.47    7.10
   0  -3   8  272.47    7.20
  -1   3  -8  274.87    6.50
  -1   3  -8  271.37    6.50
  -1   3  -8  274.57    7.30
  -1   3  -8  271.07    6.50
  -1   3  -8  275.07    7.10
   1  -3   8  253.37    7.10
   1  -3   8  269.37    7.20
   1  -3   8  277.47    6.50
   1  -3   8  272.67    7.00
   1  -3   8  280.77    6.50
   1  -3   8  281.47    6.50
   1  -3   8  268.97    6.90
  -2   3  -8   88.49    2.30
  -2   3  -8   88.69    2.40
  -2   3  -8   88.89    2.30
  -2   3  -8   89.89    2.30
  -2   3  -8   89.39    2.80
  -2   3  -8   89.79    2.40
   2  -3   8   90.39    2.30
   2  -3   8   86.59    2.70
   2  -3   8   85.29    2.80
   2  -3   8   92.59    2.40
   2  -3   8   89.09    2.70
  -3   3  -8   34.10    1.20
  -3   3  -8   35.60    1.00
  -3   3  -8   33.90    1.60
   3  -3   8   35.90    1.20
   3  -3   8   36.00    1.60
   3  -3   8   38.10    1.20
   3  -3   8   39.40    1.40
   3  -3   8   36.00    1.60
  -4   3  -8   47.50    1.70
  -4   3  -8   51.59    2.10
   4  -3   8   48.30    1.90
   4  -3   8   49.70    1.90
   4  -3   8   46.20    1.50
   4  -3   8   47.90    1.60
   4  -3   8   48.50    1.70
  -5   3  -8   11.70    0.90
  -5   3  -8    9.30    1.10
   5  -3   8   10.50    1.00
   5  -3   8   11.40    0.80
   5  -3   8   10.30    0.70
   5  -3   8   11.90    0.90
   5  -3   8   10.30    0.90
  -6   3  -8   17.60    1.50
  -6   3  -8   15.80    1.10
   6  -3   8   19.30    1.30
   6  -3   8   18.70    1.00
   6  -3   8   17.50    1.10
   6  -3   8   18.70    1.10
  -7   3  -8   -1.30    0.70
  -7   3  -8    0.20    0.50
   7  -3   8    0.00    0.40
   7  -3   8   -0.40    0.40
   7  -3   8   -0.90    0.60
   7  -3   8   -0.20    0.40
  -8   3  -8   -0.30    0.60
  -8   3  -8   -0.10    0.80
   8  -3   8    0.20    0.60
   8  -3   8    1.10    0.50
   8  -3   8    0.10    0.70
   7   2  -8   -2.10    1.00
   7   2  -8    1.20    0.60
   7   2  -8    0.20    0.50
  -7  -2   8   -0.70    0.80
  -7  -2   8    1.20    0.60
   6   2  -8    8.20    1.30
   6   2  -8    6.80    0.80
   6   2  -8    7.50    0.80
  -6  -2   8    6.90    1.20
  -6  -2   8    7.80    0.90
   5   2  -8   20.50    1.60
   5   2  -8   22.40    1.10
   5   2  -8   20.80    1.40
   5   2  -8   21.40    1.00
  -5  -2   8   21.20    1.10
  -5  -2   8   21.40    1.20
  -5  -2   8   22.60    1.60
   4   2  -8    5.90    0.70
   4   2  -8    6.70    0.60
   4   2  -8    6.70    0.90
   4   2  -8    6.90    0.60
   4   2  -8    8.50    0.70
  -4  -2   8    7.60    1.00
  -4  -2   8    7.20    0.70
  -4  -2   8    8.80    0.70
   3   2  -8   39.20    1.50
   3   2  -8   40.80    1.60
   3   2  -8   36.70    1.30
   3   2  -8   42.40    1.90
   3   2  -8   39.70    1.30
  -3  -2   8   36.60    1.50
  -3  -2   8   41.00    1.60
  -3  -2   8   38.80    1.30
  -3  -2   8   37.70    1.40
  -3  -2   8   39.20    1.80
   2   2  -8   53.59    1.80
   2   2  -8   50.39    2.00
   2   2  -8   53.19    1.50
   2   2  -8   53.09    1.50
   2   2  -8   52.79    1.50
   2   2  -8   55.19    1.90
   2   2  -8   52.49    1.50
   2   2  -8   53.99    1.50
  -2  -2   8   53.49    1.50
  -2  -2   8   51.29    1.80
  -2  -2   8   55.69    1.90
  -2  -2   8   50.39    1.90
  -2  -2   8   50.89    2.10
   1   2  -8  441.16   11.10
   1   2  -8  445.46   10.50
   1   2  -8  449.26   11.00
   1   2  -8  447.86   11.10
  -1  -2   8  454.55   10.50
  -1  -2   8  448.06   10.50
  -1  -2   8  452.75   10.50
  -1  -2   8  439.36   11.10
  -1  -2   8  421.66   11.20
  -1  -2   8  435.76   11.10
  -1  -2   8  444.96   10.50
  -1  -2   8  437.16   11.00
   0   2  -8  388.46    9.80
   0  -2   8  381.76    9.80
   0  -2   8  389.56    9.50
   0  -2   8  396.56    9.80
   0  -2   8  398.76    9.80
   0  -2   8  384.86    9.90
  -1   2  -8   54.89    1.90
   1  -2   8   51.89    1.90
   1  -2   8   48.40    1.80
   1  -2   8   54.69    1.80
   1  -2   8   52.69    1.70
   1  -2   8   54.99    1.90
  -2   2  -8  174.28    4.30
  -2   2  -8  178.38    4.40
  -2   2  -8  172.58    4.20
  -2   2  -8  170.88    4.80
   2  -2   8  176.08    4.30
   2  -2   8  170.98    4.80
   2  -2   8  170.78    4.80
   2  -2   8  174.38    4.60
   2  -2   8  178.88    4.30
   2  -2   8  173.38    4.20
   2  -2   8  178.98    4.30
   2  -2   8  165.98    4.60
  -3   2  -8  102.59    2.70
  -3   2  -8   99.49    3.20
  -3   2  -8  103.99    2.80
   3  -2   8  104.09    2.70
   3  -2   8  103.99    3.00
   3  -2   8  101.79    3.10
   3  -2   8  102.79    2.70
   3  -2   8  104.49    3.10
  -4   2  -8  320.57    8.40
  -4   2  -8  314.47    8.00
  -4   2  -8  318.47    7.60
   4  -2   8  325.47    8.30
   4  -2   8  314.57    7.90
   4  -2   8  311.07    8.20
   4  -2   8  314.97    8.10
   4  -2   8  319.37    7.90
  -5   2  -8   18.10    1.30
  -5   2  -8   15.70    0.90
   5  -2   8   16.50    0.90
   5  -2   8   17.50    1.10
   5  -2   8   16.80    0.90
   5  -2   8   18.70    1.00
  -6   2  -8   18.20    1.40
   6  -2   8   18.00    1.00
   6  -2   8   18.60    1.20
   6  -2   8   16.80    1.00
   6  -2   8   18.40    1.10
  -7   2  -8    2.00    0.60
  -7   2  -8    0.30    0.80
   7  -2   8    1.80    0.50
   7  -2   8    0.70    0.50
   7  -2   8    2.40    0.60
   7  -2   8    1.90    0.70
  -8   2  -8   -0.90    0.70
  -8   2  -8    1.60    0.70
   8  -2   8    0.30    0.50
   8  -2   8    0.30    0.50
   8  -2   8    0.90    0.60
   8  -2   8    1.10    0.80
   7   1  -8    8.60    1.50
   7   1  -8   10.70    1.10
   7   1  -8   10.40    1.10
  -7  -1   8    9.80    1.40
  -7  -1   8   12.60    1.20
   6   1  -8   16.60    1.10
   6   1  -8   15.10    1.00
   6   1  -8   13.80    1.60
  -6  -1   8   15.00    1.10
  -6  -1   8   14.30    1.50
   5   1  -8   -0.40    0.70
   5   1  -8    0.10    0.40
   5   1  -8   -0.70    0.60
   5   1  -8    0.30    0.40
  -5  -1   8    0.30    0.60
  -5  -1   8    0.00    0.40
  -5  -1   8   -0.30    0.40
   4   1  -8   22.70    1.00
   4   1  -8   22.20    1.00
   4   1  -8   21.30    1.40
   4   1  -8   22.20    1.20
   4   1  -8   21.40    1.00
  -4  -1   8   25.70    1.60
  -4  -1   8   20.60    1.10
  -4  -1   8   23.20    1.10
  -4  -1   8   22.90    1.10
   3   1  -8   54.39    1.90
   3   1  -8   55.79    1.70
   3   1  -8   54.79    1.70
   3   1  -8   53.99    2.10
   3   1  -8   53.19    1.70
  -3  -1   8   53.89    2.00
  -3  -1   8   55.99    1.80
  -3  -1   8   56.99    1.90
  -3  -1   8   53.29    2.20
   2   1  -8  136.69    4.00
   2   1  -8  144.99    3.70
   2   1  -8  138.29    3.50
   2   1  -8  138.09    3.50
   2   1  -8  135.69    3.80
  -2  -1   8  144.49    3.80
  -2  -1   8  138.39    3.60
  -2  -1   8  136.39    4.10
  -2  -1   8  142.89    3.60
  -2  -1   8  134.49    3.90
   1   1  -8  256.17    6.70
   1   1  -8  265.27    6.60
   1   1  -8  265.17    6.30
   1   1  -8  261.57    6.30
   1   1  -8  260.77    6.80
  -1  -1   8  267.97    6.30
  -1  -1   8  251.47    6.90
  -1  -1   8  272.37    6.30
  -1  -1   8  262.27    6.30
  -1  -1   8  258.87    6.80
  -1  -1   8  261.47    6.30
  -1  -1   8  262.47    6.80
   0   1  -8  547.85   13.60
   0   1  -8  562.84   13.60
   0  -1   8  542.85   13.70
   0  -1   8  563.54   13.70
   0  -1   8  547.75   13.60
   0  -1   8  572.34   13.90
  -1   1  -8   53.89    1.70
   1  -1   8   53.19    1.70
   1  -1   8   52.39    1.70
   1  -1   8   49.70    1.80
   1  -1   8   53.09    1.90
   1  -1   8   51.39    1.80
  -2   1  -8   13.00    0.90
  -2   1  -8   12.00    0.50
  -2   1  -8   11.90    0.50
  -2   1  -8   12.70    0.50
  -2   1  -8   13.10    0.70
  -2   1  -8   13.00    0.50
   2  -1   8   13.10    0.50
   2  -1   8   13.50    0.50
   2  -1   8   11.60    0.70
   2  -1   8   12.70    0.80
  -3   1  -8   56.39    1.60
  -3   1  -8   53.79    2.00
  -3   1  -8   55.89    1.60
  -3   1  -8   56.09    1.60
   3  -1   8   57.49    1.60
   3  -1   8   56.29    2.00
   3  -1   8   54.99    1.90
   3  -1   8   54.59    1.90
  -4   1  -8   16.50    1.10
  -4   1  -8   15.30    0.80
  -4   1  -8   16.70    0.90
  -4   1  -8   15.90    0.70
   4  -1   8   18.00    1.00
   4  -1   8   17.80    1.10
   4  -1   8   17.00    0.80
  -5   1  -8   97.89    2.90
  -5   1  -8   99.89    2.60
  -5   1  -8   97.69    2.90
  -5   1  -8   97.99    3.30
   5  -1   8   95.19    2.80
   5  -1   8   99.49    3.00
   5  -1   8   95.49    3.10
  -6   1  -8   45.30    1.80
  -6   1  -8   45.30    2.00
  -6   1  -8   42.40    1.70
   6  -1   8   42.10    1.60
   6  -1   8   43.50    1.90
  -7   1  -8   26.70    1.50
  -7   1  -8   26.20    1.50
  -7   1  -8   26.80    1.80
   7  -1   8   25.70    1.30
   7  -1   8   25.40    1.30
   7  -1   8   29.70    1.70
  -8   1  -8   47.50    2.20
  -8   1  -8   45.90    2.50
  -8   1  -8   44.20    2.10
   8  -1   8   42.30    1.90
   8  -1   8   47.20    2.00
   8  -1   8   46.60    2.20
  -9   1  -8   -0.60    0.70
  -9   1  -8    0.30    0.60
   9  -1   8    0.40    0.60
   9  -1   8   -0.20    0.70
   9  -1   8    0.00    0.50
   7   0  -8   14.90    1.30
   7   0  -8   14.70    1.30
   7   0  -8   11.70    1.60
  -7   0   8   15.60    1.30
  -7   0   8   14.00    1.60
  -7   0   8   14.90    1.40
   6   0  -8   13.00    1.10
   6   0  -8    9.90    1.50
   6   0  -8   11.00    1.10
  -6   0   8   13.40    1.50
  -6   0   8   13.60    1.20
   5   0  -8    6.00    0.70
   5   0  -8    4.20    0.70
   5   0  -8    5.00    1.00
  -5   0   8    5.30    0.90
  -5   0   8    4.80    0.70
  -5   0   8    4.60    0.70
   4   0  -8    3.50    0.50
   4   0  -8    4.10    0.60
   4   0  -8    4.10    0.90
   4   0  -8    4.30    0.60
  -4   0   8    4.20    0.80
  -4   0   8    4.80    0.70
  -4   0   8    4.10    0.60
   3   0  -8   66.79    2.10
   3   0  -8   70.69    2.10
   3   0  -8   70.09    1.90
   3   0  -8   71.69    2.20
   3   0  -8   67.49    2.50
  -3   0   8   69.69    2.40
  -3   0   8   69.49    2.10
  -3   0   8   72.59    2.10
  -3   0   8   69.19    2.20
  -3   0   8   69.49    2.50
   2   0  -8   75.29    2.10
   2   0  -8   78.69    2.60
   2   0  -8   77.99    2.10
   2   0  -8   76.39    2.20
  -2   0   8   76.19    2.20
  -2   0   8   80.29    2.20
  -2   0   8   73.99    2.50
  -2   0   8   81.29    2.20
  -2   0   8   75.49    2.60
   1   0  -8  136.69    3.50
   1   0  -8  141.09    3.60
   1   0  -8  137.89    3.60
   1   0  -8  138.09    3.80
  -1   0   8  134.49    3.90
  -1   0   8  137.89    4.00
  -1   0   8  139.39    3.60
  -1   0   8  147.29    3.60
  -1   0   8  142.19    3.90
   0   0  -8   35.20    1.20
   0   0  -8   35.60    1.00
   0   0  -8   35.20    1.00
   0   0  -8   34.40    1.20
   0   0  -8   34.00    1.30
   0   0  -8   36.60    1.00
   0   0   8   36.50    1.00
   0   0   8   38.10    1.00
   0   0   8   33.30    1.40
   0   0   8   34.20    1.30
   0   0   8   36.30    1.00
   0   0   8   35.00    1.50
  -1   0  -8   -0.20    0.20
  -1   0  -8    0.10    0.10
  -1   0  -8    0.10    0.10
  -1   0  -8    0.10    0.10
  -1   0  -8    0.20    0.10
   1   0   8   -0.40    0.30
   1   0   8    0.00    0.10
   1   0   8   -0.10    0.30
   1   0   8    0.10    0.10
  -2   0  -8   20.50    0.70
  -2   0  -8   22.50    0.70
  -2   0  -8   21.60    0.70
  -2   0  -8   20.10    0.90
   2   0   8   22.50    0.70
   2   0   8   21.60    1.00
   2   0   8   20.10    0.90
   2   0   8   21.30    0.70
   2   0   8   20.60    0.70
   2   0   8   21.70    1.00
   2   0   8   22.70    0.70
  -3   0  -8    3.50    0.40
  -3   0  -8    4.10    0.40
  -3   0  -8    3.50    0.60
   3   0   8    4.90    0.60
   3   0   8    3.80    0.50
   3   0   8    3.90    0.30
   3   0   8    4.30    0.40
   3   0   8    3.40    0.50
  -4   0  -8  102.29    3.20
  -4   0  -8   98.89    2.80
  -4   0  -8  103.79    2.80
  -4   0  -8  101.79    2.90
   4   0   8  101.59    3.00
   4   0   8  104.89    3.10
   4   0   8  100.29    2.80
   4   0   8  102.29    3.10
  -5   0  -8  208.18    5.40
  -5   0  -8  201.68    5.20
  -5   0  -8  204.18    5.40
  -5   0  -8  201.38    5.70
   5   0   8  199.48    5.60
   5   0   8  199.58    5.30
  -6   0  -8   37.80    1.30
  -6   0  -8   40.70    1.60
  -6   0  -8   36.80    1.60
  -6   0  -8   39.40    1.80
   6   0   8   37.80    1.80
   6   0   8   38.20    1.50
  -7   0  -8   96.49    3.20
  -7   0  -8   90.79    3.10
  -7   0  -8  100.59    3.50
   7   0   8   93.99    3.00
   7   0   8   92.69    3.20
   7   0   8   96.89    3.30
  -8   0  -8   50.69    2.50
  -8   0  -8   50.29    2.30
  -8   0  -8   49.20    2.20
   8   0   8   48.10    2.30
   8   0   8   50.79    2.40
   8   0   8   48.30    2.10
  -9   0  -8   17.70    1.50
  -9   0  -8   17.70    1.50
  -9   0  -8   18.10    1.70
   9   0   8   20.20    1.50
   9   0   8   17.80    1.70
   9   0   8   20.70    1.60
   9   0   8   18.40    1.40
   7  -1  -8    0.00    1.00
   7  -1  -8    1.60    0.70
   7  -1  -8    2.30    0.70
   7  -1  -8    0.70    0.70
  -7   1   8    0.70    0.70
  -7   1   8    1.50    0.80
   6  -1  -8    3.60    0.80
   6  -1  -8    2.50    1.00
   6  -1  -8    3.60    0.80
  -6   1   8    3.90    0.90
  -6   1   8    2.60    0.70
  -6   1   8    3.40    0.90
   5  -1  -8   -0.20    0.80
   5  -1  -8    1.30    0.50
   5  -1  -8    0.30    0.50
  -5   1   8    0.00    0.50
  -5   1   8    0.40    0.60
  -5   1   8    0.30    0.50
  -5   1   8    0.40    0.50
   4  -1  -8    1.80    0.50
   4  -1  -8    1.60    0.70
   4  -1  -8    1.60    0.50
  -4   1   8    1.70    0.60
  -4   1   8    0.80    0.50
  -4   1   8    2.50    0.60
  -4   1   8    2.00    0.50
   3  -1  -8   38.80    1.80
   3  -1  -8   41.60    1.40
  -3   1   8   38.90    1.30
  -3   1   8   38.10    1.50
  -3   1   8   37.10    1.60
  -3   1   8   38.90    1.80
  -3   1   8   40.70    1.50
   2  -1  -8    0.30    0.40
   2  -1  -8    0.70    0.30
   2  -1  -8    1.00    0.20
   2  -1  -8    1.20    0.50
  -2   1   8    0.80    0.30
  -2   1   8    0.30    0.40
  -2   1   8    0.80    0.30
  -2   1   8    1.10    0.50
   1  -1  -8   20.80    1.10
   1  -1  -8   21.30    1.00
   1  -1  -8   21.50    0.70
   1  -1  -8   21.00    0.80
  -1   1   8   21.40    0.80
  -1   1   8   21.90    1.00
  -1   1   8   20.90    1.10
  -1   1   8   21.30    1.10
  -1   1   8   21.60    0.90
   0  -1  -8    4.20    0.30
   0  -1  -8    4.60    0.40
   0  -1  -8    5.70    0.60
   0  -1  -8    4.50    0.40
   0  -1  -8    4.50    0.30
   0  -1  -8    4.60    0.30
   0   1   8    4.30    0.50
   0   1   8    4.70    0.40
   0   1   8    4.30    0.60
   0   1   8    4.50    0.60
  -1  -1  -8  278.97    7.20
  -1  -1  -8  279.77    6.90
  -1  -1  -8  280.17    6.90
  -1  -1  -8  289.27    7.10
   1   1   8  289.27    6.90
   1   1   8  291.27    6.90
   1   1   8  288.97    7.20
   1   1   8  280.37    7.30
  -2  -1  -8    0.90    0.20
  -2  -1  -8    0.60    0.20
  -2  -1  -8    0.60    0.30
  -2  -1  -8    1.60    0.40
  -2  -1  -8    0.90    0.20
   2   1   8    0.80    0.20
   2   1   8    0.60    0.30
   2   1   8    0.60    0.30
  -3  -1  -8    0.30    0.40
  -3  -1  -8    0.20    0.20
  -3  -1  -8    0.60    0.30
  -3  -1  -8    0.80    0.20
  -3  -1  -8    0.90    0.30
   3   1   8    0.80    0.40
   3   1   8    0.50    0.30
   3   1   8    0.50    0.20
   3   1   8    0.60    0.40
   3   1   8    0.70    0.20
  -4  -1  -8  101.39    3.20
  -4  -1  -8  101.39    3.10
  -4  -1  -8   98.19    2.80
  -4  -1  -8   96.79    2.80
   4   1   8  103.79    3.00
   4   1   8  100.89    2.80
   4   1   8   95.59    3.00
   4   1   8  100.69    2.90
   4   1   8  100.79    2.80
  -5  -1  -8   70.79    2.20
  -5  -1  -8   68.99    2.20
  -5  -1  -8   68.09    2.20
  -5  -1  -8   70.79    2.50
   5   1   8   68.39    2.10
   5   1   8   68.59    2.40
   5   1   8   69.39    2.20
  -6  -1  -8   38.00    1.60
  -6  -1  -8   38.50    1.80
  -6  -1  -8   37.70    1.40
  -6  -1  -8   38.60    1.60
   6   1   8   37.40    1.50
   6   1   8   37.90    1.60
   6   1   8   38.30    1.70
  -7  -1  -8   35.20    1.60
  -7  -1  -8   32.10    1.60
  -7  -1  -8   34.30    1.80
   7   1   8   34.60    1.50
   7   1   8   34.90    1.70
   7   1   8   32.60    1.60
  -8  -1  -8   26.80    1.60
  -8  -1  -8   27.30    1.60
  -8  -1  -8   23.90    1.70
   8   1   8   24.50    1.60
   8   1   8   27.60    1.70
   8   1   8   25.70    1.40
  -9  -1  -8   -0.30    0.60
  -9  -1  -8    0.90    0.70
  -9  -1  -8   -0.10    0.70
   9   1   8    1.00    0.70
   9   1   8    1.90    0.80
   9   1   8    0.40    0.70
   6  -2  -8    2.40    0.80
   6  -2  -8    3.00    1.00
   6  -2  -8    1.70    0.70
  -6   2   8    1.90    0.70
  -6   2   8    2.20    1.10
  -6   2   8    2.00    0.70
   5  -2  -8    0.70    0.80
   5  -2  -8    0.10    0.50
   5  -2  -8    0.30    0.60
  -5   2   8    0.30    0.50
  -5   2   8   -0.40    0.40
  -5   2   8    0.80    0.50
  -5   2   8   -0.10    0.50
   4  -2  -8    2.00    0.80
   4  -2  -8    1.80    0.50
   4  -2  -8    2.80    0.70
  -4   2   8    1.70    0.60
  -4   2   8    1.40    0.50
  -4   2   8    1.50    0.60
  -4   2   8    1.10    0.50
   3  -2  -8    2.00    0.60
   3  -2  -8    1.70    0.40
   3  -2  -8    1.50    0.60
  -3   2   8    1.50    0.50
  -3   2   8    0.90    0.50
  -3   2   8    2.20    0.50
  -3   2   8    1.50    0.40
   2  -2  -8   55.39    1.80
   2  -2  -8   52.49    2.00
   2  -2  -8   50.99    2.00
  -2   2   8   53.49    2.10
  -2   2   8   55.79    2.00
  -2   2   8   53.79    1.80
  -2   2   8   54.49    1.80
   1  -2  -8   16.60    0.90
   1  -2  -8   17.00    0.80
   1  -2  -8   18.80    1.10
   1  -2  -8   18.30    0.80
  -1   2   8   16.00    1.10
  -1   2   8   17.70    1.10
  -1   2   8   17.30    0.90
  -1   2   8   17.50    0.80
  -1   2   8   18.10    0.90
   0  -2  -8  123.59    3.20
   0  -2  -8  117.19    3.20
   0  -2  -8  122.19    3.20
   0  -2  -8  119.89    3.50
   0  -2  -8  125.49    3.00
   0   2   8  117.39    3.60
   0   2   8  123.69    3.60
   0   2   8  126.79    3.30
   0   2   8  126.09    3.40
   0   2   8  126.19    3.20
  -1  -2  -8   54.69    1.90
  -1  -2  -8   55.79    1.60
  -1  -2  -8   53.39    1.40
  -1  -2  -8   54.69    1.50
  -1  -2  -8   57.19    1.60
   1   2   8   54.09    1.80
   1   2   8   54.29    1.60
   1   2   8   54.89    1.60
  -2  -2  -8  125.19    3.40
  -2  -2  -8  121.49    3.30
  -2  -2  -8  123.29    3.30
   2   2   8  124.19    3.50
   2   2   8  123.59    3.20
   2   2   8  120.09    3.50
   2   2   8  128.49    3.30
  -3  -2  -8   17.20    0.90
  -3  -2  -8   17.50    0.80
  -3  -2  -8   14.90    0.80
  -3  -2  -8   15.40    0.50
  -3  -2  -8   15.30    0.70
   3   2   8   14.90    0.70
   3   2   8   19.20    0.90
   3   2   8   15.40    0.90
  -4  -2  -8   78.89    2.30
  -4  -2  -8   79.89    2.30
  -4  -2  -8   75.29    2.40
  -4  -2  -8   78.19    2.30
  -4  -2  -8   79.19    2.60
   4   2   8   80.29    2.40
   4   2   8   76.69    2.30
   4   2   8   76.79    2.30
  -5  -2  -8  124.69    3.80
  -5  -2  -8  125.29    3.60
  -5  -2  -8  125.79    3.60
   5   2   8  126.49    3.50
   5   2   8  126.19    3.50
   5   2   8  121.79    3.50
   5   2   8  125.49    3.70
   5   2   8  129.89    3.50
  -6  -2  -8   95.99    3.00
  -6  -2  -8   98.89    3.20
  -6  -2  -8   98.59    3.10
   6   2   8   99.09    3.00
   6   2   8   98.99    3.00
   6   2   8   98.79    3.00
   6   2   8  100.89    3.20
  -7  -2  -8    0.30    0.40
  -7  -2  -8    0.00    0.40
  -7  -2  -8   -0.40    0.50
  -7  -2  -8    0.80    0.50
   7   2   8    1.00    0.50
   7   2   8    0.50    0.50
   7   2   8    0.20    0.40
   7   2   8   -0.10    0.40
  -8  -2  -8   11.50    1.20
  -8  -2  -8    9.00    1.00
  -8  -2  -8   10.70    1.20
   8   2   8   10.90    1.20
   8   2   8   11.30    1.10
   8   2   8    9.90    1.10
  -9  -2  -8    7.70    1.10
  -9  -2  -8    4.70    1.00
  -9  -2  -8    6.00    1.10
   9   2   8    5.60    1.00
   9   2   8    7.10    1.00
   9   2   8    6.40    1.00
   6  -3  -8   -0.30    0.60
   6  -3  -8    1.60    0.70
   6  -3  -8    2.30    0.90
  -6   3   8    1.30    0.70
  -6   3   8    1.60    0.70
  -6   3   8    0.80    0.70
   5  -3  -8    0.20    0.50
   5  -3  -8   -0.20    0.60
   5  -3  -8    0.80    0.80
  -5   3   8   -0.40    0.60
  -5   3   8   -0.80    0.50
  -5   3   8    0.20    0.50
   4  -3  -8    7.40    1.00
   4  -3  -8    6.90    0.80
   4  -3  -8    6.90    0.90
  -4   3   8    7.90    0.90
  -4   3   8    6.50    0.90
  -4   3   8    7.30    0.90
   3  -3  -8    0.60    0.50
   3  -3  -8    0.00    0.40
   3  -3  -8   -0.10    0.40
  -3   3   8   -0.20    0.40
  -3   3   8    0.70    0.40
  -3   3   8    0.30    0.40
   2  -3  -8   19.20    1.20
   2  -3  -8   16.90    1.10
   2  -3  -8   20.20    1.00
  -2   3   8   18.50    1.00
  -2   3   8   18.50    1.10
  -2   3   8   18.00    1.00
   1  -3  -8   10.60    0.70
   1  -3  -8   12.80    0.90
   1  -3  -8   11.90    0.80
   1  -3  -8   12.20    0.80
  -1   3   8   11.50    0.90
  -1   3   8   12.80    0.80
  -1   3   8   11.30    0.80
  -1   3   8   12.40    0.80
   0  -3  -8   84.19    2.50
   0  -3  -8   81.49    2.60
   0  -3  -8   85.49    2.30
   0  -3  -8   84.19    2.40
   0   3   8   88.59    2.40
   0   3   8   83.49    2.50
   0   3   8   84.19    2.50
  -1  -3  -8   55.79    2.00
  -1  -3  -8   57.49    1.70
  -1  -3  -8   58.09    1.60
  -1  -3  -8   54.89    1.40
  -1  -3  -8   56.29    1.80
   1   3   8   56.19    2.00
   1   3   8   56.59    1.80
   1   3   8   56.99    1.80
   1   3   8   54.39    1.80
  -2  -3  -8    4.50    0.40
  -2  -3  -8    4.10    0.40
  -2  -3  -8    3.80    0.60
   2   3   8    4.20    0.50
   2   3   8    4.10    0.40
   2   3   8    4.50    0.50
   2   3   8    4.20    0.60
  -3  -3  -8   13.40    0.80
  -3  -3  -8   14.00    0.70
  -3  -3  -8   13.70    0.90
  -3  -3  -8   13.80    0.80
   3   3   8   12.80    0.80
   3   3   8   13.50    0.70
   3   3   8   13.30    0.90
   3   3   8   15.10    0.90
  -4  -3  -8   68.09    2.30
  -4  -3  -8   66.49    2.20
  -4  -3  -8   66.89    2.10
  -4  -3  -8   65.79    1.80
  -4  -3  -8   68.69    2.10
   4   3   8   66.99    2.10
   4   3   8   68.19    2.20
   4   3   8   66.79    2.30
  -5  -3  -8   58.89    2.00
  -5  -3  -8   58.29    2.10
  -5  -3  -8   64.29    2.20
  -5  -3  -8   60.09    2.00
   5   3   8   57.09    1.90
   5   3   8   58.99    1.80
   5   3   8   61.09    1.90
   5   3   8   57.59    2.00
  -6  -3  -8   50.79    2.00
  -6  -3  -8   49.40    1.90
  -6  -3  -8   50.19    1.90
   6   3   8   50.09    1.80
   6   3   8   51.69    1.80
   6   3   8   52.19    1.70
   6   3   8   52.69    1.90
  -7  -3  -8    3.40    0.70
  -7  -3  -8    3.20    0.70
  -7  -3  -8    2.80    0.60
   7   3   8    3.50    0.60
   7   3   8    3.80    0.70
   7   3   8    2.80    0.60
   7   3   8    4.20    0.70
  -8  -3  -8    1.00    0.50
  -8  -3  -8    1.60    0.60
  -8  -3  -8    1.00    0.70
  -8  -3  -8    1.50    0.60
   8   3   8    1.00    0.60
   8   3   8    0.40    0.50
   8   3   8    1.10    0.50
   8   3   8   -0.20    0.50
  -9  -3  -8   -0.20    0.60
  -9  -3  -8    0.80    0.70
  -9  -3  -8    0.50    0.70
   9   3   8    1.40    0.60
   9   3   8   -0.10    0.60
   9   3   8    0.50    0.60
   5  -4  -8    2.50    0.80
   5  -4  -8    3.90    0.90
   5  -4  -8    1.90    0.70
  -5   4   8    3.20    0.80
  -5   4   8    3.00    0.80
   4  -4  -8    2.10    0.70
   4  -4  -8    2.90    0.70
   4  -4  -8    2.10    0.70
  -4   4   8    1.90    0.70
  -4   4   8    2.20    0.60
   3  -4  -8   15.80    1.10
   3  -4  -8   18.30    1.30
   3  -4  -8   17.40    1.20
  -3   4   8   17.20    1.20
  -3   4   8   16.40    1.60
  -3   4   8   17.90    1.20
   2  -4  -8   78.79    2.50
   2  -4  -8   77.39    2.70
   2  -4  -8   75.79    2.60
   2  -4  -8   80.89    2.50
  -2   4   8   76.49    2.50
  -2   4   8   74.19    2.50
  -2   4   8   76.69    2.60
   1  -4  -8  316.77    7.90
   1  -4  -8  311.47    7.90
   1  -4  -8  310.47    7.80
   1  -4  -8  305.27    8.10
  -1   4   8  293.77    7.90
   0  -4  -8  103.39    3.00
   0  -4  -8  101.89    3.20
   0  -4  -8  103.99    3.00
   0   4   8  108.09    3.00
   0   4   8  106.69    3.10
  -1  -4  -8   34.50    1.30
  -1  -4  -8   34.70    1.50
  -1  -4  -8   35.80    1.20
  -1  -4  -8   36.40    1.40
   1   4   8   34.10    1.30
   1   4   8   34.00    1.30
   1   4   8   37.40    1.40
   1   4   8   34.70    1.00
   1   4   8   34.40    1.10
  -2  -4  -8   22.30    1.10
  -2  -4  -8   16.90    0.90
  -2  -4  -8   18.50    0.80
   2   4   8   18.50    0.90
   2   4   8   17.70    0.90
   2   4   8   18.30    1.10
   2   4   8   17.40    0.90
   2   4   8   16.60    0.90
  -3  -4  -8    0.20    0.40
  -3  -4  -8    0.30    0.40
  -3  -4  -8    0.50    0.30
  -3  -4  -8    0.80    0.30
   3   4   8    0.80    0.30
   3   4   8    0.30    0.40
   3   4   8    0.70    0.30
   3   4   8    0.70    0.40
   3   4   8    0.10    0.40
  -4  -4  -8   97.79    2.90
  -4  -4  -8   97.89    3.00
  -4  -4  -8   98.89    3.10
  -4  -4  -8   97.49    2.90
   4   4   8   94.69    2.80
   4   4   8   93.19    3.00
   4   4   8   97.09    2.90
  -5  -4  -8   22.00    1.30
  -5  -4  -8   20.10    1.10
  -5  -4  -8   21.80    1.10
   5   4   8   19.30    1.00
   5   4   8   21.90    1.00
   5   4   8   21.00    0.80
   5   4   8   21.60    1.30
  -6  -4  -8    8.00    0.90
  -6  -4  -8    6.80    0.80
  -6  -4  -8    7.50    0.90
   6   4   8    8.80    0.80
   6   4   8    7.10    0.60
   6   4   8    7.10    0.80
   6   4   8    6.50    0.70
   6   4   8    4.90    0.80
  -7  -4  -8   13.00    1.10
  -7  -4  -8   12.90    1.10
  -7  -4  -8   12.80    1.10
   7   4   8   14.60    1.10
   7   4   8   13.70    1.00
   7   4   8   13.90    1.00
   7   4   8   11.10    1.20
  -8  -4  -8   38.50    1.90
  -8  -4  -8   36.90    1.80
  -8  -4  -8   37.40    1.80
   8   4   8   40.70    1.80
   8   4   8   36.90    1.80
   8   4   8   37.50    1.80
  -9  -4  -8    1.70    0.80
  -9  -4  -8    1.90    0.80
  -9  -4  -8    1.80    0.70
   9   4   8    1.80    0.70
   9   4   8    1.80    0.70
   5  -5  -8    3.60    0.80
   5  -5  -8    3.50    0.80
  -5   5   8    2.20    0.80
  -5   5   8    2.70    0.90
   4  -5  -8   19.30    1.50
   4  -5  -8   13.70    1.30
   4  -5  -8   15.80    1.30
  -4   5   8   15.40    1.30
  -4   5   8   16.20    1.40
   3  -5  -8    3.50    0.70
   3  -5  -8    3.10    0.70
   3  -5  -8    2.10    0.70
   3  -5  -8    3.90    0.70
  -3   5   8    2.30    0.80
  -3   5   8    3.80    0.80
   2  -5  -8   23.50    1.30
   2  -5  -8   24.80    1.30
   2  -5  -8   23.80    1.30
   2  -5  -8   24.00    1.40
  -2   5   8   25.30    1.50
  -2   5   8   22.20    1.30
   1  -5  -8   52.69    2.00
   1  -5  -8   50.99    1.90
   1  -5  -8   49.00    2.00
  -1   5   8   52.39    2.00
   0  -5  -8    2.50    0.60
   0  -5  -8    2.60    0.50
   0  -5  -8    3.00    0.60
   0   5   8    3.10    0.40
   0   5   8    3.30    0.60
  -1  -5  -8    1.70    0.50
  -1  -5  -8    1.70    0.50
  -1  -5  -8    1.10    0.40
   1   5   8    1.80    0.40
   1   5   8    1.70    0.30
   1   5   8    1.90    0.50
   1   5   8    1.80    0.50
  -2  -5  -8   17.00    0.90
  -2  -5  -8   17.10    1.10
  -2  -5  -8   16.00    0.70
   2   5   8   16.40    0.90
   2   5   8   16.20    0.90
   2   5   8   15.30    0.90
   2   5   8   16.30    1.00
  -3  -5  -8    0.50    0.40
  -3  -5  -8   -0.80    0.40
  -3  -5  -8   -0.10    0.30
   3   5   8    0.40    0.40
   3   5   8    0.40    0.40
   3   5   8    0.50    0.30
   3   5   8   -0.10    0.30
   3   5   8    0.20    0.40
  -4  -5  -8   77.19    2.60
  -4  -5  -8   78.79    2.50
  -4  -5  -8   77.49    2.70
  -4  -5  -8   79.89    2.50
   4   5   8   75.59    2.40
   4   5   8   74.89    2.50
   4   5   8   77.99    2.60
   4   5   8   76.19    2.50
  -5  -5  -8    2.40    0.70
  -5  -5  -8    2.20    0.50
  -5  -5  -8    2.20    0.60
   5   5   8    2.40    0.70
   5   5   8    2.20    0.60
   5   5   8    3.00    0.50
   5   5   8    3.20    0.50
  -6  -5  -8    4.80    0.80
  -6  -5  -8    6.00    0.80
  -6  -5  -8    4.30    0.70
  -6  -5  -8    5.00    0.70
   6   5   8    4.80    0.80
   6   5   8    4.00    0.70
   6   5   8    5.20    0.70
  -7  -5  -8   14.30    1.20
  -7  -5  -8   14.00    1.10
  -7  -5  -8   12.60    1.20
   7   5   8   12.40    1.30
   7   5   8   11.10    1.00
   7   5   8   12.50    1.10
  -8  -5  -8   13.60    1.20
  -8  -5  -8   14.70    1.30
  -8  -5  -8   14.20    1.40
   8   5   8   14.30    1.30
   8   5   8   12.30    1.40
   8   5   8   13.50    1.20
  -9  -5  -8    2.80    0.90
  -9  -5  -8    3.30    0.90
   9   5   8    5.70    1.00
   9   5   8    3.70    0.80
   4  -6  -8    0.60    0.70
   4  -6  -8    0.60    0.70
  -4   6   8    1.00    0.70
  -4   6   8    0.70    0.70
   3  -6  -8    0.30    0.60
   3  -6  -8   -0.50    0.60
   3  -6  -8   -0.40    0.60
  -3   6   8    0.30    0.70
  -3   6   8   -0.40    0.60
   2  -6  -8    1.70    0.60
   2  -6  -8    1.10    0.60
   2  -6  -8    1.70    0.70
  -2   6   8    2.10    0.70
   1  -6  -8    3.20    0.70
   1  -6  -8    2.40    0.60
   1  -6  -8    3.60    0.70
  -1   6   8    2.60    0.70
   0  -6  -8   10.60    1.10
   0  -6  -8   10.00    1.00
   0  -6  -8   11.20    1.00
   0   6   8   10.20    1.00
  -1  -6  -8   10.20    0.90
  -1  -6  -8    9.00    1.00
  -1  -6  -8   10.10    0.90
   1   6   8    9.40    0.90
   1   6   8    9.10    0.90
   1   6   8    8.00    0.60
   1   6   8    9.10    0.70
  -2  -6  -8    0.90    0.50
  -2  -6  -8    1.00    0.40
   2   6   8    0.80    0.40
   2   6   8    1.40    0.50
   2   6   8    1.00    0.40
   2   6   8    0.30    0.40
   2   6   8    0.10    0.30
  -3  -6  -8    2.80    0.70
  -3  -6  -8    3.40    0.60
   3   6   8    2.50    0.50
   3   6   8    3.50    0.60
   3   6   8    2.30    0.60
   3   6   8    3.30    0.60
   3   6   8    3.50    0.50
  -4  -6  -8   10.20    0.90
  -4  -6  -8    9.90    1.00
  -4  -6  -8    9.20    0.90
   4   6   8    8.00    0.90
   4   6   8    9.40    0.90
   4   6   8    9.30    0.90
   4   6   8    8.80    0.90
   4   6   8    7.40    0.80
  -5  -6  -8   33.60    1.50
  -5  -6  -8   32.20    1.70
  -5  -6  -8   32.80    1.50
   5   6   8   30.10    1.50
   5   6   8   30.80    1.60
   5   6   8   31.40    1.70
   5   6   8   29.40    1.40
  -6  -6  -8   16.40    1.20
  -6  -6  -8   17.00    1.20
  -6  -6  -8   17.30    1.20
  -6  -6  -8   19.00    1.40
   6   6   8   16.00    1.10
   6   6   8   13.90    1.30
   6   6   8   15.40    1.40
  -7  -6  -8    4.90    0.90
  -7  -6  -8    5.60    0.90
  -7  -6  -8    6.30    0.90
  -7  -6  -8    5.60    0.80
   7   6   8    4.80    0.80
   7   6   8    5.00    1.00
   7   6   8    2.70    0.90
   7   6   8    5.00    0.80
  -8  -6  -8    1.20    0.70
  -8  -6  -8    0.50    0.70
   8   6   8    1.90    0.70
   8   6   8    1.20    0.90
   8   6   8    1.80    0.80
  -9  -6  -8    1.30    0.80
  -9  -6  -8    0.50    0.70
   9   6   8   -0.20    0.70
   9   6   8   -0.10    0.70
   9   6   8    0.80    0.90
   3  -7  -8   13.00    1.30
   3  -7  -8   14.60    1.40
   3  -7  -8   13.80    1.40
  -3   7   8   15.30    1.50
   2  -7  -8    3.00    0.90
   2  -7  -8    3.60    0.80
   2  -7  -8    3.60    0.80
  -2   7   8    4.10    0.90
   1  -7  -8    1.10    0.60
   1  -7  -8    0.50    0.50
   1  -7  -8    0.00    0.60
  -1   7   8   -0.40    0.50
   0  -7  -8   -0.10    0.50
   0  -7  -8    0.30    0.60
   0  -7  -8    1.20    0.60
   0   7   8   -0.40    0.50
  -1  -7  -8    6.30    0.80
  -1  -7  -8    5.70    0.90
  -1  -7  -8    6.10    0.80
   1   7   8    4.70    0.80
   1   7   8    5.20    0.80
  -2  -7  -8   12.50    1.20
  -2  -7  -8   10.50    1.00
   2   7   8    8.70    0.80
   2   7   8   12.40    1.00
   2   7   8   10.30    1.00
   2   7   8   12.60    0.80
  -3  -7  -8    1.00    0.50
  -3  -7  -8    1.40    0.60
   3   7   8    0.80    0.50
   3   7   8    0.60    0.50
   3   7   8    1.40    0.60
   3   7   8    0.90    0.40
   3   7   8    1.10    0.50
  -4  -7  -8   23.50    1.40
  -4  -7  -8   24.50    1.30
  -4  -7  -8   22.20    1.50
   4   7   8   24.80    1.40
   4   7   8   25.10    1.30
   4   7   8   24.60    1.40
   4   7   8   21.60    1.30
   4   7   8   22.60    1.20
  -5  -7  -8    8.10    1.00
  -5  -7  -8    6.70    1.00
  -5  -7  -8    7.20    0.90
   5   7   8    7.30    0.90
   5   7   8    6.00    0.90
   5   7   8    6.40    0.90
   5   7   8    7.80    0.90
  -6  -7  -8   10.00    1.10
  -6  -7  -8    8.40    1.20
  -6  -7  -8    8.80    1.00
   6   7   8    7.50    1.00
   6   7   8    6.70    1.00
   6   7   8    8.70    1.00
  -7  -7  -8   21.80    1.50
  -7  -7  -8   21.80    1.60
  -7  -7  -8   22.30    1.50
   7   7   8   19.50    1.80
   7   7   8   16.40    1.80
   7   7   8   18.10    1.30
   7   7   8   20.00    1.30
  -8  -7  -8    3.70    0.90
  -8  -7  -8    3.30    0.90
   8   7   8    2.40    0.90
   8   7   8    3.70    0.90
   8   7   8    1.30    0.90
  -9  -7  -8   -0.10    0.70
  -9  -7  -8    1.20    0.80
   9   7   8    1.50    0.90
   9   7   8    0.80    0.70
   9   7   8    0.40    0.70
   2  -8  -8    0.50    0.70
   2  -8  -8    0.90    0.80
   2  -8  -8   -0.20    0.60
  -2   8   8   -0.40    0.60
   1  -8  -8    1.10    0.70
   1  -8  -8    1.10    0.70
   1  -8  -8    1.30    0.70
  -1   8   8    2.30    0.80
   0  -8  -8    0.90    0.70
   0  -8  -8    0.00    0.60
   0  -8  -8   -0.10    0.60
   0   8   8    0.60    0.60
  -1  -8  -8   10.70    1.30
  -1  -8  -8    8.90    1.00
  -1  -8  -8    9.40    1.10
   1   8   8    8.60    1.10
   1   8   8    9.00    1.00
  -2  -8  -8   60.19    2.60
  -2  -8  -8   59.39    2.40
   2   8   8   67.19    2.50
   2   8   8   55.09    2.40
  -3  -8  -8    0.20    0.60
  -3  -8  -8    2.40    0.80
   3   8   8   -0.10    0.50
   3   8   8   -0.20    0.60
   3   8   8    0.50    0.60
  -4  -8  -8   -0.10    0.60
  -4  -8  -8    0.30    0.60
  -4  -8  -8    0.70    0.70
   4   8   8   -0.50    0.60
   4   8   8   -0.50    0.50
   4   8   8    0.20    0.40
   4   8   8   -0.60    0.50
  -5  -8  -8   11.50    1.10
  -5  -8  -8   10.30    1.10
  -5  -8  -8    9.30    1.20
   5   8   8    8.60    1.10
   5   8   8    8.80    1.10
   5   8   8   11.00    1.10
  -6  -8  -8    3.50    0.80
  -6  -8  -8    5.40    1.00
  -6  -8  -8    3.50    1.00
   6   8   8    2.50    0.80
   6   8   8    2.30    0.80
   6   8   8    4.50    0.80
  -7  -8  -8    8.20    1.20
  -7  -8  -8    9.20    1.10
  -7  -8  -8   10.40    1.20
   7   8   8    6.30    1.20
   7   8   8    9.20    1.10
  -8  -8  -8    2.10    0.80
  -8  -8  -8    1.40    0.80
   8   8   8    1.50    1.00
   8   8   8    1.80    0.80
   8   8   8    3.00    0.90
   1  -9  -8    0.20    0.70
   1  -9  -8    0.20    0.70
   1  -9  -8    1.10    0.70
  -1   9   8    0.30    0.70
   0  -9  -8    0.60    0.70
   0  -9  -8    1.50    0.80
   0  -9  -8    2.00    0.80
   0   9   8    2.50    0.80
   0   9   8    0.10    0.70
  -1  -9  -8    0.30    0.60
  -1  -9  -8    0.40    0.70
  -1  -9  -8    0.00    0.70
   1   9   8    0.80    0.60
   1   9   8    0.50    0.70
  -2  -9  -8    2.80    0.90
  -2  -9  -8    0.60    0.70
   2   9   8    0.50    0.70
   2   9   8    2.80    0.80
  -3  -9  -8    1.90    0.80
  -3  -9  -8    0.60    0.70
   3   9   8    0.40    0.60
   3   9   8    0.00    0.60
  -4  -9  -8    2.40    0.80
  -4  -9  -8    3.60    1.00
   4   9   8    3.30    0.80
   4   9   8    2.80    0.80
   4   9   8    1.50    0.70
  -5  -9  -8    2.90    0.80
  -5  -9  -8    2.00    0.80
  -5  -9  -8    2.40    0.70
   5   9   8    1.10    0.70
   5   9   8    1.70    0.60
   5   9   8    1.60    0.70
  -6  -9  -8    1.10    0.80
  -6  -9  -8    0.80    0.70
  -6  -9  -8    0.50    0.70
   6   9   8    0.80    0.70
   6   9   8   -0.20    0.80
  -7  -9  -8    2.40    0.80
  -7  -9  -8    0.00    0.70
  -7  -9  -8    0.10    0.80
   7   9   8    1.20    0.90
   7   9   8    0.80    0.70
  -8  -9  -8    1.30    0.80
  -8  -9  -8    0.90    0.90
  -8  -9  -8    0.60    0.80
   8   9   8    0.60    0.70
   8   9   8    1.60    1.00
   8   9   8    0.60    0.70
   0 -10  -8    0.20    0.80
   0  10   8    0.40    0.80
  -1 -10  -8    5.50    1.10
  -1 -10  -8    7.70    1.20
   1  10   8    5.50    1.00
   1  10   8    6.00    1.00
  -2 -10  -8    2.50    0.90
  -2 -10  -8    3.70    0.90
   2  10   8    2.30    0.90
   2  10   8    3.10    0.80
  -3 -10  -8    0.10    0.70
  -3 -10  -8   -1.00    0.70
   3  10   8    0.00    0.70
   3  10   8   -0.10    0.60
  -4 -10  -8    1.30    0.90
  -4 -10  -8    1.70    0.80
   4  10   8    2.30    0.80
   4  10   8    2.60    0.80
  -5 -10  -8   -1.00    0.60
  -5 -10  -8   -1.00    0.60
  -5 -10  -8    0.40    0.80
   5  10   8   -2.00    0.70
   5  10   8    0.00    0.60
  -6 -10  -8    0.10    0.80
  -6 -10  -8    2.00    0.90
  -6 -10  -8    1.30    0.80
   6  10   8    0.20    0.70
   6  10   8   -0.60    0.80
  -7 -10  -8   14.90    1.50
  -7 -10  -8   13.20    1.60
  -7 -10  -8   18.90    1.80
   7  10   8   12.40    1.60
   7  10   8   12.60    1.40
  -4 -11  -8    0.10    0.80
  -4 -11  -8    0.20    0.70
  -4 -11  -8    0.70    0.70
   4  11   8    0.50    0.70
   4  11   8   -1.00    0.60
   4  10  -9   -0.90    0.80
   4  10  -9    0.80    1.00
  -4 -10   9    0.70    0.70
  -4 -10   9   -0.20    0.70
   3  10  -9    1.30    0.90
   3  10  -9   -0.20    0.80
  -3 -10   9    0.40    0.80
   2  10  -9    0.80    0.90
   2  10  -9    1.60    0.90
  -2 -10   9   -0.30    0.80
   1  10  -9   -0.30    0.70
  -1 -10   9   -1.40    0.70
   0  10  -9    0.80    0.80
   0 -10   9    0.40    0.80
  -1  10  -9   -0.20    0.80
   1 -10   9   -0.40    0.70
   5   9  -9    0.50    0.80
   5   9  -9    1.80    0.90
  -5  -9   9    3.40    0.90
  -5  -9   9    1.30    0.90
   4   9  -9   -0.90    0.80
   4   9  -9   -0.40    0.70
  -4  -9   9   -0.70    0.60
  -4  -9   9   -0.10    0.70
   3   9  -9    1.00    0.90
   3   9  -9    2.30    0.90
  -3  -9   9    1.50    0.80
  -3  -9   9    2.90    0.90
   2   9  -9    0.80    0.80
   2   9  -9    0.80    0.80
  -2  -9   9    2.30    0.70
  -2  -9   9    2.00    0.90
   1   9  -9    3.00    0.90
  -1  -9   9    2.10    0.90
   0   9  -9    0.30    0.70
   0  -9   9    0.00    0.70
  -1   9  -9    1.20    0.90
   1  -9   9    2.40    0.70
   1  -9   9    2.80    1.00
  -2   9  -9    3.90    1.40
  -2   9  -9    2.60    1.00
   2  -9   9    3.80    1.10
   2  -9   9    3.40    0.90
  -3   9  -9    8.80    1.30
  -3   9  -9   10.40    1.50
   3  -9   9    9.80    1.30
   3  -9   9    8.90    1.30
   6   8  -9   -1.50    0.80
   6   8  -9   -0.60    0.70
  -6  -8   9   -2.00    0.80
   5   8  -9   -0.60    0.70
   5   8  -9   -1.00    0.70
  -5  -8   9   -0.30    0.50
  -5  -8   9   -2.00    0.70
   4   8  -9   18.10    1.70
   4   8  -9   15.30    1.60
  -4  -8   9   17.00    1.30
  -4  -8   9   19.30    1.70
   3   8  -9    0.70    0.70
   3   8  -9    1.30    0.80
  -3  -8   9    0.30    0.70
  -3  -8   9    0.50    0.70
   2   8  -9   16.90    1.50
   2   8  -9   12.50    1.50
  -2  -8   9   16.30    1.30
  -2  -8   9   14.50    1.40
   1   8  -9   -0.20    0.70
  -1  -8   9    0.40    0.60
  -1  -8   9    0.50    0.60
   0   8  -9    3.10    0.90
   0  -8   9    5.70    0.70
   0  -8   9    4.70    0.80
   0  -8   9    7.20    1.20
  -1   8  -9    2.10    0.80
  -1   8  -9    3.50    0.70
   1  -8   9    2.80    0.70
   1  -8   9    3.90    1.00
  -2   8  -9    4.80    0.90
  -2   8  -9    4.20    1.10
   2  -8   9    4.30    0.90
   2  -8   9    4.00    1.00
  -3   8  -9   10.90    1.40
  -3   8  -9   11.80    1.50
   3  -8   9   11.60    1.30
   3  -8   9   12.80    1.50
  -4   8  -9    3.30    1.00
   4  -8   9    2.00    0.90
   4  -8   9    3.80    1.00
   6   7  -9    1.60    0.80
   6   7  -9    0.70    0.90
  -6  -7   9    0.70    1.00
   5   7  -9   -0.10    0.60
   5   7  -9    0.50    0.80
  -5  -7   9    0.30    0.50
  -5  -7   9   -2.30    0.70
   4   7  -9    3.80    1.00
   4   7  -9    4.40    0.90
  -4  -7   9    3.50    0.90
  -4  -7   9    4.10    0.80
   3   7  -9    7.40    1.10
   3   7  -9    7.30    1.10
   3   7  -9    8.70    1.20
  -3  -7   9    7.10    1.10
  -3  -7   9    8.80    1.10
   2   7  -9   14.20    1.30
   2   7  -9   13.40    1.40
   2   7  -9   13.50    1.40
  -2  -7   9   12.00    1.30
  -2  -7   9   14.70    1.20
   1   7  -9    2.70    0.80
   1   7  -9    2.00    0.80
  -1  -7   9    3.50    0.70
  -1  -7   9    4.90    0.90
   0   7  -9    1.70    0.80
   0   7  -9    1.10    0.50
   0   7  -9    0.20    0.60
   0  -7   9    1.50    0.60
   0  -7   9    3.10    0.90
   0  -7   9    1.40    0.50
  -1   7  -9   13.00    1.40
  -1   7  -9   11.80    1.00
  -1   7  -9   10.30    1.20
   1  -7   9   13.70    1.00
   1  -7   9   11.60    1.30
  -2   7  -9   23.60    1.60
  -2   7  -9   22.50    1.70
   2  -7   9   23.30    1.40
   2  -7   9   23.30    1.60
  -3   7  -9   12.50    1.40
   3  -7   9    9.70    1.30
   3  -7   9   10.30    1.20
  -4   7  -9    8.20    1.30
   4  -7   9    9.60    1.20
   4  -7   9    9.80    1.30
  -5   7  -9    1.70    0.90
   5  -7   9    1.20    0.90
   5  -7   9    3.60    0.90
   7   6  -9   -0.30    1.10
  -7  -6   9    1.00    1.10
   6   6  -9    1.70    1.10
   6   6  -9    1.70    0.80
  -6  -6   9    1.50    1.00
   5   6  -9    3.30    1.00
   5   6  -9    2.00    0.70
  -5  -6   9    3.70    0.70
  -5  -6   9    4.00    1.10
   4   6  -9   16.10    1.50
   4   6  -9   13.70    1.50
   4   6  -9   14.40    1.40
  -4  -6   9   15.70    1.20
  -4  -6   9   12.80    1.50
   3   6  -9   59.99    2.70
   3   6  -9   62.89    2.70
   3   6  -9   62.79    2.60
  -3  -6   9   60.59    2.40
  -3  -6   9   65.29    2.70
   2   6  -9    6.30    0.90
   2   6  -9    8.40    1.10
   2   6  -9    6.50    1.00
  -2  -6   9    7.60    1.00
  -2  -6   9    8.40    1.00
   1   6  -9   14.50    0.90
   1   6  -9   15.10    1.30
   1   6  -9   14.70    1.40
  -1  -6   9   14.70    1.20
  -1  -6   9   14.20    0.80
  -1  -6   9   15.70    1.30
   0   6  -9   -0.10    0.40
   0   6  -9    0.10    0.50
   0   6  -9    0.20    0.50
   0  -6   9    0.20    0.40
   0  -6   9    0.60    0.60
   0  -6   9    0.00    0.50
  -1   6  -9    4.20    0.80
  -1   6  -9    4.00    0.70
  -1   6  -9    3.50    0.80
   1  -6   9    4.10    0.60
   1  -6   9    4.30    0.80
  -2   6  -9    0.00    0.50
  -2   6  -9    0.60    0.50
   2  -6   9   -1.50    0.40
   2  -6   9   -0.90    0.50
   2  -6   9    0.30    0.30
  -3   6  -9    0.20    0.60
   3  -6   9   -1.10    0.50
   3  -6   9   -0.10    0.30
   3  -6   9   -0.20    0.50
   3  -6   9   -0.30    0.30
  -4   6  -9   -1.00    0.60
   4  -6   9    0.50    0.50
   4  -6   9   -0.40    0.60
   4  -6   9    1.50    0.70
  -5   6  -9   -1.20    0.60
   5  -6   9    0.60    0.70
   5  -6   9   -0.10    0.60
  -6   6  -9    1.10    0.80
   6  -6   9    1.50    0.80
   7   5  -9    9.30    1.60
  -7  -5   9   11.60    1.70
   6   5  -9   38.40    2.60
   6   5  -9   35.50    2.10
  -6  -5   9   43.00    2.80
   5   5  -9   14.70    1.40
   5   5  -9   15.60    1.30
   5   5  -9   16.30    1.60
  -5  -5   9   18.60    1.80
   4   5  -9   31.60    1.70
   4   5  -9   32.80    1.80
   4   5  -9   31.20    2.00
  -4  -5   9   28.40    1.50
  -4  -5   9   29.10    1.90
   3   5  -9   49.30    2.10
   3   5  -9   43.40    2.10
   3   5  -9   48.10    2.20
  -3  -5   9   46.50    2.20
  -3  -5   9   45.80    1.90
   2   5  -9   64.19    2.00
   2   5  -9   67.09    2.70
   2   5  -9   63.79    2.60
   2   5  -9   67.09    2.50
  -2  -5   9   64.49    2.60
  -2  -5   9   64.89    2.40
   1   5  -9    2.10    0.60
   1   5  -9    2.00    0.60
   1   5  -9    2.60    0.40
  -1  -5   9    2.00    0.60
  -1  -5   9    2.00    0.60
  -1  -5   9    1.90    0.40
   0   5  -9    3.70    0.70
   0   5  -9    3.60    0.70
   0   5  -9    4.20    0.60
   0  -5   9    3.00    0.70
   0  -5   9    3.50    0.50
   0  -5   9    3.40    0.70
  -1   5  -9    1.90    0.50
  -1   5  -9    2.10    0.60
   1  -5   9    1.30    0.40
   1  -5   9    2.60    0.30
   1  -5   9    2.70    0.60
   1  -5   9    1.90    0.50
  -2   5  -9   15.70    1.10
  -2   5  -9   14.60    1.20
  -2   5  -9   15.40    0.70
   2  -5   9   15.80    0.90
   2  -5   9   14.90    1.10
   2  -5   9   16.30    0.70
   2  -5   9   15.80    1.00
   2  -5   9   16.30    0.70
  -3   5  -9   -0.50    0.50
  -3   5  -9   -0.20    0.30
  -3   5  -9    0.00    0.30
   3  -5   9   -0.40    0.50
   3  -5   9    0.30    0.50
   3  -5   9    0.00    0.30
   3  -5   9    0.30    0.20
  -4   5  -9   15.10    1.40
  -4   5  -9   13.40    0.80
  -4   5  -9   12.50    0.90
   4  -5   9   11.90    1.10
   4  -5   9   14.00    0.90
   4  -5   9   13.60    1.10
   4  -5   9   12.70    0.80
  -5   5  -9   18.30    1.70
  -5   5  -9   18.40    1.20
  -5   5  -9   21.00    1.20
   5  -5   9   17.40    1.00
   5  -5   9   18.10    1.50
   5  -5   9   18.30    1.40
  -6   5  -9    6.10    0.80
  -6   5  -9    4.80    1.10
  -6   5  -9    4.60    0.80
   6  -5   9    5.40    0.70
   6  -5   9    6.90    1.10
   6  -5   9    5.20    1.00
  -7   5  -9    0.80    0.90
   7  -5   9   -0.70    0.80
   7  -5   9    0.50    0.50
   7   4  -9   -1.40    1.10
  -7  -4   9   -0.30    1.00
   6   4  -9    7.10    1.40
   6   4  -9    8.60    1.50
  -6  -4   9    9.50    1.50
   5   4  -9   26.80    1.80
   5   4  -9   26.50    1.70
   5   4  -9   22.80    1.40
  -5  -4   9   24.30    1.90
  -5  -4   9   22.40    1.60
  -5  -4   9   21.50    1.30
   4   4  -9   28.70    1.50
   4   4  -9   30.00    1.70
   4   4  -9   29.00    1.80
  -4  -4   9   30.10    1.50
  -4  -4   9   28.50    1.20
  -4  -4   9   33.40    2.00
  -4  -4   9   29.10    1.40
  -4  -4   9   26.30    1.30
   3   4  -9   33.70    1.80
   3   4  -9   39.90    1.70
   3   4  -9   39.50    1.80
  -3  -4   9   36.60    1.20
  -3  -4   9   37.40    1.90
  -3  -4   9   32.90    1.60
  -3  -4   9   35.70    1.20
  -3  -4   9   35.90    1.60
   2   4  -9    2.10    0.50
   2   4  -9    1.80    0.50
   2   4  -9    2.40    0.60
  -2  -4   9    2.10    0.60
  -2  -4   9    2.80    0.60
  -2  -4   9    2.70    0.20
  -2  -4   9    1.60    0.60
   1   4  -9  121.89    3.70
   1   4  -9  113.89    3.70
   1   4  -9  120.59    3.40
   1   4  -9  123.99    3.80
  -1  -4   9  116.29    3.70
  -1  -4   9  116.79    3.70
  -1  -4   9  117.49    3.10
  -1  -4   9  120.89    3.60
   0   4  -9   34.80    1.40
   0   4  -9   34.90    1.60
   0   4  -9   35.30    1.60
   0  -4   9   35.50    1.60
   0  -4   9   34.90    1.40
   0  -4   9   32.90    1.20
   0  -4   9   32.40    1.60
  -1   4  -9    0.30    0.40
  -1   4  -9    0.40    0.10
  -1   4  -9    0.30    0.10
  -1   4  -9    0.30    0.40
   1  -4   9    0.40    0.30
   1  -4   9    0.50    0.40
   1  -4   9    0.30    0.10
   1  -4   9    1.10    0.40
   1  -4   9    3.60    0.60
  -2   4  -9   23.50    0.90
  -2   4  -9   23.40    0.80
  -2   4  -9   22.10    1.30
   2  -4   9   24.80    1.20
   2  -4   9   23.00    0.80
   2  -4   9   24.40    1.10
   2  -4   9   23.40    0.80
   2  -4   9   23.50    1.30
  -3   4  -9   75.29    2.20
  -3   4  -9   76.79    2.80
  -3   4  -9   79.09    2.30
   3  -4   9   74.69    2.70
   3  -4   9   77.79    2.50
   3  -4   9   75.59    2.10
   3  -4   9   80.29    2.60
  -4   4  -9   66.79    2.10
  -4   4  -9   68.39    2.20
  -4   4  -9   71.99    2.80
   4  -4   9   65.19    2.10
   4  -4   9   71.49    2.30
   4  -4   9   68.39    2.50
   4  -4   9   70.09    2.60
   4  -4   9   63.59    2.00
  -5   4  -9   72.89    2.40
  -5   4  -9   78.69    3.10
  -5   4  -9   71.99    2.50
   5  -4   9   69.39    2.30
   5  -4   9   80.89    2.90
   5  -4   9   76.89    2.50
   5  -4   9   70.89    2.30
   5  -4   9   71.39    2.70
  -6   4  -9   10.00    1.10
  -6   4  -9    9.10    1.00
  -6   4  -9   13.30    1.50
   6  -4   9   10.80    1.30
   6  -4   9    9.20    0.90
   6  -4   9   10.00    1.20
   6  -4   9   10.50    0.90
   6  -4   9    8.60    0.90
  -7   4  -9    4.90    0.90
  -7   4  -9    4.60    1.10
  -7   4  -9    4.40    0.80
   7  -4   9    3.70    1.00
   7  -4   9    3.90    0.70
   7  -4   9    3.80    0.70
   7   3  -9    0.00    1.10
  -7  -3   9    1.10    1.00
   6   3  -9   17.70    1.80
  -6  -3   9   21.60    2.00
  -6  -3   9   18.00    1.20
   5   3  -9    2.80    0.50
   5   3  -9    1.30    0.90
   5   3  -9    1.20    0.60
   5   3  -9    2.90    0.50
  -5  -3   9    2.40    0.50
  -5  -3   9    2.20    0.80
  -5  -3   9    2.40    0.50
   4   3  -9   13.10    1.30
   4   3  -9   14.00    1.10
   4   3  -9   13.90    0.70
   4   3  -9   13.40    0.70
   4   3  -9   13.40    1.00
  -4  -3   9   14.90    0.80
  -4  -3   9   15.20    0.90
  -4  -3   9   14.40    1.30
  -4  -3   9   12.50    1.00
   3   3  -9   -0.50    0.30
   3   3  -9    0.00    0.20
   3   3  -9   -0.20    0.50
   3   3  -9   -0.20    0.20
   3   3  -9    0.50    0.40
  -3  -3   9   -0.10    0.50
  -3  -3   9    0.30    0.40
  -3  -3   9    0.00    0.40
  -3  -3   9   -0.20    0.20
   2   3  -9   68.39    2.30
   2   3  -9   62.39    2.40
   2   3  -9   65.99    2.40
   2   3  -9   64.79    1.70
   2   3  -9   64.89    1.70
  -2  -3   9   65.19    1.70
  -2  -3   9   64.59    2.20
  -2  -3   9   61.59    2.50
  -2  -3   9   65.59    2.30
   1   3  -9  132.79    3.90
   1   3  -9  140.19    4.00
   1   3  -9  132.99    3.80
  -1  -3   9  124.09    4.00
  -1  -3   9  129.19    3.80
  -1  -3   9  123.89    3.90
   0   3  -9   22.40    1.20
   0   3  -9   19.80    1.10
   0   3  -9   22.10    1.20
   0  -3   9   21.40    1.10
   0  -3   9   23.60    0.90
   0  -3   9   21.40    1.10
   0  -3   9   20.50    1.30
   0  -3   9   19.50    1.20
  -1   3  -9   50.89    1.90
  -1   3  -9   54.49    2.10
   1  -3   9   52.59    2.10
   1  -3   9   50.29    1.70
   1  -3   9   55.59    1.90
   1  -3   9   51.39    1.90
   1  -3   9   50.19    2.00
  -2   3  -9   50.99    1.90
  -2   3  -9   50.89    1.40
  -2   3  -9   50.19    1.60
  -2   3  -9   49.00    1.40
   2  -3   9   50.69    1.40
   2  -3   9   50.79    1.40
   2  -3   9   49.80    1.80
   2  -3   9   50.59    2.00
   2  -3   9   52.89    1.80
   2  -3   9   50.69    1.40
  -3   3  -9   51.99    1.60
  -3   3  -9   48.90    2.00
  -3   3  -9   52.79    1.60
  -3   3  -9   52.49    1.50
   3  -3   9   51.69    1.50
   3  -3   9   56.59    1.90
   3  -3   9   50.79    1.90
   3  -3   9   52.59    2.00
   3  -3   9   50.89    1.50
  -4   3  -9   18.20    0.90
  -4   3  -9   17.10    1.20
   4  -3   9   17.80    1.20
   4  -3   9   18.40    1.00
   4  -3   9   17.10    1.10
   4  -3   9   17.20    0.80
   4  -3   9   18.20    0.80
  -5   3  -9   59.79    2.60
  -5   3  -9   60.09    2.10
   5  -3   9   55.39    1.90
   5  -3   9   55.89    2.30
   5  -3   9   56.89    1.90
   5  -3   9   60.09    2.40
   5  -3   9   58.69    2.10
  -6   3  -9   12.60    1.40
  -6   3  -9   10.30    1.00
   6  -3   9   10.60    1.20
   6  -3   9   10.40    0.80
   6  -3   9   11.20    1.00
   6  -3   9   11.80    0.90
  -7   3  -9    0.30    0.80
  -7   3  -9    3.10    0.70
   7  -3   9    0.80    0.80
   7  -3   9    2.50    0.60
   7  -3   9    1.90    0.60
   7  -3   9    1.10    0.50
  -8   3  -9    5.50    1.30
  -8   3  -9    5.70    1.00
   8  -3   9    6.00    1.20
   8  -3   9    6.50    0.90
   8  -3   9    6.20    0.90
   7   2  -9   -2.10    0.90
  -7  -2   9    1.10    0.70
  -7  -2   9    0.10    0.80
   6   2  -9    1.20    1.00
   6   2  -9    1.90    0.50
   6   2  -9    2.00    0.60
  -6  -2   9    2.10    1.00
  -6  -2   9    2.50    0.60
   5   2  -9    0.30    0.40
   5   2  -9   -0.20    0.30
   5   2  -9   -0.90    0.60
  -5  -2   9    0.20    0.40
  -5  -2   9   -0.50    0.30
  -5  -2   9   -0.60    0.70
   4   2  -9    6.40    1.00
   4   2  -9    7.50    0.70
   4   2  -9    6.00    0.80
   4   2  -9    7.70    0.60
   4   2  -9    6.70    0.60
  -4  -2   9    7.10    0.60
  -4  -2   9    6.00    1.00
  -4  -2   9    6.80    0.80
   3   2  -9   78.49    2.40
   3   2  -9   77.49    2.80
   3   2  -9   75.99    2.20
   3   2  -9   79.99    2.60
   3   2  -9   76.79    2.20
  -3  -2   9   75.29    2.60
  -3  -2   9   77.49    2.90
  -3  -2   9   75.59    2.20
  -3  -2   9   81.49    2.60
   2   2  -9    9.70    0.90
   2   2  -9   10.60    1.00
   2   2  -9   12.80    0.50
   2   2  -9   12.00    0.50
   2   2  -9   10.60    0.80
  -2  -2   9   12.50    0.50
  -2  -2   9   11.70    0.90
  -2  -2   9   12.50    0.50
  -2  -2   9   14.10    0.90
  -2  -2   9   10.40    1.00
   1   2  -9    9.40    0.80
   1   2  -9    9.20    0.80
   1   2  -9    9.20    0.70
  -1  -2   9   10.40    0.80
  -1  -2   9    7.50    0.70
  -1  -2   9   10.20    0.90
  -1  -2   9    8.30    0.90
   0   2  -9   26.80    1.30
   0  -2   9   23.70    1.30
   0  -2   9   27.40    1.30
   0  -2   9   26.60    1.20
   0  -2   9   26.50    1.30
  -1   2  -9   80.19    2.40
   1  -2   9   79.59    2.60
   1  -2   9   78.19    2.60
   1  -2   9   79.09    2.40
   1  -2   9   85.19    2.50
   1  -2   9   83.49    2.80
  -2   2  -9  261.67    6.30
  -2   2  -9  262.77    6.30
  -2   2  -9  264.57    6.30
  -2   2  -9  253.77    6.90
  -2   2  -9  259.57    6.20
  -2   2  -9  254.57    6.50
   2  -2   9  252.07    6.90
   2  -2   9  265.27    6.20
   2  -2   9  265.37    6.30
   2  -2   9  263.57    6.20
   2  -2   9  256.17    6.70
   2  -2   9  266.97    6.30
   2  -2   9  261.97    6.80
   2  -2   9  253.07    6.90
  -3   2  -9  319.37    8.50
  -3   2  -9  336.27    8.00
  -3   2  -9  320.57    8.00
   3  -2   9  318.27    8.50
   3  -2   9  336.67    8.40
   3  -2   9  328.47    7.90
   3  -2   9  322.67    8.30
   3  -2   9  328.27    7.90
  -4   2  -9    4.10    0.30
  -4   2  -9    2.80    0.40
  -4   2  -9    3.00    0.70
   4  -2   9    3.50    0.40
   4  -2   9    3.60    0.70
   4  -2   9    3.50    0.70
   4  -2   9    3.30    0.50
   4  -2   9    3.10    0.40
  -5   2  -9    2.60    0.70
  -5   2  -9    2.30    0.50
   5  -2   9    1.60    0.60
   5  -2   9    2.90    0.40
   5  -2   9    3.30    0.50
   5  -2   9    1.80    0.50
  -6   2  -9    1.90    0.80
  -6   2  -9    2.10    0.50
   6  -2   9    2.10    0.50
   6  -2   9    1.60    0.40
   6  -2   9    1.30    0.70
   6  -2   9    1.60    0.50
  -7   2  -9   15.10    1.20
  -7   2  -9   12.50    1.40
   7  -2   9   14.50    1.10
   7  -2   9   13.70    1.10
   7  -2   9   13.30    1.00
   7  -2   9   14.90    1.40
  -8   2  -9    0.90    0.80
  -8   2  -9    1.40    0.60
   8  -2   9    0.20    0.50
   8  -2   9    0.60    0.50
   8  -2   9    0.00    0.50
   8  -2   9    0.50    0.70
   7   1  -9    6.30    0.90
   7   1  -9    2.50    1.30
   7   1  -9    5.20    0.90
  -7  -1   9    3.10    1.00
  -7  -1   9    4.70    0.90
   6   1  -9    1.50    0.50
   6   1  -9    0.30    1.10
   6   1  -9    2.20    0.60
  -6  -1   9    2.10    0.60
  -6  -1   9    1.80    1.00
   5   1  -9    0.60    0.40
   5   1  -9    1.10    0.90
   5   1  -9    0.70    0.40
  -5  -1   9    1.00    0.50
  -5  -1   9    1.00    0.40
  -5  -1   9    0.00    0.70
   4   1  -9   57.49    2.50
   4   1  -9   56.69    2.10
   4   1  -9   56.09    1.80
   4   1  -9   54.19    1.80
  -4  -1   9   51.09    2.40
  -4  -1   9   54.19    1.90
  -4  -1   9   55.79    2.10
   3   1  -9  115.59    3.70
   3   1  -9  110.69    3.00
   3   1  -9  109.59    3.30
   3   1  -9  110.79    3.10
   3   1  -9  110.29    3.10
  -3  -1   9  117.29    3.30
  -3  -1   9  113.39    3.10
  -3  -1   9  108.79    3.70
  -3  -1   9  113.09    3.10
  -3  -1   9  113.29    3.50
   2   1  -9   86.99    2.60
   2   1  -9   86.19    2.90
   2   1  -9   88.49    2.50
   2   1  -9   86.49    2.30
  -2  -1   9   89.89    2.80
  -2  -1   9   87.89    2.40
  -2  -1   9   83.89    3.00
  -2  -1   9   87.09    2.40
   1   1  -9    0.70    0.20
   1   1  -9    1.80    0.20
   1   1  -9    0.60    0.40
   1   1  -9    0.30    0.30
   1   1  -9    0.20    0.30
   1   1  -9    0.10    0.20
  -1  -1   9    0.80    0.20
  -1  -1   9    0.80    0.20
  -1  -1   9    1.10    0.20
  -1  -1   9    0.20    0.40
  -1  -1   9    0.30    0.40
  -1  -1   9    1.00    0.20
  -1  -1   9    1.10    0.40
   0   1  -9   74.19    2.30
   0   1  -9   71.79    2.30
   0  -1   9   73.09    2.30
   0  -1   9   74.29    2.60
   0  -1   9   74.09    2.40
  -1   1  -9   70.19    2.20
   1  -1   9   69.19    2.20
   1  -1   9   73.49    2.30
   1  -1   9   72.39    2.50
   1  -1   9   73.29    2.30
  -2   1  -9  245.58    5.90
  -2   1  -9  244.28    6.30
  -2   1  -9  241.38    6.00
  -2   1  -9  245.48    5.90
  -2   1  -9  247.38    5.90
   2  -1   9  249.78    5.90
   2  -1   9  255.87    5.90
   2  -1   9  251.97    6.40
   2  -1   9  245.28    6.40
   2  -1   9  237.08    6.50
  -3   1  -9  126.89    3.30
  -3   1  -9  122.99    3.20
  -3   1  -9  124.39    3.20
  -3   1  -9  122.09    3.70
   3  -1   9  124.49    3.60
   3  -1   9  123.39    3.50
   3  -1   9  125.59    3.20
   3  -1   9  121.29    3.70
  -4   1  -9   11.60    0.70
  -4   1  -9   11.80    0.70
  -4   1  -9   11.10    1.00
  -4   1  -9   12.40    0.70
   4  -1   9   11.60    0.90
   4  -1   9   11.30    0.60
   4  -1   9   10.60    0.90
  -5   1  -9   14.20    0.90
  -5   1  -9   15.50    0.70
  -5   1  -9   15.30    0.90
  -5   1  -9   15.30    1.20
   5  -1   9   15.70    1.10
   5  -1   9   16.70    1.00
   5  -1   9   14.90    0.80
  -6   1  -9   -0.30    0.60
  -6   1  -9    0.40    0.40
  -6   1  -9    0.40    0.40
   6  -1   9    0.60    0.40
   6  -1   9   -0.80    0.40
   6  -1   9    0.50    0.60
  -7   1  -9    3.90    0.70
  -7   1  -9    4.60    0.80
  -7   1  -9    2.70    0.90
   7  -1   9    3.80    0.70
   7  -1   9    5.30    0.70
   7  -1   9    5.00    0.60
   7  -1   9    6.70    1.00
  -8   1  -9    1.60    0.90
  -8   1  -9    1.70    0.70
  -8   1  -9    2.60    0.80
   8  -1   9    1.70    0.50
   8  -1   9    2.60    0.70
   8  -1   9    2.00    0.60
   8  -1   9    3.10    0.90
  -9   1  -9    1.40    0.90
  -9   1  -9    0.30    0.60
   9  -1   9   -0.20    0.50
   9  -1   9   -1.00    0.50
   9  -1   9    0.40    0.50
   9  -1   9   -0.60    0.70
   7   0  -9    4.70    0.80
   7   0  -9    3.70    0.80
   7   0  -9    2.00    1.30
  -7   0   9    3.50    0.80
  -7   0   9    4.70    0.90
  -7   0   9    2.60    1.00
   6   0  -9    3.50    0.70
   6   0  -9    3.30    1.20
   6   0  -9    4.30    0.70
  -6   0   9    3.80    0.70
  -6   0   9    3.40    1.00
  -6   0   9    5.10    0.90
   5   0  -9    2.80    1.00
   5   0  -9    5.20    0.70
   5   0  -9    3.60    0.60
  -5   0   9    4.60    0.70
  -5   0   9    3.50    0.90
  -5   0   9    4.10    0.70
  -5   0   9    3.10    0.60
   4   0  -9   13.90    1.30
   4   0  -9   16.20    0.90
   4   0  -9   13.90    0.90
  -4   0   9   13.20    0.90
  -4   0   9   14.70    1.30
  -4   0   9   14.10    1.10
  -4   0   9   15.10    1.00
   3   0  -9    5.10    0.60
   3   0  -9    4.30    0.80
   3   0  -9    4.30    0.50
  -3   0   9    5.20    0.80
  -3   0   9    5.20    0.50
  -3   0   9    5.20    0.70
  -3   0   9    5.60    0.60
   2   0  -9  105.89    2.80
   2   0  -9  104.29    3.30
   2   0  -9  104.49    2.70
   2   0  -9  104.89    2.90
  -2   0   9  103.39    3.40
  -2   0   9  105.79    2.90
  -2   0   9  102.79    3.20
  -2   0   9  108.39    2.90
   1   0  -9    9.60    0.50
   1   0  -9    9.70    0.60
   1   0  -9    9.60    0.80
   1   0  -9    9.30    0.50
   1   0  -9   10.00    0.50
  -1   0   9   10.10    0.50
  -1   0   9   10.40    0.50
  -1   0   9    8.90    0.80
  -1   0   9    9.10    0.90
  -1   0   9    9.50    0.70
   0   0  -9    0.20    0.40
   0   0  -9    0.30    0.10
   0   0  -9    0.20    0.20
   0   0  -9    0.20    0.20
   0   0  -9    0.30    0.20
   0   0  -9    0.50    0.30
   0   0   9    0.20    0.20
   0   0   9    0.20    0.20
   0   0   9    0.40    0.10
   0   0   9    0.20    0.10
   0   0   9    0.20    0.40
   0   0   9    0.20    0.30
   0   0   9    0.30    0.40
  -1   0  -9   29.00    0.90
  -1   0  -9   30.50    0.90
  -1   0  -9   30.70    0.90
  -1   0  -9   28.10    1.10
  -1   0  -9   28.70    0.90
  -1   0  -9   28.40    1.20
   1   0   9   31.30    1.20
   1   0   9   29.10    0.80
   1   0   9   27.90    1.30
   1   0   9   31.50    0.80
  -2   0  -9  105.29    2.70
  -2   0  -9  103.39    3.00
  -2   0  -9  106.49    2.70
   2   0   9  107.49    2.70
   2   0   9  110.29    2.70
   2   0   9  105.19    2.70
   2   0   9  102.89    3.10
   2   0   9  101.39    3.20
   2   0   9  111.19    2.70
   2   0   9  104.29    3.00
  -3   0  -9  136.09    3.50
  -3   0  -9  133.99    3.70
  -3   0  -9  132.49    4.00
   3   0   9  133.69    3.90
   3   0   9  138.89    3.50
   3   0   9  137.39    3.90
   3   0   9  136.49    3.80
   3   0   9  139.39    3.50
  -4   0  -9  116.19    3.20
  -4   0  -9  117.49    3.30
  -4   0  -9  116.89    3.30
  -4   0  -9  119.89    3.70
   4   0   9  117.59    3.50
   4   0   9  120.29    3.50
   4   0   9  119.59    3.20
   4   0   9  119.39    3.50
  -5   0  -9  134.69    3.70
  -5   0  -9  134.19    3.60
  -5   0  -9  131.29    3.70
  -5   0  -9  131.89    4.10
   5   0   9  134.99    3.70
   5   0   9  132.19    4.00
   5   0   9  134.49    3.90
  -6   0  -9   -0.20    0.50
  -6   0  -9    0.10    0.40
  -6   0  -9    0.10    0.40
   6   0   9   -0.70    0.30
   6   0   9   -0.10    0.40
  -7   0  -9    3.20    0.70
  -7   0  -9    3.40    0.80
  -7   0  -9    3.90    0.70
   7   0   9    3.30    0.80
   7   0   9    3.00    0.60
  -8   0  -9    0.60    0.70
  -8   0  -9    0.70    0.70
  -8   0  -9   -0.20    0.50
   8   0   9   -0.10    0.60
   8   0   9    0.10    0.60
  -9   0  -9    0.40    0.80
  -9   0  -9   -1.30    0.50
  -9   0  -9    0.50    0.70
   9   0   9    0.70    0.70
   9   0   9   -0.70    0.40
   9   0   9   -0.90    0.50
   6  -1  -9    9.10    1.30
   6  -1  -9    9.00    1.50
   6  -1  -9    9.40    1.10
   6  -1  -9    9.50    1.10
  -6   1   9    9.30    1.10
  -6   1   9    9.60    1.30
  -6   1   9    7.30    0.90
   5  -1  -9   10.10    1.30
   5  -1  -9   11.70    1.30
   5  -1  -9    9.40    0.90
  -5   1   9    9.40    1.20
  -5   1   9   10.70    1.00
  -5   1   9   10.50    1.00
  -5   1   9   10.90    1.00
   4  -1  -9    9.10    1.20
   4  -1  -9    9.50    0.80
   4  -1  -9    9.60    1.00
  -4   1   9    9.60    0.90
  -4   1   9    7.90    0.90
  -4   1   9    9.80    1.10
  -4   1   9   10.00    0.90
   3  -1  -9   13.40    1.20
   3  -1  -9   13.90    0.80
   3  -1  -9   14.30    1.10
  -3   1   9   15.00    1.20
  -3   1   9   13.70    0.80
  -3   1   9   13.80    0.90
  -3   1   9   14.30    1.10
   2  -1  -9    0.60    0.50
   2  -1  -9    0.10    0.20
   2  -1  -9    0.60    0.50
   2  -1  -9   -0.10    0.30
  -2   1   9    0.10    0.40
  -2   1   9    0.10    0.30
  -2   1   9    0.30    0.40
  -2   1   9    0.20    0.30
   1  -1  -9   55.69    1.60
   1  -1  -9   53.09    1.60
   1  -1  -9   54.69    2.00
   1  -1  -9   53.69    1.90
   1  -1  -9   54.59    1.50
  -1   1   9   55.59    1.70
  -1   1   9   56.29    2.10
  -1   1   9   58.49    1.70
  -1   1   9   53.49    2.00
   0  -1  -9   82.09    2.20
   0  -1  -9   81.09    2.20
   0  -1  -9   83.49    2.40
   0  -1  -9   81.99    2.20
   0  -1  -9   80.79    2.60
   0  -1  -9   81.79    2.20
   0   1   9   83.19    2.20
   0   1   9   82.49    2.70
   0   1   9   81.49    2.60
   0   1   9   81.79    2.50
  -1  -1  -9    1.00    0.20
  -1  -1  -9    0.80    0.20
  -1  -1  -9    0.80    0.40
   1   1   9    0.80    0.40
   1   1   9    0.70    0.20
   1   1   9    0.90    0.40
   1   1   9    1.00    0.20
  -2  -1  -9  168.98    4.30
  -2  -1  -9  170.28    4.30
  -2  -1  -9  176.58    4.30
  -2  -1  -9  170.68    4.60
   2   1   9  171.28    4.30
   2   1   9  169.88    4.70
   2   1   9  164.98    4.60
  -3  -1  -9   64.79    2.00
  -3  -1  -9   63.79    1.80
  -3  -1  -9   64.09    1.90
  -3  -1  -9   65.69    1.90
  -3  -1  -9   65.59    2.20
   3   1   9   64.69    2.10
   3   1   9   66.19    1.80
   3   1   9   60.99    2.10
   3   1   9   63.49    1.80
  -4  -1  -9  140.59    3.80
  -4  -1  -9  141.79    3.90
  -4  -1  -9  139.89    4.20
   4   1   9  140.39    3.70
   4   1   9  144.39    4.10
   4   1   9  145.49    4.00
   4   1   9  141.09    4.10
   4   1   9  141.49    3.70
  -5  -1  -9  243.38    6.50
  -5  -1  -9  232.88    6.10
  -5  -1  -9  236.28    6.20
  -5  -1  -9  232.68    6.10
   5   1   9  235.78    6.40
   5   1   9  233.08    6.10
   5   1   9  227.88    6.30
   5   1   9  240.68    6.20
   5   1   9  235.48    6.10
  -6  -1  -9    0.20    0.30
  -6  -1  -9    0.30    0.40
  -6  -1  -9   -0.20    0.50
  -6  -1  -9    0.00    0.40
   6   1   9    0.10    0.50
   6   1   9    0.10    0.40
  -7  -1  -9   -0.90    0.60
  -7  -1  -9    0.80    0.50
  -7  -1  -9    0.10    0.50
   7   1   9   -0.40    0.50
   7   1   9    0.60    0.60
  -8  -1  -9   15.40    1.20
  -8  -1  -9   13.30    1.30
  -8  -1  -9   16.40    1.50
   8   1   9   13.30    1.20
   8   1   9   16.90    1.30
   8   1   9   13.40    1.40
  -9  -1  -9    0.50    0.70
  -9  -1  -9    0.40    0.80
  -9  -1  -9   -0.50    0.60
   9   1   9    0.20    0.60
   9   1   9   -0.90    0.70
   6  -2  -9    0.20    0.80
   6  -2  -9    0.40    0.60
   6  -2  -9    1.00    0.80
  -6   2   9    0.40    0.70
  -6   2   9    0.60    0.60
   5  -2  -9   16.80    1.40
   5  -2  -9   17.70    1.20
   5  -2  -9   15.00    1.60
  -5   2   9   16.70    1.40
  -5   2   9   17.30    1.40
  -5   2   9   17.20    1.30
  -5   2   9   17.20    1.20
   4  -2  -9    3.50    0.60
   4  -2  -9    2.90    0.70
   4  -2  -9    3.00    0.80
  -4   2   9    3.50    0.70
  -4   2   9    3.90    0.70
  -4   2   9    4.40    0.70
  -4   2   9    3.30    0.70
   3  -2  -9    5.00    0.80
   3  -2  -9    4.10    0.80
   3  -2  -9    6.20    0.70
  -3   2   9    4.10    0.70
  -3   2   9    5.20    0.60
  -3   2   9    5.50    0.70
  -3   2   9    4.60    0.70
   2  -2  -9   10.80    0.90
   2  -2  -9   12.00    0.70
   2  -2  -9    9.50    0.90
  -2   2   9   10.50    0.70
  -2   2   9   10.10    1.00
  -2   2   9   10.30    0.80
  -2   2   9   14.10    1.00
   1  -2  -9    8.10    0.80
   1  -2  -9    8.80    0.80
   1  -2  -9    8.30    0.60
   1  -2  -9    9.10    0.60
  -1   2   9   10.00    0.70
  -1   2   9    8.70    0.60
  -1   2   9   10.00    0.90
  -1   2   9    8.60    0.60
  -1   2   9    7.90    0.80
   0  -2  -9    0.90    0.30
   0  -2  -9    1.10    0.10
   0  -2  -9    1.00    0.40
   0  -2  -9    1.10    0.10
   0  -2  -9    0.40    0.30
   0  -2  -9    1.10    0.30
   0   2   9    1.30    0.30
   0   2   9    1.50    0.40
   0   2   9    0.80    0.50
   0   2   9    0.50    0.40
  -1  -2  -9    5.30    0.30
  -1  -2  -9    5.50    0.50
  -1  -2  -9    4.50    0.60
  -1  -2  -9    5.10    0.40
   1   2   9    5.50    0.50
   1   2   9    4.00    0.60
   1   2   9    5.50    0.40
   1   2   9    4.70    0.50
  -2  -2  -9   71.49    2.30
  -2  -2  -9   72.79    2.10
  -2  -2  -9   74.79    2.20
  -2  -2  -9   73.59    2.10
   2   2   9   71.59    2.40
   2   2   9   69.39    2.30
   2   2   9   76.09    2.10
   2   2   9   76.29    2.10
  -3  -2  -9   80.79    2.50
  -3  -2  -9   76.79    2.40
  -3  -2  -9   78.89    1.90
  -3  -2  -9   77.49    2.20
  -3  -2  -9   77.49    2.30
   3   2   9   78.29    2.50
   3   2   9   76.49    2.50
   3   2   9   79.19    2.20
  -4  -2  -9  101.79    2.90
  -4  -2  -9  101.69    2.90
  -4  -2  -9   98.19    3.00
  -4  -2  -9  105.09    3.30
   4   2   9  103.59    2.90
   4   2   9  104.09    3.10
   4   2   9  102.19    2.90
   4   2   9  105.29    3.10
  -5  -2  -9   22.50    1.20
  -5  -2  -9   21.90    1.30
  -5  -2  -9   22.80    1.10
   5   2   9   21.70    1.00
   5   2   9   22.20    1.10
   5   2   9   21.60    1.00
   5   2   9   18.70    1.20
  -6  -2  -9   50.69    1.90
  -6  -2  -9   50.89    2.20
  -6  -2  -9   49.50    1.90
   6   2   9   53.69    2.10
   6   2   9   48.70    1.80
   6   2   9   52.39    1.90
  -7  -2  -9   15.40    1.00
  -7  -2  -9   14.90    1.30
  -7  -2  -9   14.40    1.10
  -7  -2  -9   14.60    1.20
   7   2   9   17.00    1.10
   7   2   9   13.80    1.00
   7   2   9   16.00    1.10
   7   2   9   14.70    1.20
  -8  -2  -9   28.50    1.70
  -8  -2  -9   32.30    1.70
  -8  -2  -9   29.80    1.80
   8   2   9   31.20    1.60
   8   2   9   31.10    1.80
   8   2   9   28.70    1.60
  -9  -2  -9   26.00    1.70
  -9  -2  -9   26.50    1.90
  -9  -2  -9   23.90    1.70
   9   2   9   27.60    1.70
   9   2   9   27.50    1.70
   9   2   9   26.60    1.80
   5  -3  -9    4.80    1.00
   5  -3  -9    4.30    1.00
   5  -3  -9    4.20    0.80
  -5   3   9    4.60    0.90
  -5   3   9    4.00    0.80
  -5   3   9    2.90    0.80
   4  -3  -9    1.20    0.70
   4  -3  -9    2.10    0.70
   4  -3  -9    1.40    0.50
  -4   3   9    0.90    0.60
  -4   3   9    1.20    0.60
  -4   3   9    1.50    0.60
  -4   3   9    0.50    0.60
   3  -3  -9    2.80    0.70
   3  -3  -9    2.40    0.60
   3  -3  -9    1.50    0.60
  -3   3   9    2.40    0.60
  -3   3   9    2.10    0.60
  -3   3   9    1.60    0.70
  -3   3   9    1.60    0.50
   2  -3  -9    4.00    0.70
   2  -3  -9    5.30    0.60
   2  -3  -9    5.10    0.80
  -2   3   9    4.80    0.80
  -2   3   9    5.10    0.60
  -2   3   9    5.00    0.70
  -2   3   9    5.20    0.70
   1  -3  -9   17.50    0.90
   1  -3  -9   17.60    1.10
   1  -3  -9   17.90    1.00
   1  -3  -9   19.70    1.00
  -1   3   9   17.80    1.00
  -1   3   9   18.30    0.90
  -1   3   9   16.10    1.20
  -1   3   9   17.40    1.10
   0  -3  -9    0.80    0.30
   0  -3  -9    0.80    0.30
   0  -3  -9    0.20    0.30
   0  -3  -9    0.10    0.40
   0   3   9    0.20    0.30
   0   3   9    0.50    0.50
   0   3   9    0.20    0.30
  -1  -3  -9   31.10    1.00
  -1  -3  -9   29.30    1.40
  -1  -3  -9   30.00    1.10
  -1  -3  -9   31.20    1.20
   1   3   9   30.20    1.30
   1   3   9   29.60    1.40
   1   3   9   29.50    1.10
   1   3   9   29.90    1.20
  -2  -3  -9  161.88    4.20
  -2  -3  -9  156.18    4.50
  -2  -3  -9  164.28    4.20
   2   3   9  160.38    4.20
   2   3   9  162.78    4.30
   2   3   9  163.08    4.40
   2   3   9  160.78    4.60
  -3  -3  -9  112.59    3.10
  -3  -3  -9  114.09    3.30
  -3  -3  -9  108.79    3.30
  -3  -3  -9  111.69    3.20
   3   3   9  115.69    3.30
   3   3   9  111.59    3.10
   3   3   9  116.39    3.40
  -4  -3  -9   90.39    2.90
  -4  -3  -9   92.99    2.80
  -4  -3  -9   96.49    3.00
  -4  -3  -9   93.09    2.70
   4   3   9   92.39    2.80
   4   3   9   93.39    2.90
   4   3   9   95.79    2.70
  -5  -3  -9   25.00    1.40
  -5  -3  -9   23.00    1.20
  -5  -3  -9   24.30    1.20
  -5  -3  -9   24.40    1.10
   5   3   9   23.30    1.10
   5   3   9   22.10    1.10
   5   3   9   25.30    1.20
  -6  -3  -9   24.20    1.50
  -6  -3  -9   21.60    1.30
  -6  -3  -9   23.60    1.30
   6   3   9   20.80    1.10
   6   3   9   23.60    1.20
   6   3   9   23.80    1.10
   6   3   9   22.50    1.10
  -7  -3  -9    0.10    0.50
  -7  -3  -9   -0.60    0.40
  -7  -3  -9    0.40    0.50
   7   3   9    0.50    0.40
   7   3   9    0.70    0.50
   7   3   9   -0.30    0.40
  -8  -3  -9    6.40    1.00
  -8  -3  -9    4.10    0.80
  -8  -3  -9    4.60    0.90
  -8  -3  -9    5.00    0.80
   8   3   9    4.60    0.80
   8   3   9    5.00    0.80
   8   3   9    6.10    0.90
   8   3   9    6.80    0.80
  -9  -3  -9    0.20    0.60
  -9  -3  -9   -0.70    0.60
  -9  -3  -9    0.70    0.60
   9   3   9    0.40    0.60
   5  -4  -9   -1.00    0.60
   5  -4  -9    0.60    0.70
   5  -4  -9    2.20    0.70
  -5   4   9   -0.40    0.50
  -5   4   9    0.50    0.70
  -5   4   9    0.60    0.70
   4  -4  -9    2.40    0.70
   4  -4  -9    1.10    0.70
   4  -4  -9    0.50    0.70
  -4   4   9    1.20    0.80
  -4   4   9    1.00    0.60
  -4   4   9    1.20    0.60
   3  -4  -9   14.10    1.20
   3  -4  -9   12.20    1.10
   3  -4  -9   12.70    1.10
  -3   4   9   13.80    1.10
  -3   4   9   13.50    1.20
   2  -4  -9    0.40    0.50
   2  -4  -9    1.00    0.50
   2  -4  -9    0.60    0.40
   2  -4  -9    0.50    0.50
  -2   4   9   -0.20    0.40
  -2   4   9   -0.10    0.40
  -2   4   9    1.00    0.40
   1  -4  -9   25.30    1.40
   1  -4  -9   21.60    1.10
   1  -4  -9   21.40    1.10
   1  -4  -9   20.80    1.10
  -1   4   9   21.20    1.10
   0  -4  -9    1.20    0.40
   0  -4  -9    1.00    0.40
   0  -4  -9    1.60    0.50
   0   4   9    1.60    0.40
   0   4   9    1.10    0.40
  -1  -4  -9   36.30    1.40
  -1  -4  -9   37.30    1.40
  -1  -4  -9   38.20    1.60
   1   4   9   37.00    1.40
   1   4   9   35.80    1.40
   1   4   9   36.30    1.40
   1   4   9   36.20    1.70
  -2  -4  -9  205.78    5.90
  -2  -4  -9  222.98    5.70
  -2  -4  -9  221.28    5.50
   2   4   9  211.78    5.90
   2   4   9  218.28    5.70
   2   4   9  213.98    5.70
   2   4   9  225.38    5.80
  -3  -4  -9  112.99    3.20
  -3  -4  -9  112.89    3.20
  -3  -4  -9  109.59    3.40
  -3  -4  -9  110.69    3.10
   3   4   9  111.39    3.20
   3   4   9  104.39    3.30
   3   4   9  101.99    3.10
   3   4   9  112.09    3.30
   3   4   9  111.49    3.20
  -4  -4  -9   69.09    2.20
  -4  -4  -9   69.79    2.30
  -4  -4  -9   66.09    2.40
  -4  -4  -9   71.79    2.40
   4   4   9   68.19    2.20
   4   4   9   68.79    2.30
   4   4   9   67.79    2.30
   4   4   9   66.49    2.30
  -5  -4  -9   36.70    1.70
  -5  -4  -9   39.60    1.50
  -5  -4  -9   37.90    1.60
   5   4   9   33.40    1.70
   5   4   9   37.40    1.50
   5   4   9   38.00    1.50
  -6  -4  -9    2.00    0.60
  -6  -4  -9    2.00    0.70
  -6  -4  -9    1.70    0.60
   6   4   9    1.70    0.50
   6   4   9    2.30    0.50
   6   4   9    2.10    0.50
  -7  -4  -9    2.80    0.70
  -7  -4  -9    4.80    0.80
  -7  -4  -9    4.20    0.80
   7   4   9    4.80    0.70
   7   4   9    3.90    0.70
  -8  -4  -9   11.50    1.10
  -8  -4  -9   11.40    1.20
  -8  -4  -9   13.20    1.30
   8   4   9   12.30    1.10
   8   4   9   12.70    1.10
  -9  -4  -9    0.40    0.70
  -9  -4  -9   -0.10    0.70
  -9  -4  -9    0.30    0.60
   9   4   9    0.40    0.60
   9   4   9    0.20    0.60
   4  -5  -9   24.10    1.50
   4  -5  -9   21.80    2.20
   4  -5  -9   20.70    1.50
  -4   5   9   23.60    1.60
  -4   5   9   21.70    1.60
   3  -5  -9    8.40    1.00
   3  -5  -9    6.60    0.90
   3  -5  -9    6.20    0.90
   3  -5  -9    7.10    1.00
  -3   5   9    8.10    1.10
  -3   5   9    6.90    0.90
   2  -5  -9    8.70    1.00
   2  -5  -9   10.00    0.90
   2  -5  -9   10.20    1.10
   2  -5  -9    8.80    1.00
  -2   5   9    9.20    1.00
   1  -5  -9    2.20    0.70
   1  -5  -9    0.70    0.50
   1  -5  -9    1.00    0.50
  -1   5   9    0.60    0.50
   0  -5  -9    1.40    0.60
   0  -5  -9    1.50    0.50
   0  -5  -9    1.10    0.50
   0   5   9    1.10    0.50
   0   5   9    1.50    0.40
  -1  -5  -9   51.59    2.00
  -1  -5  -9   48.50    1.80
  -1  -5  -9   48.90    1.80
   1   5   9   48.90    1.80
   1   5   9   49.30    1.70
   1   5   9   52.99    1.90
  -2  -5  -9   10.60    1.00
  -2  -5  -9   10.00    0.80
   2   5   9    9.60    0.70
   2   5   9    9.50    0.70
   2   5   9    8.40    0.80
   2   5   9    9.50    0.70
  -3  -5  -9   27.70    1.20
  -3  -5  -9   27.30    1.20
  -3  -5  -9   32.30    1.60
   3   5   9   27.90    1.30
   3   5   9   28.80    1.30
   3   5   9   28.50    1.30
   3   5   9   30.50    1.40
   3   5   9   30.20    1.30
  -4  -5  -9    0.70    0.40
  -4  -5  -9    0.70    0.40
  -4  -5  -9    2.10    0.50
  -4  -5  -9    1.60    0.60
   4   5   9    0.90    0.50
   4   5   9    0.10    0.40
   4   5   9    1.00    0.40
   4   5   9    0.10    0.40
  -5  -5  -9    6.50    0.90
  -5  -5  -9    6.50    0.80
  -5  -5  -9    6.50    0.70
   5   5   9    5.40    0.80
   5   5   9    6.50    0.70
   5   5   9    6.70    0.70
  -6  -5  -9   12.90    1.10
  -6  -5  -9   14.60    1.20
  -6  -5  -9   14.50    1.00
  -6  -5  -9   15.20    1.10
   6   5   9   14.60    1.10
   6   5   9   14.30    1.30
   6   5   9   13.00    1.00
  -7  -5  -9   -0.10    0.50
  -7  -5  -9   -0.70    0.40
  -7  -5  -9    0.10    0.60
   7   5   9   -0.90    0.60
   7   5   9    0.30    0.50
   7   5   9    0.80    0.50
  -8  -5  -9   -0.10    0.60
  -8  -5  -9    0.00    0.60
  -8  -5  -9    0.10    0.50
   8   5   9   -0.20    0.50
   8   5   9   -1.00    0.40
  -9  -5  -9    1.50    0.80
  -9  -5  -9   -0.20    0.70
  -9  -5  -9    1.50    0.70
   9   5   9    1.30    0.70
   9   5   9    1.40    0.80
   4  -6  -9    1.20    0.70
   4  -6  -9    0.20    0.70
  -4   6   9    1.00    0.80
  -4   6   9    1.70    0.80
   3  -6  -9   -1.00    0.50
   3  -6  -9    0.70    0.70
   3  -6  -9    0.70    0.70
  -3   6   9   -0.20    0.60
   2  -6  -9    1.50    0.70
   2  -6  -9    1.60    0.70
   2  -6  -9    1.80    0.70
  -2   6   9    0.50    0.60
   1  -6  -9   25.70    1.40
   1  -6  -9   23.00    1.40
   1  -6  -9   25.80    1.50
  -1   6   9   20.30    1.40
   0  -6  -9    3.70    0.70
   0  -6  -9    4.60    0.70
   0  -6  -9    4.00    0.80
   0   6   9    5.50    0.80
  -1  -6  -9   10.60    1.00
  -1  -6  -9   12.80    1.00
  -1  -6  -9   10.50    1.10
   1   6   9   11.80    1.00
   1   6   9   11.10    0.90
   1   6   9   10.80    0.80
  -2  -6  -9    4.00    0.80
  -2  -6  -9    4.80    0.70
   2   6   9    3.50    0.50
   2   6   9    5.00    0.70
   2   6   9    3.80    0.50
   2   6   9    3.90    0.60
  -3  -6  -9    5.60    0.70
  -3  -6  -9    4.00    0.80
   3   6   9    4.10    0.60
   3   6   9    5.70    0.70
   3   6   9    5.40    0.70
   3   6   9    5.80    0.70
  -4  -6  -9   11.20    1.00
  -4  -6  -9    8.60    0.80
  -4  -6  -9    9.20    1.10
   4   6   9    8.80    0.90
   4   6   9   10.60    0.90
   4   6   9   10.70    0.90
   4   6   9    8.30    0.90
   4   6   9   10.70    1.00
   4   6   9   12.40    0.90
  -5  -6  -9    1.60    0.60
  -5  -6  -9    2.00    0.60
  -5  -6  -9    1.10    0.60
   5   6   9    1.20    0.50
   5   6   9    1.90    0.70
   5   6   9    2.10    0.60
   5   6   9    2.30    0.60
  -6  -6  -9    1.30    0.70
  -6  -6  -9    3.30    0.70
  -6  -6  -9    1.60    0.60
   6   6   9    2.30    0.70
   6   6   9    3.30    0.60
  -7  -6  -9   14.20    1.20
  -7  -6  -9   15.30    1.40
  -7  -6  -9   13.90    1.40
  -7  -6  -9   14.50    1.10
   7   6   9   13.90    1.40
   7   6   9   13.10    1.20
   7   6   9   15.30    1.20
  -8  -6  -9   19.80    1.60
  -8  -6  -9   22.10    1.60
   8   6   9   18.60    1.40
   8   6   9   21.00    1.70
   8   6   9   19.50    1.40
  -9  -6  -9    9.90    1.20
  -9  -6  -9    8.90    1.20
   9   6   9    9.20    1.20
   9   6   9    8.80    1.10
   3  -7  -9   20.20    1.60
   3  -7  -9   11.20    1.30
   3  -7  -9   12.20    1.30
  -3   7   9   15.10    1.50
   2  -7  -9    1.40    0.70
   2  -7  -9   -0.10    0.60
   2  -7  -9    0.20    0.60
  -2   7   9   -0.40    0.60
   1  -7  -9   -0.90    0.50
   1  -7  -9    0.60    0.70
   1  -7  -9   -0.20    0.60
  -1   7   9   -0.90    0.50
   0  -7  -9    7.50    1.00
   0  -7  -9    7.50    0.90
   0  -7  -9    6.80    0.90
   0   7   9    7.30    0.90
  -1  -7  -9    0.70    0.50
  -1  -7  -9    0.40    0.60
  -1  -7  -9    1.00    0.70
   1   7   9    0.70    0.50
   1   7   9    1.10    0.60
  -2  -7  -9    0.70    0.60
  -2  -7  -9   -0.10    0.40
   2   7   9    0.10    0.50
   2   7   9    0.60    0.40
   2   7   9    0.10    0.50
  -3  -7  -9    3.20    0.60
  -3  -7  -9    4.50    0.90
   3   7   9    3.20    0.50
   3   7   9    2.80    0.60
   3   7   9    3.40    0.70
   3   7   9    3.90    0.70
  -4  -7  -9   46.30    1.90
  -4  -7  -9   44.80    1.80
  -4  -7  -9   47.40    2.20
   4   7   9   45.20    1.90
   4   7   9   40.70    1.90
   4   7   9   44.30    2.00
   4   7   9   43.00    1.90
   4   7   9   42.70    1.80
   4   7   9   41.60    1.80
  -5  -7  -9   17.90    1.30
  -5  -7  -9   16.30    1.40
  -5  -7  -9   17.30    1.20
   5   7   9   15.40    1.20
   5   7   9   14.20    1.20
   5   7   9   16.60    1.20
   5   7   9   15.90    1.40
  -6  -7  -9    0.10    0.60
  -6  -7  -9   -0.30    0.50
  -6  -7  -9    0.50    0.70
   6   7   9   -0.40    0.70
   6   7   9   -0.40    0.60
   6   7   9   -0.10    0.50
  -7  -7  -9    1.30    0.70
  -7  -7  -9    0.60    0.60
  -7  -7  -9    2.40    0.90
  -7  -7  -9    1.20    0.60
   7   7   9    0.30    0.90
   7   7   9    1.50    0.60
   7   7   9    1.40    0.90
   7   7   9    1.80    0.70
  -8  -7  -9    1.50    0.80
  -8  -7  -9    2.10    0.80
   8   7   9    1.50    0.70
   8   7   9    1.50    0.90
   8   7   9    1.90    0.70
  -9  -7  -9    7.30    1.20
  -9  -7  -9    6.10    1.10
   9   7   9    6.60    1.10
   9   7   9    5.90    1.00
   9   7   9    7.30    1.30
   2  -8  -9   -1.00    0.60
   2  -8  -9   -0.90    0.60
   2  -8  -9    0.70    0.70
  -2   8   9   -0.80    0.60
   1  -8  -9    0.20    0.60
   1  -8  -9   -0.10    0.60
   1  -8  -9   -1.00    0.60
  -1   8   9    0.40    0.60
   0  -8  -9    0.20    0.60
   0  -8  -9    0.00    0.60
   0  -8  -9    0.30    0.60
   0   8   9    0.50    0.60
  -1  -8  -9    8.90    1.00
  -1  -8  -9    9.30    1.20
  -1  -8  -9    9.40    1.10
   1   8   9    9.80    1.10
   1   8   9    9.30    1.10
  -2  -8  -9    0.70    0.60
  -2  -8  -9    1.40    0.80
   2   8   9    0.10    0.50
   2   8   9    0.10    0.60
  -3  -8  -9    0.60    0.70
  -3  -8  -9   -0.80    0.50
   3   8   9    0.00    0.60
   3   8   9   -0.30    0.50
   3   8   9   -1.10    0.50
  -4  -8  -9    1.80    0.70
  -4  -8  -9    0.90    0.60
  -4  -8  -9    2.50    0.80
   4   8   9   -0.20    0.60
   4   8   9    1.10    0.60
   4   8   9    1.30    0.50
   4   8   9    0.70    0.60
  -5  -8  -9    0.10    0.50
  -5  -8  -9    0.60    0.80
  -5  -8  -9    0.30    0.60
   5   8   9    0.20    0.70
   5   8   9    0.30    0.60
   5   8   9    0.50    0.50
   5   8   9   -0.30    0.50
  -6  -8  -9   -0.40    0.60
  -6  -8  -9    0.30    0.60
  -6  -8  -9   -0.30    0.70
   6   8   9   -0.70    0.60
   6   8   9    0.30    0.80
   6   8   9   -0.90    0.60
  -7  -8  -9    3.00    0.90
  -7  -8  -9    4.30    0.90
  -7  -8  -9    1.80    0.90
   7   8   9    2.50    0.80
   7   8   9    2.60    0.90
  -8  -8  -9    1.20    0.80
  -8  -8  -9    1.50    0.80
  -8  -8  -9    0.10    0.80
   8   8   9    0.10    0.60
   8   8   9    1.20    0.90
   8   8   9    1.20    0.70
   1  -9  -9    0.10    0.70
   1  -9  -9   -1.00    0.60
   1  -9  -9    1.40    0.80
   0  -9  -9   -0.10    0.70
   0  -9  -9   -1.30    0.60
   0  -9  -9   -0.10    0.70
   0   9   9   -0.10    0.60
   0   9   9    0.40    0.60
  -1  -9  -9    0.70    0.70
  -1  -9  -9    1.10    0.70
  -1  -9  -9    0.50    0.80
   1   9   9    0.90    0.70
   1   9   9   -0.30    0.60
  -2  -9  -9   12.20    1.20
  -2  -9  -9   14.10    1.50
   2   9   9   13.60    1.30
   2   9   9   14.10    1.40
  -3  -9  -9    3.40    0.80
  -3  -9  -9    3.00    0.90
   3   9   9    1.90    0.70
   3   9   9    4.20    0.90
  -4  -9  -9    2.20    0.70
  -4  -9  -9    2.20    0.80
   4   9   9    0.50    0.60
   4   9   9    1.40    0.70
   4   9   9    1.20    0.70
  -5  -9  -9    1.90    0.90
  -5  -9  -9    0.90    0.60
  -5  -9  -9    1.10    0.70
   5   9   9    1.30    0.60
   5   9   9    0.20    0.70
  -6  -9  -9    0.10    0.70
  -6  -9  -9    0.40    0.70
  -6  -9  -9    0.60    0.90
   6   9   9    0.30    0.60
   6   9   9   -0.30    0.80
  -7  -9  -9    8.50    1.10
  -7  -9  -9    9.00    1.30
  -7  -9  -9    8.40    1.30
   7   9   9    6.50    1.20
   7   9   9    5.70    1.00
  -1 -10  -9    8.40    1.20
  -1 -10  -9   10.20    1.40
   1  10   9    9.50    1.30
   1  10   9    9.80    1.30
  -2 -10  -9   29.30    2.10
  -2 -10  -9   28.50    1.80
   2  10   9   32.00    2.00
   2  10   9   30.60    1.90
  -3 -10  -9    5.00    1.00
  -3 -10  -9    5.50    1.20
   3  10   9    6.20    1.00
   3  10   9    6.00    1.10
  -4 -10  -9    1.60    0.90
  -4 -10  -9    0.50    0.70
   4  10   9    2.20    0.90
   4  10   9    2.00    0.80
  -5 -10  -9    0.00    0.70
  -5 -10  -9    0.20    0.80
  -5 -10  -9    0.60    0.70
   5  10   9    0.10    0.60
   5  10   9   -1.10    1.20
  -6 -10  -9   -0.50    0.60
  -6 -10  -9   -0.20    0.80
  -6 -10  -9    0.50    0.80
   6  10   9   -0.90    0.80
   6  10   9   -0.70    0.60
  -3 -10  10    0.00    0.70
   2  10 -10    3.90    1.10
   2  10 -10    1.70    1.00
  -2 -10  10    2.80    1.00
   1  10 -10    2.60    1.10
  -1 -10  10    4.20    1.20
   0  10 -10   -0.20    0.70
   0 -10  10    1.50    1.00
   4   9 -10    0.70    0.80
   4   9 -10   -0.40    0.80
  -4  -9  10    0.70    0.70
  -4  -9  10    0.50    0.80
   3   9 -10    1.10    0.80
   3   9 -10    0.40    0.80
  -3  -9  10   -0.80    0.70
  -3  -9  10   -0.10    0.70
   2   9 -10    0.30    0.80
   2   9 -10    0.70    0.80
  -2  -9  10    2.20    0.90
  -2  -9  10    1.40    0.80
   1   9 -10    0.30    0.80
  -1  -9  10    1.00    0.90
   0   9 -10    0.80    0.80
   0  -9  10    0.70    0.80
  -1   9 -10   -0.30    0.70
   1  -9  10    0.30    0.60
   1  -9  10   -1.10    0.70
  -2   9 -10    0.60    0.80
   2  -9  10    0.70    0.70
   2  -9  10   -0.10    0.90
   5   8 -10    0.00    0.80
   5   8 -10    0.60    0.80
  -5  -8  10    2.20    0.80
  -5  -8  10    0.80    1.00
   4   8 -10    0.20    0.80
   4   8 -10   -0.80    0.60
  -4  -8  10    0.90    0.70
  -4  -8  10   -1.60    0.70
   3   8 -10    5.00    1.00
   3   8 -10    2.30    0.90
  -3  -8  10    3.40    1.00
  -3  -8  10    2.00    0.90
   2   8 -10   -0.20    0.60
   2   8 -10    0.70    0.70
  -2  -8  10   -0.10    0.60
  -2  -8  10   -0.80    0.70
   1   8 -10    0.40    0.70
  -1  -8  10   -0.40    0.60
  -1  -8  10   -0.20    0.50
   0   8 -10    8.90    1.30
   0  -8  10    8.40    1.00
   0  -8  10    7.90    1.20
  -1   8 -10    2.30    0.90
   1  -8  10    3.30    1.00
   1  -8  10    3.30    0.70
  -2   8 -10    8.20    1.30
  -2   8 -10   10.40    1.20
   2  -8  10    9.30    1.10
   2  -8  10   10.10    1.40
  -3   8 -10    3.10    0.90
  -3   8 -10    5.10    1.10
   3  -8  10    3.00    0.90
   3  -8  10    1.20    0.90
  -4   8 -10    1.80    0.90
   4  -8  10    3.30    1.00
   4  -8  10    2.90    0.90
   6   7 -10   -0.20    0.90
   6   7 -10    0.40    0.70
  -6  -7  10   -0.50    0.90
   5   7 -10    0.80    0.70
   5   7 -10   -1.00    0.70
  -5  -7  10   -2.00    0.80
   4   7 -10    1.40    0.80
   4   7 -10    1.10    0.70
  -4  -7  10    1.10    0.70
  -4  -7  10    1.20    0.70
   3   7 -10    0.20    0.70
   3   7 -10    0.50    0.60
  -3  -7  10    0.80    0.60
  -3  -7  10    0.90    0.80
   2   7 -10    7.20    1.00
   2   7 -10    7.00    1.20
  -2  -7  10    8.90    1.20
  -2  -7  10    8.50    1.20
   1   7 -10    3.10    0.80
   1   7 -10    2.20    0.80
  -1  -7  10    2.70    0.80
  -1  -7  10    2.40    0.80
   0   7 -10   20.70    2.40
   0   7 -10   24.80    1.30
   0   7 -10   24.80    1.70
   0  -7  10   25.90    1.20
   0  -7  10   27.20    1.70
   0  -7  10   24.30    1.50
  -1   7 -10    6.30    1.00
  -1   7 -10    7.50    0.90
   1  -7  10    8.00    0.90
   1  -7  10    7.40    1.20
  -2   7 -10   14.60    1.50
  -2   7 -10   16.10    1.40
   2  -7  10   14.00    1.20
   2  -7  10   13.30    1.40
  -3   7 -10   -1.00    0.50
   3  -7  10    0.10    0.60
   3  -7  10   -0.30    0.80
  -4   7 -10    0.10    0.80
   4  -7  10   -0.60    0.80
   4  -7  10   -0.20    0.80
  -5   7 -10   -0.50    0.70
   5  -7  10   -0.60    0.60
   5  -7  10   -1.90    0.70
   6   6 -10    0.10    0.90
  -6  -6  10   -1.10    0.90
   5   6 -10    0.40    0.70
   5   6 -10   -0.40    0.80
  -5  -6  10   -1.10    0.80
   4   6 -10    0.90    0.80
   4   6 -10    0.40    0.60
   4   6 -10    1.40    0.70
  -4  -6  10    1.90    0.60
  -4  -6  10    0.40    0.80
   3   6 -10    1.00    0.60
   3   6 -10    0.10    0.70
   3   6 -10    0.00    0.60
  -3  -6  10    0.80    0.60
  -3  -6  10    0.40    0.70
   2   6 -10    4.20    0.80
   2   6 -10    5.00    0.90
   2   6 -10    3.50    0.90
  -2  -6  10    4.70    0.80
  -2  -6  10    4.30    0.90
   1   6 -10    8.40    0.80
   1   6 -10    6.90    1.00
   1   6 -10    7.40    1.00
  -1  -6  10    8.20    1.10
  -1  -6  10    8.60    1.00
   0   6 -10   65.39    2.80
   0   6 -10   62.19    2.20
   0   6 -10   60.49    2.60
   0  -6  10   58.29    2.00
   0  -6  10   64.59    2.50
   0  -6  10   59.89    2.50
  -1   6 -10   21.60    1.60
  -1   6 -10   24.00    1.40
  -1   6 -10   25.20    1.70
   1  -6  10   23.40    1.50
   1  -6  10   23.80    1.30
  -2   6 -10   13.80    1.40
  -2   6 -10   15.00    1.30
   2  -6  10   18.40    1.00
   2  -6  10   15.10    1.30
   2  -6  10   14.70    1.20
  -3   6 -10    0.40    0.60
   3  -6  10    0.60    0.60
   3  -6  10    0.90    0.40
   3  -6  10    0.40    0.60
  -4   6 -10    2.50    0.90
   4  -6  10    2.00    0.80
   4  -6  10    1.20    0.70
  -5   6 -10   -0.60    0.80
   5  -6  10    0.90    0.70
   5  -6  10    2.70    0.90
  -6   6 -10    0.70    0.90
   6  -6  10   -0.20    0.70
   6   5 -10   24.90    2.20
  -6  -5  10   24.50    2.20
   5   5 -10   10.50    1.20
   5   5 -10   11.10    1.10
   5   5 -10   11.40    1.50
  -5  -5  10    9.90    1.40
   4   5 -10    0.60    0.50
   4   5 -10    1.20    0.60
   4   5 -10    0.60    0.70
  -4  -5  10   -0.40    0.50
  -4  -5  10    0.10    0.80
   3   5 -10    7.80    0.90
   3   5 -10    5.50    1.00
   3   5 -10    7.10    1.00
  -3  -5  10    7.40    0.90
  -3  -5  10    7.50    1.10
   2   5 -10   20.10    1.10
   2   5 -10   21.70    1.50
   2   5 -10   21.50    1.40
   2   5 -10   22.80    1.60
  -2  -5  10   21.10    1.50
  -2  -5  10   21.80    1.40
   1   5 -10   41.80    2.00
   1   5 -10   41.40    1.60
   1   5 -10   41.70    2.00
   1   5 -10   42.70    1.90
  -1  -5  10   42.50    1.90
  -1  -5  10   38.10    1.40
  -1  -5  10   41.40    2.00
   0   5 -10   77.29    2.90
   0   5 -10   74.19    2.50
   0   5 -10   73.49    2.80
   0  -5  10   76.09    2.80
   0  -5  10   74.29    2.30
   0  -5  10   76.59    2.70
  -1   5 -10    7.50    1.00
  -1   5 -10    7.10    0.80
   1  -5  10    7.90    1.00
   1  -5  10    6.90    0.70
   1  -5  10    7.70    0.70
  -2   5 -10   -0.40    0.40
  -2   5 -10   -0.20    0.50
   2  -5  10   -0.60    0.50
   2  -5  10   -0.10    0.30
   2  -5  10   -0.50    0.40
  -3   5 -10    1.80    0.70
   3  -5  10    2.90    0.70
   3  -5  10    2.90    0.70
   3  -5  10    2.40    0.50
  -4   5 -10    2.20    0.80
   4  -5  10    2.00    0.70
   4  -5  10    1.50    0.50
   4  -5  10    1.10    0.70
  -5   5 -10   -1.90    0.60
   5  -5  10    0.00    0.60
   5  -5  10    0.30    0.60
  -6   5 -10    0.20    0.80
   6  -5  10   -0.60    0.70
   6  -5  10    0.80    0.70
   7   4 -10    1.40    1.20
  -7  -4  10    3.40    1.20
   6   4 -10    2.60    1.10
  -6  -4  10    3.00    1.10
   5   4 -10    3.20    1.00
   5   4 -10    3.90    0.80
  -5  -4  10    2.40    0.70
  -5  -4  10    4.60    1.10
   4   4 -10    0.40    0.50
   4   4 -10    1.20    0.60
   4   4 -10    1.10    0.80
  -4  -4  10    1.40    0.60
  -4  -4  10    0.30    0.50
  -4  -4  10    1.80    0.80
   3   4 -10    9.20    0.90
   3   4 -10    8.50    1.00
   3   4 -10    8.60    1.10
  -3  -4  10   11.10    1.00
  -3  -4  10   10.80    1.00
  -3  -4  10   11.50    1.30
   2   4 -10    2.80    0.60
   2   4 -10    3.60    0.80
   2   4 -10    2.40    0.60
  -2  -4  10    3.20    0.70
  -2  -4  10    3.20    0.70
  -2  -4  10    2.80    0.70
   1   4 -10   65.99    2.40
   1   4 -10   64.49    2.50
   1   4 -10   69.99    2.60
   1   4 -10   64.39    2.20
  -1  -4  10   62.59    2.50
  -1  -4  10   59.29    2.40
  -1  -4  10   67.89    2.40
   0   4 -10   27.20    1.30
   0   4 -10   27.10    1.50
   0   4 -10   25.70    1.40
   0  -4  10   25.00    1.40
   0  -4  10   26.30    1.10
   0  -4  10   25.80    1.50
   0  -4  10   28.30    1.30
  -1   4 -10   69.09    2.60
  -1   4 -10   68.79    2.40
   1  -4  10   69.69    2.30
   1  -4  10   66.29    2.20
   1  -4  10   68.39    2.60
   1  -4  10   67.09    2.50
  -2   4 -10    0.20    0.40
  -2   4 -10    0.40    0.30
   2  -4  10    0.10    0.30
   2  -4  10    0.70    0.40
   2  -4  10    0.10    0.50
  -3   4 -10    2.90    0.70
   3  -4  10    3.10    0.70
   3  -4  10    3.50    0.50
   3  -4  10    2.90    0.60
   3  -4  10    3.40    0.30
  -4   4 -10    1.50    0.70
  -4   4 -10    2.10    0.50
  -4   4 -10    1.60    0.40
   4  -4  10    1.90    0.30
   4  -4  10    0.70    0.50
   4  -4  10    1.70    0.70
   4  -4  10    1.70    0.50
  -5   4 -10    6.30    0.80
  -5   4 -10    7.60    0.80
  -5   4 -10    8.20    1.10
   5  -4  10    6.50    0.80
   5  -4  10    6.40    0.70
   5  -4  10    5.90    0.90
   5  -4  10    6.40    0.60
   5  -4  10    6.80    1.00
  -6   4 -10   14.50    1.10
  -6   4 -10   10.90    1.60
  -6   4 -10   14.50    1.60
   6  -4  10   16.80    1.50
   6  -4  10   14.60    1.00
   6  -4  10   14.40    1.10
   6  -4  10   12.90    0.90
  -7   4 -10   11.60    1.60
   7  -4  10   14.30    1.30
   7  -4  10   15.00    1.60
   7   3 -10   -0.50    1.00
  -7  -3  10    0.70    1.00
   6   3 -10   -2.10    1.00
  -6  -3  10   -0.40    0.80
   5   3 -10    2.20    0.90
  -5  -3  10    3.20    0.70
  -5  -3  10    4.10    1.10
   4   3 -10    2.40    0.90
   4   3 -10    1.70    0.50
   4   3 -10    2.10    0.60
  -4  -3  10    2.50    0.80
  -4  -3  10    2.40    0.60
   3   3 -10   21.10    1.40
   3   3 -10   21.30    1.20
   3   3 -10   21.60    1.30
  -3  -3  10   22.00    1.20
  -3  -3  10   21.00    1.50
  -3  -3  10   20.40    1.30
   2   3 -10   54.39    2.00
   2   3 -10   55.59    2.10
  -2  -3  10   53.79    2.00
  -2  -3  10   51.99    2.30
  -2  -3  10   51.69    2.10
   1   3 -10    6.30    0.70
   1   3 -10    6.10    0.80
   1   3 -10    7.40    0.80
  -1  -3  10    5.70    0.80
  -1  -3  10    5.20    0.80
  -1  -3  10    4.80    0.80
   0   3 -10   23.70    1.30
   0   3 -10   22.60    1.20
   0  -3  10   20.20    1.40
   0  -3  10   23.50    1.20
   0  -3  10   22.70    1.30
   0  -3  10   21.90    1.00
   0  -3  10   22.70    1.20
  -1   3 -10    3.30    0.60
  -1   3 -10    2.70    0.60
   1  -3  10    3.80    0.70
   1  -3  10    3.20    0.70
   1  -3  10    3.20    0.50
   1  -3  10    3.30    0.50
   1  -3  10    4.20    0.70
  -2   3 -10   63.19    1.90
  -2   3 -10   61.69    2.30
   2  -3  10   63.09    1.60
   2  -3  10   59.49    2.10
   2  -3  10   64.09    2.10
   2  -3  10   64.39    1.60
   2  -3  10   59.49    2.30
  -3   3 -10    1.00    0.30
  -3   3 -10    0.60    0.20
  -3   3 -10    0.50    0.20
  -3   3 -10   -0.30    0.40
   3  -3  10    0.90    0.20
   3  -3  10    0.40    0.50
   3  -3  10    0.60    0.40
   3  -3  10    0.00    0.40
   3  -3  10    0.50    0.20
  -4   3 -10   14.40    0.80
  -4   3 -10   15.60    1.30
   4  -3  10   16.40    0.80
   4  -3  10   15.40    0.70
   4  -3  10   16.30    1.20
   4  -3  10   14.20    1.10
   4  -3  10   18.10    1.00
  -5   3 -10   58.39    2.10
  -5   3 -10   64.39    2.60
   5  -3  10   58.79    2.40
   5  -3  10   61.79    2.00
   5  -3  10   64.29    2.30
   5  -3  10   59.59    2.00
   5  -3  10   61.49    2.40
  -6   3 -10   15.10    1.60
  -6   3 -10   15.90    1.10
   6  -3  10   18.00    1.00
   6  -3  10   17.40    1.00
   6  -3  10   19.40    1.20
   6  -3  10   18.00    1.40
  -7   3 -10    8.00    1.00
  -7   3 -10    9.50    1.40
   7  -3  10   11.10    1.30
   7  -3  10   10.20    1.00
   7  -3  10   10.10    1.00
   7  -3  10    9.00    0.90
  -8   3 -10    9.50    1.50
  -8   3 -10    7.90    1.10
   8  -3  10    9.30    1.40
   8  -3  10    9.60    1.10
   8  -3  10    9.60    1.00
  -7  -2  10    1.60    1.10
   6   2 -10   -1.50    0.90
  -6  -2  10    1.30    1.00
   5   2 -10    0.10    0.90
  -5  -2  10    0.60    0.50
  -5  -2  10    1.00    0.50
  -5  -2  10    1.50    0.80
   4   2 -10    7.80    1.10
   4   2 -10    8.50    0.90
   4   2 -10    7.80    0.70
   4   2 -10    6.40    0.80
  -4  -2  10    7.70    0.70
  -4  -2  10    9.20    1.00
  -4  -2  10    8.80    1.20
   3   2 -10   -0.10    0.30
   3   2 -10    0.30    0.30
   3   2 -10    0.40    0.20
   3   2 -10   -0.60    0.50
   3   2 -10   -0.30    0.30
  -3  -2  10    0.30    0.20
  -3  -2  10    1.10    0.30
  -3  -2  10    1.10    0.50
  -3  -2  10    0.20    0.50
   2   2 -10   -0.30    0.30
   2   2 -10    0.00    0.40
   2   2 -10    0.00    0.30
   2   2 -10   -0.10    0.10
  -2  -2  10   -0.60    0.40
  -2  -2  10    0.10    0.20
  -2  -2  10   -0.10    0.10
  -2  -2  10   -0.40    0.40
   1   2 -10  441.36   11.20
   1   2 -10  444.96   11.10
   1   2 -10  451.55   11.00
  -1  -2  10  448.66   11.10
  -1  -2  10  428.86   11.20
  -1  -2  10  434.56   11.10
  -1  -2  10  424.96   11.40
   0   2 -10   34.70    1.40
   0   2 -10   33.50    1.50
   0   2 -10   33.40    1.50
   0  -2  10   32.30    1.50
   0  -2  10   32.50    1.50
   0  -2  10   32.90    1.40
   0  -2  10   32.30    1.60
  -1   2 -10  149.99    4.10
  -1   2 -10  147.69    4.30
   1  -2  10  151.78    4.20
   1  -2  10  149.29    4.30
   1  -2  10  144.89    4.40
   1  -2  10  146.89    4.00
   1  -2  10  143.49    4.30
  -2   2 -10   24.40    1.00
  -2   2 -10   21.50    1.20
   2  -2  10   23.40    1.30
   2  -2  10   23.70    0.60
   2  -2  10   23.60    1.30
   2  -2  10   24.90    1.20
   2  -2  10   24.90    0.60
   2  -2  10   23.60    0.60
   2  -2  10   23.70    1.20
  -3   2 -10   51.39    1.50
  -3   2 -10   50.89    2.10
  -3   2 -10   54.09    1.60
   3  -2  10   51.39    1.50
   3  -2  10   47.40    2.00
   3  -2  10   51.89    2.00
   3  -2  10   51.39    1.40
   3  -2  10   52.59    1.90
  -4   2 -10   13.80    0.70
  -4   2 -10   15.10    1.10
  -4   2 -10   13.40    0.70
   4  -2  10   13.90    0.70
   4  -2  10   14.70    1.00
   4  -2  10   14.70    0.70
   4  -2  10   16.00    1.00
  -5   2 -10  135.69    4.30
  -5   2 -10  128.59    3.70
   5  -2  10  124.59    3.60
   5  -2  10  135.79    4.10
   5  -2  10  136.29    3.90
   5  -2  10  128.29    3.60
  -6   2 -10   46.90    1.90
  -6   2 -10   49.90    2.30
   6  -2  10   46.40    2.20
   6  -2  10   47.10    1.70
   6  -2  10   54.19    2.10
   6  -2  10   47.60    1.80
  -7   2 -10   86.39    3.50
  -7   2 -10   79.29    2.90
   7  -2  10   81.29    3.20
   7  -2  10   77.79    2.70
   7  -2  10   85.39    2.90
   7  -2  10   82.79    2.80
  -8   2 -10   19.40    1.90
  -8   2 -10   20.20    1.50
   8  -2  10   18.40    1.20
   8  -2  10   19.90    1.30
   8  -2  10   17.50    1.70
   8  -2  10   21.30    1.50
   6   1 -10   -1.20    1.00
  -6  -1  10    0.20    0.80
  -6  -1  10    1.60    0.80
   5   1 -10    1.40    0.40
   5   1 -10   -1.30    0.80
   5   1 -10    1.40    0.50
  -5  -1  10    0.40    0.80
  -5  -1  10    2.10    0.60
  -5  -1  10    1.00    0.40
  -5  -1  10    1.20    0.60
   4   1 -10    9.80    1.20
   4   1 -10   11.70    0.80
   4   1 -10   11.30    0.70
  -4  -1  10   11.80    1.00
  -4  -1  10    9.70    1.20
  -4  -1  10   11.30    0.80
  -4  -1  10   10.10    0.70
   3   1 -10    0.50    0.40
   3   1 -10    1.40    0.30
   3   1 -10    0.40    0.50
  -3  -1  10    1.10    0.30
  -3  -1  10   -0.20    0.50
  -3  -1  10    1.10    0.30
  -3  -1  10    0.40    0.50
   2   1 -10   61.49    2.10
   2   1 -10   64.89    2.40
   2   1 -10   62.99    2.00
   2   1 -10   60.79    1.80
  -2  -1  10   62.69    2.50
  -2  -1  10   63.59    1.80
  -2  -1  10   64.59    1.80
  -2  -1  10   64.49    2.30
   1   1 -10    0.10    0.10
   1   1 -10    0.20    0.30
   1   1 -10    0.20    0.30
   1   1 -10    0.40    0.40
   1   1 -10    0.00    0.10
  -1  -1  10   -0.10    0.40
  -1  -1  10   -0.70    0.30
  -1  -1  10    0.00    0.10
  -1  -1  10    0.50    0.50
   0   1 -10   76.09    2.40
   0   1 -10   75.19    2.40
   0   1 -10   78.19    2.50
   0  -1  10   72.99    2.60
   0  -1  10   76.69    2.50
   0  -1  10   73.89    2.70
  -1   1 -10  180.88    4.90
  -1   1 -10  176.08    4.80
   1  -1  10  179.38    4.90
   1  -1  10  179.18    5.20
  -2   1 -10   39.10    1.40
  -2   1 -10   38.20    1.10
  -2   1 -10   38.90    1.00
  -2   1 -10   37.90    1.00
   2  -1  10   37.30    1.60
   2  -1  10   35.70    1.50
   2  -1  10   38.50    1.00
   2  -1  10   40.10    1.00
   2  -1  10   38.60    1.00
   2  -1  10   39.50    1.60
  -3   1 -10   23.70    1.00
  -3   1 -10   23.00    0.90
  -3   1 -10   24.40    1.40
  -3   1 -10   21.80    0.80
   3  -1  10   23.20    1.20
   3  -1  10   23.60    1.20
   3  -1  10   22.70    1.30
   3  -1  10   24.30    0.80
  -4   1 -10   11.30    0.70
  -4   1 -10   11.80    0.70
  -4   1 -10   11.30    1.10
  -4   1 -10   10.80    0.70
   4  -1  10   11.70    0.60
   4  -1  10   11.00    0.90
   4  -1  10   11.50    0.80
  -5   1 -10   66.89    2.20
  -5   1 -10   70.99    2.70
  -5   1 -10   65.19    2.20
   5  -1  10   66.69    2.40
   5  -1  10   71.09    2.50
   5  -1  10   66.59    2.10
  -6   1 -10   26.00    1.70
  -6   1 -10   24.90    1.30
  -6   1 -10   24.40    1.20
   6  -1  10   21.80    1.50
   6  -1  10   24.00    1.40
   6  -1  10   22.20    1.10
  -7   1 -10   10.50    1.10
  -7   1 -10   10.20    1.10
  -7   1 -10   11.10    1.30
   7  -1  10   11.70    1.10
   7  -1  10   11.60    1.00
   7  -1  10   10.70    1.30
   7  -1  10   10.70    0.90
  -8   1 -10    1.70    0.60
  -8   1 -10    1.00    0.70
  -8   1 -10    0.60    0.80
   8  -1  10    0.90    0.70
   8  -1  10    1.10    0.60
   8  -1  10    0.50    0.60
   8  -1  10    0.70    0.60
   6   0 -10   -0.20    0.40
   6   0 -10    0.80    0.50
   6   0 -10   -0.90    0.80
  -6   0  10   -0.30    0.70
  -6   0  10    0.70    0.50
  -6   0  10    0.30    0.50
   5   0 -10   15.30    1.10
   5   0 -10   15.60    1.00
   5   0 -10   16.10    1.70
  -5   0  10   14.90    1.10
  -5   0  10   14.50    1.20
  -5   0  10   15.40    1.60
  -5   0  10   14.90    1.00
   4   0 -10    0.40    0.40
   4   0 -10    0.00    0.60
  -4   0  10    0.00    0.30
  -4   0  10   -0.50    0.40
  -4   0  10    0.50    0.40
  -4   0  10   -0.40    0.50
   3   0 -10   27.80    1.60
   3   0 -10   28.90    1.10
  -3   0  10   29.10    1.70
  -3   0  10   28.90    1.20
  -3   0  10   29.90    1.20
  -3   0  10   27.50    1.40
   2   0 -10   44.10    1.50
   2   0 -10   48.50    1.90
   2   0 -10   44.80    1.40
  -2   0  10   44.90    1.50
  -2   0  10   43.00    1.80
  -2   0  10   43.00    1.40
  -2   0  10   44.60    2.00
   1   0 -10  130.09    3.30
   1   0 -10  129.39    3.30
   1   0 -10  128.39    3.50
   1   0 -10  130.19    3.70
   1   0 -10  132.89    3.80
   1   0 -10  128.29    3.40
  -1   0  10  128.89    3.90
  -1   0  10  130.09    3.80
  -1   0  10  120.09    3.90
  -1   0  10  131.39    3.30
   0   0 -10  479.25   11.20
   0   0 -10  471.55   11.20
   0   0 -10  482.05   11.20
   0   0 -10  458.85   11.50
   0   0 -10  459.95   11.60
   0   0 -10  455.95   11.70
   0   0  10  499.55   11.20
   0   0  10  477.15   11.20
   0   0  10  449.66   12.00
   0   0  10  456.65   11.90
   0   0  10  462.35   11.70
   0   0  10  485.65   11.20
  -1   0 -10   37.60    1.10
  -1   0 -10   37.90    1.10
  -1   0 -10   36.60    1.30
  -1   0 -10   38.90    1.10
  -1   0 -10   35.70    1.50
   1   0  10   40.90    1.10
   1   0  10   39.40    1.00
   1   0  10   38.00    1.50
   1   0  10   35.40    1.60
   1   0  10   36.80    1.00
  -2   0 -10   47.70    1.30
  -2   0 -10   47.60    1.40
  -2   0 -10   44.70    1.70
   2   0  10   47.30    1.30
   2   0  10   47.80    1.80
   2   0  10   48.70    1.30
   2   0  10   47.00    1.30
   2   0  10   49.40    1.30
   2   0  10   43.40    1.80
  -3   0 -10    0.20    0.20
  -3   0 -10   -0.20    0.20
  -3   0 -10    0.30    0.40
   3   0  10    0.10    0.40
   3   0  10    1.50    0.50
   3   0  10    0.00    0.20
   3   0  10    0.40    0.20
   3   0  10    0.30    0.40
  -4   0 -10  209.58    5.40
  -4   0 -10  205.28    5.30
  -4   0 -10  204.08    5.80
  -4   0 -10  206.08    5.30
   4   0  10  206.58    5.20
   4   0  10  204.08    5.60
   4   0  10  204.38    5.60
   4   0  10  200.38    5.60
  -5   0 -10    1.10    0.40
  -5   0 -10    0.30    0.30
  -5   0 -10    0.30    0.30
  -5   0 -10    0.90    0.50
   5   0  10    0.50    0.40
   5   0  10    0.60    0.30
   5   0  10    0.00    0.40
  -6   0 -10    3.30    0.80
  -6   0 -10    0.80    0.40
  -6   0 -10    1.30    0.40
   6   0  10    0.40    0.60
   6   0  10    1.30    0.40
   6   0  10    0.30    0.50
  -7   0 -10   11.60    1.10
  -7   0 -10    9.70    1.20
  -7   0 -10   11.90    1.00
   7   0  10   11.50    1.20
   7   0  10   11.30    1.00
   7   0  10   10.70    1.10
  -8   0 -10   -0.40    0.60
  -8   0 -10    0.70    0.60
  -8   0 -10   -0.50    0.50
   8   0  10    0.70    0.50
   8   0  10    0.00    0.70
   8   0  10   -0.60    0.50
  -9   0 -10    0.10    0.80
  -9   0 -10    0.10    0.60
  -9   0 -10    0.10    0.60
   9   0  10    0.60    0.60
   9   0  10    0.00    0.60
   9   0  10    0.50    0.70
   9   0  10    0.60    0.50
   6  -1 -10    1.80    1.10
   6  -1 -10    3.50    0.90
   6  -1 -10    3.00    0.70
  -6   1  10    3.30    0.80
  -6   1  10    2.00    0.90
  -6   1  10    5.70    0.90
   5  -1 -10    2.80    0.60
   5  -1 -10    2.60    0.80
   5  -1 -10    3.10    1.10
  -5   1  10    3.40    0.90
  -5   1  10    2.50    0.70
  -5   1  10    3.60    0.70
  -5   1  10    3.60    0.70
   4  -1 -10   19.80    1.40
   4  -1 -10   22.20    1.10
   4  -1 -10   22.30    1.60
  -4   1  10   21.40    1.20
  -4   1  10   23.20    1.20
  -4   1  10   21.00    1.60
  -4   1  10   21.30    1.30
   3  -1 -10   33.40    1.30
   3  -1 -10   34.50    1.80
   3  -1 -10   32.30    1.70
  -3   1  10   32.40    1.70
  -3   1  10   31.40    1.30
  -3   1  10   34.00    1.70
  -3   1  10   31.90    1.40
   2  -1 -10  101.99    3.30
   2  -1 -10   97.49    3.20
   2  -1 -10   99.39    2.80
  -2   1  10   99.79    2.90
  -2   1  10   98.99    2.80
  -2   1  10   96.89    3.20
  -2   1  10  100.39    3.40
   1  -1 -10   74.29    2.50
   1  -1 -10   74.89    1.90
   1  -1 -10   76.39    2.40
   1  -1 -10   77.69    2.20
   1  -1 -10   75.19    2.10
  -1   1  10   72.39    2.40
  -1   1  10   77.59    2.20
  -1   1  10   72.89    2.70
  -1   1  10   74.79    2.60
   0  -1 -10  148.79    4.30
   0  -1 -10  146.39    3.80
   0  -1 -10  144.89    3.80
   0  -1 -10  149.99    4.00
   0  -1 -10  150.08    3.80
   0   1  10  151.78    4.40
   0   1  10  149.79    3.80
   0   1  10  147.69    4.20
   0   1  10  143.39    4.30
  -1  -1 -10   73.89    2.10
  -1  -1 -10   72.59    2.00
  -1  -1 -10   69.29    2.40
   1   1  10   73.59    2.00
   1   1  10   74.79    2.00
   1   1  10   73.19    2.50
   1   1  10   69.29    2.30
  -2  -1 -10    5.70    0.40
  -2  -1 -10    5.50    0.40
  -2  -1 -10    5.50    0.70
  -2  -1 -10    5.80    0.40
  -2  -1 -10    6.20    0.40
   2   1  10    4.10    0.60
   2   1  10    5.70    0.40
   2   1  10    4.70    0.70
  -3  -1 -10   44.40    1.70
  -3  -1 -10   41.20    1.60
  -3  -1 -10   41.40    1.50
  -3  -1 -10   43.90    1.40
  -3  -1 -10   44.00    1.40
   3   1  10   43.10    1.30
   3   1  10   44.60    1.40
   3   1  10   42.40    1.70
   3   1  10   42.00    1.70
  -4  -1 -10   17.30    1.00
  -4  -1 -10   16.30    0.90
  -4  -1 -10   16.90    1.30
   4   1  10   18.40    1.10
   4   1  10   17.30    0.80
   4   1  10   17.50    0.80
   4   1  10   17.40    1.10
   4   1  10   17.20    1.10
  -5  -1 -10   45.10    1.60
  -5  -1 -10   44.80    1.70
  -5  -1 -10   43.50    2.00
  -5  -1 -10   44.50    1.60
   5   1  10   42.70    1.80
   5   1  10   45.00    1.90
   5   1  10   45.10    1.60
   5   1  10   44.20    1.60
   5   1  10   49.00    1.80
  -6  -1 -10    1.10    0.40
  -6  -1 -10    0.70    0.60
  -6  -1 -10    0.90    0.50
  -6  -1 -10    0.70    0.40
   6   1  10    0.20    0.50
   6   1  10    1.10    0.60
   6   1  10    1.40    0.50
  -7  -1 -10   34.60    1.90
  -7  -1 -10   36.60    1.70
  -7  -1 -10   35.00    1.70
   7   1  10   37.90    1.60
   7   1  10   34.60    1.80
  -8  -1 -10   24.00    1.40
  -8  -1 -10   24.30    1.50
  -8  -1 -10   21.10    1.60
   8   1  10   21.70    1.60
   8   1  10   21.70    1.40
  -9  -1 -10   11.90    1.30
  -9  -1 -10   11.50    1.30
  -9  -1 -10   13.80    1.50
   9   1  10   14.10    1.50
   9   1  10   11.90    1.20
   5  -2 -10    0.80    0.60
   5  -2 -10    0.70    0.70
   5  -2 -10    0.80    0.80
  -5   2  10    0.50    0.60
  -5   2  10    0.40    0.60
  -5   2  10    0.20    0.60
  -5   2  10    0.30    0.60
   4  -2 -10    1.20    0.80
   4  -2 -10    2.70    0.60
   4  -2 -10    2.60    0.80
  -4   2  10    3.20    0.80
  -4   2  10    2.20    0.60
  -4   2  10    2.10    0.60
  -4   2  10    2.10    0.70
   3  -2 -10   11.20    1.10
   3  -2 -10   10.80    0.80
   3  -2 -10   11.00    1.20
  -3   2  10   11.40    1.10
  -3   2  10   12.30    0.90
  -3   2  10   10.60    0.80
  -3   2  10   11.10    1.20
   2  -2 -10   49.10    2.00
   2  -2 -10   47.80    1.60
   2  -2 -10   46.40    1.90
   2  -2 -10   48.60    1.70
  -2   2  10   45.10    2.00
  -2   2  10   47.50    1.70
  -2   2  10   49.40    1.80
  -2   2  10   48.60    2.10
   1  -2 -10   64.89    2.20
   1  -2 -10   66.39    2.40
   1  -2 -10   64.99    2.00
   1  -2 -10   66.79    2.10
  -1   2  10   63.09    2.40
  -1   2  10   67.09    2.10
  -1   2  10   68.89    2.50
  -1   2  10   65.39    2.20
   0  -2 -10   32.30    1.20
   0  -2 -10   32.40    1.50
   0  -2 -10   32.60    1.20
   0  -2 -10   32.60    0.90
   0  -2 -10   33.90    1.20
   0   2  10   33.70    1.60
   0   2  10   32.00    1.50
   0   2  10   34.70    1.20
   0   2  10   35.20    1.40
  -1  -2 -10   17.80    0.70
  -1  -2 -10   17.30    1.10
  -1  -2 -10   17.20    0.70
  -1  -2 -10   16.50    0.80
  -1  -2 -10   18.30    0.70
   1   2  10   17.00    1.10
   1   2  10   17.30    0.80
   1   2  10   16.80    0.80
   1   2  10   16.90    1.00
  -2  -2 -10    6.30    0.50
  -2  -2 -10    5.70    0.50
  -2  -2 -10    5.60    0.50
  -2  -2 -10    5.90    0.70
   2   2  10    6.20    0.70
   2   2  10    5.10    0.70
   2   2  10    6.00    0.50
   2   2  10    6.20    0.50
  -3  -2 -10    3.80    0.50
  -3  -2 -10    4.30    0.60
  -3  -2 -10    4.60    0.50
  -3  -2 -10    4.10    0.60
   3   2  10    4.30    0.60
   3   2  10    5.40    0.70
   3   2  10    4.40    0.40
  -4  -2 -10    0.50    0.50
  -4  -2 -10    1.10    0.30
  -4  -2 -10    0.00    0.30
   4   2  10   -0.20    0.40
   4   2  10    0.10    0.30
   4   2  10    0.00    0.40
   4   2  10    0.80    0.30
  -5  -2 -10  213.18    5.70
  -5  -2 -10  216.08    6.00
  -5  -2 -10  210.98    5.60
   5   2  10  211.48    5.50
   5   2  10  215.48    5.70
   5   2  10  208.78    5.80
   5   2  10  205.18    5.50
  -6  -2 -10   29.50    1.40
  -6  -2 -10   31.80    1.70
  -6  -2 -10   31.10    1.40
   6   2  10   32.00    1.40
   6   2  10   31.70    1.60
   6   2  10   33.00    1.40
   6   2  10   30.90    1.30
  -7  -2 -10   51.19    2.00
  -7  -2 -10   50.29    2.10
  -7  -2 -10   51.59    2.10
  -7  -2 -10   57.49    2.50
   7   2  10   57.29    2.30
   7   2  10   53.19    2.00
   7   2  10   55.19    2.00
  -8  -2 -10   32.80    2.00
  -8  -2 -10   33.90    1.80
  -8  -2 -10   30.70    1.70
   8   2  10   30.90    1.90
   8   2  10   29.90    1.60
  -9  -2 -10   20.20    1.80
  -9  -2 -10   19.40    1.50
  -9  -2 -10   19.00    1.50
   9   2  10   19.60    1.50
   9   2  10   18.30    1.50
   5  -3 -10    0.70    0.60
   5  -3 -10    0.00    0.60
   5  -3 -10    0.20    0.70
  -5   3  10    0.20    0.50
  -5   3  10    0.00    0.70
  -5   3  10   -0.80    0.60
   4  -3 -10    1.10    0.70
   4  -3 -10    0.50    0.70
   4  -3 -10   -0.60    0.50
  -4   3  10    0.70    0.60
  -4   3  10    0.60    0.60
  -4   3  10    0.70    0.60
   3  -3 -10   14.70    1.30
   3  -3 -10   16.50    1.10
   3  -3 -10   13.50    1.20
  -3   3  10   15.10    1.10
  -3   3  10   13.00    1.20
  -3   3  10   16.30    1.10
  -3   3  10   13.50    1.20
   2  -3 -10    8.60    1.00
   2  -3 -10    8.80    0.80
   2  -3 -10   10.30    0.90
   2  -3 -10    8.20    0.90
  -2   3  10    8.50    0.90
  -2   3  10    8.00    0.80
  -2   3  10    8.30    1.00
  -2   3  10   10.80    0.90
   1  -3 -10    0.90    0.40
   1  -3 -10    0.60    0.40
   1  -3 -10    0.50    0.50
   1  -3 -10    0.70    0.40
  -1   3  10    0.90    0.40
  -1   3  10   -0.40    0.50
  -1   3  10    0.80    0.50
  -1   3  10    0.80    0.40
   0  -3 -10   -0.50    0.50
   0  -3 -10    0.30    0.30
   0  -3 -10    0.10    0.20
   0  -3 -10    0.40    0.30
   0   3  10    0.00    0.30
   0   3  10    0.30    0.30
   0   3  10   -0.10    0.40
  -1  -3 -10    4.40    0.50
  -1  -3 -10    3.50    0.70
   1   3  10    4.40    0.60
   1   3  10    3.50    0.50
   1   3  10    5.10    0.50
   1   3  10    4.20    0.70
  -2  -3 -10   77.39    2.30
  -2  -3 -10   79.59    2.20
  -2  -3 -10   75.59    2.60
   2   3  10   77.19    2.60
   2   3  10   78.29    2.50
   2   3  10   76.49    2.30
   2   3  10   78.39    2.30
  -3  -3 -10    2.30    0.40
  -3  -3 -10    2.80    0.60
  -3  -3 -10    2.50    0.40
  -3  -3 -10    2.00    0.40
   3   3  10    2.90    0.40
   3   3  10    3.00    0.60
   3   3  10    2.60    0.50
  -4  -3 -10   88.49    2.60
  -4  -3 -10   91.69    2.70
  -4  -3 -10   86.79    2.80
  -4  -3 -10   86.69    2.80
   4   3  10   87.29    2.60
   4   3  10   91.19    2.90
   4   3  10   85.59    2.80
  -5  -3 -10   79.59    2.50
  -5  -3 -10   78.29    2.50
  -5  -3 -10   75.29    2.60
   5   3  10   75.89    2.40
   5   3  10   80.99    2.60
   5   3  10   79.89    2.50
   5   3  10   77.69    2.70
  -6  -3 -10   40.20    1.90
  -6  -3 -10   40.10    1.80
  -6  -3 -10   38.50    1.70
   6   3  10   39.80    1.60
   6   3  10   41.70    1.60
   6   3  10   40.10    1.60
  -7  -3 -10   12.30    1.10
  -7  -3 -10   15.30    1.20
  -7  -3 -10   14.00    1.10
   7   3  10   13.40    1.00
   7   3  10   13.20    1.10
  -8  -3 -10    9.70    1.10
  -8  -3 -10    9.10    1.20
  -8  -3 -10   10.50    1.10
  -8  -3 -10   10.80    1.30
   8   3  10   10.20    1.00
   8   3  10   11.80    1.10
  -9  -3 -10    6.50    1.10
  -9  -3 -10    3.50    0.90
  -9  -3 -10    5.80    1.00
   9   3  10    3.70    0.80
   5  -4 -10    1.10    0.80
   5  -4 -10    0.10    0.60
  -5   4  10   -0.90    0.70
  -5   4  10    0.00    0.60
  -5   4  10   -0.50    0.60
   4  -4 -10    0.00    0.70
   4  -4 -10    1.80    0.70
   4  -4 -10   -0.20    0.50
  -4   4  10   -0.10    0.60
  -4   4  10   -0.10    0.80
  -4   4  10   -0.50    0.50
   3  -4 -10    1.20    0.60
   3  -4 -10    1.90    0.70
   3  -4 -10    2.20    0.60
   3  -4 -10    2.10    0.60
  -3   4  10    1.40    0.70
  -3   4  10    2.20    0.60
  -3   4  10    0.70    0.60
   2  -4 -10    3.00    0.60
   2  -4 -10    3.80    0.80
   2  -4 -10    2.70    0.60
   2  -4 -10    2.10    0.60
  -2   4  10    3.70    0.70
  -2   4  10    2.10    0.80
  -2   4  10    4.00    0.70
   1  -4 -10   17.20    1.00
   1  -4 -10   17.10    1.00
   1  -4 -10   16.40    1.00
   1  -4 -10   17.80    1.30
  -1   4  10   17.20    1.00
  -1   4  10   15.10    1.30
   0  -4 -10    3.30    0.50
   0  -4 -10    2.40    0.50
   0  -4 -10    2.20    0.60
   0   4  10    3.30    0.50
   0   4  10    1.70    0.40
   0   4  10    1.30    0.60
  -1  -4 -10   27.20    1.20
  -1  -4 -10   26.40    1.10
  -1  -4 -10   25.00    1.40
   1   4  10   27.90    1.20
   1   4  10   26.00    1.20
   1   4  10   26.50    1.50
   1   4  10   27.80    1.20
  -2  -4 -10   -0.20    0.40
  -2  -4 -10    0.40    0.40
   2   4  10    0.00    0.40
   2   4  10   -0.30    0.30
   2   4  10    0.20    0.30
   2   4  10   -0.30    0.30
  -3  -4 -10    2.90    0.40
  -3  -4 -10    2.20    0.50
  -3  -4 -10    2.30    0.50
  -3  -4 -10    2.50    0.60
   3   4  10    2.30    0.50
   3   4  10    2.80    0.60
   3   4  10    1.90    0.40
   3   4  10    2.40    0.50
  -4  -4 -10   84.09    2.70
  -4  -4 -10   85.79    2.60
  -4  -4 -10   86.29    2.90
  -4  -4 -10   89.79    2.80
   4   4  10   82.99    2.80
   4   4  10   81.19    2.80
   4   4  10   86.79    2.60
  -5  -4 -10   31.40    1.60
  -5  -4 -10   33.10    1.50
  -5  -4 -10   31.40    1.40
   5   4  10   32.20    1.40
   5   4  10   31.10    1.40
   5   4  10   29.80    1.50
  -6  -4 -10  125.49    3.90
  -6  -4 -10  126.39    4.00
  -6  -4 -10  126.19    3.80
   6   4  10  122.49    3.70
   6   4  10  124.49    3.70
   6   4  10  126.39    3.70
  -7  -4 -10    1.40    0.60
  -7  -4 -10    1.00    0.60
  -7  -4 -10    1.10    0.60
   7   4  10    1.10    0.50
   7   4  10    1.60    0.60
  -8  -4 -10    1.20    0.70
  -8  -4 -10    0.70    0.60
  -8  -4 -10    0.90    0.60
   8   4  10    1.80    0.60
   8   4  10    2.10    0.70
  -9  -4 -10    1.50    0.80
  -9  -4 -10    0.60    0.70
  -9  -4 -10    0.90    0.70
   9   4  10    0.60    0.60
   9   4  10    2.20    0.70
   4  -5 -10    0.00    0.60
   4  -5 -10    1.80    0.70
   4  -5 -10   -0.10    0.60
  -4   5  10    0.30    0.80
  -4   5  10    0.70    0.70
  -4   5  10    1.30    0.70
   3  -5 -10    2.60    0.70
   3  -5 -10    1.80    0.70
   3  -5 -10    2.50    0.80
  -3   5  10    1.30    0.70
  -3   5  10    2.50    0.70
   2  -5 -10    4.30    0.70
   2  -5 -10    5.10    0.80
   2  -5 -10    2.80    0.80
  -2   5  10    4.90    0.70
   1  -5 -10    2.70    0.70
   1  -5 -10    2.80    0.60
   1  -5 -10    3.40    0.70
  -1   5  10    3.40    0.60
   0  -5 -10   16.20    1.20
   0  -5 -10   18.90    1.10
   0  -5 -10   17.30    1.10
   0   5  10   18.10    1.10
   0   5  10   19.10    1.00
  -1  -5 -10   16.00    1.20
  -1  -5 -10   16.60    1.00
  -1  -5 -10   16.40    1.00
   1   5  10   16.50    1.00
   1   5  10   18.10    1.00
   1   5  10   16.20    1.00
  -2  -5 -10    1.50    0.60
  -2  -5 -10   -0.30    0.40
   2   5  10    0.40    0.40
   2   5  10    0.70    0.40
   2   5  10    0.20    0.30
   2   5  10    0.90    0.60
  -3  -5 -10   25.30    1.20
  -3  -5 -10   26.20    1.50
   3   5  10   24.60    1.20
   3   5  10   23.10    1.20
   3   5  10   24.50    1.40
   3   5  10   24.20    1.20
   3   5  10   25.40    1.20
  -4  -5 -10   30.70    1.60
  -4  -5 -10   29.60    1.40
  -4  -5 -10   29.50    1.40
   4   5  10   33.80    1.40
   4   5  10   30.50    1.40
   4   5  10   32.20    1.50
   4   5  10   31.10    1.50
  -5  -5 -10   49.00    1.90
  -5  -5 -10   46.10    1.80
  -5  -5 -10   46.80    2.10
   5   5  10   46.00    2.00
   5   5  10   49.40    1.90
   5   5  10   46.70    2.00
   5   5  10   47.20    1.90
  -6  -5 -10   31.10    1.60
  -6  -5 -10   33.00    1.70
  -6  -5 -10   33.20    1.80
  -6  -5 -10   30.70    1.50
   6   5  10   32.50    1.50
   6   5  10   31.60    1.50
   6   5  10   30.50    1.70
   6   5  10   30.80    1.40
  -7  -5 -10   10.80    1.10
  -7  -5 -10   10.90    1.20
  -7  -5 -10   11.60    1.20
   7   5  10    9.20    1.00
   7   5  10   10.80    1.00
  -8  -5 -10    1.40    0.70
  -8  -5 -10    0.80    0.70
  -8  -5 -10    0.80    0.60
   8   5  10    1.00    0.70
   8   5  10    0.80    0.60
  -9  -5 -10   -1.00    0.60
  -9  -5 -10    0.00    0.70
   9   5  10   -0.60    0.60
   9   5  10    0.30    0.60
   3  -6 -10    4.00    0.90
   3  -6 -10    2.60    0.80
   3  -6 -10    2.80    0.80
  -3   6  10    4.10    0.90
   2  -6 -10   10.50    1.20
   2  -6 -10   12.10    1.20
   2  -6 -10   11.20    1.10
  -2   6  10   11.00    1.20
   1  -6 -10   43.30    1.90
   1  -6 -10   43.10    1.90
   1  -6 -10   44.00    2.10
  -1   6  10   44.90    2.00
   0  -6 -10   52.79    2.10
   0  -6 -10   49.40    1.90
   0  -6 -10   49.90    2.20
   0   6  10   48.20    2.00
  -1  -6 -10    1.00    0.50
  -1  -6 -10    2.40    0.70
  -1  -6 -10    1.50    0.50
   1   6  10    1.90    0.50
   1   6  10    1.40    0.50
   1   6  10    1.90    0.40
  -2  -6 -10    2.30    0.70
  -2  -6 -10    3.40    0.60
   2   6  10    1.40    0.60
   2   6  10    2.90    0.50
   2   6  10    2.30    0.50
  -3  -6 -10   16.30    1.10
  -3  -6 -10   18.00    1.30
   3   6  10   15.70    1.10
   3   6  10   15.50    1.10
   3   6  10   17.30    1.30
   3   6  10   15.80    1.00
   3   6  10   18.20    1.10
  -4  -6 -10   15.90    1.20
  -4  -6 -10   16.80    1.10
  -4  -6 -10   17.10    1.30
   4   6  10   14.70    1.10
   4   6  10   16.10    1.10
   4   6  10   14.60    1.10
   4   6  10   16.20    1.10
   4   6  10   14.40    1.00
  -5  -6 -10   41.00    1.80
  -5  -6 -10   42.30    2.10
  -5  -6 -10   42.60    1.90
   5   6  10   37.80    1.70
   5   6  10   38.10    1.70
   5   6  10   41.40    1.80
   5   6  10   40.10    1.90
  -6  -6 -10    3.60    0.70
  -6  -6 -10    3.00    0.80
  -6  -6 -10    4.00    0.80
   6   6  10    2.80    0.80
   6   6  10    5.10    0.80
  -7  -6 -10    3.10    0.80
  -7  -6 -10    3.60    0.80
  -7  -6 -10    2.20    0.90
  -7  -6 -10    4.40    0.80
   7   6  10    2.40    0.70
   7   6  10    3.20    0.70
   7   6  10    1.20    0.80
  -8  -6 -10   16.60    1.40
  -8  -6 -10   20.20    1.60
  -8  -6 -10   18.50    1.40
   8   6  10   16.30    1.40
   8   6  10   16.30    1.30
  -9  -6 -10    0.50    0.70
  -9  -6 -10    1.30    0.80
   9   6  10    0.20    0.60
   9   6  10   -0.10    0.70
   2  -7 -10    1.90    0.70
   2  -7 -10    1.10    0.80
   2  -7 -10    0.70    0.70
  -2   7  10    0.70    0.70
   1  -7 -10   11.20    1.20
   1  -7 -10   10.60    1.10
   1  -7 -10   11.20    1.30
  -1   7  10   10.60    1.20
   0  -7 -10    0.30    0.60
   0  -7 -10    0.80    0.60
   0  -7 -10    2.00    0.80
   0   7  10    1.30    0.70
  -1  -7 -10    0.10    0.50
  -1  -7 -10    0.00    0.70
  -1  -7 -10   -0.40    0.50
   1   7  10    0.50    0.50
   1   7  10    0.40    0.50
  -2  -7 -10    4.50    0.90
  -2  -7 -10    4.80    0.80
   2   7  10    6.30    0.80
   2   7  10    5.50    0.80
   2   7  10    4.40    0.70
  -3  -7 -10    0.90    0.70
  -3  -7 -10    1.10    0.50
   3   7  10   -0.10    0.50
   3   7  10    1.10    0.50
   3   7  10    0.20    0.40
   3   7  10    1.00    0.60
  -4  -7 -10    7.10    0.90
  -4  -7 -10    7.00    0.90
  -4  -7 -10    8.90    1.10
   4   7  10    7.90    0.90
   4   7  10    9.40    1.00
   4   7  10    7.50    0.90
   4   7  10    7.70    0.90
   4   7  10    8.50    1.00
  -5  -7 -10   10.30    1.30
  -5  -7 -10   10.30    1.00
  -5  -7 -10   10.60    1.10
   5   7  10   10.50    1.00
   5   7  10    8.70    1.00
   5   7  10    9.90    1.00
   5   7  10    9.40    1.00
  -6  -7 -10    1.30    0.70
  -6  -7 -10    0.70    0.60
  -6  -7 -10   -0.60    0.70
   6   7  10    0.70    0.60
   6   7  10    0.70    0.70
  -7  -7 -10    0.30    0.80
  -7  -7 -10    1.30    0.60
  -7  -7 -10    0.70    0.70
  -7  -7 -10    1.20    0.70
   7   7  10    0.60    0.60
   7   7  10    0.80    0.60
   7   7  10    0.00    0.80
  -8  -7 -10    2.70    1.00
  -8  -7 -10    3.30    0.90
   8   7  10    3.20    1.00
   8   7  10    3.40    0.90
   8   7  10    3.70    0.90
   1  -8 -10    0.80    0.80
   1  -8 -10    0.90    0.70
   1  -8 -10    0.50    0.70
  -1   8  10    0.70    0.70
   0  -8 -10   -0.20    0.60
   0  -8 -10   -0.50    0.60
   0  -8 -10    1.10    0.70
   0   8  10   -0.40    0.50
   0   8  10    0.10    0.70
  -1  -8 -10   -0.50    0.50
  -1  -8 -10    0.60    0.70
  -1  -8 -10    0.40    0.70
   1   8  10   -0.40    0.60
   1   8  10    0.30    0.60
  -2  -8 -10    3.60    0.80
  -2  -8 -10    3.40    0.90
   2   8  10    4.50    0.80
   2   8  10    4.10    0.80
  -3  -8 -10    0.30    0.50
  -3  -8 -10    0.60    0.80
   3   8  10   -0.10    0.50
   3   8  10   -0.40    0.50
  -4  -8 -10    1.80    0.70
  -4  -8 -10    3.30    0.70
  -4  -8 -10    0.60    0.70
   4   8  10    2.40    0.70
   4   8  10    1.80    0.70
   4   8  10    1.30    0.80
   4   8  10    2.40    0.70
   4   8  10    1.00    0.50
  -5  -8 -10    4.90    1.00
  -5  -8 -10    2.10    0.90
  -5  -8 -10    3.40    0.80
   5   8  10    2.40    0.80
   5   8  10    3.00    0.70
   5   8  10    4.20    0.90
   5   8  10    3.10    0.70
  -6  -8 -10    5.40    0.90
  -6  -8 -10    3.90    1.10
  -6  -8 -10    5.50    1.00
   6   8  10    4.10    0.80
   6   8  10    3.60    0.90
   6   8  10    4.00    0.80
  -7  -8 -10    0.50    0.60
  -7  -8 -10   -0.90    0.60
  -7  -8 -10   -0.40    0.80
   7   8  10   -1.00    0.80
   7   8  10    0.30    0.70
  -8  -8 -10   -0.30    0.90
  -8  -8 -10   -1.70    0.60
  -8  -8 -10   -0.70    0.70
   8   8  10    0.50    0.60
   8   8  10    0.80    0.60
   8   8  10    0.40    0.80
   0  -9 -10   -0.20    0.70
   0  -9 -10   -1.40    0.70
   0  -9 -10    0.20    0.70
   0   9  10   -1.00    0.60
   0   9  10   -0.50    0.60
  -1  -9 -10    0.30    0.70
  -1  -9 -10   -0.60    0.70
   1   9  10    0.70    0.60
   1   9  10    1.00    0.70
  -2  -9 -10    1.60    0.90
  -2  -9 -10    1.90    0.80
   2   9  10    2.00    0.70
   2   9  10    1.80    0.70
  -3  -9 -10    1.70    0.90
  -3  -9 -10    1.50    0.80
   3   9  10    0.00    0.60
   3   9  10    0.50    0.60
  -4  -9 -10    6.80    1.00
  -4  -9 -10    7.10    1.10
  -4  -9 -10    6.40    1.10
   4   9  10    5.00    1.00
   4   9  10    6.00    0.90
  -5  -9 -10    2.60    1.00
  -5  -9 -10    3.00    0.90
  -5  -9 -10    3.80    1.00
   5   9  10    2.60    0.80
   5   9  10    1.00    0.70
   5   9  10    1.80    0.70
  -6  -9 -10    1.70    1.00
  -6  -9 -10    2.80    0.90
  -6  -9 -10    2.00    0.70
   6   9  10    0.80    0.70
   6   9  10    0.60    0.80
   6   9  10    1.70    0.70
  -7  -9 -10    1.00    1.00
  -7  -9 -10    0.20    0.70
  -7  -9 -10    1.90    0.90
   7   9  10    2.10    0.80
   7   9  10    0.90    0.90
  -2 -10 -10    4.70    1.00
  -2 -10 -10    7.50    1.30
   2  10  10    5.70    1.10
   2  10  10    5.00    1.00
  -3 -10 -10    3.90    0.90
  -3 -10 -10    4.30    1.10
   3  10  10    3.20    0.80
   3  10  10    1.00    0.80
  -4 -10 -10    0.70    0.80
  -4 -10 -10   -0.40    0.80
  -4 -10 -10    2.40    0.80
   4  10  10    0.10    0.70
   4  10  10   -1.40    0.70
  -5 -10 -10    0.20    0.80
  -5 -10 -10    1.30    0.80
  -5 -10 -10   -0.70    0.80
   5  10  10   -0.30    0.60
   3   9 -11    1.10    0.90
   3   9 -11    2.40    1.00
  -3  -9  11    1.50    0.80
  -3  -9  11    1.80    0.90
   2   9 -11   10.10    1.50
   2   9 -11    7.70    1.40
  -2  -9  11    9.50    1.40
  -2  -9  11    7.80    1.20
   1   9 -11    9.40    1.50
  -1  -9  11    9.20    1.40
   0   9 -11    0.50    0.80
   0  -9  11    2.20    1.00
  -1   9 -11    0.10    0.80
   1  -9  11   -0.60    0.80
  -2   9 -11    0.10    0.70
   2  -9  11    0.80    0.80
   2  -9  11   -0.10    0.70
   4   8 -11    0.80    0.80
   4   8 -11    0.70    0.90
  -4  -8  11    0.70    0.80
  -4  -8  11    1.60    0.80
   3   8 -11   -0.60    0.80
   3   8 -11   -0.60    0.70
  -3  -8  11    0.00    0.70
  -3  -8  11   -0.40    0.70
   2   8 -11   -0.30    0.80
   2   8 -11    0.80    0.80
  -2  -8  11   -0.40    0.70
  -2  -8  11    1.10    0.80
   1   8 -11    2.00    0.80
  -1  -8  11    1.30    0.70
  -1  -8  11    0.60    0.80
   0   8 -11    1.00    0.80
   0  -8  11   -0.50    0.60
  -1   8 -11   -0.90    0.70
   1  -8  11   -0.10    0.50
   1  -8  11   -0.40    0.70
  -2   8 -11    1.80    0.90
  -2   8 -11    2.30    0.80
   2  -8  11    2.30    0.90
   2  -8  11    1.90    0.70
  -3   8 -11    5.80    1.10
  -3   8 -11    8.60    1.40
   3  -8  11    8.80    1.40
   3  -8  11    9.00    1.20
   5   7 -11    4.20    1.20
   5   7 -11    3.80    0.90
  -5  -7  11    2.90    1.10
   4   7 -11    1.50    0.70
   4   7 -11    1.00    0.80
  -4  -7  11    3.30    0.80
  -4  -7  11    2.30    0.90
   3   7 -11    2.30    0.90
   3   7 -11    3.20    1.00
  -3  -7  11    2.20    0.80
  -3  -7  11    2.70    0.90
   2   7 -11    0.20    0.60
   2   7 -11   -0.30    0.60
  -2  -7  11    0.20    0.60
  -2  -7  11   -0.70    0.60
   1   7 -11   -0.30    0.60
  -1  -7  11   -0.30    0.60
  -1  -7  11    0.40    0.60
   0   7 -11    3.00    0.90
   0  -7  11    3.20    0.80
   0  -7  11    2.70    0.80
  -1   7 -11    0.30    0.50
  -1   7 -11    0.70    0.70
   1  -7  11    0.30    0.70
   1  -7  11    0.70    0.50
  -2   7 -11    9.80    1.30
  -2   7 -11   11.10    1.20
   2  -7  11   11.50    1.40
   2  -7  11   12.50    1.20
  -3   7 -11   22.30    1.70
   3  -7  11   23.00    1.60
   3  -7  11   19.10    1.60
  -4   7 -11   32.30    2.20
   4  -7  11   32.00    2.00
   4  -7  11   25.70    2.00
  -5   7 -11    7.30    1.30
   6   6 -11    0.30    1.00
  -6  -6  11    0.20    0.90
   5   6 -11    1.70    0.80
   5   6 -11    2.40    1.10
  -5  -6  11    2.30    1.10
   4   6 -11   12.80    1.50
   4   6 -11   11.70    1.30
  -4  -6  11   10.40    1.40
  -4  -6  11   11.80    1.20
   3   6 -11    5.90    1.10
   3   6 -11    7.30    1.00
   3   6 -11    6.20    1.00
  -3  -6  11    7.20    1.10
  -3  -6  11    7.50    1.00
   2   6 -11    7.40    1.00
   2   6 -11    7.00    1.00
   2   6 -11    9.00    1.20
  -2  -6  11    9.00    1.10
  -2  -6  11    7.00    1.10
   1   6 -11    2.20    0.80
   1   6 -11    2.40    0.80
   1   6 -11    2.60    0.70
  -1  -6  11    2.30    0.70
  -1  -6  11    2.00    0.70
   0   6 -11    1.60    0.70
   0   6 -11    1.40    0.50
   0   6 -11    1.70    0.70
   0  -6  11    1.50    0.70
   0  -6  11    1.50    0.70
   0  -6  11    1.00    0.40
  -1   6 -11   -0.20    0.60
  -1   6 -11   -0.30    0.50
  -1   6 -11    0.20    0.40
   1  -6  11    0.40    0.50
   1  -6  11    0.00    0.60
  -2   6 -11   38.20    1.90
   2  -6  11   36.90    1.80
   2  -6  11   39.90    1.70
   2  -6  11   37.20    2.00
  -3   6 -11   19.30    1.50
   3  -6  11   20.00    1.20
   3  -6  11   18.60    1.50
   3  -6  11   18.60    1.40
  -4   6 -11   31.90    2.00
   4  -6  11   28.90    1.90
   4  -6  11   31.70    1.80
  -5   6 -11   -0.20    0.80
   5  -6  11    0.30    0.70
   5  -6  11    0.20    0.80
   6   5 -11   -1.10    1.00
  -6  -5  11   -1.20    0.90
   5   5 -11   -0.20    0.80
  -5  -5  11   -0.70    0.90
   4   5 -11    3.00    0.80
   4   5 -11    3.00    0.90
   4   5 -11    2.10    0.70
  -4  -5  11    2.70    0.70
  -4  -5  11    3.40    1.00
   3   5 -11    4.30    1.00
   3   5 -11    4.00    0.80
   3   5 -11    3.80    0.70
  -3  -5  11    4.20    0.80
  -3  -5  11    3.40    0.90
   2   5 -11    4.10    0.80
   2   5 -11    6.10    0.90
   2   5 -11    5.40    1.00
  -2  -5  11    4.80    0.90
  -2  -5  11    4.70    1.00
   1   5 -11    4.40    0.80
   1   5 -11    5.20    0.90
   1   5 -11    5.10    0.90
   1   5 -11    5.40    0.70
  -1  -5  11    4.50    0.80
  -1  -5  11    6.70    1.00
   0   5 -11    3.90    0.80
   0   5 -11    3.00    0.60
   0   5 -11    2.50    0.70
   0  -5  11    2.40    0.80
   0  -5  11    3.00    0.80
   0  -5  11    2.90    0.50
  -1   5 -11    4.10    0.80
  -1   5 -11    4.00    0.80
  -1   5 -11    5.40    0.80
   1  -5  11    4.10    0.90
   1  -5  11    3.90    0.70
   1  -5  11    5.80    0.70
  -2   5 -11   91.19    3.20
  -2   5 -11   87.49    3.40
   2  -5  11   90.49    2.90
   2  -5  11   85.09    2.90
   2  -5  11   85.29    3.20
  -3   5 -11   19.90    1.40
   3  -5  11   20.40    1.40
   3  -5  11   19.40    1.20
   3  -5  11   19.70    1.30
  -4   5 -11   38.30    2.20
   4  -5  11   35.40    1.60
   4  -5  11   37.20    1.90
   4  -5  11   39.60    2.00
  -5   5 -11    6.40    1.20
   5  -5  11    7.90    1.20
   5  -5  11    7.70    1.10
  -6   5 -11    0.10    0.90
   6  -5  11    1.40    0.80
   6  -5  11    0.70    0.80
   6   4 -11   -1.30    1.00
  -6  -4  11    0.30    1.00
   5   4 -11    2.40    1.00
  -5  -4  11    2.10    1.10
   4   4 -11    8.70    1.30
   4   4 -11    7.80    0.90
   4   4 -11    5.70    0.90
  -4  -4  11    6.90    0.90
  -4  -4  11    6.50    0.90
  -4  -4  11    8.20    1.30
   3   4 -11   50.39    2.30
   3   4 -11   52.79    2.10
   3   4 -11   50.69    2.20
  -3  -4  11   44.90    2.10
  -3  -4  11   49.80    2.10
  -3  -4  11   47.00    2.40
   2   4 -11   32.70    1.60
   2   4 -11   31.50    1.70
   2   4 -11   29.80    1.70
  -2  -4  11   29.00    1.80
  -2  -4  11   30.20    1.60
  -2  -4  11   30.10    1.60
   1   4 -11    4.00    0.80
   1   4 -11    3.60    0.60
   1   4 -11    3.70    0.70
   1   4 -11    3.50    0.70
  -1  -4  11    3.40    0.80
  -1  -4  11    4.10    0.80
  -1  -4  11    4.90    0.80
   0   4 -11   -0.40    0.40
   0   4 -11    1.10    0.50
   0   4 -11    0.60    0.40
   0  -4  11    1.30    0.50
   0  -4  11   -0.40    0.30
   0  -4  11    0.10    0.50
   0  -4  11    0.30    0.60
  -1   4 -11    5.60    0.80
  -1   4 -11    5.80    0.80
   1  -4  11    6.90    0.90
   1  -4  11    5.90    0.70
   1  -4  11    5.10    0.80
   1  -4  11    6.80    0.80
  -2   4 -11    0.00    0.50
  -2   4 -11    0.10    0.30
  -2   4 -11    0.50    0.40
   2  -4  11    0.20    0.40
   2  -4  11   -0.10    0.50
   2  -4  11   -0.10    0.40
  -3   4 -11    4.00    0.80
   3  -4  11    4.30    0.70
   3  -4  11    4.80    0.70
   3  -4  11    4.30    0.90
  -4   4 -11    1.10    0.70
   4  -4  11    1.30    0.60
   4  -4  11    1.70    0.50
   4  -4  11    0.80    0.60
  -5   4 -11    3.50    1.00
   5  -4  11    4.00    0.90
   5  -4  11    4.30    0.90
   5  -4  11    3.10    0.70
  -6   4 -11    1.70    0.90
   6  -4  11    0.50    0.50
   6  -4  11    1.30    0.70
  -7   4 -11    1.20    1.00
   7  -4  11    1.20    0.80
   6   3 -11   42.00    2.70
  -6  -3  11   42.60    2.70
   5   3 -11   23.50    1.90
  -5  -3  11   25.00    2.00
  -5  -3  11   19.20    1.40
   4   3 -11   33.70    2.00
  -4  -3  11   36.50    2.20
  -4  -3  11   29.90    1.60
   3   3 -11   11.90    1.00
   3   3 -11   11.20    1.30
   3   3 -11   13.00    1.10
  -3  -3  11   12.40    1.10
  -3  -3  11   11.70    1.30
   2   3 -11   61.79    2.30
   2   3 -11   59.89    2.40
   2   3 -11   58.49    2.20
  -2  -3  11   56.89    2.50
  -2  -3  11   56.99    2.20
  -2  -3  11   56.59    2.30
   1   3 -11   -0.20    0.40
   1   3 -11   -0.30    0.40
   1   3 -11    0.10    0.50
  -1  -3  11    0.40    0.50
  -1  -3  11   -0.30    0.40
  -1  -3  11    0.30    0.50
   0   3 -11    6.50    0.80
   0   3 -11    6.20    0.70
   0   3 -11    4.80    0.70
   0  -3  11    8.10    0.90
   0  -3  11    5.70    0.90
   0  -3  11    6.30    0.70
   0  -3  11    6.30    0.90
  -1   3 -11   10.40    0.80
  -1   3 -11    9.90    0.90
  -1   3 -11   11.40    1.00
   1  -3  11   10.20    0.80
   1  -3  11    9.80    1.00
   1  -3  11   11.10    0.80
   1  -3  11   10.70    1.00
   1  -3  11    9.60    1.00
  -2   3 -11   -0.40    0.30
  -2   3 -11   -0.60    0.40
   2  -3  11   -0.40    0.30
   2  -3  11    0.50    0.50
   2  -3  11   -0.10    0.40
  -3   3 -11   36.60    1.30
  -3   3 -11   36.50    1.80
   3  -3  11   36.90    1.80
   3  -3  11   37.30    1.60
   3  -3  11   37.00    1.70
  -4   3 -11   13.60    1.20
   4  -3  11   14.50    1.20
   4  -3  11   13.90    1.00
   4  -3  11   14.10    1.20
  -5   3 -11    8.20    1.20
   5  -3  11    7.30    0.60
   5  -3  11    7.50    1.00
   5  -3  11    7.30    0.80
   5  -3  11    7.60    0.80
  -6   3 -11   18.70    1.70
   6  -3  11   15.70    1.00
   6  -3  11   16.00    1.20
   6  -3  11   15.60    1.40
  -7   3 -11    1.80    0.90
   7  -3  11    1.90    0.80
   7  -3  11    1.40    0.60
   6   2 -11    0.30    1.10
  -6  -2  11    1.70    0.90
   5   2 -11   17.60    1.80
  -5  -2  11   19.40    1.40
  -5  -2  11   20.90    1.80
   4   2 -11   24.80    1.80
  -4  -2  11   23.20    1.80
  -4  -2  11   26.30    1.50
   3   2 -11   24.70    1.30
   3   2 -11   21.30    1.50
  -3  -2  11   25.70    1.50
  -3  -2  11   23.40    1.70
   2   2 -11   26.30    1.20
   2   2 -11   28.80    1.60
   2   2 -11   28.90    1.40
  -2  -2  11   25.40    1.50
  -2  -2  11   27.80    1.70
   1   2 -11   26.00    1.40
   1   2 -11   26.00    1.30
   1   2 -11   26.30    1.20
  -1  -2  11   25.10    1.40
  -1  -2  11   24.80    1.50
   0   2 -11   65.99    2.20
   0   2 -11   61.59    2.20
   0   2 -11   63.89    2.30
   0  -2  11   63.69    2.20
   0  -2  11   62.99    2.50
   0  -2  11   63.89    2.30
   0  -2  11   61.39    2.40
  -1   2 -11    4.70    0.60
  -1   2 -11    5.80    0.70
   1  -2  11    7.00    0.90
   1  -2  11    5.50    0.80
   1  -2  11    6.50    0.70
   1  -2  11    6.00    0.90
   1  -2  11    5.80    0.60
  -2   2 -11    7.00    0.80
  -2   2 -11    8.30    0.70
   2  -2  11    7.60    0.80
   2  -2  11    8.70    0.80
   2  -2  11    8.20    0.90
   2  -2  11    8.30    0.90
  -3   2 -11   50.29    2.10
  -3   2 -11   54.79    1.70
   3  -2  11   54.69    2.00
   3  -2  11   53.89    1.50
   3  -2  11   51.79    2.10
   3  -2  11   52.09    2.20
   3  -2  11   51.99    1.40
   3  -2  11   56.29    2.00
  -4   2 -11   58.89    1.90
  -4   2 -11   61.69    2.50
   4  -2  11   58.59    1.80
   4  -2  11   66.79    2.30
   4  -2  11   61.79    1.80
   4  -2  11   61.09    2.30
  -5   2 -11   64.29    2.70
  -5   2 -11   57.89    2.00
   5  -2  11   63.79    2.50
   5  -2  11   57.49    1.90
   5  -2  11   57.79    1.90
   5  -2  11   59.19    2.20
  -6   2 -11   11.60    1.40
  -6   2 -11   10.30    0.90
   6  -2  11    9.60    0.70
   6  -2  11   10.70    0.90
   6  -2  11   10.10    1.00
   6  -2  11   12.00    1.30
  -7   2 -11    0.00    0.50
  -7   2 -11    0.50    0.70
   7  -2  11   -0.10    0.40
   7  -2  11   -0.20    0.60
   7  -2  11   -0.20    0.40
   7  -2  11   -0.30    0.50
  -8   2 -11    0.70    0.80
   8  -2  11    0.90    0.90
   8  -2  11    1.00    0.60
   8  -2  11    1.60    0.60
   8  -2  11    0.80    0.50
   6   1 -11    0.60    1.10
  -6  -1  11   -0.20    0.70
   5   1 -11   14.80    1.70
  -5  -1  11   19.40    1.40
  -5  -1  11   18.90    1.70
   4   1 -11   -1.00    0.70
  -4  -1  11    0.70    0.60
  -4  -1  11    1.00    0.70
   3   1 -11    7.80    1.00
  -3  -1  11    9.70    0.90
  -3  -1  11    8.30    1.00
  -3  -1  11    8.90    0.70
  -3  -1  11    7.50    1.10
   2   1 -11    3.50    0.70
   2   1 -11    3.60    0.50
  -2  -1  11    4.40    0.80
  -2  -1  11    4.50    0.40
  -2  -1  11    3.70    0.80
  -2  -1  11    4.00    0.40
   1   1 -11  167.48    4.60
   1   1 -11  164.98    4.70
   1   1 -11  167.08    4.50
  -1  -1  11  165.28    5.00
  -1  -1  11  165.48    4.80
  -1  -1  11  163.68    4.80
   0   1 -11   18.90    1.10
   0   1 -11   19.20    1.00
   0   1 -11   16.50    1.00
   0   1 -11   18.50    1.00
   0  -1  11   16.80    1.10
   0  -1  11   16.60    1.20
   0  -1  11   16.80    1.30
  -1   1 -11   68.79    2.30
  -1   1 -11   68.79    2.20
  -1   1 -11   68.99    2.30
   1  -1  11   68.39    2.40
   1  -1  11   68.19    2.50
  -2   1 -11   43.90    1.60
   2  -1  11   45.30    1.10
   2  -1  11   43.50    1.70
   2  -1  11   43.90    1.70
   2  -1  11   43.20    1.80
   2  -1  11   44.10    1.10
  -3   1 -11   88.79    3.00
  -3   1 -11   82.89    2.30
  -3   1 -11   89.89    2.60
  -3   1 -11   84.19    2.30
   3  -1  11   85.09    2.90
   3  -1  11   89.09    2.80
   3  -1  11   88.29    2.80
   3  -1  11   86.69    2.30
  -4   1 -11    4.00    0.50
  -4   1 -11    4.20    0.50
  -4   1 -11    3.60    0.40
  -4   1 -11    4.10    0.80
   4  -1  11    4.50    0.40
   4  -1  11    4.00    0.60
   4  -1  11    3.20    0.70
   4  -1  11    3.40    0.70
  -5   1 -11   14.10    0.90
  -5   1 -11   12.50    1.30
  -5   1 -11   12.80    0.90
   5  -1  11   12.00    1.20
   5  -1  11   16.80    1.10
   5  -1  11   14.00    0.80
  -6   1 -11    9.10    1.20
  -6   1 -11    9.00    0.90
  -6   1 -11    7.90    0.80
   6  -1  11    7.80    0.80
   6  -1  11    7.50    1.00
   6  -1  11   11.70    1.10
  -7   1 -11    0.50    0.60
  -7   1 -11    0.20    0.50
  -7   1 -11    1.20    0.80
   7  -1  11    1.10    0.60
   7  -1  11    0.10    0.50
   7  -1  11    0.90    0.80
   7  -1  11    0.50    0.40
  -8   1 -11    7.30    1.00
  -8   1 -11    6.10    1.20
   8  -1  11    6.30    1.10
   8  -1  11    6.90    0.90
   8  -1  11    6.10    0.80
   8  -1  11    7.70    1.00
   6   0 -11    1.40    0.80
   6   0 -11   -1.10    1.00
  -6   0  11   -0.30    0.80
   5   0 -11   -0.60    0.90
  -5   0  11    0.30    0.60
  -5   0  11   -0.90    0.70
   4   0 -11    2.20    0.50
   4   0 -11   -0.70    0.70
  -4   0  11    3.10    0.90
  -4   0  11    2.10    0.60
  -4   0  11    1.00    0.40
  -4   0  11    2.40    0.50
   3   0 -11    2.80    0.80
   3   0 -11    4.40    0.50
  -3   0  11    3.80    0.80
  -3   0  11    5.00    0.60
  -3   0  11    3.00    0.80
  -3   0  11    4.60    0.50
   2   0 -11    4.00    0.80
   2   0 -11    5.20    0.50
   2   0 -11    5.10    0.80
   2   0 -11    4.80    0.50
  -2   0  11    6.00    0.80
  -2   0  11    4.90    0.80
  -2   0  11    5.90    0.50
  -2   0  11    5.50    0.50
   1   0 -11   60.19    2.30
   1   0 -11   60.49    2.10
   1   0 -11   58.49    1.80
   1   0 -11   57.09    1.70
   1   0 -11   58.79    1.70
   1   0 -11   58.49    1.70
  -1   0  11   56.29    2.30
  -1   0  11   59.49    2.40
  -1   0  11   61.89    2.20
  -1   0  11   61.19    1.70
   0   0 -11    6.20    0.40
   0   0 -11    6.50    0.80
   0   0 -11    5.60    0.60
   0   0 -11    6.10    0.60
   0   0 -11    6.00    0.60
   0   0  11    6.00    0.30
   0   0  11    4.50    0.80
   0   0  11    5.50    0.80
   0   0  11    5.60    0.70
   0   0  11    6.50    0.40
  -1   0 -11   73.09    2.40
  -1   0 -11   69.59    1.80
  -1   0 -11   68.39    2.10
  -1   0 -11   70.09    2.20
  -1   0 -11   70.49    1.80
   1   0  11   71.29    2.40
   1   0  11   67.89    1.80
   1   0  11   67.19    2.50
  -2   0 -11  146.89    4.10
  -2   0 -11  145.59    3.70
   2   0  11  147.19    3.60
   2   0  11  147.59    3.60
   2   0  11  143.89    4.30
   2   0  11  146.99    4.20
  -3   0 -11  347.07    8.50
  -3   0 -11  346.67    8.80
  -3   0 -11  341.67    8.50
   3   0  11  351.16    8.90
   3   0  11  333.07    8.90
   3   0  11  353.76    8.40
   3   0  11  343.17    9.00
   3   0  11  353.26    8.40
  -4   0 -11   39.60    1.40
  -4   0 -11   38.60    1.50
  -4   0 -11   41.70    1.90
  -4   0 -11   40.50    1.40
   4   0  11   40.70    1.70
   4   0  11   39.10    1.30
   4   0  11   38.70    1.70
   4   0  11   42.80    1.80
  -5   0 -11   13.70    0.90
  -5   0 -11   14.20    0.90
  -5   0 -11   13.00    0.80
  -5   0 -11   14.20    1.20
   5   0  11   13.10    0.80
   5   0  11   13.30    1.00
   5   0  11   13.50    1.10
  -6   0 -11    0.10    0.40
  -6   0 -11    0.40    0.60
  -6   0 -11    0.40    0.40
   6   0  11    0.10    0.60
   6   0  11   -0.30    0.30
   6   0  11    1.30    0.60
  -7   0 -11   40.90    1.80
  -7   0 -11   39.50    2.20
  -7   0 -11   39.70    1.80
   7   0  11   37.50    1.60
   7   0  11   41.10    1.90
   7   0  11   38.40    2.00
  -8   0 -11    7.80    1.30
  -8   0 -11    8.60    1.10
  -8   0 -11    7.60    1.00
   8   0  11    9.00    1.10
   8   0  11    6.20    1.10
   8   0  11    9.00    1.00
  -9   0 -11   -0.10    0.50
  -9   0 -11    0.10    0.70
  -9   0 -11    0.20    0.80
   9   0  11    0.70    0.80
   9   0  11    0.50    0.70
   9   0  11    0.00    0.50
   9   0  11    0.20    0.50
   5  -1 -11   -0.10    0.70
   5  -1 -11   -1.40    0.80
   5  -1 -11   -0.90    0.60
  -5   1  11   -0.70    0.40
  -5   1  11   -0.10    0.60
  -5   1  11   -0.70    0.60
  -5   1  11    0.30    0.50
   4  -1 -11    3.30    0.90
   4  -1 -11    2.60    0.60
   4  -1 -11    3.00    0.90
  -4   1  11    4.00    0.70
  -4   1  11    4.10    0.60
  -4   1  11    3.90    0.90
  -4   1  11    3.00    0.80
   3  -1 -11   46.10    2.20
   3  -1 -11   50.39    1.70
   3  -1 -11   45.50    2.10
  -3   1  11   46.00    2.10
  -3   1  11   47.80    2.20
  -3   1  11   47.30    1.80
  -3   1  11   46.60    1.70
   2  -1 -11   35.80    1.40
   2  -1 -11   37.60    1.70
   2  -1 -11   38.00    1.80
   2  -1 -11   38.50    1.40
  -2   1  11   38.20    1.40
  -2   1  11   39.10    1.80
  -2   1  11   41.40    2.00
  -2   1  11   38.60    1.40
   1  -1 -11   14.60    0.70
   1  -1 -11   15.40    0.80
   1  -1 -11   15.90    1.10
   1  -1 -11   13.80    1.00
  -1   1  11   15.80    0.80
  -1   1  11   16.60    1.10
  -1   1  11   16.50    1.30
  -1   1  11   14.20    1.10
   0  -1 -11   61.49    1.80
   0  -1 -11   62.59    1.80
   0  -1 -11   63.29    1.80
   0  -1 -11   62.49    2.30
   0  -1 -11   61.99    1.80
   0  -1 -11   64.19    2.00
   0   1  11   67.19    1.90
   0   1  11   63.09    1.80
   0   1  11   61.59    2.20
   0   1  11   60.39    2.30
   0   1  11   65.59    2.50
  -1  -1 -11   73.49    2.10
  -1  -1 -11   72.19    2.00
  -1  -1 -11   75.39    2.50
  -1  -1 -11   72.79    2.20
   1   1  11   73.49    2.50
   1   1  11   74.29    2.00
   1   1  11   72.29    2.00
   1   1  11   68.19    2.50
  -2  -1 -11  137.69    3.60
  -2  -1 -11  139.19    3.60
  -2  -1 -11  141.69    4.00
  -2  -1 -11  138.49    3.90
  -2  -1 -11  135.79    3.60
   2   1  11  133.29    4.00
   2   1  11  140.39    4.10
   2   1  11  139.19    3.50
  -3  -1 -11  148.09    4.10
  -3  -1 -11  145.39    4.20
  -3  -1 -11  144.79    3.80
   3   1  11  144.89    4.20
   3   1  11  141.39    4.30
   3   1  11  146.09    3.80
   3   1  11  146.59    3.80
  -4  -1 -11   34.40    1.30
  -4  -1 -11   32.40    1.70
  -4  -1 -11   34.30    1.50
   4   1  11   33.50    1.20
   4   1  11   32.50    1.20
   4   1  11   34.90    1.60
   4   1  11   32.70    1.50
  -5  -1 -11    0.80    0.40
  -5  -1 -11    0.60    0.40
  -5  -1 -11    1.20    0.60
  -5  -1 -11    0.10    0.40
   5   1  11    0.70    0.50
   5   1  11   -0.30    0.40
   5   1  11    0.80    0.30
   5   1  11    0.50    0.40
   5   1  11    0.50    0.50
  -6  -1 -11    1.10    0.60
  -6  -1 -11    2.10    0.50
  -6  -1 -11    1.50    0.50
  -6  -1 -11    1.00    0.50
   6   1  11    0.20    0.50
   6   1  11    1.10    0.40
   6   1  11    2.20    0.70
  -7  -1 -11    4.50    0.80
  -7  -1 -11    3.90    0.90
  -7  -1 -11    4.00    0.70
   7   1  11    4.50    0.80
   7   1  11    3.20    0.80
   7   1  11    3.60    0.60
  -8  -1 -11    1.60    0.80
  -8  -1 -11    0.50    0.60
  -8  -1 -11    0.50    0.60
   8   1  11    0.00    0.60
   8   1  11    0.00    0.50
   8   1  11    0.00    0.70
  -9  -1 -11    4.20    1.10
  -9  -1 -11    3.30    0.80
  -9  -1 -11    3.50    0.90
   9   1  11    2.20    0.80
   9   1  11    3.50    0.90
   9   1  11    2.80    0.80
   5  -2 -11    4.30    1.00
   5  -2 -11    4.20    0.80
   5  -2 -11    5.10    1.10
  -5   2  11    4.40    0.80
  -5   2  11    4.00    0.70
  -5   2  11    4.00    0.90
   4  -2 -11    3.80    0.70
   4  -2 -11    2.30    0.80
   4  -2 -11    2.40    0.90
  -4   2  11    4.80    0.90
  -4   2  11    4.60    0.70
  -4   2  11    4.00    0.70
  -4   2  11    4.70    1.00
   3  -2 -11    0.40    0.60
   3  -2 -11   -0.10    0.60
   3  -2 -11    0.50    0.40
  -3   2  11   -0.20    0.50
  -3   2  11   -1.00    0.50
  -3   2  11    0.80    0.50
  -3   2  11    0.00    0.40
   2  -2 -11    5.90    0.60
   2  -2 -11    5.40    0.90
   2  -2 -11    5.70    0.60
   2  -2 -11    3.90    0.70
  -2   2  11    5.70    0.90
  -2   2  11    3.40    0.80
  -2   2  11    6.70    0.70
  -2   2  11    5.40    0.70
   1  -2 -11    2.00    0.50
   1  -2 -11    1.00    0.60
   1  -2 -11    2.60    0.40
   1  -2 -11    2.10    0.40
  -1   2  11    1.80    0.50
  -1   2  11    1.60    0.60
  -1   2  11    2.00    0.60
  -1   2  11    1.80    0.40
   0  -2 -11   51.29    1.70
   0  -2 -11   55.29    1.70
   0  -2 -11   53.99    1.70
   0  -2 -11   54.69    2.10
   0   2  11   53.89    2.00
   0   2  11   51.49    2.10
   0   2  11   52.79    1.70
  -1  -2 -11   19.20    1.20
  -1  -2 -11   19.60    0.90
  -1  -2 -11   20.50    0.70
  -1  -2 -11   19.80    0.80
  -1  -2 -11   19.70    0.80
   1   2  11   21.20    0.90
   1   2  11   19.80    1.10
   1   2  11   22.30    1.30
   1   2  11   20.70    0.90
  -2  -2 -11   62.49    2.00
  -2  -2 -11   63.39    1.90
  -2  -2 -11   62.79    1.90
  -2  -2 -11   64.99    2.30
   2   2  11   63.09    1.90
   2   2  11   61.49    2.20
   2   2  11   62.79    2.30
  -3  -2 -11   58.59    1.80
  -3  -2 -11   55.49    2.10
  -3  -2 -11   59.69    2.10
  -3  -2 -11   57.09    1.80
   3   2  11   58.79    2.20
   3   2  11   59.19    1.80
   3   2  11   54.79    2.10
  -4  -2 -11  160.58    4.30
  -4  -2 -11  165.88    4.60
  -4  -2 -11  163.38    4.30
   4   2  11  157.78    4.20
   4   2  11  149.19    4.60
   4   2  11  165.08    4.30
   4   2  11  164.88    4.70
  -5  -2 -11    1.10    0.50
  -5  -2 -11    1.50    0.60
  -5  -2 -11    0.30    0.40
   5   2  11    0.60    0.50
   5   2  11    1.10    0.50
   5   2  11    1.00    0.40
   5   2  11    0.50    0.40
  -6  -2 -11   16.00    1.30
  -6  -2 -11   17.70    1.10
  -6  -2 -11   20.40    1.20
   6   2  11   17.70    1.00
   6   2  11   18.10    1.10
   6   2  11   18.50    1.20
   6   2  11   18.10    1.00
  -7  -2 -11    4.10    0.70
  -7  -2 -11    5.20    0.90
  -7  -2 -11    4.90    0.80
  -7  -2 -11    5.60    0.80
   7   2  11    5.20    0.80
   7   2  11    4.90    0.70
   7   2  11    3.90    0.90
   7   2  11    4.40    0.70
  -8  -2 -11    0.00    0.60
  -8  -2 -11    0.50    0.60
  -8  -2 -11   -0.80    0.70
   8   2  11   -0.10    0.70
   8   2  11    0.30    0.50
  -9  -2 -11    1.70    0.90
  -9  -2 -11    1.30    0.80
  -9  -2 -11    1.50    0.70
   9   2  11    1.10    0.70
   9   2  11    1.30    0.80
   5  -3 -11    3.90    1.00
   5  -3 -11    2.70    0.80
  -5   3  11    1.80    0.80
  -5   3  11    2.50    0.80
  -5   3  11    2.90    0.80
   4  -3 -11    2.60    0.90
   4  -3 -11    0.40    0.60
   4  -3 -11    1.10    0.80
  -4   3  11    1.50    0.60
  -4   3  11    1.50    0.70
  -4   3  11    1.10    0.70
   3  -3 -11    0.50    0.50
   3  -3 -11    0.10    0.40
   3  -3 -11    0.60    0.60
   3  -3 -11    0.60    0.60
  -3   3  11    1.00    0.50
  -3   3  11    0.40    0.50
  -3   3  11    0.00    0.50
  -3   3  11   -1.20    0.50
   2  -3 -11    0.20    0.40
   2  -3 -11   -0.40    0.50
   2  -3 -11   -0.10    0.40
   2  -3 -11    0.50    0.50
  -2   3  11    0.70    0.50
  -2   3  11   -0.10    0.60
  -2   3  11    0.20    0.40
   1  -3 -11   19.50    1.00
   1  -3 -11   18.50    1.00
   1  -3 -11   17.40    1.20
   1  -3 -11   18.60    1.30
  -1   3  11   19.50    1.30
  -1   3  11   18.40    1.00
  -1   3  11   17.70    1.30
   0  -3 -11   47.00    1.70
   0  -3 -11   45.00    2.00
   0  -3 -11   49.00    1.60
   0   3  11   48.00    1.70
   0   3  11   49.00    2.10
   0   3  11   49.20    1.80
  -1  -3 -11   36.10    1.70
  -1  -3 -11   38.20    1.40
   1   3  11   37.80    1.40
   1   3  11   34.30    1.50
   1   3  11   37.00    1.70
   1   3  11   37.70    1.40
  -2  -3 -11    8.70    0.90
  -2  -3 -11    8.50    0.60
   2   3  11    9.10    1.00
   2   3  11    9.10    0.60
   2   3  11    9.60    0.60
   2   3  11    7.50    0.80
  -3  -3 -11   37.30    1.50
  -3  -3 -11   38.60    1.70
  -3  -3 -11   38.80    1.50
  -3  -3 -11   37.60    1.40
   3   3  11   36.90    1.60
   3   3  11   40.70    1.70
   3   3  11   37.10    1.40
  -4  -3 -11   23.70    1.10
  -4  -3 -11   20.70    1.40
  -4  -3 -11   23.80    1.40
  -4  -3 -11   24.20    1.10
   4   3  11   22.30    1.20
   4   3  11   21.60    1.30
   4   3  11   23.30    1.00
  -5  -3 -11  114.49    3.30
  -5  -3 -11  116.49    3.40
  -5  -3 -11  119.59    3.60
   5   3  11  118.09    3.70
   5   3  11  115.29    3.30
   5   3  11  110.09    3.30
   5   3  11  115.79    3.60
  -6  -3 -11   14.70    1.10
  -6  -3 -11   16.00    1.40
  -6  -3 -11   14.30    1.10
   6   3  11   13.70    1.00
   6   3  11   14.80    1.10
   6   3  11   13.90    1.00
   6   3  11   15.00    1.00
  -7  -3 -11    3.40    0.70
  -7  -3 -11    3.00    0.80
  -7  -3 -11    3.30    0.70
   7   3  11    3.80    0.70
   7   3  11    3.20    0.60
  -8  -3 -11    9.70    1.10
  -8  -3 -11   11.30    1.20
  -8  -3 -11    8.20    1.10
   8   3  11   11.20    1.10
   8   3  11    8.90    1.00
  -9  -3 -11    6.90    1.10
  -9  -3 -11    5.90    1.10
  -9  -3 -11    7.00    1.10
   9   3  11    7.30    1.00
   4  -4 -11    3.90    0.80
   4  -4 -11    4.40    0.80
   4  -4 -11    3.20    0.90
  -4   4  11    3.30    0.90
  -4   4  11    4.20    0.80
  -4   4  11    3.90    0.90
   3  -4 -11    2.20    0.70
   3  -4 -11    0.80    0.80
   3  -4 -11    0.50    0.50
  -3   4  11   -0.10    0.60
  -3   4  11    0.70    0.60
  -3   4  11   -0.10    0.60
   2  -4 -11    1.90    0.60
   2  -4 -11    2.90    0.80
   2  -4 -11    3.40    0.70
  -2   4  11    2.30    0.80
  -2   4  11    1.80    0.60
   1  -4 -11   11.20    0.90
   1  -4 -11   11.80    0.90
   1  -4 -11    9.10    1.10
  -1   4  11   10.00    1.20
  -1   4  11   11.20    0.90
   0  -4 -11    9.80    0.90
   0  -4 -11    9.50    0.80
   0  -4 -11    9.60    1.00
   0   4  11    9.70    0.80
   0   4  11   10.90    0.90
   0   4  11    7.30    1.00
  -1  -4 -11    0.60    0.40
  -1  -4 -11   -0.70    0.50
   1   4  11   -0.30    0.30
   1   4  11   -0.30    0.30
   1   4  11   -0.30    0.30
   1   4  11    0.00    0.50
  -2  -4 -11    1.70    0.40
  -2  -4 -11    2.20    0.60
   2   4  11    2.00    0.50
   2   4  11    1.90    0.60
   2   4  11    1.80    0.40
   2   4  11    3.00    0.50
  -3  -4 -11   33.70    1.40
  -3  -4 -11   34.50    1.40
  -3  -4 -11   33.30    1.60
   3   4  11   32.90    1.60
   3   4  11   33.00    1.40
   3   4  11   33.40    1.50
   3   4  11   35.60    1.40
  -4  -4 -11   12.00    0.90
  -4  -4 -11   12.00    0.90
  -4  -4 -11   14.00    1.10
   4   4  11   12.00    1.00
   4   4  11   12.10    0.80
   4   4  11   12.20    1.00
  -5  -4 -11    1.00    0.50
  -5  -4 -11    0.70    0.60
  -5  -4 -11    1.50    0.50
   5   4  11    1.50    0.60
   5   4  11    2.50    0.60
   5   4  11    1.60    0.50
  -6  -4 -11    1.00    0.50
  -6  -4 -11    0.40    0.60
  -6  -4 -11    0.60    0.70
   6   4  11    0.60    0.60
   6   4  11    0.80    0.50
   6   4  11    1.20    0.50
   6   4  11    1.70    0.50
  -7  -4 -11    0.70    0.60
  -7  -4 -11    0.10    0.60
  -7  -4 -11    0.30    0.60
   7   4  11    0.20    0.40
   7   4  11    0.70    0.60
  -8  -4 -11   37.10    2.00
  -8  -4 -11   34.20    1.80
  -8  -4 -11   36.20    1.90
   8   4  11   34.10    1.70
   8   4  11   36.80    1.80
  -9  -4 -11   15.30    1.50
  -9  -4 -11   18.00    1.60
  -9  -4 -11   17.60    1.60
   9   4  11   17.30    1.50
   9   4  11   15.60    1.30
   3  -5 -11    2.00    0.70
   3  -5 -11    0.80    0.60
   3  -5 -11    1.20    0.70
  -3   5  11    1.70    0.70
  -3   5  11    1.50    0.90
   2  -5 -11    1.00    0.70
   2  -5 -11    1.20    0.60
   2  -5 -11    1.00    0.50
  -2   5  11    1.40    0.90
  -2   5  11    0.80    0.50
   1  -5 -11    5.70    0.70
   1  -5 -11    5.00    0.70
   1  -5 -11    6.30    1.00
  -1   5  11    5.60    1.00
  -1   5  11    6.10    0.80
   0  -5 -11    0.10    0.60
   0  -5 -11    0.10    0.40
   0  -5 -11    0.50    0.50
   0   5  11    0.10    0.40
   0   5  11    0.10    0.40
   0   5  11    0.00    0.60
  -1  -5 -11    4.40    0.80
  -1  -5 -11    4.90    0.70
  -1  -5 -11    5.30    0.70
   1   5  11    5.40    0.70
   1   5  11    4.30    0.70
   1   5  11    3.70    0.80
   1   5  11    4.10    0.60
  -2  -5 -11    0.30    0.40
  -2  -5 -11    0.50    0.50
   2   5  11    0.10    0.40
   2   5  11    0.10    0.40
   2   5  11    0.30    0.40
   2   5  11    0.10    0.50
  -3  -5 -11   42.60    2.00
  -3  -5 -11   43.60    1.70
   3   5  11   44.30    1.70
   3   5  11   40.90    1.90
   3   5  11   44.90    1.80
   3   5  11   40.30    1.60
  -4  -5 -11    6.00    0.80
  -4  -5 -11    6.50    0.80
  -4  -5 -11    7.30    1.00
   4   5  11    6.80    0.80
   4   5  11    6.00    0.80
   4   5  11    5.80    0.80
  -5  -5 -11    7.10    0.90
  -5  -5 -11    8.00    1.10
  -5  -5 -11    8.30    0.80
   5   5  11    6.50    0.90
   5   5  11    7.00    0.80
   5   5  11    7.20    0.90
  -6  -5 -11    1.40    0.60
  -6  -5 -11   -0.10    0.60
  -6  -5 -11    0.30    0.60
   6   5  11    1.50    0.60
   6   5  11    1.30    0.50
   6   5  11    1.20    0.50
   6   5  11    0.30    0.60
  -7  -5 -11    1.40    0.70
  -7  -5 -11    0.50    0.60
  -7  -5 -11    0.90    0.70
   7   5  11   -0.20    0.50
   7   5  11    1.10    0.50
  -8  -5 -11    3.60    0.80
  -8  -5 -11    4.60    0.90
  -8  -5 -11    7.00    1.10
   8   5  11    6.60    0.90
   8   5  11    5.10    0.90
  -9  -5 -11    0.80    0.80
  -9  -5 -11    2.80    0.90
  -9  -5 -11    1.20    0.80
   9   5  11    2.20    0.70
   9   5  11    0.90    0.70
   3  -6 -11    2.90    0.80
   3  -6 -11    2.10    0.80
   3  -6 -11    2.40    0.90
  -3   6  11    2.30    0.80
  -3   6  11    3.10    1.10
   2  -6 -11   -0.40    0.50
   2  -6 -11    0.10    0.60
   2  -6 -11    0.70    0.70
  -2   6  11   -0.40    0.50
   1  -6 -11    0.70    0.50
   1  -6 -11    2.30    0.80
   1  -6 -11    1.30    0.60
  -1   6  11    1.50    0.60
   0  -6 -11    0.60    0.70
   0  -6 -11   -0.30    0.50
   0  -6 -11   -0.30    0.50
   0   6  11    0.40    0.50
  -1  -6 -11    2.30    0.60
  -1  -6 -11    3.10    0.70
  -1  -6 -11    3.60    0.90
   1   6  11    2.30    0.60
   1   6  11    2.40    0.80
   1   6  11    3.20    0.50
   1   6  11    3.50    0.70
  -2  -6 -11   36.00    1.60
  -2  -6 -11   33.80    1.90
   2   6  11   34.50    1.90
   2   6  11   36.50    1.60
   2   6  11   33.00    1.50
   2   6  11   31.70    1.50
  -3  -6 -11   34.80    1.60
  -3  -6 -11   42.60    2.00
   3   6  11   34.40    1.60
   3   6  11   34.10    1.80
   3   6  11   34.40    1.60
   3   6  11   36.30    1.60
  -4  -6 -11    7.70    0.90
  -4  -6 -11    8.90    1.00
  -4  -6 -11    9.20    1.10
   4   6  11    9.00    1.00
   4   6  11    8.40    0.90
   4   6  11    8.60    0.90
   4   6  11    9.00    0.90
  -5  -6 -11    5.80    0.80
  -5  -6 -11    7.60    0.90
  -5  -6 -11    7.10    1.10
   5   6  11    6.80    0.90
   5   6  11    5.60    0.80
   5   6  11    6.80    0.90
   5   6  11    4.50    0.80
  -6  -6 -11    1.90    0.70
  -6  -6 -11    2.10    0.80
  -6  -6 -11    0.90    0.70
   6   6  11    1.00    0.60
   6   6  11    1.30    0.70
   6   6  11    0.90    0.70
  -7  -6 -11    0.20    0.70
  -7  -6 -11    0.00    0.60
  -7  -6 -11    1.00    0.70
  -7  -6 -11    0.10    0.60
   7   6  11    0.70    0.60
   7   6  11    0.60    0.60
  -8  -6 -11    1.50    0.70
  -8  -6 -11    1.70    0.70
  -8  -6 -11    1.50    0.80
   8   6  11    3.30    0.80
   8   6  11    1.90    0.70
  -9  -6 -11    1.00    0.80
  -9  -6 -11   -0.10    0.80
   9   6  11    0.90    0.70
   9   6  11    0.30    0.70
   2  -7 -11    1.30    0.70
   2  -7 -11    0.90    0.80
   2  -7 -11    0.40    0.70
  -2   7  11    0.90    0.70
   1  -7 -11    0.50    0.70
   1  -7 -11    0.60    0.70
   1  -7 -11    0.10    0.60
  -1   7  11    0.90    0.70
   0  -7 -11    0.30    0.60
   0  -7 -11    0.90    0.60
   0  -7 -11    1.00    0.70
   0   7  11   -0.60    0.50
   0   7  11    1.00    0.60
  -1  -7 -11    5.70    1.00
  -1  -7 -11    8.30    0.90
  -1  -7 -11    5.90    0.90
   1   7  11    6.40    0.90
   1   7  11    7.60    1.00
  -2  -7 -11    2.30    0.80
  -2  -7 -11    2.20    0.60
   2   7  11    3.00    0.70
   2   7  11    1.50    0.70
  -3  -7 -11    0.10    0.70
  -3  -7 -11    1.10    0.60
   3   7  11    1.90    0.50
   3   7  11    1.20    0.70
   3   7  11    1.90    0.60
   3   7  11    1.50    0.60
  -4  -7 -11    0.50    0.50
  -4  -7 -11   -0.20    0.70
  -4  -7 -11   -0.70    0.40
   4   7  11   -0.30    0.60
   4   7  11    0.00    0.40
   4   7  11    0.50    0.50
   4   7  11   -0.20    0.50
   4   7  11    0.00    0.50
  -5  -7 -11    0.30    0.60
  -5  -7 -11   -0.30    0.50
  -5  -7 -11   -0.60    0.70
   5   7  11    1.00    0.50
   5   7  11    0.40    0.60
   5   7  11   -0.10    0.50
   5   7  11   -0.20    0.50
  -6  -7 -11    2.20    0.70
  -6  -7 -11    2.10    1.00
  -6  -7 -11    2.70    0.70
   6   7  11    2.10    0.80
   6   7  11    1.30    0.70
   6   7  11    2.60    0.70
  -7  -7 -11    1.40    0.70
  -7  -7 -11    1.00    0.70
  -7  -7 -11    1.30    0.70
  -7  -7 -11    1.20    0.80
   7   7  11    1.80    0.70
   7   7  11    1.50    0.80
   7   7  11    0.70    0.60
  -8  -7 -11    0.30    0.60
  -8  -7 -11    0.70    0.90
   8   7  11   -0.60    0.60
   8   7  11   -0.80    0.60
   1  -8 -11    6.30    1.00
   1  -8 -11    5.10    1.00
   1  -8 -11    5.60    1.10
  -1   8  11    5.40    1.00
   0  -8 -11    4.60    1.10
   0  -8 -11    4.00    0.90
   0  -8 -11    4.60    0.90
   0   8  11    5.10    1.00
   0   8  11    4.00    0.90
  -1  -8 -11    2.50    0.90
  -1  -8 -11    2.30    0.80
   1   8  11    1.70    0.70
   1   8  11    2.40    0.70
  -2  -8 -11    1.50    0.70
  -2  -8 -11    1.60    0.80
   2   8  11    1.10    0.70
   2   8  11    0.40    0.50
  -3  -8 -11    1.20    0.70
  -3  -8 -11    0.70    0.70
   3   8  11    0.80    0.60
   3   8  11    1.00    0.80
   3   8  11    0.90    0.60
  -4  -8 -11    0.30    0.50
  -4  -8 -11    1.60    0.70
  -4  -8 -11    1.00    0.80
   4   8  11    0.40    0.70
   4   8  11    0.70    0.60
   4   8  11    1.00    0.50
   4   8  11    1.20    0.70
  -5  -8 -11    4.90    1.00
  -5  -8 -11    7.30    1.20
  -5  -8 -11    4.80    0.90
   5   8  11    5.60    0.90
   5   8  11    3.80    0.90
   5   8  11    4.00    0.90
   5   8  11    3.90    0.80
  -6  -8 -11    1.20    0.70
  -6  -8 -11    0.50    0.60
  -6  -8 -11   -0.30    0.80
   6   8  11    1.00    0.60
   6   8  11    1.50    0.70
   6   8  11    1.80    0.80
  -7  -8 -11   -0.30    0.70
  -7  -8 -11    0.90    0.70
  -7  -8 -11   -0.70    0.80
   7   8  11    0.20    0.60
   7   8  11   -0.20    0.60
   7   8  11    0.10    0.70
  -8  -8 -11    8.10    1.20
  -8  -8 -11   10.40    1.50
  -8  -8 -11    9.30    1.30
   8   8  11    6.90    1.10
   8   8  11    8.00    1.30
   8   8  11    7.70    1.10
  -1  -9 -11   -0.10    0.60
  -1  -9 -11    0.00    0.80
   1   9  11    0.40    0.60
   1   9  11    0.80    0.70
  -2  -9 -11    0.30    0.70
  -2  -9 -11   -0.80    0.60
   2   9  11    0.80    0.60
   2   9  11    0.40    0.60
  -3  -9 -11   -0.30    0.60
  -3  -9 -11    1.30    0.80
   3   9  11    1.30    0.70
   3   9  11    0.00    0.60
  -4  -9 -11    3.40    1.10
  -4  -9 -11    5.60    0.90
  -4  -9 -11    6.00    1.00
   4   9  11    2.70    1.00
   4   9  11    4.70    0.90
   4   9  11    2.30    0.80
  -5  -9 -11    7.30    1.30
  -5  -9 -11   10.00    1.30
  -5  -9 -11    8.30    1.10
   5   9  11   10.30    1.20
   5   9  11    6.40    1.00
  -6  -9 -11   -0.40    0.90
  -6  -9 -11   -0.20    0.70
  -6  -9 -11   -0.50    0.70
   6   9  11    0.40    0.60
   6   9  11   -0.20    0.60
   6   9  11    0.20    0.80
  -7  -9 -11    0.00    0.70
   2   9 -12    2.70    1.10
   2   9 -12    2.30    1.00
  -2  -9  12    2.60    0.90
  -2  -9  12    3.90    1.10
   1   9 -12    0.50    0.80
   1   9 -12    0.90    1.00
  -1  -9  12    3.20    1.00
   0   9 -12    0.10    0.80
   0  -9  12   -1.10    0.90
  -1   9 -12    1.20    1.00
   1  -9  12    1.00    1.10
   4   8 -12   -0.80    0.80
   4   8 -12   -0.40    0.70
  -4  -8  12   -0.20    0.80
  -4  -8  12    0.10    0.70
   3   8 -12   -0.80    0.60
   3   8 -12   -0.90    0.80
  -3  -8  12    0.60    0.80
  -3  -8  12    1.60    0.90
   2   8 -12    5.70    1.20
   2   8 -12    4.70    1.10
  -2  -8  12    5.00    1.10
  -2  -8  12    6.60    1.20
   1   8 -12    7.40    1.20
   1   8 -12    9.00    1.40
  -1  -8  12    9.50    1.40
  -1  -8  12    7.10    1.10
   0   8 -12    7.10    1.20
   0  -8  12    6.00    1.20
  -1   8 -12    2.20    0.90
   1  -8  12    2.10    0.90
  -2   8 -12    3.30    1.00
   2  -8  12    1.00    0.90
   2  -8  12    3.80    0.80
  -3   8 -12    0.70    0.90
  -3   8 -12   -0.10    0.80
   3  -8  12    0.20    0.70
   3  -8  12    1.30    0.90
   4   7 -12   -1.50    0.80
   4   7 -12   -0.70    0.70
  -4  -7  12   -0.50    0.70
  -4  -7  12    0.70    0.70
   3   7 -12   -0.20    0.80
   3   7 -12    0.10    0.70
  -3  -7  12   -0.40    0.70
  -3  -7  12   -1.00    0.70
   2   7 -12    6.90    1.10
   2   7 -12    9.80    1.40
  -2  -7  12    7.80    1.20
  -2  -7  12    8.50    1.30
   1   7 -12    7.30    1.10
   1   7 -12    9.70    1.30
  -1  -7  12    9.10    1.20
  -1  -7  12    8.80    1.20
   0   7 -12    0.80    0.70
   0  -7  12   -0.30    0.60
   0  -7  12    1.70    0.80
  -1   7 -12    1.00    0.70
  -1   7 -12   -0.40    0.50
   1  -7  12    0.30    0.40
   1  -7  12    0.10    0.60
  -2   7 -12   -0.30    0.60
  -2   7 -12    1.50    0.70
   2  -7  12   -1.20    0.50
   2  -7  12    0.80    0.80
  -3   7 -12    0.00    0.70
   3  -7  12    0.40    0.90
   3  -7  12    1.20    0.70
  -4   7 -12    0.00    0.70
   4  -7  12    0.40    0.90
   4  -7  12    0.80    0.80
   5   6 -12   -0.30    0.90
  -5  -6  12    1.10    1.00
   4   6 -12    0.40    0.70
   4   6 -12   -0.10    0.70
  -4  -6  12    0.30    0.80
  -4  -6  12    1.00    0.70
   3   6 -12    4.50    1.10
   3   6 -12    5.00    1.00
  -3  -6  12    5.10    1.10
  -3  -6  12    5.30    1.00
   2   6 -12    0.90    0.60
   2   6 -12   -0.50    0.50
   2   6 -12   -0.40    0.50
  -2  -6  12    0.20    0.60
  -2  -6  12   -0.40    0.60
   1   6 -12    0.00    0.50
   1   6 -12   -0.50    0.50
   1   6 -12   -0.20    0.60
  -1  -6  12   -1.00    0.50
  -1  -6  12   -0.10    0.60
   0   6 -12    2.80    0.80
   0   6 -12    3.00    0.80
   0   6 -12    3.80    0.70
   0  -6  12    5.20    1.00
   0  -6  12    3.60    0.80
  -1   6 -12    5.80    1.00
  -1   6 -12    6.30    0.90
   1  -6  12    5.70    0.70
   1  -6  12    5.10    1.00
  -2   6 -12    5.90    0.90
   2  -6  12    4.80    0.80
   2  -6  12    6.00    0.80
   2  -6  12    5.40    1.10
  -3   6 -12    2.50    0.90
   3  -6  12    3.90    1.10
   3  -6  12    3.00    0.70
   3  -6  12    1.70    0.70
  -4   6 -12    0.00    0.80
   4  -6  12    0.80    0.80
   4  -6  12   -0.10    0.70
  -5   6 -12    1.60    0.90
   5  -6  12    1.00    1.00
   5  -6  12    2.20    0.90
   5   5 -12    0.60    0.90
  -5  -5  12    0.70    1.10
   4   5 -12    0.00    0.60
   4   5 -12   -1.10    0.70
  -4  -5  12    0.40    0.80
  -4  -5  12   -0.60    0.50
   3   5 -12    1.30    0.70
   3   5 -12    0.50    0.60
   3   5 -12    1.50    0.60
  -3  -5  12    1.00    0.70
  -3  -5  12    0.30    0.70
   2   5 -12    5.50    0.80
   2   5 -12    6.40    1.00
   2   5 -12    5.60    0.90
  -2  -5  12    7.00    1.10
  -2  -5  12    6.20    1.00
   1   5 -12    3.70    0.80
   1   5 -12    4.30    0.80
   1   5 -12    4.30    0.70
   1   5 -12    3.90    0.70
  -1  -5  12    3.60    0.80
  -1  -5  12    3.60    0.80
   0   5 -12   10.10    1.10
   0   5 -12   11.40    1.10
   0   5 -12   11.00    0.90
   0  -5  12   10.80    1.20
   0  -5  12    9.30    0.80
   0  -5  12   11.10    1.20
  -1   5 -12   19.90    1.30
  -1   5 -12   18.90    1.40
  -1   5 -12   19.30    1.50
   1  -5  12   21.70    1.20
   1  -5  12   20.30    1.30
   1  -5  12   21.40    1.50
  -2   5 -12    1.80    0.70
  -2   5 -12    2.30    0.70
   2  -5  12    1.30    0.60
   2  -5  12    3.10    0.60
   2  -5  12    2.10    0.80
  -3   5 -12    0.30    0.70
   3  -5  12   -0.40    0.80
   3  -5  12   -0.60    0.50
   3  -5  12   -0.50    0.40
  -4   5 -12   16.70    1.70
   4  -5  12   17.90    1.20
   4  -5  12   18.40    1.50
   4  -5  12   18.30    1.60
  -5   5 -12    0.30    0.90
   5  -5  12    1.00    0.70
   5  -5  12    1.60    0.80
  -6   5 -12    5.90    1.30
   6  -5  12    6.60    1.20
   5   4 -12   -0.60    0.90
  -5  -4  12   -2.10    0.80
   4   4 -12    7.40    1.20
  -4  -4  12    5.30    0.90
  -4  -4  12    5.10    1.20
   3   4 -12    1.00    0.50
   3   4 -12    1.30    0.70
   3   4 -12    0.90    0.50
  -3  -4  12    0.20    0.70
  -3  -4  12    1.20    0.60
  -3  -4  12    1.80    0.70
   2   4 -12    6.40    1.00
   2   4 -12    4.50    0.80
   2   4 -12    5.60    0.80
  -2  -4  12    5.50    1.00
  -2  -4  12    6.40    0.90
  -2  -4  12    6.20    0.90
   1   4 -12   13.80    1.20
   1   4 -12   13.50    1.00
   1   4 -12   16.60    1.30
   1   4 -12   13.20    1.20
  -1  -4  12   13.20    1.30
  -1  -4  12   11.70    1.20
  -1  -4  12   15.20    1.30
   0   4 -12   37.50    1.80
   0   4 -12   37.30    1.90
   0   4 -12   36.80    1.70
   0   4 -12   34.00    1.80
   0  -4  12   37.10    1.40
   0  -4  12   35.00    1.90
   0  -4  12   39.50    1.90
   0  -4  12   37.60    1.70
   0  -4  12   36.10    1.90
  -1   4 -12   66.19    2.50
  -1   4 -12   65.09    2.30
  -1   4 -12   66.49    2.70
   1  -4  12   71.29    2.50
   1  -4  12   68.89    2.70
   1  -4  12   65.99    2.30
  -2   4 -12    4.50    0.60
  -2   4 -12    6.60    1.00
  -2   4 -12    4.80    0.80
   2  -4  12    4.60    0.70
   2  -4  12    6.40    1.00
   2  -4  12    4.10    0.70
  -3   4 -12    4.70    0.90
   3  -4  12    5.40    0.80
   3  -4  12    4.90    0.90
   3  -4  12    7.20    0.80
  -4   4 -12    3.50    0.90
   4  -4  12    2.60    0.80
   4  -4  12    3.50    0.90
   4  -4  12    3.10    0.70
  -5   4 -12    4.90    1.10
   5  -4  12    4.50    0.80
   5  -4  12    5.20    1.00
   5  -4  12    5.20    1.00
  -6   4 -12    1.00    0.90
   6  -4  12    0.70    0.50
   6  -4  12    0.10    0.70
  -7   4 -12    1.90    1.10
   7  -4  12    2.90    1.00
   6   3 -12    3.60    1.30
  -6  -3  12    6.20    1.40
   5   3 -12   12.40    1.60
  -5  -3  12   17.20    1.90
   4   3 -12   -1.80    0.70
  -4  -3  12   -0.70    0.80
  -4  -3  12    0.30    0.60
   3   3 -12    1.40    0.80
  -3  -3  12    0.80    0.70
  -3  -3  12    0.30    0.50
   2   3 -12   43.70    2.00
   2   3 -12   45.60    2.10
   2   3 -12   43.50    1.80
  -2  -3  12   42.80    2.30
  -2  -3  12   38.70    2.00
   1   3 -12   25.50    1.40
   1   3 -12   22.90    1.40
   1   3 -12   28.40    1.60
  -1  -3  12   26.50    1.70
  -1  -3  12   20.00    1.40
  -1  -3  12   27.20    1.50
   0   3 -12   91.89    3.10
   0   3 -12   97.39    3.10
   0   3 -12   99.59    3.30
   0  -3  12   90.29    3.30
   0  -3  12   97.89    3.40
   0  -3  12   90.99    3.20
   0  -3  12   93.19    3.10
  -1   3 -12   20.70    1.30
  -1   3 -12   20.20    1.10
  -1   3 -12   19.10    1.30
   1  -3  12   19.10    1.30
   1  -3  12   19.40    1.20
   1  -3  12   20.30    1.10
   1  -3  12   17.00    1.30
  -2   3 -12    0.60    0.40
  -2   3 -12    0.40    0.50
  -2   3 -12    0.60    0.50
   2  -3  12    1.10    0.60
   2  -3  12    1.20    0.50
   2  -3  12    0.90    0.50
  -3   3 -12    1.50    0.60
   3  -3  12    0.50    0.50
   3  -3  12    0.20    0.40
   3  -3  12    0.80    0.60
  -4   3 -12    3.00    0.80
   4  -3  12    3.30    0.70
   4  -3  12    4.50    0.90
   4  -3  12    3.60    0.70
  -5   3 -12    6.50    1.10
   5  -3  12    5.60    0.80
   5  -3  12    6.40    1.00
  -6   3 -12    0.40    0.80
   6  -3  12   -0.70    0.40
   6  -3  12   -0.60    0.60
  -7   3 -12    2.80    1.00
   7  -3  12    2.40    1.00
   7  -3  12    2.70    0.70
   6   2 -12    2.80    1.30
  -6  -2  12    4.40    1.20
   5   2 -12   -0.30    0.90
  -5  -2  12    0.20    0.90
  -5  -2  12    1.60    0.70
   4   2 -12   -1.30    0.70
  -4  -2  12    0.70    0.80
  -4  -2  12    1.80    0.70
   3   2 -12   15.30    1.50
  -3  -2  12   19.00    1.70
  -3  -2  12   16.60    1.40
   2   2 -12    7.70    1.00
   2   2 -12    8.70    0.90
   2   2 -12    8.40    0.90
  -2  -2  12    7.50    1.10
  -2  -2  12    8.00    1.00
   1   2 -12   15.40    1.00
   1   2 -12   15.10    1.10
   1   2 -12   17.80    1.20
  -1  -2  12   16.10    1.20
  -1  -2  12   15.10    1.30
   0   2 -12   56.19    2.10
   0   2 -12   54.69    2.10
   0   2 -12   57.19    2.10
   0   2 -12   54.59    2.00
   0  -2  12   55.19    2.40
   0  -2  12   54.29    2.30
   0  -2  12   58.99    2.20
  -1   2 -12   30.00    1.50
  -1   2 -12   27.50    1.30
   1  -2  12   26.00    1.50
   1  -2  12   29.90    1.40
  -2   2 -12   38.20    1.80
  -2   2 -12   38.60    1.50
   2  -2  12   37.40    1.80
   2  -2  12   36.20    1.60
   2  -2  12   36.60    1.60
  -3   2 -12    0.30    0.50
  -3   2 -12    0.20    0.30
   3  -2  12   -0.30    0.40
   3  -2  12   -0.30    0.40
   3  -2  12   -0.50    0.30
  -4   2 -12    5.30    0.90
   4  -2  12    4.80    0.70
   4  -2  12    3.10    0.60
  -5   2 -12    0.00    0.60
   5  -2  12   -0.80    0.40
   5  -2  12    0.70    0.60
  -6   2 -12   29.60    2.00
   6  -2  12   30.10    1.80
   6  -2  12   27.20    1.60
  -7   2 -12    9.50    1.30
   7  -2  12    7.10    1.20
   7  -2  12    8.60    1.00
  -8   2 -12   13.90    1.70
   8  -2  12   17.80    1.40
   8  -2  12   18.50    1.80
   5   1 -12   -1.70    0.80
  -5  -1  12    2.70    1.00
  -5  -1  12    1.50    0.70
   4   1 -12   -0.10    0.80
  -4  -1  12    0.90    0.80
  -4  -1  12    1.50    0.70
   3   1 -12   21.60    1.60
  -3  -1  12   21.80    1.40
  -3  -1  12   23.00    1.70
   2   1 -12   43.00    2.00
  -2  -1  12   44.50    2.20
  -2  -1  12   46.60    2.00
   1   1 -12   20.50    1.00
   1   1 -12   20.00    1.10
   1   1 -12   18.70    1.20
   1   1 -12   18.40    1.30
  -1  -1  12   20.90    1.30
  -1  -1  12   22.90    1.50
  -1  -1  12   20.80    1.30
   0   1 -12   31.10    1.30
   0   1 -12   28.40    1.30
   0   1 -12   29.80    1.40
   0   1 -12   29.10    1.50
   0  -1  12   29.00    1.40
   0  -1  12   28.50    1.60
   0  -1  12   27.70    1.60
  -1   1 -12   -0.70    0.30
  -1   1 -12    0.30    0.30
  -1   1 -12    0.10    0.40
   1  -1  12   -0.40    0.40
   1  -1  12   -0.30    0.30
  -2   1 -12   23.20    1.20
   2  -1  12   23.10    1.30
   2  -1  12   22.00    1.30
  -3   1 -12   18.90    1.30
  -3   1 -12   19.30    1.00
   3  -1  12   21.00    1.30
   3  -1  12   19.10    1.20
   3  -1  12   18.40    1.20
  -4   1 -12   12.20    1.30
  -4   1 -12   11.90    0.80
   4  -1  12   11.10    1.20
   4  -1  12    9.60    0.90
   4  -1  12   11.60    1.10
   4  -1  12   10.70    0.60
  -5   1 -12   54.19    2.40
  -5   1 -12   49.60    1.80
   5  -1  12   48.90    1.70
   5  -1  12   52.59    2.20
   5  -1  12   51.69    2.10
  -6   1 -12   51.19    2.00
  -6   1 -12   54.89    2.60
   6  -1  12   53.19    1.90
   6  -1  12   50.59    2.30
   6  -1  12   56.69    2.30
  -7   1 -12    7.80    1.20
  -7   1 -12    8.70    1.00
   7  -1  12    8.80    0.90
   7  -1  12    8.80    1.20
   7  -1  12    8.50    1.10
   7  -1  12    7.60    0.80
  -8   1 -12    9.30    1.40
   8  -1  12   14.20    1.40
   8  -1  12   13.90    1.50
   5   0 -12    2.90    1.00
   5   0 -12    1.10    1.00
  -5   0  12    2.30    1.00
  -5   0  12    2.00    0.80
   4   0 -12    5.80    1.10
   4   0 -12    5.50    1.10
  -4   0  12    4.40    1.00
  -4   0  12    6.50    1.00
   3   0 -12    2.30    0.80
   3   0 -12    2.40    0.80
  -3   0  12    2.30    0.80
  -3   0  12    3.00    0.80
   2   0 -12    4.50    0.90
   2   0 -12    4.20    0.80
  -2   0  12    5.50    0.90
  -2   0  12    5.00    0.90
   1   0 -12   62.19    2.40
   1   0 -12   63.99    2.30
  -1   0  12   63.99    2.50
  -1   0  12   65.59    2.40
  -1   0  12   61.19    2.60
   0   0 -12  119.89    3.70
   0   0 -12  121.29    3.40
   0   0 -12  122.39    3.50
   0   0 -12  123.79    3.40
   0   0  12  118.59    3.90
   0   0  12  122.89    3.70
   0   0  12  120.39    4.00
  -1   0 -12   18.00    0.90
  -1   0 -12   17.90    1.20
  -1   0 -12   19.70    1.00
   1   0  12   19.00    1.10
   1   0  12   17.80    1.20
  -2   0 -12   38.30    1.60
  -2   0 -12   35.60    1.30
   2   0  12   32.60    1.70
   2   0  12   35.20    1.00
   2   0  12   33.20    1.50
   2   0  12   35.20    1.00
  -3   0 -12    0.50    0.40
  -3   0 -12    0.10    0.20
  -3   0 -12    0.00    0.20
   3   0  12   -0.60    0.40
   3   0  12    0.30    0.20
   3   0  12   -0.10    0.40
  -4   0 -12    0.50    0.30
  -4   0 -12    1.30    0.40
  -4   0 -12    0.20    0.30
  -4   0 -12    0.60    0.50
   4   0  12    0.00    0.40
   4   0  12   -0.40    0.40
   4   0  12    0.30    0.50
   4   0  12    0.10    0.20
  -5   0 -12  140.49    4.00
  -5   0 -12  140.29    4.00
  -5   0 -12  143.89    4.60
  -5   0 -12  143.39    4.00
   5   0  12  149.99    4.50
   5   0  12  148.89    4.50
   5   0  12  144.89    4.30
   5   0  12  139.49    3.90
  -6   0 -12   72.69    2.40
  -6   0 -12   74.29    3.00
  -6   0 -12   73.09    2.50
   6   0  12   69.49    2.30
   6   0  12   79.59    2.80
   6   0  12   76.69    2.90
  -7   0 -12   59.89    2.30
  -7   0 -12   68.99    2.90
  -7   0 -12   63.69    2.40
   7   0  12   59.69    2.20
   7   0  12   60.39    2.70
   7   0  12   66.99    2.60
  -8   0 -12   34.70    1.80
  -8   0 -12   35.90    2.30
  -8   0 -12   28.70    1.70
   8   0  12   34.00    1.60
   8   0  12   30.50    2.00
   8   0  12   34.00    1.90
   5  -1 -12    0.90    0.80
   5  -1 -12   -0.60    0.80
  -5   1  12    0.70    0.60
  -5   1  12   -1.20    0.60
   4  -1 -12    0.80    0.80
   4  -1 -12    1.80    0.90
  -4   1  12    1.50    0.70
  -4   1  12    2.30    0.70
   3  -1 -12    3.20    0.90
   3  -1 -12    2.30    0.80
  -3   1  12    2.40    0.80
  -3   1  12    3.70    0.60
  -3   1  12    3.30    0.70
  -3   1  12    4.20    0.90
   2  -1 -12    8.60    0.80
   2  -1 -12    8.20    0.70
   2  -1 -12    7.50    1.00
   2  -1 -12    8.10    1.10
  -2   1  12    7.80    1.10
  -2   1  12    8.00    0.60
  -2   1  12    7.40    1.00
   1  -1 -12   33.70    1.20
   1  -1 -12   35.60    1.60
   1  -1 -12   34.60    1.20
   1  -1 -12   36.50    1.80
  -1   1  12   35.30    1.80
  -1   1  12   37.00    1.90
  -1   1  12   33.30    1.60
  -1   1  12   35.30    1.20
   0  -1 -12    3.10    0.50
   0  -1 -12    2.80    0.40
   0  -1 -12    2.60    0.70
   0   1  12    3.20    0.80
   0   1  12    4.10    0.40
   0   1  12    3.00    0.70
   0   1  12    2.70    0.60
   0   1  12    4.10    0.40
  -1  -1 -12   27.10    1.00
  -1  -1 -12   26.50    1.40
  -1  -1 -12   27.00    1.10
  -1  -1 -12   27.10    1.10
  -1  -1 -12   27.60    0.90
   1   1  12   27.50    1.40
   1   1  12   26.50    0.90
   1   1  12   27.70    1.50
   1   1  12   28.20    0.90
  -2  -1 -12   17.40    1.10
  -2  -1 -12   15.50    0.70
  -2  -1 -12   17.50    1.00
  -2  -1 -12   15.80    0.70
  -2  -1 -12   16.70    0.80
   2   1  12   16.00    0.70
   2   1  12   13.70    1.00
   2   1  12   16.70    1.20
  -3  -1 -12    0.00    0.30
  -3  -1 -12    0.60    0.50
  -3  -1 -12    0.10    0.40
   3   1  12   -0.30    0.40
   3   1  12   -0.10    0.20
   3   1  12    0.40    0.20
   3   1  12   -0.20    0.50
  -4  -1 -12   -0.40    0.40
  -4  -1 -12    0.20    0.30
   4   1  12    0.00    0.30
   4   1  12    0.30    0.50
   4   1  12   -0.10    0.30
   4   1  12    0.10    0.50
  -5  -1 -12   45.80    1.70
  -5  -1 -12   45.60    1.70
  -5  -1 -12   49.10    1.90
  -5  -1 -12   51.79    2.30
   5   1  12   45.40    2.00
   5   1  12   47.40    1.60
   5   1  12   46.20    1.60
   5   1  12   46.60    2.00
   5   1  12   50.79    2.10
  -6  -1 -12   36.50    2.00
  -6  -1 -12   33.40    1.50
  -6  -1 -12   33.20    1.50
  -6  -1 -12   35.00    1.50
   6   1  12   36.10    1.80
   6   1  12   35.30    1.80
   6   1  12   33.00    1.40
  -7  -1 -12   14.50    1.50
  -7  -1 -12   17.80    1.20
  -7  -1 -12   16.20    1.20
   7   1  12   14.80    1.00
   7   1  12   17.00    1.50
   7   1  12   16.80    1.40
  -8  -1 -12   -0.60    0.50
  -8  -1 -12   -0.30    0.80
  -8  -1 -12    0.80    0.60
   8   1  12    0.10    0.70
   8   1  12   -0.80    0.50
   8   1  12   -0.70    0.50
  -9  -1 -12   -1.00    0.70
  -9  -1 -12   -0.80    0.50
  -9  -1 -12    0.00    0.60
   9   1  12   -0.80    0.70
   9   1  12    0.10    0.70
   9   1  12   -1.00    0.40
   5  -2 -12    2.20    1.00
  -5   2  12    1.50    0.70
   4  -2 -12    2.50    0.80
  -4   2  12    2.00    0.80
  -4   2  12    2.70    0.80
  -4   2  12    2.60    1.00
  -4   2  12    3.20    0.90
   3  -2 -12    4.90    0.70
   3  -2 -12    4.70    0.70
   3  -2 -12    4.80    1.00
   3  -2 -12    5.00    0.90
  -3   2  12    5.50    0.70
  -3   2  12    4.50    0.70
  -3   2  12    5.20    1.00
  -3   2  12    6.40    1.00
   2  -2 -12   20.80    1.40
   2  -2 -12   23.20    1.60
   2  -2 -12   23.70    1.20
   2  -2 -12   23.60    1.10
  -2   2  12   21.90    1.10
  -2   2  12   21.70    1.50
  -2   2  12   22.80    1.60
   1  -2 -12   12.30    1.20
   1  -2 -12   10.70    1.40
   1  -2 -12   11.30    0.80
   1  -2 -12   11.60    0.70
  -1   2  12   11.00    1.20
  -1   2  12   14.30    1.20
  -1   2  12   10.30    1.00
  -1   2  12   10.70    0.70
   0  -2 -12  156.98    4.60
   0  -2 -12  151.28    4.00
   0  -2 -12  149.09    4.00
   0   2  12  143.79    4.60
   0   2  12  152.58    4.00
   0   2  12  145.99    4.00
   0   2  12  150.28    4.40
  -1  -2 -12   30.60    1.10
  -1  -2 -12   31.40    1.60
   1   2  12   31.00    1.10
   1   2  12   31.10    1.60
   1   2  12   29.50    1.40
   1   2  12   32.80    1.10
  -2  -2 -12    3.90    0.70
  -2  -2 -12    5.20    0.50
  -2  -2 -12    4.80    0.50
   2   2  12    5.10    0.80
   2   2  12    5.40    0.70
   2   2  12    5.40    0.50
  -3  -2 -12   19.20    0.90
  -3  -2 -12   19.80    0.90
  -3  -2 -12   22.20    1.30
  -3  -2 -12   18.00    1.60
   3   2  12   20.00    0.90
   3   2  12   22.70    1.40
  -4  -2 -12   11.20    1.00
  -4  -2 -12   10.90    0.80
   4   2  12   13.00    1.10
   4   2  12    9.60    1.00
   4   2  12   11.30    0.70
   4   2  12   11.50    0.70
  -5  -2 -12   19.50    1.20
  -5  -2 -12   17.40    1.00
  -5  -2 -12   17.70    1.40
   5   2  12   17.50    1.20
   5   2  12   18.20    0.90
   5   2  12   16.70    1.20
   5   2  12   17.90    0.90
  -6  -2 -12    9.70    1.00
  -6  -2 -12    8.80    0.90
  -6  -2 -12   11.10    1.20
   6   2  12    7.40    0.70
   6   2  12    9.00    1.00
   6   2  12    8.10    0.80
   6   2  12    8.90    1.00
  -7  -2 -12    4.10    0.90
  -7  -2 -12    5.40    0.80
  -7  -2 -12    4.90    0.80
   7   2  12    6.20    0.80
   7   2  12    5.90    1.00
  -8  -2 -12    1.80    0.70
  -8  -2 -12   -0.20    0.60
  -8  -2 -12    1.90    0.90
   8   2  12    1.20    0.60
   8   2  12    0.40    0.70
   8   2  12    1.50    0.80
  -9  -2 -12   -0.50    0.60
  -9  -2 -12    0.10    0.60
  -9  -2 -12   -0.20    0.60
   9   2  12    1.30    0.80
   9   2  12    0.00    0.70
   9   2  12    0.40    0.50
   4  -3 -12    0.50    0.60
   4  -3 -12    1.30    0.60
   4  -3 -12    0.50    0.80
  -4   3  12    1.30    0.60
  -4   3  12    0.80    0.80
  -4   3  12    0.80    0.60
   3  -3 -12   17.50    1.10
   3  -3 -12   18.30    1.50
   3  -3 -12   18.30    1.20
  -3   3  12   18.80    1.20
  -3   3  12   19.20    1.50
  -3   3  12   19.30    1.60
  -3   3  12   18.80    1.30
   2  -3 -12   27.30    1.30
   2  -3 -12   25.20    1.30
   2  -3 -12   25.90    1.70
  -2   3  12   26.20    1.70
  -2   3  12   27.80    1.30
  -2   3  12   29.60    1.70
   1  -3 -12   40.80    1.60
   1  -3 -12   42.20    2.10
   1  -3 -12   42.70    1.60
  -1   3  12   40.50    1.60
  -1   3  12   41.00    2.00
   0  -3 -12   15.60    0.90
   0  -3 -12   13.90    0.90
   0  -3 -12   12.20    1.20
   0   3  12   14.70    0.90
   0   3  12   14.60    1.00
   0   3  12   15.50    0.90
   0   3  12   12.50    1.30
  -1  -3 -12   16.10    1.20
  -1  -3 -12   15.90    0.90
   1   3  12   15.10    1.20
   1   3  12   16.80    0.90
   1   3  12   16.90    1.10
   1   3  12   16.60    0.90
  -2  -3 -12    1.00    0.30
  -2  -3 -12    1.50    0.60
   2   3  12    1.00    0.50
   2   3  12    0.60    0.30
   2   3  12    0.80    0.30
   2   3  12    0.30    0.50
  -3  -3 -12   37.60    1.40
  -3  -3 -12   39.80    1.40
  -3  -3 -12   38.90    1.70
   3   3  12   37.30    1.40
   3   3  12   38.00    1.80
   3   3  12   36.70    1.70
  -4  -3 -12   21.20    1.30
  -4  -3 -12   22.30    1.10
  -4  -3 -12   21.90    1.00
   4   3  12   23.30    1.30
   4   3  12   23.70    1.10
   4   3  12   20.90    1.30
  -5  -3 -12   13.70    1.20
  -5  -3 -12   15.60    1.00
   5   3  12   14.10    0.90
   5   3  12   13.70    1.10
   5   3  12   13.80    0.90
   5   3  12   13.60    1.20
  -6  -3 -12   11.30    1.20
  -6  -3 -12   11.80    1.10
  -6  -3 -12   11.20    1.00
   6   3  12    9.60    0.90
   6   3  12   11.50    0.90
   6   3  12   11.80    1.00
   6   3  12    9.70    1.10
  -7  -3 -12    6.00    0.90
  -7  -3 -12    6.10    1.00
  -7  -3 -12    5.20    0.90
   7   3  12    5.00    0.70
   7   3  12    6.10    0.80
   7   3  12    6.30    0.90
  -8  -3 -12    9.50    1.10
  -8  -3 -12   10.10    1.30
  -8  -3 -12   10.90    1.20
   8   3  12    9.70    1.00
   8   3  12    9.50    1.00
   8   3  12    8.80    1.20
  -9  -3 -12   11.40    1.30
  -9  -3 -12   11.50    1.40
  -9  -3 -12   11.90    1.30
   9   3  12   10.60    1.30
   9   3  12   13.90    1.30
   4  -4 -12    1.40    0.70
   4  -4 -12    1.30    0.70
   4  -4 -12    0.40    0.80
  -4   4  12    1.50    0.90
  -4   4  12    0.80    0.70
  -4   4  12    0.60    0.60
   3  -4 -12   -0.40    0.50
   3  -4 -12    0.20    0.50
   3  -4 -12    1.00    0.70
  -3   4  12    0.10    0.50
  -3   4  12    0.50    0.70
   2  -4 -12    5.70    0.80
   2  -4 -12    6.50    1.10
   2  -4 -12    6.60    0.80
  -2   4  12    7.30    0.90
  -2   4  12    6.30    1.10
   1  -4 -12   19.00    1.20
   1  -4 -12   18.50    1.40
   1  -4 -12   23.10    1.20
  -1   4  12   20.20    1.20
  -1   4  12   19.20    1.50
   0  -4 -12    3.20    0.60
   0  -4 -12    2.50    0.50
   0  -4 -12    2.10    0.80
   0   4  12    2.20    0.50
   0   4  12    2.50    0.80
   0   4  12    2.80    0.60
   0   4  12    3.30    0.60
  -1  -4 -12   10.10    1.10
  -1  -4 -12   12.60    0.90
   1   4  12   10.50    0.80
   1   4  12   12.10    1.00
   1   4  12   11.20    0.80
   1   4  12   10.90    1.20
  -2  -4 -12    2.40    0.50
  -2  -4 -12    1.20    0.60
   2   4  12    2.70    0.50
   2   4  12    2.00    0.70
   2   4  12    2.00    0.50
   2   4  12    2.40    0.60
  -3  -4 -12    0.40    0.40
  -3  -4 -12    0.70    0.40
  -3  -4 -12    1.10    0.60
   3   4  12    0.70    0.60
   3   4  12    1.00    0.50
   3   4  12    0.70    0.40
  -4  -4 -12   22.10    1.50
  -4  -4 -12   21.80    1.20
  -4  -4 -12   23.50    1.20
   4   4  12   20.30    1.10
   4   4  12   22.10    1.30
   4   4  12   21.70    1.30
  -5  -4 -12   33.90    1.80
  -5  -4 -12   35.90    1.60
  -5  -4 -12   33.90    1.50
   5   4  12   34.80    1.80
   5   4  12   35.10    1.70
   5   4  12   35.00    1.50
  -6  -4 -12   37.90    1.90
  -6  -4 -12   37.70    2.00
  -6  -4 -12   33.80    1.60
   6   4  12   33.20    1.50
   6   4  12   36.10    1.70
   6   4  12   35.60    1.60
   6   4  12   33.60    1.80
  -7  -4 -12    8.60    1.00
  -7  -4 -12    7.50    1.10
  -7  -4 -12    6.00    0.90
   7   4  12    6.50    1.00
   7   4  12    6.70    0.80
   7   4  12    7.20    0.90
  -8  -4 -12   16.40    1.40
  -8  -4 -12   16.50    1.50
  -8  -4 -12   12.60    1.30
   8   4  12   14.50    1.10
   8   4  12   11.70    1.30
   8   4  12   16.10    1.20
  -9  -4 -12    5.80    1.00
  -9  -4 -12    6.80    1.20
  -9  -4 -12    6.80    1.10
   9   4  12    7.90    1.00
   9   4  12    7.30    1.00
   3  -5 -12    0.50    0.70
   3  -5 -12    0.50    0.60
   3  -5 -12    1.10    0.70
  -3   5  12    0.70    0.60
  -3   5  12    0.20    0.90
   2  -5 -12    4.80    0.80
   2  -5 -12    7.90    1.00
   2  -5 -12    5.30    1.10
  -2   5  12    5.50    0.80
  -2   5  12    5.80    1.10
   1  -5 -12    0.80    0.50
   1  -5 -12   -0.30    0.60
   1  -5 -12   -0.20    0.50
  -1   5  12    0.70    0.50
  -1   5  12   -0.70    0.60
   0  -5 -12    0.10    0.50
   0  -5 -12   -0.60    0.70
   0  -5 -12    0.90    0.50
   0   5  12   -0.20    0.40
   0   5  12   -0.30    0.70
   0   5  12    0.10    0.40
   0   5  12   -0.30    0.40
  -1  -5 -12    2.10    0.60
  -1  -5 -12    2.50    0.80
   1   5  12    2.60    0.80
   1   5  12    1.70    0.50
   1   5  12    2.50    0.50
   1   5  12    2.00    0.50
  -2  -5 -12   13.10    0.90
  -2  -5 -12   12.00    1.30
   2   5  12   12.60    0.90
   2   5  12   11.20    1.20
   2   5  12   12.60    1.00
   2   5  12   13.90    1.00
  -3  -5 -12    5.10    0.70
  -3  -5 -12    3.70    0.90
  -3  -5 -12    4.70    0.70
   3   5  12    5.00    0.70
   3   5  12    3.90    0.80
   3   5  12    4.70    0.60
   3   5  12    3.90    0.70
  -4  -5 -12    9.00    1.20
  -4  -5 -12    8.20    0.90
  -4  -5 -12    6.90    0.80
   4   5  12    7.60    0.90
   4   5  12    7.20    0.90
   4   5  12    7.00    0.70
  -5  -5 -12   56.39    2.10
  -5  -5 -12   60.39    2.30
  -5  -5 -12   62.89    2.60
   5   5  12   52.89    2.20
   5   5  12   60.69    2.40
   5   5  12   59.79    2.10
  -6  -5 -12   18.20    1.30
  -6  -5 -12   20.80    1.60
  -6  -5 -12   19.30    1.30
   6   5  12   18.80    1.20
   6   5  12   18.00    1.20
   6   5  12   16.30    1.10
   6   5  12   18.40    1.30
  -7  -5 -12    7.40    1.10
  -7  -5 -12    5.70    0.90
  -7  -5 -12    6.50    1.00
   7   5  12    7.30    0.90
   7   5  12    7.10    1.10
   7   5  12    7.90    1.00
  -8  -5 -12    1.40    0.80
  -8  -5 -12    0.70    0.70
  -8  -5 -12   -1.00    0.60
   8   5  12   -0.50    0.50
   8   5  12   -0.60    0.60
   8   5  12    0.10    0.70
  -9  -5 -12    1.60    0.80
  -9  -5 -12    0.80    0.70
   9   5  12    3.30    0.80
   9   5  12    1.40    0.70
   2  -6 -12    0.00    0.60
   2  -6 -12    0.50    0.50
   2  -6 -12    1.40    0.80
  -2   6  12   -0.30    0.90
  -2   6  12    0.80    0.60
   1  -6 -12    8.00    0.90
   1  -6 -12    7.70    1.00
   1  -6 -12    7.90    1.20
  -1   6  12    7.00    1.00
  -1   6  12    6.00    1.30
   0  -6 -12   -0.40    0.50
   0  -6 -12   -0.80    0.70
   0  -6 -12    0.40    0.60
   0   6  12    1.10    0.60
   0   6  12   -0.60    0.50
   0   6  12   -0.90    0.70
  -1  -6 -12    5.10    1.00
  -1  -6 -12    5.20    0.80
   1   6  12    5.30    0.80
   1   6  12    4.30    1.10
   1   6  12    4.50    0.70
   1   6  12    6.80    0.90
  -2  -6 -12   -0.10    0.50
  -2  -6 -12    0.60    0.70
   2   6  12    0.30    0.60
   2   6  12   -0.10    0.40
   2   6  12    0.40    0.40
   2   6  12    0.40    0.50
  -3  -6 -12   -0.30    0.40
  -3  -6 -12    0.90    0.70
   3   6  12    0.70    0.70
   3   6  12   -0.10    0.40
   3   6  12    0.60    0.50
   3   6  12    0.00    0.40
  -4  -6 -12   10.20    1.00
  -4  -6 -12   10.00    1.30
  -4  -6 -12   12.30    1.10
   4   6  12    9.90    1.00
   4   6  12   11.10    1.00
   4   6  12   11.30    1.20
  -5  -6 -12   14.90    1.50
  -5  -6 -12   14.70    1.20
  -5  -6 -12   13.10    1.20
   5   6  12   11.70    1.20
   5   6  12   14.60    1.20
   5   6  12   12.60    1.10
  -6  -6 -12   23.80    1.40
  -6  -6 -12   23.50    1.50
  -6  -6 -12   22.30    1.70
   6   6  12   24.30    1.50
   6   6  12   21.80    1.50
  -7  -6 -12   12.50    1.40
  -7  -6 -12   11.40    1.40
  -7  -6 -12   10.60    1.20
  -7  -6 -12    8.70    1.10
   7   6  12   10.90    1.10
   7   6  12   11.00    1.10
   7   6  12   10.00    1.20
  -8  -6 -12    1.20    0.70
  -8  -6 -12    2.60    0.90
  -8  -6 -12    1.50    0.80
   8   6  12    2.00    0.70
   8   6  12    1.20    0.70
   8   6  12    1.10    0.80
   1  -7 -12    0.80    0.80
   1  -7 -12    1.00    0.70
   1  -7 -12    1.30    0.70
  -1   7  12    1.50    1.00
  -1   7  12    2.10    0.70
   0  -7 -12    2.30    0.70
   0  -7 -12    2.30    0.70
   0  -7 -12    1.70    0.90
   0   7  12    1.00    0.70
   0   7  12    2.40    0.70
   0   7  12    0.70    0.90
  -1  -7 -12    4.80    1.00
  -1  -7 -12    4.50    0.80
   1   7  12    4.60    0.80
   1   7  12    4.00    1.00
   1   7  12    5.60    0.90
  -2  -7 -12    1.70    0.90
  -2  -7 -12    0.40    0.60
   2   7  12    0.50    0.60
   2   7  12    0.80    0.90
   2   7  12    0.50    0.50
  -3  -7 -12    9.40    1.30
  -3  -7 -12    7.70    1.00
   3   7  12    6.10    0.80
   3   7  12    6.60    1.10
   3   7  12    6.50    0.90
   3   7  12   10.10    1.00
  -4  -7 -12    8.70    1.00
  -4  -7 -12    8.20    1.00
  -4  -7 -12    7.00    1.20
   4   7  12    8.10    1.00
   4   7  12    8.10    1.10
   4   7  12    8.60    1.00
   4   7  12    7.70    0.90
  -5  -7 -12   17.80    1.60
  -5  -7 -12   17.90    1.40
  -5  -7 -12   17.10    1.30
   5   7  12   18.50    1.40
   5   7  12   16.70    1.20
   5   7  12   19.60    1.40
  -6  -7 -12   10.10    1.40
  -6  -7 -12   10.70    1.20
  -6  -7 -12    8.60    1.00
   6   7  12    8.30    1.00
   6   7  12    8.20    1.10
  -7  -7 -12    7.20    1.10
  -7  -7 -12    9.80    1.30
  -7  -7 -12    9.90    1.20
  -7  -7 -12    9.40    1.20
   7   7  12    7.30    1.10
   7   7  12    7.00    1.00
   7   7  12    9.70    1.10
  -8  -7 -12   -0.10    0.80
  -8  -7 -12   -1.40    0.60
   8   7  12   -0.10    0.60
   8   7  12   -0.50    0.50
   8   7  12   -1.10    0.70
   0  -8 -12   10.80    1.40
   0  -8 -12   10.70    1.20
   0  -8 -12    9.50    1.10
   0   8  12    9.40    1.10
   0   8  12   11.20    1.30
  -1  -8 -12    1.20    0.90
  -1  -8 -12    1.50    0.70
   1   8  12    0.50    0.60
   1   8  12    0.40    0.60
  -2  -8 -12    1.00    0.90
  -2  -8 -12    1.70    0.70
   2   8  12    1.60    0.70
   2   8  12    0.50    0.60
   2   8  12   -0.90    0.90
  -3  -8 -12    7.00    1.20
  -3  -8 -12    6.60    1.00
   3   8  12    6.90    1.10
   3   8  12    5.80    0.90
   3   8  12    4.90    0.90
  -4  -8 -12    3.10    0.80
  -4  -8 -12    3.00    0.80
  -4  -8 -12    4.50    1.10
   4   8  12    3.90    0.80
   4   8  12    4.30    0.90
   4   8  12    3.40    0.80
  -5  -8 -12   11.30    1.50
  -5  -8 -12   10.30    1.20
  -5  -8 -12    9.80    1.20
   5   8  12    8.80    1.00
   5   8  12   11.40    1.20
   5   8  12   12.20    1.30
  -6  -8 -12    1.90    0.80
  -6  -8 -12    2.50    0.80
  -6  -8 -12    2.80    1.10
   6   8  12    3.30    0.80
   6   8  12    3.00    0.80
   6   8  12    3.40    0.80
  -7  -8 -12    1.80    0.80
  -7  -8 -12    2.00    0.70
  -7  -8 -12    3.00    1.00
   7   8  12    1.30    0.70
   7   8  12    1.60    0.80
   7   8  12    1.90    0.80
  -2  -9 -12    1.30    0.80
  -2  -9 -12    0.00    0.80
   2   9  12    1.10    0.70
   2   9  12    0.20    0.70
  -3  -9 -12   -0.30    0.70
  -3  -9 -12    0.20    0.90
   3   9  12    0.40    0.60
   3   9  12    0.10    0.80
   3   9  12    0.70    0.70
  -4  -9 -12    1.40    0.70
  -4  -9 -12    0.00    0.70
  -4  -9 -12    0.70    0.90
   4   9  12   -0.60    0.60
   4   9  12   -0.50    0.80
   4   9  12    0.10    0.60
  -5  -9 -12    1.00    0.90
  -5  -9 -12    1.50    0.80
  -5  -9 -12    1.40    0.80
   5   9  12    2.00    0.90
   5   9  12    2.10    0.80
  -6  -9 -12    0.70    0.70
  -6  -9 -12    0.20    0.60
  -6  -9 -12    0.30    0.80
   6   9  12   -0.20    0.60
   3   8 -13    1.30    0.90
   3   8 -13    1.70    1.10
  -3  -8  13    0.50    0.90
  -3  -8  13    1.60    0.80
   2   8 -13    2.70    1.00
   2   8 -13    3.80    1.10
  -2  -8  13    2.80    1.00
  -2  -8  13    3.40    1.00
   1   8 -13    1.50    1.00
   1   8 -13    1.00    0.80
  -1  -8  13    2.20    1.00
  -1  -8  13    2.30    0.90
   0   8 -13    1.40    0.90
   0  -8  13    2.10    1.00
  -1   8 -13    1.30    0.90
   1  -8  13    1.00    0.90
  -2   8 -13    0.30    0.90
   2  -8  13    0.00    0.80
   4   7 -13   -0.50    0.70
   4   7 -13   -1.00    0.80
  -4  -7  13   -0.40    0.90
  -4  -7  13   -0.30    0.70
   3   7 -13    2.50    1.10
   3   7 -13    1.90    0.90
  -3  -7  13    3.20    1.00
  -3  -7  13    3.70    1.00
   2   7 -13    3.00    1.00
   2   7 -13    2.10    0.90
  -2  -7  13    2.40    1.00
  -2  -7  13    3.30    1.00
   1   7 -13   10.80    1.40
   1   7 -13   11.00    1.40
  -1  -7  13   11.70    1.50
  -1  -7  13   15.10    1.70
   0   7 -13    4.60    1.10
   0  -7  13    2.10    0.90
   0  -7  13    1.00    0.80
  -1   7 -13   -0.30    0.70
   1  -7  13    0.80    0.80
  -2   7 -13    0.00    0.70
  -2   7 -13   -0.70    0.60
   2  -7  13    0.80    0.90
   2  -7  13    0.00    0.60
  -3   7 -13   -0.40    0.70
  -3   7 -13   -1.30    0.60
   3  -7  13   -0.40    0.70
   3  -7  13   -0.10    0.60
  -4   7 -13   -0.90    0.80
   4  -7  13   -0.60    0.80
   4  -7  13    0.60    0.70
   4   6 -13   -0.30    0.70
  -4  -6  13   -0.30    0.90
   3   6 -13    1.80    0.80
   3   6 -13    2.40    1.00
  -3  -6  13    2.80    0.90
  -3  -6  13    2.80    1.00
   2   6 -13   -0.60    0.70
   2   6 -13   -1.60    0.60
  -2  -6  13   -0.40    0.80
  -2  -6  13    0.00    0.70
   1   6 -13    0.60    0.60
   1   6 -13    1.10    0.70
  -1  -6  13    1.80    0.80
  -1  -6  13    1.30    0.80
   0   6 -13    0.40    0.60
   0  -6  13   -0.30    0.60
   0  -6  13    1.60    0.80
  -1   6 -13    1.00    0.60
  -1   6 -13   -0.40    0.50
   1  -6  13    0.30    0.50
   1  -6  13    0.10    0.70
  -2   6 -13    1.00    0.60
  -2   6 -13    0.30    0.60
   2  -6  13   -0.50    0.50
   2  -6  13   -0.70    0.50
   2  -6  13    0.00    0.70
  -3   6 -13   17.10    1.60
   3  -6  13   15.60    1.30
   3  -6  13   14.20    1.60
   3  -6  13   15.30    1.20
  -4   6 -13   14.00    1.60
   4  -6  13   11.80    1.50
   4  -6  13   12.20    1.30
  -5   6 -13    3.40    1.00
   5  -6  13    4.20    1.00
   5  -6  13    4.10    1.20
   5   5 -13    1.00    1.10
  -5  -5  13    3.70    1.20
   4   5 -13    4.60    1.10
  -4  -5  13    4.20    1.20
   3   5 -13    4.50    0.90
   3   5 -13    3.00    0.80
   3   5 -13    3.80    1.00
  -3  -5  13    3.90    1.10
  -3  -5  13    3.50    0.90
   2   5 -13    0.50    0.60
   2   5 -13   -0.30    0.60
   2   5 -13   -0.80    0.40
  -2  -5  13   -0.40    0.50
  -2  -5  13   -0.60    0.60
   1   5 -13   -0.80    0.40
   1   5 -13   -0.70    0.50
   1   5 -13    0.40    0.60
  -1  -5  13   -0.20    0.50
  -1  -5  13   -0.60    0.60
   0   5 -13    2.30    0.70
   0   5 -13    2.30    0.70
   0   5 -13    3.40    0.80
   0   5 -13    2.90    0.60
   0  -5  13    2.20    0.80
   0  -5  13    2.40    0.70
  -1   5 -13    3.40    0.90
  -1   5 -13    2.20    0.70
  -1   5 -13    3.10    0.70
  -1   5 -13    3.10    0.80
   1  -5  13    3.50    0.60
   1  -5  13    2.80    0.70
   1  -5  13    4.40    1.00
  -2   5 -13    3.90    0.80
   2  -5  13    4.00    0.70
   2  -5  13    4.00    0.80
   2  -5  13    3.70    0.90
  -3   5 -13   32.30    1.90
   3  -5  13   28.20    1.50
   3  -5  13   26.20    1.60
   3  -5  13   26.60    1.80
  -4   5 -13   31.90    2.00
   4  -5  13   35.90    1.70
   4  -5  13   30.70    2.00
   4  -5  13   32.70    1.90
  -5   5 -13   27.90    2.00
   5  -5  13   22.20    1.90
   5  -5  13   24.20    1.80
  -6   5 -13    3.00    1.10
   6  -5  13    1.30    0.90
   5   4 -13   -2.00    0.90
  -5  -4  13   -1.50    0.70
   4   4 -13   -0.80    0.80
  -4  -4  13   -1.00    0.70
  -4  -4  13    0.00    0.50
   3   4 -13   21.70    1.70
  -3  -4  13   18.80    1.90
  -3  -4  13   20.90    1.60
   2   4 -13    2.40    0.60
   2   4 -13    2.40    0.70
   2   4 -13    2.10    0.60
  -2  -4  13    2.00    0.70
  -2  -4  13    2.20    0.90
  -2  -4  13    2.00    0.70
   1   4 -13    6.60    0.80
   1   4 -13    5.40    0.80
   1   4 -13    7.70    1.00
  -1  -4  13    6.10    1.00
  -1  -4  13    7.70    1.00
  -1  -4  13    6.00    1.10
   0   4 -13    3.00    0.70
   0   4 -13    3.60    0.80
   0   4 -13    3.80    0.70
   0   4 -13    3.50    0.70
   0  -4  13    3.80    0.90
   0  -4  13    3.60    0.80
   0  -4  13    3.40    0.80
   0  -4  13    3.60    0.80
  -1   4 -13    3.40    0.70
  -1   4 -13    3.70    0.70
  -1   4 -13    3.80    0.70
  -1   4 -13    3.10    0.70
   1  -4  13    4.40    0.80
   1  -4  13    3.70    0.60
   1  -4  13    3.40    0.90
  -2   4 -13   45.60    2.20
  -2   4 -13   42.60    2.10
   2  -4  13   42.10    2.20
   2  -4  13   42.30    1.80
   2  -4  13   40.70    1.80
  -3   4 -13   53.69    2.50
   3  -4  13   57.19    2.20
   3  -4  13   51.99    2.40
   3  -4  13   54.39    2.30
  -4   4 -13   39.30    2.20
   4  -4  13   41.60    2.10
   4  -4  13   46.80    2.00
   4  -4  13   43.20    2.30
  -5   4 -13   14.20    1.60
   5  -4  13   13.90    1.20
   5  -4  13   15.00    1.50
  -6   4 -13   -0.30    0.80
   6  -4  13   -0.70    0.70
   6  -4  13   -0.10    0.50
   5   3 -13   -1.10    0.90
  -5  -3  13   -1.30    0.80
   4   3 -13   -0.10    0.70
  -4  -3  13   -0.60    0.80
  -4  -3  13    0.10    0.60
   3   3 -13    5.40    1.00
  -3  -3  13    4.80    1.10
  -3  -3  13    7.60    1.10
   2   3 -13    0.20    0.60
  -2  -3  13   -0.40    0.60
  -2  -3  13   -0.20    0.60
   1   3 -13    3.50    0.60
   1   3 -13    5.80    0.90
   1   3 -13    3.90    0.70
  -1  -3  13    4.50    0.90
  -1  -3  13    4.00    0.90
   0   3 -13   12.50    1.10
   0   3 -13    9.80    1.00
   0   3 -13   11.90    1.10
   0   3 -13   12.40    1.10
   0  -3  13   10.70    1.20
   0  -3  13    8.80    1.20
   0  -3  13   10.30    1.10
   0  -3  13   12.80    1.30
  -1   3 -13    7.40    0.90
  -1   3 -13    7.30    1.00
  -1   3 -13    8.20    0.90
   1  -3  13    8.80    0.90
   1  -3  13    8.90    1.10
   1  -3  13    7.70    1.10
  -2   3 -13   72.79    2.40
  -2   3 -13   74.29    2.90
  -2   3 -13   74.59    2.90
   2  -3  13   68.29    2.80
   2  -3  13   71.79    2.50
   2  -3  13   79.69    2.70
   2  -3  13   71.39    2.90
  -3   3 -13   54.69    2.40
   3  -3  13   47.60    2.30
   3  -3  13   55.09    2.20
   3  -3  13   54.99    2.20
  -4   3 -13   22.60    1.70
   4  -3  13   20.50    1.40
   4  -3  13   22.50    1.40
  -5   3 -13   24.80    1.90
   5  -3  13   29.00    1.60
   5  -3  13   25.40    1.60
  -6   3 -13   -0.20    0.70
   6  -3  13    0.70    0.60
   6  -3  13    1.30    0.70
  -7   3 -13   -0.70    0.80
   7  -3  13   -1.00    0.50
   7  -3  13    1.10    0.80
   5   2 -13    1.00    1.00
  -5  -2  13    1.50    1.00
   4   2 -13   -0.10    0.90
  -4  -2  13    1.70    0.70
  -4  -2  13    0.80    0.90
   3   2 -13   16.20    1.50
  -3  -2  13   14.60    1.60
  -3  -2  13   17.60    1.50
   2   2 -13   21.80    1.50
  -2  -2  13   23.20    1.60
  -2  -2  13   20.20    1.60
   1   2 -13    3.40    0.60
   1   2 -13    4.00    0.70
   1   2 -13    3.80    0.60
  -1  -2  13    3.30    0.90
  -1  -2  13    4.70    0.90
   0   2 -13    4.10    0.70
   0   2 -13    4.40    0.70
   0   2 -13    4.20    0.70
   0   2 -13    5.00    0.80
   0  -2  13    5.50    0.90
   0  -2  13    4.30    0.70
   0  -2  13    4.60    0.90
  -1   2 -13   24.50    1.30
  -1   2 -13   23.50    1.30
  -1   2 -13   22.90    1.40
   1  -2  13   24.90    1.40
   1  -2  13   22.90    1.50
  -2   2 -13    9.10    1.00
  -2   2 -13    9.30    0.90
  -2   2 -13   10.80    1.10
   2  -2  13   10.40    1.00
   2  -2  13   10.30    1.00
   2  -2  13    8.60    1.10
  -3   2 -13   13.80    1.30
  -3   2 -13   10.80    0.90
   3  -2  13   12.70    1.00
   3  -2  13   12.50    1.30
   3  -2  13   10.20    1.00
  -4   2 -13    6.10    1.00
   4  -2  13    4.90    0.80
   4  -2  13    6.60    0.90
  -5   2 -13   10.80    1.30
   5  -2  13   11.90    1.20
   5  -2  13   12.30    1.10
  -6   2 -13   -0.70    0.70
   6  -2  13   -0.20    0.60
   6  -2  13   -1.40    0.40
  -7   2 -13    1.60    0.90
   7  -2  13    2.40    0.90
   7  -2  13    1.30    0.60
   5   1 -13   18.00    1.90
  -5  -1  13   18.80    1.60
  -5  -1  13   21.60    2.00
   4   1 -13   20.80    1.90
  -4  -1  13   22.00    1.90
  -4  -1  13   24.90    1.70
   3   1 -13    3.90    0.90
  -3  -1  13    5.80    0.90
  -3  -1  13    5.50    1.00
   2   1 -13   11.00    1.30
   2   1 -13    8.90    1.10
  -2  -1  13    9.00    1.30
  -2  -1  13    9.00    1.10
   1   1 -13    0.90    0.50
   1   1 -13    0.10    0.60
  -1  -1  13    0.50    0.60
  -1  -1  13    0.90    0.60
   0   1 -13   21.70    1.10
   0   1 -13   21.00    1.20
   0   1 -13   23.00    1.40
   0   1 -13   20.50    1.10
   0  -1  13   20.20    1.40
   0  -1  13   21.40    1.50
   0  -1  13   21.90    1.30
  -1   1 -13   30.40    1.50
  -1   1 -13   30.80    1.40
  -1   1 -13   33.60    1.60
   1  -1  13   30.10    1.70
   1  -1  13   32.10    1.50
  -2   1 -13    2.00    0.50
   2  -1  13    1.50    0.60
   2  -1  13    1.30    0.50
  -3   1 -13   17.30    1.10
  -3   1 -13   18.70    1.30
   3  -1  13   20.90    1.20
   3  -1  13   18.80    1.20
   3  -1  13   16.90    1.30
  -4   1 -13    0.50    0.60
  -4   1 -13    0.60    0.40
   4  -1  13    1.00    0.50
   4  -1  13   -0.10    0.50
   4  -1  13    0.90    0.50
  -5   1 -13   10.30    1.20
   5  -1  13    9.30    1.10
   5  -1  13   11.00    1.10
  -6   1 -13    3.80    1.00
   6  -1  13    6.70    0.90
   6  -1  13    4.60    1.00
  -7   1 -13   -1.10    0.70
   7  -1  13   -0.30    0.70
   7  -1  13    0.00    0.60
  -8   1 -13    6.60    1.20
   8  -1  13    5.00    1.20
   8  -1  13    6.20    1.00
   5   0 -13    1.10    1.00
   5   0 -13    2.90    1.00
  -5   0  13    1.30    0.90
  -5   0  13    1.60    0.80
   4   0 -13   12.30    1.50
   4   0 -13   15.80    1.70
  -4   0  13   17.10    1.50
  -4   0  13   18.70    1.70
   3   0 -13    3.50    0.90
   3   0 -13    4.20    1.00
  -3   0  13    3.90    0.80
  -3   0  13    4.00    1.00
   2   0 -13   11.00    1.20
   2   0 -13   10.10    1.10
  -2   0  13   14.20    1.40
  -2   0  13   11.50    1.20
   1   0 -13   -0.40    0.60
   1   0 -13   -0.20    0.50
  -1   0  13    1.00    0.70
  -1   0  13   -0.10    0.40
  -1   0  13    0.50    0.60
   0   0 -13   39.20    1.80
   0   0 -13   42.00    1.70
   0   0  13   45.40    1.90
   0   0  13   40.90    2.00
   0   0  13   41.20    2.10
  -1   0 -13   21.00    1.30
  -1   0 -13   19.30    1.00
  -1   0 -13   19.20    1.00
   1   0  13   20.20    1.30
   1   0  13   20.30    1.20
  -2   0 -13    4.10    0.70
  -2   0 -13    3.60    0.50
   2   0  13    3.40    0.70
   2   0  13    4.10    0.70
  -3   0 -13   15.90    1.10
   3   0  13   16.50    1.20
   3   0  13   14.40    1.20
  -4   0 -13   10.40    1.20
  -4   0 -13   12.40    0.90
   4   0  13   12.00    1.10
   4   0  13   12.10    1.00
   4   0  13   11.80    1.10
  -5   0 -13   28.20    1.90
  -5   0 -13   29.00    1.40
   5   0  13   26.30    1.60
   5   0  13   29.30    1.70
   5   0  13   29.10    1.50
  -6   0 -13    2.30    0.90
   6   0  13    1.90    0.60
   6   0  13    1.70    0.80
  -7   0 -13   -0.30    0.80
   7   0  13   -0.10    0.60
   7   0  13    0.40    0.70
  -8   0 -13    7.70    1.30
   8   0  13    8.50    1.20
   8   0  13    6.50    1.20
   4  -1 -13    0.60    0.80
  -4   1  13    0.80    0.80
  -4   1  13    0.40    0.70
   3  -1 -13    1.60    1.30
   3  -1 -13    0.30    0.80
  -3   1  13    1.10    0.70
  -3   1  13    0.40    0.70
   2  -1 -13    4.70    1.00
   2  -1 -13    3.90    1.10
  -2   1  13    6.70    1.10
  -2   1  13    3.70    0.90
   1  -1 -13    7.80    1.00
  -1   1  13    8.20    0.90
  -1   1  13    9.00    1.10
  -1   1  13    8.60    1.10
   0  -1 -13   51.19    2.20
   0   1  13   50.09    2.20
   0   1  13   48.10    2.00
  -1  -1 -13   10.70    1.10
   1   1  13    8.80    1.10
   1   1  13    7.60    0.90
  -2  -1 -13   41.50    1.80
   2   1  13   39.00    1.80
   2   1  13   37.00    1.80
  -3  -1 -13   44.50    1.90
   3   1  13   44.30    1.90
   3   1  13   46.60    2.10
   3   1  13   45.60    1.50
   3   1  13   46.00    1.40
  -4  -1 -13    9.60    0.90
  -4  -1 -13    9.30    0.70
   4   1  13    9.80    0.60
   4   1  13   10.60    1.00
   4   1  13    8.80    0.60
   4   1  13    8.40    1.00
  -5  -1 -13    1.60    0.60
  -5  -1 -13    0.00    0.60
  -5  -1 -13    0.60    0.40
  -5  -1 -13    0.30    0.70
   5   1  13    1.50    0.60
   5   1  13    1.00    0.60
   5   1  13    0.40    0.30
   5   1  13    0.90    0.40
  -6  -1 -13    0.60    0.70
  -6  -1 -13   -0.40    0.50
  -6  -1 -13    0.40    0.40
   6   1  13   -0.10    0.40
   6   1  13   -0.30    0.60
   6   1  13    0.10    0.60
  -7  -1 -13    0.70    0.80
  -7  -1 -13    0.50    0.50
   7   1  13   -0.30    0.70
   7   1  13    1.00    0.50
   7   1  13    0.60    0.60
  -8  -1 -13    6.50    1.00
  -8  -1 -13    8.70    1.40
   8   1  13    8.10    1.10
   8   1  13    7.70    0.90
   8   1  13    6.80    1.20
   4  -2 -13   -1.10    0.70
  -4   2  13   -0.40    0.60
  -4   2  13   -0.70    0.60
   3  -2 -13   -0.10    0.70
  -3   2  13    0.20    0.70
  -3   2  13    0.60    0.70
   2  -2 -13    5.20    1.00
  -2   2  13    5.70    1.00
  -2   2  13    4.30    0.90
   1  -2 -13   12.20    1.30
  -1   2  13   11.00    0.90
  -1   2  13   11.90    1.30
  -1   2  13   10.70    1.20
   0  -2 -13   21.10    1.20
   0  -2 -13   21.30    1.50
   0   2  13   22.20    1.30
   0   2  13   22.40    1.00
   0   2  13   19.10    1.40
   0   2  13   21.10    0.90
  -1  -2 -13    3.70    0.80
  -1  -2 -13    3.20    0.40
   1   2  13    5.10    0.50
   1   2  13    3.70    0.80
   1   2  13    2.90    0.60
   1   2  13    4.40    0.50
  -2  -2 -13   96.89    2.70
  -2  -2 -13   98.19    3.20
  -2  -2 -13   96.99    2.80
   2   2  13   99.09    3.20
   2   2  13   94.79    3.30
   2   2  13   98.09    2.70
  -3  -2 -13   66.09    2.10
  -3  -2 -13   68.89    2.50
  -3  -2 -13   65.29    2.00
   3   2  13   69.09    2.60
   3   2  13   67.99    2.50
   3   2  13   66.69    2.00
  -4  -2 -13  107.19    3.40
  -4  -2 -13  103.79    3.00
   4   2  13   98.89    3.40
   4   2  13  100.59    2.90
   4   2  13  101.89    3.40
   4   2  13  101.29    2.90
  -5  -2 -13   27.90    1.50
  -5  -2 -13   29.00    1.80
  -5  -2 -13   26.20    1.30
   5   2  13   25.90    1.20
   5   2  13   27.60    1.50
   5   2  13   27.80    1.50
   5   2  13   26.70    1.20
  -6  -2 -13    3.50    0.90
  -6  -2 -13    2.70    0.60
  -6  -2 -13    3.80    0.70
  -6  -2 -13    3.00    0.70
   6   2  13    2.70    0.80
   6   2  13    1.90    0.50
   6   2  13    4.00    0.80
   6   2  13    2.40    0.50
  -7  -2 -13   29.50    1.50
  -7  -2 -13   26.70    1.50
  -7  -2 -13   31.80    1.90
   7   2  13   29.30    1.40
   7   2  13   27.60    1.70
  -8  -2 -13   23.30    1.50
  -8  -2 -13   24.90    1.80
  -8  -2 -13   23.40    1.60
   8   2  13   23.80    1.70
   8   2  13   25.30    1.40
  -4   3  13   -0.70    0.70
   3  -3 -13    8.50    1.30
  -3   3  13    7.70    1.30
  -3   3  13    5.30    1.10
   2  -3 -13   12.90    1.40
   2  -3 -13   13.30    1.40
  -2   3  13   13.70    1.50
  -2   3  13   15.30    1.00
  -2   3  13   15.70    1.40
   1  -3 -13   17.00    1.00
   1  -3 -13   18.80    1.40
   1  -3 -13   17.40    1.00
  -1   3  13   16.40    1.50
  -1   3  13   16.20    1.00
   0  -3 -13    3.90    0.90
   0  -3 -13    2.90    0.50
   0  -3 -13    3.70    0.60
   0   3  13    2.90    0.60
   0   3  13    3.40    0.50
   0   3  13    3.50    0.50
   0   3  13    3.70    0.80
  -1  -3 -13   34.80    1.90
  -1  -3 -13   35.50    1.40
   1   3  13   33.30    1.30
   1   3  13   33.70    1.60
   1   3  13   34.00    1.80
   1   3  13   33.20    1.30
  -2  -3 -13   43.10    2.00
  -2  -3 -13   45.90    1.60
  -2  -3 -13   44.80    1.60
   2   3  13   47.00    2.10
   2   3  13   43.50    1.60
   2   3  13   46.40    1.90
   2   3  13   43.80    1.60
  -3  -3 -13   45.30    1.60
  -3  -3 -13   42.50    1.90
  -3  -3 -13   43.60    1.60
   3   3  13   45.80    2.00
   3   3  13   45.30    1.60
   3   3  13   43.10    1.90
  -4  -3 -13   41.80    1.60
  -4  -3 -13   43.50    1.60
  -4  -3 -13   46.50    2.00
   4   3  13   43.20    2.00
   4   3  13   44.00    2.00
   4   3  13   41.30    1.60
  -5  -3 -13    0.60    0.60
  -5  -3 -13    0.50    0.50
   5   3  13    0.40    0.40
   5   3  13    0.20    0.60
   5   3  13   -0.10    0.40
   5   3  13   -0.40    0.60
  -6  -3 -13   -0.20    0.60
  -6  -3 -13   -0.70    0.60
  -6  -3 -13   -0.50    0.40
   6   3  13   -0.30    0.40
   6   3  13   -0.70    0.50
   6   3  13    0.20    0.40
   6   3  13   -0.40    0.50
  -7  -3 -13    3.70    0.70
  -7  -3 -13    3.20    0.80
  -7  -3 -13    2.60    0.80
   7   3  13    3.10    0.60
   7   3  13    4.60    0.90
   7   3  13    3.80    0.70
  -8  -3 -13    0.70    0.60
  -8  -3 -13    0.60    0.60
  -8  -3 -13    0.50    0.80
   8   3  13    1.20    0.60
   8   3  13    0.90    0.60
   8   3  13   -0.50    0.60
   3  -4 -13    1.20    0.80
  -3   4  13   -0.90    0.70
  -3   4  13   -0.20    0.70
   2  -4 -13    0.20    0.70
   2  -4 -13    0.30    0.50
   2  -4 -13   -0.50    0.40
  -2   4  13    0.40    0.50
  -2   4  13    0.50    0.80
   1  -4 -13    1.20    0.80
   1  -4 -13    1.80    0.60
   1  -4 -13    2.40    0.50
  -1   4  13    2.60    0.90
  -1   4  13    1.90    0.60
   0  -4 -13   21.40    1.20
   0  -4 -13   21.90    1.60
   0  -4 -13   20.30    1.10
   0   4  13   21.70    1.20
   0   4  13   20.10    1.30
   0   4  13   19.70    1.20
   0   4  13   21.90    1.60
  -1  -4 -13   35.70    1.50
  -1  -4 -13   33.70    1.90
   1   4  13   32.20    1.60
   1   4  13   35.00    1.50
   1   4  13   32.90    1.40
   1   4  13   32.50    1.90
  -2  -4 -13   12.40    0.90
  -2  -4 -13   12.10    1.30
   2   4  13   12.60    0.90
   2   4  13   13.20    0.90
   2   4  13   12.30    1.10
   2   4  13   12.40    1.30
  -3  -4 -13   19.00    1.10
  -3  -4 -13   19.10    1.00
  -3  -4 -13   18.70    1.40
   3   4  13   20.30    1.30
   3   4  13   18.90    1.00
   3   4  13   20.30    1.40
  -4  -4 -13   36.80    1.90
  -4  -4 -13   35.70    1.50
  -4  -4 -13   34.30    1.50
   4   4  13   35.40    1.50
   4   4  13   34.90    1.80
   4   4  13   34.00    1.70
  -5  -4 -13   25.70    1.30
  -5  -4 -13   22.80    1.30
  -5  -4 -13   24.80    1.60
   5   4  13   24.30    1.50
   5   4  13   26.50    1.30
   5   4  13   24.90    1.50
  -6  -4 -13   16.90    1.40
  -6  -4 -13   15.20    1.50
  -6  -4 -13   14.00    1.10
   6   4  13   15.00    1.00
   6   4  13   14.60    1.10
   6   4  13   15.00    1.20
   6   4  13   14.90    1.30
  -7  -4 -13    1.10    0.80
  -7  -4 -13    0.60    0.70
  -7  -4 -13    0.20    0.60
   7   4  13    1.70    0.60
   7   4  13    0.30    0.50
   7   4  13    0.40    0.70
  -8  -4 -13   -0.90    0.60
  -8  -4 -13    0.20    0.60
  -8  -4 -13    1.00    0.80
   8   4  13    0.70    0.60
   8   4  13    0.10    0.70
   8   4  13    0.00    0.50
   2  -5 -13    1.80    0.60
   2  -5 -13    0.90    0.50
   2  -5 -13    0.50    0.80
  -2   5  13    0.30    0.80
  -2   5  13    0.70    0.60
   1  -5 -13    4.70    1.00
   1  -5 -13    4.90    0.80
   1  -5 -13    5.60    0.80
  -1   5  13    4.10    0.80
  -1   5  13    5.90    1.20
   0  -5 -13    9.90    1.00
   0  -5 -13    9.50    0.90
   0  -5 -13    6.40    1.10
   0   5  13   10.40    1.30
   0   5  13    9.80    0.90
   0   5  13    9.60    1.00
   0   5  13   12.70    1.00
  -1  -5 -13   21.50    1.20
  -1  -5 -13   22.80    1.60
   1   5  13   18.60    1.50
   1   5  13   18.80    1.20
   1   5  13   18.20    1.20
   1   5  13   20.90    1.20
  -2  -5 -13    0.20    0.70
  -2  -5 -13    0.70    0.50
   2   5  13    0.70    0.50
   2   5  13    1.00    0.50
   2   5  13    1.70    0.70
   2   5  13    1.60    0.50
  -3  -5 -13    9.50    0.90
  -3  -5 -13   12.60    0.90
  -3  -5 -13    9.90    1.20
   3   5  13   10.60    0.90
   3   5  13    8.20    0.90
   3   5  13   10.50    1.20
   3   5  13   10.60    0.90
  -4  -5 -13    8.90    0.90
  -4  -5 -13   10.50    1.30
  -4  -5 -13    7.80    0.80
   4   5  13    7.10    0.80
   4   5  13   10.10    1.00
   4   5  13   10.00    1.10
  -5  -5 -13   22.30    1.30
  -5  -5 -13   20.00    1.30
  -5  -5 -13   21.10    1.60
   5   5  13   19.50    1.40
   5   5  13   22.10    1.50
   5   5  13   22.00    1.20
  -6  -5 -13   22.40    1.40
  -6  -5 -13   22.30    1.60
  -6  -5 -13   22.90    1.40
   6   5  13   23.80    1.30
   6   5  13   21.10    1.60
   6   5  13   23.60    1.30
   6   5  13   22.00    1.40
  -7  -5 -13   -1.20    0.60
  -7  -5 -13    0.20    0.60
  -7  -5 -13    0.00    0.70
   7   5  13   -0.10    0.60
   7   5  13   -0.70    0.40
   7   5  13    0.40    0.70
  -8  -5 -13    3.90    1.00
  -8  -5 -13    2.70    0.80
  -8  -5 -13    5.00    1.00
   8   5  13    3.50    0.80
   8   5  13    3.80    0.90
   8   5  13    2.30    0.70
   1  -6 -13    1.70    0.70
   1  -6 -13    1.60    0.90
   1  -6 -13    1.60    0.70
  -1   6  13    1.20    0.70
  -1   6  13    2.50    1.00
   0  -6 -13    7.80    0.90
   0  -6 -13    8.20    1.30
   0  -6 -13    6.70    0.90
   0   6  13    6.90    1.20
   0   6  13    8.30    0.90
   0   6  13    8.00    1.00
  -1  -6 -13    0.20    0.50
  -1  -6 -13    1.30    0.80
   1   6  13    1.50    0.60
   1   6  13    0.20    0.70
   1   6  13    0.60    0.50
  -2  -6 -13   -0.20    0.40
  -2  -6 -13    0.80    0.70
   2   6  13    0.00    0.40
   2   6  13    0.70    0.70
   2   6  13    0.90    0.50
   2   6  13    0.30    0.40
  -3  -6 -13    6.40    1.20
  -3  -6 -13    4.20    0.70
   3   6  13    4.20    0.70
   3   6  13    4.90    0.80
   3   6  13    5.20    0.70
   3   6  13    3.70    0.90
  -4  -6 -13    3.80    1.00
  -4  -6 -13    4.70    0.80
  -4  -6 -13    3.70    0.80
   4   6  13    3.80    0.80
   4   6  13    3.40    0.80
   4   6  13    4.40    0.70
  -5  -6 -13   -0.90    0.50
  -5  -6 -13    0.40    0.80
  -5  -6 -13   -0.40    0.40
   5   6  13    0.00    0.60
   5   6  13    0.50    0.60
   5   6  13    0.30    0.50
  -6  -6 -13    1.10    0.70
  -6  -6 -13    2.70    1.00
  -6  -6 -13    1.60    0.70
   6   6  13    2.70    0.80
   6   6  13    2.20    0.70
  -7  -6 -13    0.40    0.70
  -7  -6 -13   -0.60    0.50
  -7  -6 -13    0.30    0.70
   7   6  13    0.90    0.70
   7   6  13    0.50    0.60
   7   6  13   -0.90    0.50
  -8  -6 -13    6.80    1.10
  -8  -6 -13    6.60    1.10
  -8  -6 -13    9.60    1.40
   8   6  13    8.90    1.10
   8   6  13    9.70    1.30
   8   6  13    9.60    1.10
   0  -7 -13    1.10    0.70
   0  -7 -13    1.00    0.60
   0  -7 -13    0.90    0.80
   0   7  13    1.30    0.60
   0   7  13    0.80    1.00
   0   7  13    1.10    0.60
  -1  -7 -13   -0.40    0.50
  -1  -7 -13   -0.10    0.80
   1   7  13    1.00    0.60
   1   7  13   -0.40    0.70
   1   7  13    1.00    0.60
  -2  -7 -13    1.70    0.90
  -2  -7 -13    2.20    0.70
   2   7  13    2.60    0.90
   2   7  13    1.70    0.60
   2   7  13    3.10    0.70
  -3  -7 -13    0.90    0.60
  -3  -7 -13    1.70    0.80
   3   7  13    0.80    0.60
   3   7  13    1.80    0.60
   3   7  13    1.50    0.80
   3   7  13    1.10    0.60
  -4  -7 -13    1.90    0.90
  -4  -7 -13    1.20    0.70
  -4  -7 -13    1.90    0.70
   4   7  13    1.80    0.80
   4   7  13    1.20    0.60
   4   7  13    1.90    0.70
  -5  -7 -13    1.60    0.70
  -5  -7 -13    0.40    0.60
  -5  -7 -13    0.90    0.80
   5   7  13    0.10    0.70
   5   7  13    0.40    0.60
   5   7  13   -0.70    0.50
  -6  -7 -13   -1.00    0.80
  -6  -7 -13   -0.30    0.50
  -6  -7 -13   -0.40    0.60
   6   7  13   -0.20    0.60
   6   7  13   -1.40    0.60
  -7  -7 -13    0.20    0.80
  -7  -7 -13   -0.90    0.60
  -7  -7 -13   -0.60    0.60
  -7  -7 -13    0.80    0.90
   7   7  13    0.00    0.60
   7   7  13    0.00    0.70
   7   7  13   -0.10    0.60
  -1  -8 -13    0.00    0.60
  -1  -8 -13    0.10    0.80
   1   8  13   -0.10    0.50
   1   8  13   -0.90    0.80
   1   8  13    0.20    0.60
  -2  -8 -13    0.80    0.60
  -2  -8 -13    1.20    0.90
   2   8  13    1.30    0.90
   2   8  13    1.30    0.70
   2   8  13    1.60    0.70
  -3  -8 -13    4.50    0.90
  -3  -8 -13    4.90    1.10
   3   8  13    5.60    1.20
   3   8  13    4.70    0.90
   3   8  13    4.30    0.90
  -4  -8 -13    1.30    0.70
  -4  -8 -13    2.20    0.80
  -4  -8 -13    0.70    0.90
   4   8  13    0.90    0.60
   4   8  13    2.00    0.90
   4   8  13    2.10    0.70
  -5  -8 -13    0.10    0.80
  -5  -8 -13    0.00    0.60
  -5  -8 -13    0.30    0.60
   5   8  13   -0.50    0.60
   5   8  13    1.00    0.80
   5   8  13    0.80    0.60
  -6  -8 -13    1.40    1.00
  -6  -8 -13   -0.70    0.60
  -6  -8 -13   -0.20    0.60
   6   8  13   -0.50    0.60
   6   8  13    0.00    0.70
   1   8 -14    0.40    1.00
   1   8 -14    1.10    0.90
  -1  -8  14    2.30    1.00
  -1  -8  14    0.70    0.90
   0   8 -14    2.10    1.10
   0  -8  14    5.20    1.30
   3   7 -14    2.50    1.00
   3   7 -14    2.80    0.90
  -3  -7  14    2.20    0.90
  -3  -7  14    2.40    1.00
   2   7 -14    5.80    1.10
   2   7 -14    9.10    1.40
  -2  -7  14    7.10    1.30
  -2  -7  14    7.00    1.30
   1   7 -14    7.20    1.20
   1   7 -14    8.20    1.30
  -1  -7  14    6.80    1.20
  -1  -7  14    6.90    1.20
   0   7 -14    1.90    0.90
   0  -7  14    1.90    1.00
  -1   7 -14    0.30    0.80
   1  -7  14    1.90    0.90
  -2   7 -14    0.70    1.30
  -2   7 -14    0.10    0.80
   2  -7  14    2.70    1.00
  -3   7 -14    0.10    0.90
  -3   7 -14   -0.90    0.80
   3  -7  14    1.50    0.90
   3  -7  14    0.00    0.70
   3   6 -14    0.40    0.90
  -3  -6  14    0.70    0.80
  -3  -6  14    0.40    0.70
   2   6 -14    3.50    1.00
   2   6 -14    3.40    0.90
  -2  -6  14    3.30    1.00
  -2  -6  14    4.30    1.20
   1   6 -14   19.50    1.80
   1   6 -14   22.10    1.80
  -1  -6  14   15.60    1.70
  -1  -6  14   16.80    1.70
   0   6 -14   21.20    1.80
   0   6 -14   23.20    1.70
   0  -6  14   21.90    1.80
   0  -6  14   18.50    1.80
  -1   6 -14    4.70    1.00
  -1   6 -14    4.30    0.90
   1  -6  14    6.40    1.20
  -2   6 -14    7.50    1.30
  -2   6 -14    7.80    1.10
   2  -6  14    8.90    1.00
   2  -6  14    8.30    1.00
   2  -6  14    9.00    1.30
  -3   6 -14    2.00    0.80
   3  -6  14    2.20    0.70
   3  -6  14    1.90    0.60
   3  -6  14    1.40    0.80
  -4   6 -14    1.00    0.80
   4  -6  14    0.20    0.90
   4  -6  14    0.90    0.80
   4   5 -14   -0.40    0.80
  -4  -5  14   -0.10    0.90
   3   5 -14    1.40    0.90
  -3  -5  14    2.70    1.00
  -3  -5  14    2.70    0.80
   2   5 -14    3.20    1.00
   2   5 -14    3.10    0.80
  -2  -5  14    3.20    1.00
  -2  -5  14    4.50    1.10
   1   5 -14   37.50    2.10
   1   5 -14   36.50    2.10
   1   5 -14   34.00    2.00
  -1  -5  14   37.40    2.10
  -1  -5  14   34.90    2.20
   0   5 -14    4.00    0.90
   0   5 -14    4.40    0.90
   0   5 -14    4.60    0.80
   0  -5  14    2.40    0.90
   0  -5  14    4.50    1.00
  -1   5 -14    1.60    0.60
  -1   5 -14    1.50    0.70
   1  -5  14    1.20    0.50
   1  -5  14    1.70    0.60
   1  -5  14    1.30    0.80
  -2   5 -14    0.40    0.60
   2  -5  14    0.30    0.50
   2  -5  14    0.20    0.50
   2  -5  14    0.90    0.80
  -3   5 -14    1.30    0.70
   3  -5  14    0.90    0.80
   3  -5  14    2.00    0.70
   3  -5  14    2.70    0.70
  -4   5 -14    0.20    0.70
   4  -5  14    0.50    0.90
   4  -5  14   -1.40    0.60
   4  -5  14    0.40    0.50
  -5   5 -14    0.80    0.80
   5  -5  14   -0.50    0.70
   4   4 -14    0.00    0.90
  -4  -4  14    0.40    0.60
  -4  -4  14   -0.20    0.90
   3   4 -14    3.00    1.00
  -3  -4  14    2.90    0.90
  -3  -4  14    2.70    1.00
   2   4 -14   -0.10    0.70
  -2  -4  14   -0.10    0.70
  -2  -4  14   -0.30    0.70
   1   4 -14    0.20    0.40
   1   4 -14    0.00    0.50
   1   4 -14    0.80    0.50
   1   4 -14    0.10    0.50
  -1  -4  14    0.40    0.60
  -1  -4  14    0.70    0.80
  -1  -4  14    0.60    0.70
   0   4 -14    1.80    0.60
   0   4 -14    1.50    0.60
   0   4 -14    1.50    0.60
   0   4 -14    1.80    0.60
   0   4 -14    1.30    0.60
   0  -4  14    1.00    0.70
   0  -4  14    1.70    0.80
   0  -4  14    1.80    0.80
  -1   4 -14    1.10    0.60
  -1   4 -14   -0.10    0.50
  -1   4 -14   -0.40    0.40
  -1   4 -14    0.90    0.60
   1  -4  14    1.00    0.50
   1  -4  14    0.30    0.60
   1  -4  14    0.80    0.60
  -2   4 -14    5.00    0.90
  -2   4 -14    4.60    0.90
   2  -4  14    4.80    0.80
   2  -4  14    4.70    0.80
   2  -4  14    3.70    0.90
  -3   4 -14    1.70    0.80
   3  -4  14   -0.30    0.70
   3  -4  14   -0.10    0.60
   3  -4  14   -0.10    0.50
  -4   4 -14    1.70    0.90
   4  -4  14    0.90    0.60
   4  -4  14    0.20    0.70
  -5   4 -14    4.90    1.20
   5  -4  14    4.10    0.80
   5  -4  14    3.90    1.10
  -6   4 -14   11.00    1.50
   6  -4  14    9.30    1.30
   6  -4  14   13.20    1.30
   4   3 -14    1.50    1.00
  -4  -3  14    2.50    1.20
  -4  -3  14    2.10    0.80
   3   3 -14   -0.20    0.70
  -3  -3  14    0.20    0.60
  -3  -3  14    0.60    0.90
   2   3 -14    0.20    0.60
  -2  -3  14    0.60    0.60
  -2  -3  14    0.50    0.70
   1   3 -14    8.10    0.90
   1   3 -14    8.50    1.00
  -1  -3  14    8.20    1.10
  -1  -3  14    8.40    1.20
   0   3 -14    0.30    0.50
   0   3 -14   -0.40    0.50
   0   3 -14    0.30    0.40
   0   3 -14   -0.60    0.40
   0  -3  14   -0.10    0.60
   0  -3  14   -0.40    0.60
   0  -3  14   -0.90    0.50
  -1   3 -14   17.10    1.20
  -1   3 -14   16.60    1.30
  -1   3 -14   16.30    1.20
  -1   3 -14   14.90    1.20
  -1   3 -14   13.80    1.20
   1  -3  14   15.30    1.20
   1  -3  14   15.00    1.40
  -2   3 -14   -0.10    0.50
  -2   3 -14   -0.20    0.50
  -2   3 -14    0.00    0.60
   2  -3  14   -0.90    0.40
   2  -3  14    1.10    0.50
   2  -3  14    0.20    0.70
  -3   3 -14    0.80    0.70
   3  -3  14    1.50    0.60
   3  -3  14   -1.20    0.60
  -4   3 -14   35.20    2.20
   4  -3  14   32.60    1.70
   4  -3  14   34.30    1.90
  -5   3 -14   21.20    2.00
   5  -3  14   21.70    1.70
   5  -3  14   19.10    1.40
  -6   3 -14    6.90    1.30
   6  -3  14    6.30    1.00
   6  -3  14    6.80    1.20
   4   2 -14   -1.20    0.80
  -4  -2  14    0.30    0.70
  -4  -2  14   -1.50    0.80
   3   2 -14   16.30    1.60
  -3  -2  14   17.90    1.70
  -3  -2  14   15.40    1.60
   2   2 -14    1.10    0.60
  -2  -2  14   -0.10    0.60
  -2  -2  14   -0.40    0.70
   1   2 -14   25.60    1.50
   1   2 -14   27.90    1.70
  -1  -2  14   29.90    2.00
  -1  -2  14   25.40    1.70
   0   2 -14    3.80    0.70
   0   2 -14    5.20    0.90
   0   2 -14    4.50    0.70
   0   2 -14    5.60    0.80
   0  -2  14    5.10    1.00
   0  -2  14    5.20    0.90
   0  -2  14    3.80    0.90
  -1   2 -14   59.29    2.30
  -1   2 -14   55.89    2.20
  -1   2 -14   58.89    2.30
   1  -2  14   61.49    2.40
   1  -2  14   57.89    2.50
  -2   2 -14    1.00    0.50
  -2   2 -14   -0.60    0.60
  -2   2 -14    0.10    0.40
   2  -2  14   -0.10    0.50
   2  -2  14   -0.50    0.50
  -3   2 -14    0.30    0.70
  -3   2 -14    0.40    0.50
   3  -2  14    0.90    0.50
   3  -2  14    1.60    0.80
   3  -2  14    0.50    0.60
  -4   2 -14    8.80    1.20
   4  -2  14   11.10    1.20
   4  -2  14   11.90    1.10
  -5   2 -14    2.40    0.90
   5  -2  14    1.80    0.90
   5  -2  14    1.80    0.80
  -6   2 -14    0.10    0.80
   6  -2  14    0.80    0.70
   6  -2  14   -0.90    0.50
  -7   2 -14    1.40    0.90
   7  -2  14    3.20    0.90
   7  -2  14    0.40    0.70
   4   1 -14   -1.10    0.90
   4   1 -14   -0.50    0.80
  -4  -1  14    1.00    0.70
  -4  -1  14    0.20    0.80
   3   1 -14   -0.70    0.70
   3   1 -14   -1.40    0.60
  -3  -1  14   -0.10    0.80
  -3  -1  14   -0.50    0.60
   2   1 -14   18.20    1.60
   2   1 -14   13.80    1.30
  -2  -1  14   15.00    1.40
  -2  -1  14   14.60    1.60
   1   1 -14   17.50    1.30
   1   1 -14   15.70    1.20
  -1  -1  14   17.40    1.40
  -1  -1  14   17.80    1.60
   0   1 -14   25.70    1.40
   0   1 -14   26.60    1.50
   0  -1  14   26.60    1.90
   0  -1  14   26.20    1.70
   0  -1  14   27.40    1.50
  -1   1 -14   23.90    1.30
  -1   1 -14   21.60    1.20
  -1   1 -14   23.10    1.40
   1  -1  14   23.30    1.40
   1  -1  14   21.90    1.50
  -2   1 -14    1.80    0.60
  -2   1 -14    2.60    0.70
  -2   1 -14    2.40    0.50
   2  -1  14    2.20    0.70
   2  -1  14    3.80    0.80
  -3   1 -14   11.20    1.20
  -3   1 -14   11.40    1.00
   3  -1  14   10.60    1.20
   3  -1  14   10.10    1.00
  -4   1 -14    6.80    1.00
  -4   1 -14    6.70    0.80
   4  -1  14    6.80    0.90
   4  -1  14    9.40    1.10
   4  -1  14    6.80    1.00
  -5   1 -14   23.60    1.70
   5  -1  14   20.10    1.40
   5  -1  14   22.50    1.60
  -6   1 -14    2.70    0.90
   6  -1  14    2.00    0.80
   6  -1  14    1.50    0.70
  -7   1 -14    0.50    0.80
   7  -1  14   -1.00    0.40
   7  -1  14    0.20    0.70
   4   0 -14    0.80    0.80
  -4   0  14    1.90    0.80
  -4   0  14   -0.50    0.80
   3   0 -14    3.10    1.00
  -3   0  14    2.60    0.80
  -3   0  14    3.20    1.00
   2   0 -14   25.40    1.80
  -2   0  14   24.10    1.80
  -2   0  14   26.00    1.70
   1   0 -14    5.70    1.00
  -1   0  14    6.30    1.10
  -1   0  14    5.60    1.00
   0   0 -14   27.80    1.60
   0   0  14   24.30    1.50
   0   0  14   24.80    1.60
   0   0  14   25.00    1.80
  -1   0 -14   10.90    1.20
   1   0  14    8.70    1.00
   1   0  14   10.40    1.20
  -2   0 -14   17.50    1.10
  -2   0 -14   16.50    1.20
   2   0  14   16.80    1.30
   2   0  14   18.00    1.20
  -3   0 -14   -0.60    0.50
   3   0  14    0.60    0.50
   3   0  14    0.80    0.70
  -4   0 -14   -0.70    0.50
  -4   0 -14   -0.40    0.40
   4   0  14    0.00    0.50
   4   0  14   -1.00    0.40
  -5   0 -14   -1.00    0.60
   5   0  14   -0.70    0.50
   5   0  14    0.50    0.60
   5   0  14   -0.30    0.50
  -6   0 -14    6.00    1.10
   6   0  14    6.40    1.00
   6   0  14    7.10    1.10
  -7   0 -14    8.60    1.30
   7   0  14    9.10    1.20
   7   0  14    9.20    1.20
  -8   0 -14    3.10    1.10
   8   0  14    2.60    0.90
   8   0  14    1.90    0.90
   4  -1 -14    2.30    0.90
  -4   1  14    2.60    0.90
  -4   1  14    2.10    0.90
   3  -1 -14    8.40    1.40
  -3   1  14    9.50    1.30
  -3   1  14   11.70    1.40
   2  -1 -14   17.70    1.70
  -2   1  14   16.90    1.60
  -2   1  14   15.70    1.60
   1  -1 -14   27.80    1.70
  -1   1  14   27.50    1.80
  -1   1  14   31.70    2.00
   0  -1 -14    7.00    1.00
   0   1  14    6.50    0.90
   0   1  14    7.50    1.10
  -1  -1 -14    5.90    0.90
   1   1  14    7.60    0.90
   1   1  14    6.90    1.00
  -2  -1 -14    5.30    0.90
   2   1  14    4.00    0.80
   2   1  14    4.10    0.70
  -3  -1 -14   19.20    1.30
   3   1  14   17.50    1.30
   3   1  14   19.10    1.30
  -4  -1 -14    1.40    0.60
   4   1  14    0.20    0.60
   4   1  14    0.30    0.50
  -5  -1 -14   26.10    1.50
  -5  -1 -14   25.60    1.80
   5   1  14   28.20    1.70
   5   1  14   25.50    1.50
  -6  -1 -14   35.10    2.20
   6   1  14   33.20    1.90
   6   1  14   33.50    1.80
  -7  -1 -14   12.10    1.50
   7   1  14   13.80    1.40
   7   1  14   14.40    1.40
  -8  -1 -14    2.60    1.10
   8   1  14    1.70    0.90
   8   1  14    1.30    0.80
   3  -2 -14    3.10    1.00
  -3   2  14    3.40    0.90
  -3   2  14    2.70    0.90
   2  -2 -14    5.50    1.10
  -2   2  14    3.00    0.90
  -2   2  14    4.60    1.00
   1  -2 -14    0.50    0.80
  -1   2  14    0.10    0.70
   0  -2 -14   48.20    2.30
   0   2  14   44.10    2.00
   0   2  14   42.50    2.20
  -1  -2 -14   18.60    1.40
   1   2  14   18.10    1.40
   1   2  14   21.00    1.30
  -2  -2 -14    8.80    1.10
   2   2  14    8.90    1.10
   2   2  14    7.10    0.90
  -3  -2 -14    0.10    0.60
   3   2  14    0.20    0.50
   3   2  14    0.90    0.60
  -4  -2 -14    2.30    0.70
   4   2  14    2.40    0.80
   4   2  14    2.80    0.70
  -5  -2 -14   31.90    2.00
  -5  -2 -14   33.60    1.70
   5   2  14   32.40    1.80
   5   2  14   30.20    1.70
  -6  -2 -14   72.19    3.00
  -6  -2 -14   73.39    2.70
   6   2  14   57.29    2.80
   6   2  14   77.79    2.90
   6   2  14   74.59    2.80
  -7  -2 -14   26.70    2.00
   7   2  14   27.20    1.70
  -8  -2 -14   20.90    1.80
   8   2  14   23.30    1.70
   3  -3 -14    1.90    0.90
  -3   3  14    2.30    0.90
   2  -3 -14    1.00    0.80
  -2   3  14    1.30    0.80
   1  -3 -14    8.70    1.20
  -1   3  14    9.10    1.20
   0  -3 -14   10.10    1.30
   0   3  14   11.30    1.30
   0   3  14   11.30    1.10
  -1  -3 -14    5.90    1.00
   1   3  14    5.30    0.80
   1   3  14    5.20    1.00
  -2  -3 -14    0.40    0.70
   2   3  14    0.30    0.30
   2   3  14    0.70    0.60
   2   3  14   -0.40    0.30
   2   3  14    0.80    0.60
  -3  -3 -14   -0.20    0.30
  -3  -3 -14    0.70    0.70
  -3  -3 -14    0.40    0.40
   3   3  14    0.20    0.60
   3   3  14   -0.40    0.30
   3   3  14    0.60    0.60
  -4  -3 -14    2.90    0.50
  -4  -3 -14    3.30    0.50
  -4  -3 -14    3.70    0.80
   4   3  14    3.30    0.50
   4   3  14    2.70    0.80
   4   3  14    1.80    0.60
  -5  -3 -14    2.10    0.80
  -5  -3 -14    0.80    0.50
   5   3  14    1.40    0.70
   5   3  14    0.40    0.40
   5   3  14    1.40    0.70
   5   3  14    0.40    0.40
  -6  -3 -14   26.70    1.40
  -6  -3 -14   29.10    1.70
  -6  -3 -14   30.20    2.00
   6   3  14   23.30    1.20
   6   3  14   25.40    1.60
   6   3  14   26.10    1.30
   6   3  14   23.90    1.60
  -7  -3 -14    4.60    0.90
  -7  -3 -14    5.00    1.10
  -7  -3 -14    5.60    0.90
   7   3  14    5.60    1.00
   7   3  14    6.30    0.80
   7   3  14    4.90    0.70
  -8  -3 -14    0.60    0.70
  -8  -3 -14    1.10    0.90
   8   3  14    0.40    0.60
   8   3  14    1.40    0.80
   2  -4 -14    9.50    1.40
  -2   4  14    9.00    1.40
   1  -4 -14    0.80    0.80
  -1   4  14    0.20    0.80
   0  -4 -14   13.00    1.40
   0   4  14   13.70    1.00
   0   4  14   15.50    1.20
   0   4  14   13.90    1.00
   0   4  14   15.30    1.50
  -1  -4 -14   14.50    1.00
  -1  -4 -14   13.20    1.40
   1   4  14   13.20    0.90
   1   4  14   14.20    0.90
   1   4  14   16.20    1.50
   1   4  14   13.00    1.10
  -2  -4 -14    0.00    0.70
  -2  -4 -14    0.20    0.40
   2   4  14    0.10    0.60
   2   4  14   -0.10    0.40
   2   4  14   -0.40    0.30
   2   4  14   -0.10    0.50
  -3  -4 -14    7.60    0.80
  -3  -4 -14   10.70    1.20
  -3  -4 -14    7.00    0.70
   3   4  14    7.50    0.90
   3   4  14    8.40    0.80
   3   4  14    6.80    1.00
  -4  -4 -14   11.00    1.30
  -4  -4 -14    9.60    0.90
  -4  -4 -14    9.80    0.90
   4   4  14   11.10    0.80
   4   4  14    9.80    1.10
   4   4  14    9.70    1.00
  -5  -4 -14   11.40    1.30
  -5  -4 -14   12.30    1.00
  -5  -4 -14   11.60    1.00
   5   4  14   11.50    1.20
   5   4  14   11.70    0.80
   5   4  14   11.90    1.20
   5   4  14   11.00    0.90
  -6  -4 -14    1.90    0.80
  -6  -4 -14    0.00    0.50
  -6  -4 -14    1.40    0.80
   6   4  14    0.40    0.50
   6   4  14    1.20    0.60
   6   4  14    0.80    0.60
   6   4  14    0.40    0.50
  -7  -4 -14    0.20    0.70
  -7  -4 -14   -0.50    0.50
  -7  -4 -14    1.10    0.80
   7   4  14    0.30    0.60
   7   4  14   -0.10    0.40
   7   4  14    0.30    0.50
  -8  -4 -14    3.40    1.00
  -8  -4 -14    4.00    0.90
  -8  -4 -14    2.60    0.80
   8   4  14    4.50    0.80
   8   4  14    3.80    0.80
   8   4  14    2.70    0.90
  -2   5  14    6.40    1.20
   1  -5 -14    7.70    1.30
  -1   5  14    8.10    1.00
  -1   5  14   10.00    1.40
  -1   5  14    7.60    1.30
   0  -5 -14    6.00    0.80
   0  -5 -14    8.30    1.30
   0  -5 -14    7.40    0.80
   0   5  14    6.70    0.90
   0   5  14    6.70    0.80
   0   5  14    5.70    1.20
  -1  -5 -14    0.00    0.80
  -1  -5 -14    0.40    0.50
   1   5  14   -0.70    0.30
   1   5  14    0.30    0.50
   1   5  14   -0.70    0.40
   1   5  14    0.00    0.70
  -2  -5 -14    0.70    0.80
  -2  -5 -14    0.50    0.50
   2   5  14   -0.20    0.50
   2   5  14    1.50    0.50
   2   5  14    0.30    0.40
   2   5  14    0.90    0.80
  -3  -5 -14   17.00    1.10
  -3  -5 -14   19.70    1.70
  -3  -5 -14   18.60    1.20
   3   5  14   15.70    1.40
   3   5  14   17.70    1.10
   3   5  14   16.50    1.30
   3   5  14   17.40    1.10
  -4  -5 -14   16.10    1.20
  -4  -5 -14   20.60    1.70
  -4  -5 -14   16.00    1.10
   4   5  14   19.70    1.50
   4   5  14   17.50    1.30
   4   5  14   17.10    1.10
  -5  -5 -14    6.80    0.80
  -5  -5 -14    4.90    0.80
  -5  -5 -14    5.80    1.10
   5   5  14    5.90    0.80
   5   5  14    5.30    0.90
   5   5  14    5.70    1.00
  -6  -5 -14    2.70    0.70
  -6  -5 -14    3.10    0.80
  -6  -5 -14    3.50    1.00
   6   5  14    3.60    0.70
   6   5  14    2.00    0.60
   6   5  14    2.30    0.80
   6   5  14    5.30    0.90
  -7  -5 -14   -0.80    0.50
  -7  -5 -14    0.20    0.80
  -7  -5 -14    1.20    0.80
   7   5  14   -0.80    0.60
   7   5  14   -0.30    0.50
   7   5  14   -0.20    0.50
  -8  -5 -14    2.90    0.80
  -8  -5 -14    1.70    0.80
  -8  -5 -14    4.60    1.00
   8   5  14    1.10    0.60
   8   5  14    3.80    1.00
   8   5  14    0.90    0.60
   1  -6 -14    1.90    0.70
   1  -6 -14    2.70    0.80
   1  -6 -14    1.30    0.90
  -1   6  14    3.20    0.80
  -1   6  14    2.70    0.80
  -1   6  14    3.40    1.10
   0  -6 -14   -0.20    0.80
   0  -6 -14    0.30    0.60
   0  -6 -14    0.80    0.60
   0   6  14    0.20    0.50
   0   6  14   -0.30    0.50
   0   6  14    0.30    0.90
  -1  -6 -14    0.80    0.80
  -1  -6 -14    0.40    0.50
   1   6  14    0.50    0.80
   1   6  14    0.60    0.50
   1   6  14    0.70    0.50
  -2  -6 -14    0.30    0.80
  -2  -6 -14   -0.50    0.50
   2   6  14   -0.20    0.70
   2   6  14    0.40    0.50
   2   6  14   -0.30    0.40
   2   6  14    0.50    0.50
  -3  -6 -14   -0.20    0.50
  -3  -6 -14    0.70    0.50
  -3  -6 -14   -0.30    0.80
   3   6  14    0.50    0.50
   3   6  14    0.00    0.80
   3   6  14    0.60    0.50
   3   6  14    0.10    0.50
  -4  -6 -14    9.60    1.10
  -4  -6 -14   10.50    1.40
  -4  -6 -14    8.50    1.00
   4   6  14    9.30    1.10
   4   6  14    8.80    0.90
   4   6  14    8.20    1.20
  -5  -6 -14   -0.30    0.50
  -5  -6 -14   -0.20    0.70
  -5  -6 -14    0.10    0.60
   5   6  14    0.40    0.50
   5   6  14    0.60    0.70
   5   6  14    0.50    0.70
  -6  -6 -14   14.80    1.20
  -6  -6 -14   16.70    1.30
  -6  -6 -14   16.50    1.70
   6   6  14   15.20    1.20
   6   6  14   14.80    1.50
  -7  -6 -14    1.30    0.90
  -7  -6 -14    1.60    0.80
  -7  -6 -14    1.70    1.00
   7   6  14    1.90    0.70
   7   6  14    2.40    0.70
   7   6  14    1.50    0.80
  -1  -7 -14    0.70    0.80
  -1  -7 -14    0.30    0.60
   1   7  14    0.60    0.50
   1   7  14    0.20    0.90
   1   7  14    1.60    0.70
  -2  -7 -14   -0.20    0.50
  -2  -7 -14   -0.20    0.80
   2   7  14   -1.20    0.70
   2   7  14    0.00    0.50
   2   7  14   -0.20    0.50
  -3  -7 -14    3.60    0.80
  -3  -7 -14    3.30    1.00
   3   7  14    3.70    1.00
   3   7  14    3.40    0.70
   3   7  14    3.10    0.70
  -4  -7 -14    1.20    0.60
  -4  -7 -14    1.40    0.70
  -4  -7 -14    0.70    0.90
   4   7  14    0.50    0.60
   4   7  14    1.20    0.90
   4   7  14    0.30    0.50
  -5  -7 -14   11.20    1.10
  -5  -7 -14   10.80    1.20
  -5  -7 -14   16.40    1.70
   5   7  14   10.50    1.20
   5   7  14    9.60    1.10
   5   7  14   11.80    1.40
  -6  -7 -14   10.10    1.20
  -6  -7 -14   12.50    1.60
  -6  -7 -14   10.80    1.30
   6   7  14   10.60    1.30
   6   7  14   12.60    1.20
  -7  -7 -14    1.80    0.80
  -7  -7 -14    3.00    1.00
  -7  -7 -14    2.30    0.90
  -7  -7 -14    1.90    0.80
   7   7  14    0.90    0.60
   7   7  14    2.30    0.80
  -3  -8 -14    0.10    0.60
  -3  -8 -14    0.50    0.80
   3   8  14    1.50    0.60
   3   8  14   -0.30    0.70
   3   8  14   -0.40    0.60
  -4  -8 -14    1.60    0.70
  -4  -8 -14    2.30    0.80
  -4  -8 -14    0.90    0.90
   4   8  14    1.60    0.70
   4   8  14    0.80    0.90
  -5  -8 -14    1.10    1.00
  -5  -8 -14    1.40    0.70
  -5  -8 -14    1.30    0.70
   5   8  14    2.50    0.90
   5   8  14    1.40    0.60
   1   7 -15   -1.00    0.80
   1   7 -15    0.20    0.80
  -1  -7  15   -0.90    0.90
  -1  -7  15    0.00    0.90
   0   7 -15   -2.50    0.70
   0   7 -15    0.60    0.80
   0  -7  15    2.00    1.00
  -1   7 -15    5.60    1.40
   1  -7  15    6.70    1.40
   2   6 -15    1.90    1.30
   2   6 -15    2.00    1.00
  -2  -6  15    2.90    1.00
  -2  -6  15    2.40    1.10
   1   6 -15    1.10    0.80
   1   6 -15    2.10    0.90
  -1  -6  15    0.30    0.80
  -1  -6  15    1.30    0.90
   0   6 -15    0.50    0.70
   0   6 -15    1.50    0.80
   0  -6  15    0.20    0.80
  -1   6 -15    1.50    0.80
   1  -6  15    1.30    0.90
  -2   6 -15    1.80    0.90
  -2   6 -15    5.40    1.00
   2  -6  15    5.10    1.20
   2  -6  15    5.70    0.90
  -3   6 -15    1.30    0.90
   3  -6  15    2.80    0.70
   3  -6  15    1.00    0.70
   3  -6  15    2.40    1.10
   3   5 -15    0.30    0.90
  -3  -5  15   -0.50    0.90
   2   5 -15    1.60    0.90
  -2  -5  15   -0.20    0.70
  -2  -5  15    1.20    0.90
   1   5 -15    1.70    0.90
   1   5 -15    0.40    0.70
  -1  -5  15    1.10    0.90
  -1  -5  15    1.40    1.00
   0   5 -15    4.50    0.90
   0   5 -15    4.70    1.00
   0   5 -15    5.30    1.00
   0  -5  15    5.40    1.20
   0  -5  15    4.40    1.20
  -1   5 -15    1.00    0.70
  -1   5 -15    0.70    0.70
   1  -5  15    1.40    0.70
   1  -5  15    0.90    0.90
  -2   5 -15    1.90    0.80
  -2   5 -15    1.40    0.80
   2  -5  15    1.70    0.60
   2  -5  15    4.10    1.00
   2  -5  15    0.70    0.70
  -3   5 -15    0.50    0.80
   3  -5  15    1.20    0.70
   3  -5  15    0.30    0.50
   3  -5  15    1.90    0.90
  -4   5 -15   -0.30    0.80
   4  -5  15   -0.10    0.50
   4  -5  15    0.70    0.70
   4  -5  15    1.00    1.00
   3   4 -15   -0.70    0.80
  -3  -4  15    0.70    0.80
  -3  -4  15   -0.20    0.90
   2   4 -15    0.20    0.70
  -2  -4  15    1.50    0.90
  -2  -4  15    0.50    0.70
   1   4 -15    5.30    1.00
  -1  -4  15    6.50    1.20
  -1  -4  15    6.00    1.10
   0   4 -15    1.90    0.70
   0   4 -15    2.10    0.70
   0   4 -15    1.00    0.60
   0   4 -15    1.70    0.70
   0   4 -15    2.40    0.70
   0  -4  15    1.70    0.90
   0  -4  15    3.40    0.90
   0  -4  15    1.30    0.80
  -1   4 -15    3.20    0.70
  -1   4 -15    3.70    0.70
  -1   4 -15    2.20    0.70
  -1   4 -15    2.70    0.70
  -1   4 -15    2.10    0.80
   1  -4  15    1.50    0.80
   1  -4  15    2.10    0.80
  -2   4 -15    0.40    0.60
   2  -4  15    0.50    0.50
   2  -4  15    0.30    0.80
   2  -4  15   -0.40    0.50
  -3   4 -15    0.20    0.60
   3  -4  15    0.00    0.60
   3  -4  15   -0.40    0.50
  -4   4 -15   26.10    1.90
   4  -4  15   25.20    1.60
   4  -4  15   27.80    1.70
  -5   4 -15    2.30    1.00
   5  -4  15    2.60    0.90
   5  -4  15    3.50    0.80
   4   3 -15    2.30    1.00
  -4  -3  15    3.10    0.90
  -4  -3  15    4.10    1.20
   3   3 -15    1.80    0.90
  -3  -3  15    4.20    1.00
  -3  -3  15    1.40    0.90
   2   3 -15   -1.20    0.70
  -2  -3  15    0.00    0.70
  -2  -3  15    0.00    0.60
   1   3 -15    2.00    0.80
   1   3 -15    2.20    0.70
  -1  -3  15    2.10    0.80
  -1  -3  15    2.90    0.90
   0   3 -15   -0.30    0.60
   0   3 -15    0.20    0.50
   0   3 -15    0.00    0.50
   0  -3  15   -0.80    0.60
   0  -3  15    0.00    0.60
   0  -3  15   -0.90    0.50
  -1   3 -15    1.60    0.60
  -1   3 -15    1.40    0.60
  -1   3 -15    1.50    0.60
  -1   3 -15    1.10    0.60
  -1   3 -15    0.90    0.50
   1  -3  15    1.30    0.60
   1  -3  15    0.30    0.60
  -2   3 -15    1.70    0.60
  -2   3 -15    1.00    0.60
  -2   3 -15    1.70    0.80
   2  -3  15    1.50    0.60
   2  -3  15    0.60    0.70
  -3   3 -15    7.00    1.10
  -3   3 -15    7.70    1.10
   3  -3  15    7.60    1.00
   3  -3  15    6.70    1.00
  -4   3 -15   29.30    2.10
   4  -3  15   30.40    1.90
   4  -3  15   31.70    1.70
  -5   3 -15   21.30    1.90
   5  -3  15   19.10    1.70
   5  -3  15   23.00    1.60
  -6   3 -15    3.60    1.10
   6  -3  15    5.80    1.00
   6  -3  15    4.30    1.10
   4   2 -15   -1.50    0.80
   4   2 -15    0.70    0.90
  -4  -2  15    0.00    0.80
  -4  -2  15    1.30    0.70
   3   2 -15    1.40    0.90
   3   2 -15    3.00    1.00
  -3  -2  15    1.70    0.80
  -3  -2  15    2.50    1.10
   2   2 -15    9.60    1.30
   2   2 -15    9.00    1.20
  -2  -2  15   11.10    1.40
  -2  -2  15   10.30    1.50
   1   2 -15    0.80    0.70
   1   2 -15   -0.10    0.50
  -1  -2  15    0.50    0.60
  -1  -2  15   -0.20    0.70
   0   2 -15   -0.40    0.60
   0   2 -15    0.20    0.50
   0  -2  15    0.10    0.60
   0  -2  15    0.10    0.70
   0  -2  15   -0.60    0.50
  -1   2 -15   11.10    1.00
  -1   2 -15   11.00    1.10
  -1   2 -15   11.90    1.00
   1  -2  15   11.90    1.20
   1  -2  15   10.40    1.30
  -2   2 -15   12.80    1.20
  -2   2 -15   10.60    1.30
  -2   2 -15   13.50    1.10
  -2   2 -15   12.10    1.30
   2  -2  15   14.10    1.20
   2  -2  15   12.70    1.40
  -3   2 -15   58.39    2.70
  -3   2 -15   61.49    2.30
   3  -2  15   57.29    2.40
   3  -2  15   57.19    2.70
  -4   2 -15   27.70    2.00
   4  -2  15   22.30    1.70
   4  -2  15   25.60    1.60
  -5   2 -15   24.60    2.00
   5  -2  15   26.40    1.70
   5  -2  15   24.00    1.80
  -6   2 -15   -1.10    0.80
   6  -2  15    0.40    0.70
   6  -2  15    0.60    0.60
  -4  -1  15    0.30    0.70
   3   1 -15    0.20    0.80
  -3  -1  15   -1.10    0.70
  -3  -1  15    0.00    0.60
   2   1 -15    0.10    0.80
  -2  -1  15   -1.00    0.60
  -2  -1  15   -0.50    0.70
   1   1 -15   -0.50    0.60
  -1  -1  15    0.00    0.70
  -1  -1  15   -0.70    0.60
   0   1 -15    0.70    0.70
   0  -1  15    0.50    0.70
   0  -1  15   -0.70    0.50
   0  -1  15   -0.60    0.70
  -1   1 -15   20.80    1.40
  -1   1 -15   16.90    1.30
   1  -1  15   20.40    1.60
   1  -1  15   17.00    1.30
  -2   1 -15   15.40    1.80
  -2   1 -15   21.50    1.40
   2  -1  15   19.70    1.40
   2  -1  15   19.60    1.50
  -3   1 -15   54.69    2.20
  -3   1 -15   54.69    2.50
   3  -1  15   55.19    2.30
   3  -1  15   50.39    2.40
  -4   1 -15    7.40    1.20
   4  -1  15    5.00    1.00
   4  -1  15    5.50    0.90
  -5   1 -15   12.20    1.50
   5  -1  15   12.90    1.30
   5  -1  15   13.90    1.40
  -6   1 -15    1.10    0.80
   6  -1  15    2.00    0.70
   6  -1  15    2.90    0.80
  -7   1 -15    0.20    0.90
   7  -1  15   -0.10    0.70
   7  -1  15   -0.80    0.50
   3   0 -15    0.00    0.80
  -3   0  15    1.50    1.00
  -3   0  15    0.80    0.80
   2   0 -15    4.30    1.00
  -2   0  15    5.50    1.00
  -2   0  15    4.00    1.00
   1   0 -15    0.10    0.80
  -1   0  15    1.30    0.70
  -1   0  15    0.70    0.80
   0   0 -15    1.70    0.80
   0   0  15    2.00    0.70
   0   0  15    2.40    0.80
  -1   0 -15   29.20    1.70
   1   0  15   27.80    1.60
   1   0  15   26.80    1.80
  -2   0 -15   14.90    1.30
   2   0  15   10.80    1.10
   2   0  15   13.80    1.40
  -3   0 -15   13.70    1.20
   3   0  15   12.90    1.40
   3   0  15    8.40    1.00
  -4   0 -15    4.60    1.00
  -4   0 -15    4.30    0.80
   4   0  15    4.50    0.90
   4   0  15    3.80    0.90
  -5   0 -15    6.80    1.20
   5   0  15    7.60    1.10
   5   0  15    5.60    1.00
  -6   0 -15    0.90    0.90
   6   0  15    3.20    0.90
   6   0  15    1.90    0.80
  -7   0 -15   -1.10    0.70
   7   0  15    0.70    0.70
   7   0  15    0.30    0.70
   3  -1 -15    4.50    1.20
  -3   1  15    5.70    1.10
  -3   1  15    4.20    1.00
   2  -1 -15    1.20    0.90
  -2   1  15   -0.50    0.80
  -2   1  15    0.80    0.80
   1  -1 -15    0.00    0.80
  -1   1  15    0.40    0.70
  -1   1  15    0.50    0.70
   0  -1 -15    6.80    1.10
   0   1  15    7.00    1.10
   0   1  15    8.70    1.00
  -1  -1 -15   33.40    1.80
   1   1  15   33.00    1.80
   1   1  15   31.90    1.90
  -2  -1 -15    4.40    0.90
   2   1  15    4.30    0.90
   2   1  15    4.30    0.80
  -3  -1 -15    5.00    0.90
   3   1  15    6.00    1.00
   3   1  15    4.30    0.80
  -4  -1 -15    2.20    0.70
   4   1  15    2.30    0.80
   4   1  15    1.00    0.60
  -5  -1 -15    3.50    0.90
  -5  -1 -15    2.60    0.70
   5   1  15    4.30    0.90
   5   1  15    4.40    0.90
  -6  -1 -15    4.80    1.10
   6   1  15    6.30    1.10
   6   1  15    5.90    1.00
  -7  -1 -15   -0.30    0.70
   7   1  15   -0.20    0.60
   3  -2 -15    0.70    1.00
  -3   2  15    2.20    0.90
  -3   2  15    0.90    0.80
   2  -2 -15    0.50    0.80
  -2   2  15    1.20    0.80
  -2   2  15   -0.10    0.70
   1  -2 -15    0.50    0.70
  -1   2  15    0.60    0.70
   0  -2 -15   15.00    1.50
   0   2  15   13.00    1.20
   0   2  15   13.00    1.40
  -1  -2 -15   17.00    1.60
   1   2  15   16.40    1.30
   1   2  15   14.20    1.50
  -2  -2 -15   15.20    1.50
   2   2  15   12.40    1.20
   2   2  15   11.80    1.30
  -3  -2 -15   -0.30    0.60
   3   2  15   -0.10    0.50
   3   2  15   -0.80    0.60
  -4  -2 -15    2.90    0.80
   4   2  15    3.20    0.80
   4   2  15    2.20    0.70
  -5  -2 -15    3.50    0.80
  -5  -2 -15    1.80    0.80
   5   2  15    2.00    0.80
   5   2  15    2.20    0.70
  -6  -2 -15    0.10    0.70
  -6  -2 -15    1.30    0.70
   6   2  15    1.20    0.70
   6   2  15    1.00    0.70
  -7  -2 -15    0.30    0.80
   7   2  15    0.40    0.70
  -8  -2 -15    2.80    1.00
   2  -3 -15    1.40    0.90
  -2   3  15    1.30    0.80
   1  -3 -15    1.30    0.90
  -1   3  15    1.20    0.90
   0  -3 -15   11.00    1.30
   0   3  15   10.50    1.10
   0   3  15   10.00    1.30
  -1  -3 -15   10.60    1.30
   1   3  15    8.80    1.20
   1   3  15    9.10    1.10
  -2  -3 -15    3.70    1.00
   2   3  15    5.00    1.00
   2   3  15    4.00    0.80
  -3  -3 -15   27.30    1.70
   3   3  15   25.20    1.70
   3   3  15   25.50    1.60
  -4  -3 -15    6.10    1.00
   4   3  15    5.70    1.00
   4   3  15    5.60    0.90
  -5  -3 -15    0.40    0.70
   5   3  15    0.70    0.70
   5   3  15    0.70    0.60
  -6  -3 -15    5.30    1.10
  -6  -3 -15    8.40    1.10
   6   3  15    5.10    1.00
   6   3  15    7.00    1.00
  -7  -3 -15   -0.90    0.80
   7   3  15   -0.60    0.70
  -8  -3 -15    4.30    1.10
   1  -4 -15    0.00    0.80
  -1   4  15   -0.60    0.70
   0  -4 -15   17.60    1.70
   0   4  15   13.10    1.50
   0   4  15   16.30    1.30
  -1  -4 -15    3.30    1.00
   1   4  15    2.20    0.80
   1   4  15    2.70    0.70
  -2  -4 -15   19.10    1.60
   2   4  15   18.90    1.50
   2   4  15   16.20    1.30
  -3  -4 -15   17.60    1.50
   3   4  15   18.20    1.40
   3   4  15   17.20    1.50
  -4  -4 -15   27.00    1.80
   4   4  15   24.20    1.70
   4   4  15   25.90    1.60
  -5  -4 -15    0.20    0.70
   5   4  15    0.30    0.70
   5   4  15    0.80    0.60
  -6  -4 -15   25.20    1.70
  -6  -4 -15   21.90    1.90
   6   4  15   23.60    1.60
   6   4  15   19.30    1.50
  -7  -4 -15    9.30    1.40
  -7  -4 -15   10.80    1.40
   7   4  15    8.60    1.30
   1  -5 -15    7.50    1.30
  -1   5  15    7.90    1.40
   0  -5 -15    0.80    0.90
   0   5  15   -0.40    0.80
  -1  -5 -15    3.10    1.00
   1   5  15    2.90    0.70
   1   5  15    4.90    1.10
  -2  -5 -15   12.50    1.50
   2   5  15   11.00    1.40
   2   5  15    9.20    1.00
  -3  -5 -15    6.60    1.20
   3   5  15    7.60    1.10
   3   5  15    5.50    0.90
   3   5  15    6.20    1.10
  -4  -5 -15   11.30    1.60
  -4  -5 -15   13.70    1.10
  -4  -5 -15   15.70    1.60
   4   5  15   11.50    1.20
   4   5  15   13.80    1.40
   4   5  15   13.80    1.00
  -5  -5 -15    0.70    0.50
  -5  -5 -15    1.50    0.70
  -5  -5 -15    3.00    0.90
   5   5  15    1.20    0.80
   5   5  15    2.60    0.80
   5   5  15    1.60    0.60
  -6  -5 -15    1.10    0.60
  -6  -5 -15    3.40    1.00
  -6  -5 -15    2.20    0.70
   6   5  15    1.50    0.60
   6   5  15    0.50    0.80
   6   5  15    2.50    0.60
   6   5  15    2.90    0.80
  -7  -5 -15    0.80    0.90
  -7  -5 -15    3.90    1.00
  -7  -5 -15    0.60    0.80
   7   5  15    0.40    0.50
   7   5  15    0.40    0.60
   7   5  15    2.20    0.90
   0  -6 -15    6.30    1.30
   0   6  15    3.50    1.10
  -1  -6 -15   13.40    1.70
   1   6  15    9.70    1.40
  -2  -6 -15    5.80    1.10
  -2  -6 -15    6.40    1.20
   2   6  15    3.90    0.70
   2   6  15    6.10    1.20
   2   6  15    3.90    0.70
   2   6  15    5.80    0.90
  -3  -6 -15    1.50    0.90
  -3  -6 -15    1.90    0.70
  -3  -6 -15    2.00    0.60
   3   6  15    2.00    0.70
   3   6  15    2.20    0.60
   3   6  15    3.50    0.70
   3   6  15    3.50    0.90
  -4  -6 -15    2.50    0.70
  -4  -6 -15    2.30    0.70
  -4  -6 -15    1.80    0.90
   4   6  15    1.00    0.70
   4   6  15    3.00    0.70
   4   6  15    2.40    0.80
  -5  -6 -15   13.00    1.20
  -5  -6 -15   13.30    1.60
  -5  -6 -15   10.40    1.10
   5   6  15   10.60    1.30
   5   6  15   11.40    1.10
   5   6  15   11.90    1.30
  -6  -6 -15   -0.20    0.70
  -6  -6 -15    0.40    0.60
  -6  -6 -15    1.00    0.60
   6   6  15    0.20    0.70
   6   6  15    0.90    0.60
  -7  -6 -15    0.30    0.60
  -7  -6 -15    0.10    0.80
   7   6  15    0.50    0.50
  -2  -7 -15    0.90    0.60
  -2  -7 -15    1.20    1.00
   2   7  15    1.30    0.60
   2   7  15    1.80    1.00
   2   7  15    2.30    0.70
  -3  -7 -15    2.50    0.70
  -3  -7 -15    0.60    0.60
  -3  -7 -15    1.60    1.00
   3   7  15    1.40    0.90
   3   7  15    1.70    0.60
   3   7  15    3.20    0.70
  -4  -7 -15    4.80    0.80
  -4  -7 -15    4.10    0.90
  -4  -7 -15    6.10    1.30
   4   7  15    4.00    0.80
   4   7  15    3.70    1.00
   4   7  15    2.80    0.80
  -5  -7 -15    4.50    1.20
  -5  -7 -15    4.50    0.90
  -5  -7 -15    4.30    0.90
   5   7  15    3.30    0.90
   5   7  15    3.40    0.80
   5   7  15    3.30    0.80
   1   6 -16    1.40    0.90
   1   6 -16   -0.50    0.70
  -1  -6  16    0.50    0.90
  -1  -6  16    0.70    0.90
   0   6 -16    1.70    1.00
   0   6 -16    4.20    1.10
   0  -6  16    3.00    1.10
  -1   6 -16    6.30    1.10
  -1   6 -16    3.80    1.20
   1  -6  16    4.80    1.30
  -2   6 -16   15.00    1.70
  -2   6 -16   15.00    2.30
   2  -6  16   15.30    1.90
   2   5 -16    9.70    1.40
  -2  -5  16   10.30    1.50
   1   5 -16   11.20    1.30
   1   5 -16   10.00    1.40
  -1  -5  16    7.90    1.40
   0   5 -16    6.30    1.20
   0   5 -16    6.10    1.00
   0   5 -16    5.50    1.00
   0  -5  16    6.40    1.20
  -1   5 -16   -0.30    0.60
  -1   5 -16   -0.40    0.60
  -1   5 -16   -0.40    0.50
   1  -5  16   -1.00    0.80
  -2   5 -16    1.90    0.80
  -2   5 -16    0.90    0.80
   2  -5  16    0.80    0.60
   2  -5  16    0.60    1.00
  -3   5 -16    0.60    0.80
   3  -5  16   -0.30    0.60
   3  -5  16   -1.40    0.70
   3  -5  16    2.90    0.80
  -4   5 -16    1.30    0.90
   4  -5  16    2.00    0.80
   2   4 -16    3.80    1.00
  -2  -4  16    4.60    1.30
  -2  -4  16    6.10    1.10
   1   4 -16    7.70    1.20
   1   4 -16    7.30    1.10
  -1  -4  16    7.30    1.30
  -1  -4  16    6.60    1.20
   0   4 -16   34.30    2.00
   0   4 -16   31.40    1.90
   0   4 -16   32.20    1.90
   0   4 -16   28.50    1.90
   0  -4  16   29.50    2.10
   0  -4  16   33.50    2.30
  -1   4 -16    6.10    1.20
  -1   4 -16    7.60    1.10
  -1   4 -16    6.30    1.00
  -1   4 -16    6.90    1.00
   1  -4  16    5.30    0.90
  -2   4 -16    4.40    1.00
  -2   4 -16    5.50    1.00
   2  -4  16    6.10    1.00
  -3   4 -16    9.90    1.30
   3  -4  16    7.70    1.00
   3  -4  16    9.20    1.10
  -4   4 -16    0.90    0.80
   4  -4  16    0.70    0.60
   4  -4  16    0.50    0.60
  -5   4 -16    0.60    0.90
   5  -4  16    0.00    0.70
   3   3 -16    1.00    1.00
  -3  -3  16    2.60    0.90
  -3  -3  16    2.70    1.10
   2   3 -16    7.10    1.20
   2   3 -16    3.20    1.10
  -2  -3  16    4.90    1.20
  -2  -3  16    5.50    1.10
   1   3 -16   16.60    1.60
   1   3 -16   16.30    1.60
  -1  -3  16   23.70    2.10
  -1  -3  16   22.10    1.80
   0   3 -16   24.30    1.70
   0   3 -16   21.60    1.80
   0   3 -16   24.20    1.70
   0  -3  16   23.70    2.00
   0  -3  16   21.60    1.90
  -1   3 -16    0.10    0.60
  -1   3 -16    0.30    0.60
  -1   3 -16    0.40    0.60
   1  -3  16   -0.20    0.50
   1  -3  16   -0.30    0.60
  -2   3 -16    1.60    0.80
  -2   3 -16    0.80    0.60
   2  -3  16    1.00    0.70
   2  -3  16   -0.20    0.70
  -3   3 -16    0.20    0.60
   3  -3  16    0.10    0.60
  -4   3 -16    1.30    0.90
   4  -3  16    0.90    0.60
   4  -3  16    1.70    0.80
  -5   3 -16   -1.00    0.60
   5  -3  16    0.00    0.60
   5  -3  16    0.00    0.70
   3   2 -16    1.50    0.90
  -3  -2  16    2.10    1.00
  -3  -2  16    2.80    1.00
   2   2 -16    2.00    0.90
  -2  -2  16    2.10    1.00
  -2  -2  16    0.60    0.80
   1   2 -16    0.30    0.80
  -1  -2  16    0.80    0.70
  -1  -2  16    0.60    0.90
   0   2 -16    0.30    0.70
   0  -2  16   -0.80    0.60
   0  -2  16    0.20    0.60
  -1   2 -16    0.00    0.60
   1  -2  16    0.30    0.60
   1  -2  16   -0.10    0.60
  -2   2 -16    0.10    0.70
  -2   2 -16   -0.30    0.50
   2  -2  16   -0.30    0.60
   2  -2  16   -0.20    0.50
  -3   2 -16    1.30    0.60
  -3   2 -16   -1.00    0.60
   3  -2  16    0.10    0.50
   3  -2  16    0.10    0.70
  -4   2 -16   10.20    1.40
   4  -2  16   10.90    1.30
   4  -2  16    9.00    1.20
  -5   2 -16    6.00    1.30
   5  -2  16    5.00    1.00
   5  -2  16    5.80    1.10
  -6   2 -16   13.50    1.70
   6  -2  16   13.90    1.50
   6  -2  16   16.40    1.70
   3   1 -16    1.70    0.90
  -3  -1  16    0.70    0.80
  -3  -1  16    2.50    1.10
   2   1 -16    0.40    0.80
  -2  -1  16   -0.60    0.60
  -2  -1  16    0.40    0.90
   1   1 -16    0.60    0.80
  -1  -1  16   -0.20    0.70
  -1  -1  16   -0.20    0.90
   0   1 -16    0.00    0.70
   0  -1  16   -0.30    0.60
   0  -1  16   -0.30    0.50
  -1   1 -16   -0.60    0.60
   1  -1  16    0.30    0.70
   1  -1  16    0.00    0.50
  -2   1 -16    1.40    0.70
   2  -1  16    1.10    0.70
   2  -1  16    0.30    0.60
  -3   1 -16    4.60    0.80
  -3   1 -16    3.20    1.00
   3  -1  16    3.50    1.00
   3  -1  16    3.60    0.80
  -4   1 -16   19.20    1.80
   4  -1  16   18.80    1.70
   4  -1  16   21.00    1.60
  -5   1 -16   44.60    2.60
   5  -1  16   41.50    2.10
  -6   1 -16    9.20    1.40
   6  -1  16   11.50    1.40
   6  -1  16   10.40    1.20
   2   0 -16    2.80    1.10
  -2   0  16    2.60    1.00
  -2   0  16    3.10    0.90
   1   0 -16    6.30    1.20
  -1   0  16    6.10    1.10
  -1   0  16    6.00    1.20
   0   0 -16    8.20    1.20
   0   0  16    7.40    1.20
   0   0  16    4.50    0.80
  -1   0 -16    6.70    1.00
   1   0  16    5.90    1.10
   1   0  16    5.30    0.90
  -2   0 -16    3.50    0.80
   2   0  16    3.10    0.90
   2   0  16    2.30    0.70
  -3   0 -16   13.20    1.30
   3   0  16   11.40    1.40
   3   0  16   12.60    1.30
  -4   0 -16    8.50    1.30
  -4   0 -16    8.20    1.00
   4   0  16    6.90    1.00
   4   0  16    9.00    1.20
  -5   0 -16   25.90    2.00
   5   0  16   27.30    1.80
   5   0  16   26.00    1.80
  -6   0 -16    0.70    0.80
   6   0  16   -0.70    0.60
  -7   0 -16    3.00    1.10
   7   0  16    3.90    1.00
   2  -1 -16    0.90    0.90
  -2   1  16    1.30    0.90
  -2   1  16    0.40    0.80
   1  -1 -16    6.80    1.20
  -1   1  16    6.60    1.20
   0  -1 -16    3.90    1.00
   0   1  16    5.00    1.10
   0   1  16    5.60    0.90
  -1  -1 -16    2.80    0.80
   1   1  16    4.00    1.00
   1   1  16    2.30    0.70
  -2  -1 -16   -0.50    0.60
   2   1  16    0.00    0.70
   2   1  16    0.60    0.60
  -3  -1 -16   26.40    1.60
   3   1  16   21.20    1.60
   3   1  16   20.90    1.50
  -4  -1 -16    5.70    0.90
   4   1  16    6.10    1.00
   4   1  16    5.20    1.00
  -5  -1 -16   23.20    1.80
  -5  -1 -16   22.80    1.50
   5   1  16   23.60    1.70
   5   1  16   20.90    1.60
  -6  -1 -16    6.10    1.20
   6   1  16    5.90    1.10
   6   1  16    7.80    1.20
  -7  -1 -16    1.30    0.90
   7   1  16    0.60    0.70
   2  -2 -16    9.00    1.40
  -2   2  16    7.60    1.30
   1  -2 -16    7.90    1.30
  -1   2  16    6.30    1.20
   0  -2 -16    3.20    1.00
   0   2  16    3.30    1.00
   0   2  16    3.00    0.80
  -1  -2 -16    1.90    0.90
   1   2  16    2.80    1.00
   1   2  16    3.30    0.80
  -2  -2 -16    1.80    0.90
   2   2  16    1.50    0.80
   2   2  16    2.00    0.70
  -3  -2 -16    0.40    0.70
   3   2  16    0.00    0.60
   3   2  16   -0.20    0.60
  -4  -2 -16    2.10    0.70
   4   2  16    1.30    0.80
   4   2  16    0.50    0.70
  -5  -2 -16    0.80    0.80
  -5  -2 -16    1.10    0.70
   5   2  16    1.40    0.80
   5   2  16    1.50    0.70
  -6  -2 -16   -0.30    0.70
   6   2  16   -0.60    0.70
   6   2  16    0.80    0.70
  -7  -2 -16    2.70    1.00
   7   2  16    2.20    0.90
   1  -3 -16    9.90    1.40
  -1   3  16   12.30    1.50
   0  -3 -16    0.10    0.90
   0   3  16    0.00    0.60
   0   3  16    0.00    0.80
  -1  -3 -16    9.40    1.30
   1   3  16    7.00    1.00
   1   3  16    7.50    1.20
  -2  -3 -16    3.90    1.10
   2   3  16    5.90    1.10
   2   3  16    5.30    0.90
  -3  -3 -16    4.90    1.00
   3   3  16    5.90    1.20
   3   3  16    4.10    0.90
  -4  -3 -16    8.40    1.20
   4   3  16    6.00    1.00
   4   3  16    7.00    1.10
  -5  -3 -16    4.10    0.90
   5   3  16    2.30    0.80
   5   3  16    3.10    0.90
  -6  -3 -16   11.40    1.50
  -6  -3 -16   13.40    1.40
   6   3  16   13.10    1.40
   6   3  16   12.00    1.30
  -7  -3 -16    6.60    1.30
   7   3  16    5.40    1.00
  -1   4  16    0.40    0.80
   0  -4 -16    4.70    1.10
   0   4  16    4.80    0.80
   0   4  16    3.70    1.20
  -1  -4 -16   10.10    1.50
   1   4  16   10.30    1.10
   1   4  16   10.00    1.40
  -2  -4 -16    5.90    1.10
   2   4  16    3.40    1.00
   2   4  16    5.50    0.90
  -3  -4 -16    0.60    0.80
   3   4  16    0.40    0.60
   3   4  16    0.00    0.80
  -4  -4 -16    1.20    0.80
   4   4  16   -0.10    0.70
   4   4  16   -0.70    0.50
  -5  -4 -16    1.70    0.90
   5   4  16    2.70    0.80
   5   4  16    2.50    0.80
  -6  -4 -16   18.80    1.90
  -6  -4 -16   22.80    1.70
   6   4  16   21.40    1.60
   6   4  16   21.10    1.70
  -7  -4 -16   10.80    1.50
  -7  -4 -16   11.40    1.40
   7   4  16   11.30    1.30
   0  -5 -16    9.00    1.50
   0   5  16    6.00    1.20
  -1  -5 -16   -0.10    0.90
   1   5  16    0.20    0.90
   1   5  16   -0.10    0.60
  -2  -5 -16   -0.30    0.70
   2   5  16    0.10    0.70
   2   5  16   -0.40    0.50
  -3  -5 -16    1.00    0.80
   3   5  16    0.20    0.70
   3   5  16    0.50    0.60
  -4  -5 -16    1.40    0.90
   4   5  16    2.70    1.00
   4   5  16    2.30    0.80
  -5  -5 -16    1.00    0.90
   5   5  16   -0.30    0.70
   5   5  16   -0.40    0.60
  -6  -5 -16    1.70    0.90
   6   5  16    1.30    0.70
  -2  -6 -16    0.80    0.80
   2   6  16    0.80    0.80
  -3  -6 -16    0.70    0.90
   3   6  16    2.10    0.90
   3   6  16    0.40    0.60
  -4  -6 -16    7.80    1.30
   4   6  16    5.70    1.10
   4   6  16    7.30    1.10
  -5  -6 -16    0.60    0.90
   5   6  16    0.20    0.80
   5   6  16    0.50    0.60
   0   5 -17   -0.10    0.80
  -1   5 -17    5.80    1.50
  -1   5 -17    3.20    1.00
  -2   5 -17   27.00    2.10
  -2   5 -17   21.90    2.10
   2  -5  17   26.80    1.90
   1   4 -17    2.20    1.00
  -1  -4  17    1.80    0.90
  -1  -4  17    1.70    1.10
   0   4 -17    0.40    0.80
   0  -4  17    0.80    0.90
  -1   4 -17    0.40    0.60
  -1   4 -17   -0.60    0.70
   1  -4  17   -0.10    0.60
  -2   4 -17   20.80    1.80
  -2   4 -17   18.60    1.60
   2  -4  17   25.40    1.60
  -3   4 -17    0.20    0.80
   3  -4  17   -1.00    0.60
  -2  -3  17    1.60    0.90
   1   3 -17    1.10    0.90
  -1  -3  17    0.30    0.70
  -1  -3  17    2.50    1.10
   0   3 -17   -1.00    0.70
   0   3 -17    0.20    0.70
   0  -3  17    1.00    0.80
  -1   3 -17    0.30    0.70
  -1   3 -17    0.50    0.70
   1  -3  17   -0.50    0.70
   1  -3  17    1.50    0.80
  -2   3 -17    6.20    1.10
  -2   3 -17    6.00    1.00
   2  -3  17    6.50    1.20
   2  -3  17    4.80    1.00
  -3   3 -17    1.00    0.80
   3  -3  17    1.20    0.70
  -4   3 -17   -0.10    0.70
   4  -3  17    1.40    0.70
   4  -3  17   -0.20    0.60
   2   2 -17    0.80    0.80
  -2  -2  17    1.10    0.80
  -2  -2  17    0.30    0.90
   1   2 -17    3.10    1.10
  -1  -2  17    4.50    1.10
  -1  -2  17    2.40    1.00
   0   2 -17    8.10    1.20
   0  -2  17    9.20    1.40
  -1   2 -17    7.10    1.10
   1  -2  17    7.50    1.20
   1  -2  17    6.30    1.10
  -2   2 -17    0.70    0.80
  -2   2 -17    0.80    0.70
   2  -2  17    2.00    0.90
   2  -2  17    0.20    0.70
  -3   2 -17    1.00    0.80
   3  -2  17    2.80    0.90
   3  -2  17    0.90    0.70
  -4   2 -17    6.00    1.20
   4  -2  17    5.30    1.00
  -5   2 -17    6.00    1.20
   5  -2  17    5.60    1.00
   2   1 -17   -0.10    0.90
  -2  -1  17   -0.50    0.70
  -2  -1  17    0.50    1.00
   1   1 -17    4.10    1.00
  -1  -1  17    6.20    1.20
  -1  -1  17    4.00    1.10
   0   1 -17    1.60    0.90
   0  -1  17    3.60    1.00
   0  -1  17    3.00    0.80
  -1   1 -17   -0.80    0.70
   1  -1  17    0.10    0.60
   1  -1  17    0.80    0.70
  -2   1 -17   -0.10    0.70
   2  -1  17    0.00    0.60
   2  -1  17   -0.70    0.60
  -3   1 -17    0.50    0.80
  -3   1 -17    0.70    0.70
   3  -1  17    1.40    0.70
   3  -1  17    0.30    0.70
  -4   1 -17    4.10    1.20
   4  -1  17    5.90    1.20
   4  -1  17    4.30    0.90
  -5   1 -17   14.10    1.70
   5  -1  17   17.80    1.60
  -6   1 -17    2.20    1.10
   6  -1  17    3.70    1.00
  -2   0  17    4.60    1.10
   1   0 -17   -0.20    0.70
  -1   0  17    0.00    0.80
   0   0 -17   -0.70    0.70
   0   0  17    0.20    0.80
   0   0  17    0.10    0.60
  -1   0 -17    3.10    1.00
   1   0  17    2.70    0.80
   1   0  17    2.10    1.00
  -2   0 -17    3.50    0.90
   2   0  17    3.30    0.80
   2   0  17    4.10    1.00
  -3   0 -17   19.40    1.50
   3   0  17   20.30    1.50
   3   0  17   16.90    1.60
  -4   0 -17    8.50    1.40
  -4   0 -17   12.90    1.30
   4   0  17   10.30    1.20
   4   0  17   10.10    1.30
  -5   0 -17    7.30    1.40
   5   0  17    9.00    1.40
   5   0  17   10.70    1.30
  -6   0 -17   -0.70    0.90
   6   0  17    0.10    0.70
   1  -1 -17    0.60    0.90
  -1   1  17   -1.50    0.70
   0  -1 -17    1.30    0.90
   0   1  17    0.70    0.70
   0   1  17   -0.40    0.70
  -1  -1 -17    2.60    0.90
   1   1  17    1.70    0.70
   1   1  17    1.40    0.90
  -2  -1 -17   10.20    1.30
   2   1  17    9.50    1.10
   2   1  17    8.20    1.30
  -3  -1 -17    8.10    1.20
   3   1  17    8.40    1.30
   3   1  17    5.90    1.00
  -4  -1 -17    6.40    1.00
   4   1  17    6.90    1.10
   4   1  17    6.50    1.10
  -5  -1 -17    0.20    0.80
   5   1  17    1.70    0.80
   5   1  17    1.20    0.80
  -6  -1 -17    1.80    1.00
   6   1  17    0.90    0.80
   6   1  17    2.50    0.90
   1  -2 -17   -0.50    0.80
  -1   2  17   -0.40    0.80
   0  -2 -17    1.00    0.90
   0   2  17    1.60    0.70
   0   2  17    0.40    0.80
  -1  -2 -17    7.90    1.20
   1   2  17    6.70    1.20
   1   2  17    6.20    1.00
  -2  -2 -17   10.20    1.30
   2   2  17   12.90    1.50
   2   2  17   10.00    1.10
  -3  -2 -17    0.60    0.80
   3   2  17    1.90    0.90
   3   2  17    0.20    0.60
  -4  -2 -17    3.10    0.90
   4   2  17    1.70    0.80
   4   2  17    1.30    0.80
  -5  -2 -17    1.50    0.90
  -5  -2 -17   -1.00    0.60
   5   2  17    0.90    0.80
   5   2  17    0.20    0.60
  -6  -2 -17    2.60    1.00
   6   2  17    2.90    0.90
   6   2  17    2.00    0.80
   0  -3 -17    2.20    1.00
   0   3  17    0.00    0.80
  -1  -3 -17   15.30    1.70
   1   3  17   12.70    1.60
   1   3  17   12.30    1.30
  -2  -3 -17    4.00    1.10
   2   3  17    4.10    0.90
   2   3  17    2.20    0.90
  -3  -3 -17   -0.50    0.70
   3   3  17    0.70    0.80
   3   3  17    0.20    0.60
  -4  -3 -17    1.10    0.80
   4   3  17    0.20    0.60
   4   3  17    0.60    0.70
  -5  -3 -17    1.50    0.80
   5   3  17   -0.60    0.60
   5   3  17    0.50    0.80
  -6  -3 -17    5.20    1.10
  -6  -3 -17    3.30    1.00
   6   3  17    5.40    1.00
   6   3  17    5.90    1.10
  -1  -4 -17    5.80    1.20
   1   4  17    7.40    1.00
   1   4  17    7.20    1.30
  -2  -4 -17    3.60    1.10
   2   4  17    4.20    1.10
   2   4  17    2.50    0.70
  -3  -4 -17    1.30    0.90
   3   4  17    1.80    0.90
   3   4  17    1.70    0.70
  -4  -4 -17    0.20    0.80
   4   4  17    0.90    0.70
   4   4  17    0.50    0.70
  -5  -4 -17    0.50    0.80
   5   4  17   -0.80    0.70
   5   4  17   -1.20    0.50
  -6  -4 -17    0.60    0.80
  -6  -4 -17   -0.20    0.80
   6   4  17   -0.30    0.70
   6   4  17    0.20    0.70
  -2  -5 -17    1.80    0.90
   2   5  17   -0.20    0.70
   2   5  17    0.50    0.60
  -3  -5 -17    7.00    1.30
   3   5  17    7.10    1.20
   3   5  17    6.40    1.00
  -4  -5 -17    4.80    1.10
   4   5  17    2.90    0.90
   4   5  17    5.50    1.10
  -5  -5 -17   -0.20    0.80
   5   5  17   -0.40    0.70
   5   5  17   -0.20    0.70
   0   3 -18    3.20    1.00
   0   3 -18    0.50    1.00
   0  -3  18    1.90    1.00
  -1   3 -18    0.70    0.80
  -1   3 -18   -1.60    0.70
   1  -3  18    0.60    0.80
   1  -3  18    1.50    0.80
  -2   3 -18    3.60    1.10
   2  -3  18    4.90    1.00
   2  -3  18    4.30    1.20
  -3   3 -18    1.50    0.90
   3  -3  18    0.80    0.80
   0   2 -18   11.00    1.50
   0  -2  18   11.90    1.60
  -1   2 -18   11.60    1.40
  -1   2 -18   10.00    1.40
   1  -2  18   11.50    1.40
   1  -2  18   12.20    1.60
  -2   2 -18   -0.50    0.70
  -2   2 -18    1.10    0.80
   2  -2  18    0.50    0.70
   2  -2  18   -0.20    0.70
  -3   2 -18    4.60    1.10
   3  -2  18    7.70    1.40
   3  -2  18    7.40    1.10
  -4   2 -18    1.00    0.80
   4  -2  18    0.60    0.70
   0   1 -18   12.00    1.40
   0  -1  18   12.40    1.60
  -1   1 -18    0.90    0.90
   1  -1  18    2.40    0.80
   1  -1  18    1.40    0.90
  -2   1 -18    0.50    0.70
   2  -1  18   -1.30    0.70
   2  -1  18   -0.20    0.70
  -3   1 -18    0.60    0.80
   3  -1  18   -0.30    0.60
   3  -1  18    1.20    0.80
  -4   1 -18    0.30    0.80
   4  -1  18   -0.90    0.70
   4  -1  18   -1.20    0.50
  -5   1 -18    0.60    0.90
   0   0 -18    2.30    1.00
   0   0  18    1.40    0.90
  -1   0 -18    1.60    0.90
   1   0  18   -0.20    0.80
   1   0  18   -0.40    0.60
  -2   0 -18   -0.60    0.70
   2   0  18   -0.70    0.60
   2   0  18   -0.50    0.70
  -3   0 -18   -0.10    0.70
   3   0  18   -0.50    0.50
   3   0  18   -0.90    0.70
  -4   0 -18    5.30    1.20
   4   0  18    5.30    1.10
   4   0  18    4.70    1.00
  -5   0 -18    9.10    1.50
   5   0  18    9.20    1.30
   5   0  18   10.20    1.40
   0  -1 -18    0.40    0.80
   0   1  18    0.50    0.80
  -1  -1 -18   -0.40    0.80
   1   1  18   -0.60    0.50
   1   1  18   -1.00    0.80
  -2  -1 -18   -0.90    0.80
   2   1  18    0.10    0.70
   2   1  18    0.60    0.70
  -3  -1 -18    1.40    0.90
   3   1  18    1.00    0.80
   3   1  18    0.90    0.70
  -4  -1 -18    9.40    1.20
  -4  -1 -18    6.00    1.30
   4   1  18    8.80    1.20
   4   1  18    8.30    1.30
  -5  -1 -18   24.70    2.20
   5   1  18   23.60    1.80
   5   1  18   21.90    1.80
  -1  -2 -18    0.20    0.80
   1   2  18    1.70    0.70
   1   2  18    0.50    0.80
  -2  -2 -18    2.20    1.00
   2   2  18   -0.20    0.60
   2   2  18    0.90    0.90
  -3  -2 -18    4.20    1.10
   3   2  18    4.10    0.90
   3   2  18    5.00    1.20
  -4  -2 -18   12.90    1.50
   4   2  18    7.60    1.20
   4   2  18    8.80    1.30
  -5  -2 -18   11.60    1.60
  -5  -2 -18   12.30    1.40
   5   2  18   11.00    1.40
   5   2  18   10.00    1.30
   1   3  18   -0.70    0.80
  -2  -3 -18    0.60    0.80
   2   3  18   -0.80    0.70
   2   3  18    0.60    0.70
  -3  -3 -18    7.80    1.30
   3   3  18    7.50    1.10
   3   3  18    6.20    1.20
  -4  -3 -18    4.50    1.10
   4   3  18    6.60    1.20
   4   3  18    5.20    1.00
  -5  -3 -18    5.60    1.10
   5   3  18    3.90    1.00
   5   3  18    5.00    1.10
  -3  -4 -18    0.70    0.90
   3   4  18   -0.10    0.90
   4   4  18   -0.40    0.80
  -2   0 -19    0.90    0.90
   2   0  19    3.30    1.10
  -3   0 -19    5.00    1.10
  -3   0 -19    4.30    1.20
   3   0  19    5.00    1.20
   3   1  19   -0.20    0.70
_computing_structure_solution     'SHELXT 2014/4 (Sheldrick, 2014)'
;
_shelx_hkl_checksum              81087
_shelx_res_file
;
    shelx.res created by SHELXL-2014/7
TITL EL15_D172_DRX2_CAOME_a.res in P-1
CELL  0.71073   6.9841   8.3241  13.1165   89.276   75.614   72.095
ZERR     2.00   0.0014   0.0018   0.0025    0.009    0.009    0.010
LATT   1
SFAC  C    H    N    O    S
UNIT  28   26   2    4    4
MERG   2
OMIT     0   0   1
FMAP   2
PLAN   10
ACTA
BOND   $H
L.S.  10
TEMP    23.00
WGHT    0.062400    0.127300
FVAR       0.77986
C1    1    0.678408    0.928985    0.267917    11.00000    0.03797    0.04685 =
         0.04526   -0.00094   -0.00828   -0.00685
C2    1    0.881422    0.883470    0.278369    11.00000    0.03459    0.06067 =
         0.05600   -0.00149   -0.00424   -0.01047
AFIX  43
H2    2    0.984635    0.909321    0.227419    11.00000   -1.20000
AFIX   0
C3    1    0.928310    0.800153    0.364399    11.00000    0.03168    0.06949 =
         0.06120   -0.00196   -0.01346   -0.00853
AFIX  43
H3    2    1.064129    0.769976    0.371089    11.00000   -1.20000
AFIX   0
C4    1    0.777614    0.760113    0.441408    11.00000    0.03908    0.06361 =
         0.04878    0.00045   -0.01616   -0.00896
AFIX  43
H4    2    0.812189    0.704167    0.499304    11.00000   -1.20000
AFIX   0
C5    1    0.572872    0.804271    0.431694    11.00000    0.03523    0.04575 =
         0.03953   -0.00623   -0.01098   -0.00763
C6    1    0.524944    0.889904    0.343783    11.00000    0.03317    0.04704 =
         0.04218   -0.00350   -0.00999   -0.00769
AFIX  43
H6    2    0.389532    0.920525    0.336460    11.00000   -1.20000
AFIX   0
C7    1    0.402673    0.769033    0.508242    11.00000    0.03536    0.05342 =
         0.04087   -0.00279   -0.01350   -0.01132
AFIX  43
H7    2    0.273666    0.810596    0.493243    11.00000   -1.20000
AFIX   0
C8    1    0.401223    0.686375    0.596982    11.00000    0.03491    0.04881 =
         0.03921   -0.00479   -0.01320   -0.01048
C9    1    0.204904    0.665646    0.662058    11.00000    0.04058    0.05494 =
         0.04406    0.00166   -0.01658   -0.01708
C10   1    0.440258    0.528238    0.760565    11.00000    0.04164    0.04455 =
         0.04486   -0.00233   -0.01606   -0.01075
C11   1    0.071421    0.532357    0.823350    11.00000    0.05076    0.05711 =
         0.05929    0.01162   -0.01954   -0.02884
AFIX  23
H11A  2    0.128568    0.422324    0.848577    11.00000   -1.20000
H11B  2   -0.027299    0.522666    0.785088    11.00000   -1.20000
AFIX   0
C12   1   -0.042164    0.655736    0.915960    11.00000    0.04283    0.06071 =
         0.05393    0.01970   -0.00947   -0.01587
AFIX  43
H12   2   -0.161205    0.639023    0.958970    11.00000   -1.20000
AFIX   0
C13   1    0.006810    0.784239    0.943288    11.00000    0.06823    0.06462 =
         0.05898   -0.00324    0.00303   -0.02004
AFIX  93
H13A  2    0.124389    0.806740    0.903026    11.00000   -1.20000
H13B  2   -0.075684    0.853796    1.003128    11.00000   -1.20000
AFIX   0
C14   1    0.446915    1.054107    0.160120    11.00000    0.05782    0.06917 =
         0.05690    0.01292   -0.02185   -0.01315
AFIX  33
H14A  2    0.448089    1.111696    0.096202    11.00000   -1.50000
H14B  2    0.412353    0.952496    0.152892    11.00000   -1.50000
H14C  2    0.345210    1.126461    0.217832    11.00000   -1.50000
AFIX   0
N1    3    0.240619    0.576152    0.750172    11.00000    0.04116    0.04950 =
         0.04398    0.00159   -0.01497   -0.01689
O1    4    0.035591    0.716223    0.644239    11.00000    0.04227    0.09898 =
         0.06713    0.02329   -0.02636   -0.02784
O2    4    0.647057    1.012130    0.180023    11.00000    0.04624    0.08200 =
         0.05850    0.02267   -0.01027   -0.01474
S1    5    0.603842    0.591503    0.655174    11.00000    0.03460    0.05973 =
         0.04389    0.00062   -0.01372   -0.00911
S2    5    0.526986    0.427682    0.855876    11.00000    0.05704    0.07264 =
         0.05936    0.01825   -0.02600   -0.01587
HKLF 4
REM  EL15_D172_DRX2_CAOME_a.res in P-1
REM R1 =  0.0392 for    3618 Fo > 4sig(Fo)  and  0.0517 for all    4522 data
REM    172 parameters refined using      0 restraints
END
WGHT      0.0622      0.1273
REM Highest difference peak  0.300,  deepest hole -0.261,  1-sigma level  0.052
Q1    1   0.4872  0.4207  0.8083  11.00000  0.05    0.30
Q2    1   0.4750  0.5156  0.8767  11.00000  0.05    0.28
Q3    1   0.7846  0.8929  0.2695  11.00000  0.05    0.22
Q4    1   0.0060  0.6178  0.8626  11.00000  0.05    0.21
Q5    1   0.3928  0.7462  0.5582  11.00000  0.05    0.20
Q6    1   0.0334  0.6760  0.9286  11.00000  0.05    0.20
Q7    1   0.5412  0.5355  0.6946  11.00000  0.05    0.20
Q8    1   0.2224  0.6160  0.7113  11.00000  0.05    0.20
Q9    1   0.5436  0.8622  0.3950  11.00000  0.05    0.19
Q10   1   0.6519  0.9707  0.2314  11.00000  0.05    0.19
;
_shelx_res_checksum              52486
loop_
_space_group_symop_operation_xyz
'x, y, z'
'-x, -y, -z'
loop_
_atom_site_type_symbol
_atom_site_label
_atom_site_fract_x
_atom_site_fract_y
_atom_site_fract_z
_atom_site_U_iso_or_equiv
_atom_site_adp_type
_atom_site_calc_flag
_atom_site_occupancy
C C1 0.6784(2) 0.92899(16) 0.26792(11) 0.0453(3) Uani d 1
C C2 0.8814(2) 0.88347(19) 0.27837(12) 0.0528(3) Uani d 1
H H2 0.9846 0.9093 0.2274 0.063 Uiso calc 1
C C3 0.9283(2) 0.8002(2) 0.36440(12) 0.0555(3) Uani d 1
H H3 1.0641 0.7700 0.3711 0.067 Uiso calc 1
C C4 0.7776(2) 0.76011(19) 0.44141(11) 0.0512(3) Uani d 1
H H4 0.8122 0.7042 0.4993 0.061 Uiso calc 1
C C5 0.57287(19) 0.80427(16) 0.43169(10) 0.0410(2) Uani d 1
C C6 0.52494(19) 0.88990(16) 0.34378(10) 0.0418(3) Uani d 1
H H6 0.3895 0.9205 0.3365 0.050 Uiso calc 1
C C7 0.40267(19) 0.76903(16) 0.50824(10) 0.0431(3) Uani d 1
H H7 0.2737 0.8106 0.4932 0.052 Uiso calc 1
C C8 0.40122(19) 0.68638(16) 0.59698(10) 0.0408(2) Uani d 1
C C9 0.2049(2) 0.66565(17) 0.66206(10) 0.0450(3) Uani d 1
C C10 0.4403(2) 0.52824(16) 0.76057(10) 0.0434(3) Uani d 1
C C11 0.0714(2) 0.53236(19) 0.82335(12) 0.0520(3) Uani d 1
H H11A 0.1286 0.4223 0.8486 0.062 Uiso calc 1
H H11B -0.0273 0.5227 0.7851 0.062 Uiso calc 1
C C12 -0.0422(2) 0.65574(19) 0.91596(12) 0.0533(3) Uani d 1
H H12 -0.1612 0.6390 0.9590 0.064 Uiso calc 1
C C13 0.0068(3) 0.7842(2) 0.94329(14) 0.0677(4) Uani d 1
H H13A 0.1244 0.8067 0.9030 0.081 Uiso calc 1
H H13B -0.0757 0.8538 1.0031 0.081 Uiso calc 1
C C14 0.4469(3) 1.0541(2) 0.16012(13) 0.0616(4) Uani d 1
H H14A 0.4481 1.1117 0.0962 0.092 Uiso calc 1
H H14B 0.4124 0.9525 0.1529 0.092 Uiso calc 1
H H14C 0.3452 1.1265 0.2178 0.092 Uiso calc 1
N N1 0.24062(17) 0.57615(14) 0.75017(9) 0.0435(2) Uani d 1
O O1 0.03559(17) 0.71622(17) 0.64424(9) 0.0660(3) Uani d 1
O O2 0.64706(17) 1.01213(16) 0.18002(9) 0.0643(3) Uani d 1
S S1 0.60384(5) 0.59150(4) 0.65517(3) 0.04671(11) Uani d 1
S S2 0.52699(7) 0.42768(6) 0.85588(3) 0.06213(13) Uani d 1
loop_
_atom_site_aniso_label
_atom_site_aniso_U_11
_atom_site_aniso_U_22
_atom_site_aniso_U_33
_atom_site_aniso_U_12
_atom_site_aniso_U_13
_atom_site_aniso_U_23
C1 0.0380(6) 0.0469(6) 0.0453(6) -0.0068(5) -0.0083(5) -0.0009(5)
C2 0.0346(6) 0.0607(8) 0.0560(8) -0.0105(5) -0.0042(5) -0.0015(6)
C3 0.0317(6) 0.0695(9) 0.0612(9) -0.0085(6) -0.0135(6) -0.0020(7)
C4 0.0391(6) 0.0636(8) 0.0488(7) -0.0090(6) -0.0162(5) 0.0004(6)
C5 0.0352(5) 0.0458(6) 0.0395(6) -0.0076(4) -0.0110(4) -0.0062(5)
C6 0.0332(5) 0.0470(6) 0.0422(6) -0.0077(4) -0.0100(4) -0.0035(5)
C7 0.0354(5) 0.0534(7) 0.0409(6) -0.0113(5) -0.0135(5) -0.0028(5)
C8 0.0349(5) 0.0488(6) 0.0392(6) -0.0105(5) -0.0132(4) -0.0048(5)
C9 0.0406(6) 0.0549(7) 0.0441(6) -0.0171(5) -0.0166(5) 0.0017(5)
C10 0.0416(6) 0.0445(6) 0.0449(6) -0.0107(5) -0.0161(5) -0.0023(5)
C11 0.0508(7) 0.0571(8) 0.0593(8) -0.0288(6) -0.0195(6) 0.0116(6)
C12 0.0428(7) 0.0607(8) 0.0539(8) -0.0159(6) -0.0095(6) 0.0197(6)
C13 0.0682(10) 0.0646(9) 0.0590(9) -0.0200(8) 0.0030(8) -0.0032(7)
C14 0.0578(9) 0.0692(9) 0.0569(9) -0.0132(7) -0.0219(7) 0.0129(7)
N1 0.0412(5) 0.0495(6) 0.0440(5) -0.0169(4) -0.0150(4) 0.0016(4)
O1 0.0423(5) 0.0990(9) 0.0671(7) -0.0278(5) -0.0264(5) 0.0233(6)
O2 0.0462(6) 0.0820(8) 0.0585(6) -0.0147(5) -0.0103(5) 0.0227(6)
S1 0.03460(15) 0.0597(2) 0.04389(18) -0.00911(13) -0.01372(12) 0.00062(13)
S2 0.0570(2) 0.0726(3) 0.0594(2) -0.01587(19) -0.02600(18) 0.01825(18)
loop_
_atom_type_symbol
_atom_type_description
_atom_type_scat_dispersion_real
_atom_type_scat_dispersion_imag
_atom_type_scat_source
C C 0.0033 0.0016 'International Tables Vol C Tables 4.2.6.8 and 6.1.1.4'
H H 0.0000 0.0000 'International Tables Vol C Tables 4.2.6.8 and 6.1.1.4'
N N 0.0061 0.0033 'International Tables Vol C Tables 4.2.6.8 and 6.1.1.4'
O O 0.0106 0.0060 'International Tables Vol C Tables 4.2.6.8 and 6.1.1.4'
S S 0.1246 0.1234 'International Tables Vol C Tables 4.2.6.8 and 6.1.1.4'
loop_
_geom_angle_atom_site_label_1
_geom_angle_atom_site_label_2
_geom_angle_atom_site_label_3
_geom_angle
O2 C1 C6 124.67(12)
O2 C1 C2 115.21(13)
C6 C1 C2 120.12(13)
C3 C2 C1 119.57(13)
C3 C2 H2 120.2
C1 C2 H2 120.2
C2 C3 C4 121.39(13)
C2 C3 H3 119.3
C4 C3 H3 119.3
C3 C4 C5 119.69(14)
C3 C4 H4 120.2
C5 C4 H4 120.2
C4 C5 C6 118.87(12)
C4 C5 C7 124.13(12)
C6 C5 C7 117.00(11)
C1 C6 C5 120.35(12)
C1 C6 H6 119.8
C5 C6 H6 119.8
C8 C7 C5 130.67(12)
C8 C7 H7 114.7
C5 C7 H7 114.7
C7 C8 C9 120.39(11)
C7 C8 S1 130.08(10)
C9 C8 S1 109.53(9)
O1 C9 N1 123.01(13)
O1 C9 C8 126.62(13)
N1 C9 C8 110.37(11)
N1 C10 S2 127.52(11)
N1 C10 S1 110.74(10)
S2 C10 S1 121.74(8)
N1 C11 C12 114.59(11)
N1 C11 H11A 108.6
C12 C11 H11A 108.6
N1 C11 H11B 108.6
C12 C11 H11B 108.6
H11A C11 H11B 107.6
C13 C12 C11 127.06(14)
C13 C12 H12 116.5
C11 C12 H12 116.5
C12 C13 H13A 120.0
C12 C13 H13B 120.0
H13A C13 H13B 120.0
O2 C14 H14A 109.5
O2 C14 H14B 109.5
H14A C14 H14B 109.5
O2 C14 H14C 109.5
H14A C14 H14C 109.5
H14B C14 H14C 109.5
C10 N1 C9 116.48(11)
C10 N1 C11 123.16(12)
C9 N1 C11 120.32(11)
C1 O2 C14 118.75(12)
C8 S1 C10 92.87(6)
loop_
_geom_bond_atom_site_label_1
_geom_bond_atom_site_label_2
_geom_bond_distance
C1 O2 1.3668(17)
C1 C6 1.3860(18)
C1 C2 1.3920(19)
C2 C3 1.373(2)
C2 H2 0.9300
C3 C4 1.385(2)
C3 H3 0.9300
C4 C5 1.4008(18)
C4 H4 0.9300
C5 C6 1.4050(18)
C5 C7 1.4564(18)
C6 H6 0.9300
C7 C8 1.3441(19)
C7 H7 0.9300
C8 C9 1.4827(18)
C8 S1 1.7445(13)
C9 O1 1.2079(16)
C9 N1 1.4001(17)
C10 N1 1.3685(17)
C10 S2 1.6335(14)
C10 S1 1.7494(14)
C11 N1 1.4639(17)
C11 C12 1.487(2)
C11 H11A 0.9700
C11 H11B 0.9700
C12 C13 1.298(2)
C12 H12 0.9300
C13 H13A 0.9300
C13 H13B 0.9300
C14 O2 1.422(2)
C14 H14A 0.9600
C14 H14B 0.9600
C14 H14C 0.9600
loop_
_geom_hbond_atom_site_label_D
_geom_hbond_atom_site_label_H
_geom_hbond_atom_site_label_A
_geom_hbond_site_symmetry_A
_geom_hbond_distance_DH
_geom_hbond_distance_HA
_geom_hbond_distance_DA
_geom_hbond_angle_DHA
C4 H4 S1 . 0.93 2.55 3.2497(17) 133
C13 H13A O2 2_676 0.93 2.57 3.441(2) 157
