#------------------------------------------------------------------------------
#$Date: 2016-06-17 04:47:27 +0300 (Fri, 17 Jun 2016) $
#$Revision: 183627 $
#$URL: file:///home/coder/svn-repositories/cod/cif/1/54/34/1543462.cif $
#------------------------------------------------------------------------------
#
# This file is available in the Crystallography Open Database (COD),
# http://www.crystallography.net/. The original data for this entry
# were provided by IUCr Journals, http://journals.iucr.org/.
#
# The file may be used within the scientific community so long as
# proper attribution is given to the journal article from which the
# data were obtained.
#
data_1543462
loop_
_publ_author_name
'Partl, Gabriel'
'Lampl, Martin'
'Laus, Gerhard'
'Wurst, Klaus'
'Huppertz, Hubert'
'Schottenberger, Herwig'
_publ_section_title
;
 1,3-Dimethoxy-2-methylimidazolium bis(trifluoromethanesulfonyl)imide
;
_journal_coeditor_code           HB4048
_journal_issue                   5
_journal_name_full               IUCrData
_journal_page_first              x160824
_journal_paper_doi               10.1107/S2414314616008245
_journal_volume                  1
_journal_year                    2016
_chemical_formula_iupac          'C6 H11 N2 O2 +, C2 F6 N O4 S2 -'
_chemical_formula_moiety         'C6 H11 N2 O2 +, C2 F6 N O4 S2 -'
_chemical_formula_sum            'C8 H11 F6 N3 O6 S2'
_chemical_formula_weight         423.32
_chemical_name_systematic
;
1,3-Dimethoxy-2-methylimidazolium bis(trifluoromethanesulfonyl)imide
;
_space_group_crystal_system      monoclinic
_space_group_IT_number           9
_space_group_name_Hall           'C -2yc'
_space_group_name_H-M_alt        'C 1 c 1'
_symmetry_space_group_name_Hall  'C -2yc'
_symmetry_space_group_name_H-M   'C 1 c 1'
_atom_sites_solution_hydrogens   geom
_audit_creation_method           SHELXL-2014/7
_cell_angle_alpha                90
_cell_angle_beta                 98.1790(10)
_cell_angle_gamma                90
_cell_formula_units_Z            4
_cell_length_a                   12.4858(6)
_cell_length_b                   14.0212(6)
_cell_length_c                   9.8480(4)
_cell_measurement_reflns_used    9895
_cell_measurement_temperature    183(2)
_cell_measurement_theta_max      25.2
_cell_measurement_theta_min      2.8
_cell_volume                     1706.51(13)
_computing_cell_refinement
;
SAINT (Bruker, 2012)
;
_computing_data_collection
;
APEX2 (Bruker, 2012)
;
_computing_data_reduction
;
SAINT (Bruker, 2012)
;
_computing_molecular_graphics
;
ORTEP-3 for Windows (Farrugia, 2012)
;
_computing_publication_material
;
Mercury (Macrae <i>et al.</i>,  2006)
;
_computing_structure_refinement
;
SHELXL2014 (Sheldrick, 2015b)
;
_computing_structure_solution
;
SHELXT (Sheldrick, 2015a)
;
_diffrn_ambient_temperature      183(2)
_diffrn_detector_area_resol_mean 10.4
_diffrn_measured_fraction_theta_full 0.999
_diffrn_measured_fraction_theta_max 0.999
_diffrn_measurement_device_type  'Bruker D8 QUEST PHOTON 100'
_diffrn_measurement_method       '\f and \w scans'
_diffrn_radiation_monochromator  'multi layered optics'
_diffrn_radiation_type           MoK\a
_diffrn_radiation_wavelength     0.71073
_diffrn_reflns_av_R_equivalents  0.0272
_diffrn_reflns_limit_h_max       14
_diffrn_reflns_limit_h_min       -14
_diffrn_reflns_limit_k_max       16
_diffrn_reflns_limit_k_min       -16
_diffrn_reflns_limit_l_max       11
_diffrn_reflns_limit_l_min       -11
_diffrn_reflns_number            24313
_diffrn_reflns_theta_full        25.242
_diffrn_reflns_theta_max         25.248
_diffrn_reflns_theta_min         2.197
_exptl_absorpt_coefficient_mu    0.404
_exptl_absorpt_correction_T_max  0.914
_exptl_absorpt_correction_T_min  0.851
_exptl_absorpt_correction_type   multi-scan
_exptl_absorpt_process_details
;
(SADABS; Bruker, 2012)
;
_exptl_crystal_colour            colourless
_exptl_crystal_density_diffrn    1.648
_exptl_crystal_description       prism
_exptl_crystal_F_000             856
_exptl_crystal_size_max          0.180
_exptl_crystal_size_mid          0.160
_exptl_crystal_size_min          0.120
_refine_diff_density_max         0.345
_refine_diff_density_min         -0.227
_refine_ls_abs_structure_details
;
Flack <i>x</i> determined using 1476 quotients
[(<i>I</i>^+^)-(<i>I</i>^-^)]/[(<i>I</i>^+^)+(<i>I</i>^-^)]
(Parsons <i>et al.</i>,  2013)
;
_refine_ls_abs_structure_Flack   0.493(15)
_refine_ls_extinction_coef       0.0046(10)
_refine_ls_extinction_expression Fc^*^=kFc[1+0.001xFc^2^\l^3^/sin(2\q)]^-1/4^
_refine_ls_extinction_method
;
SHELXL2014 (Sheldrick, 2015b)
;
_refine_ls_goodness_of_fit_ref   1.051
_refine_ls_hydrogen_treatment    constr
_refine_ls_matrix_type           full
_refine_ls_number_parameters     228
_refine_ls_number_reflns         3088
_refine_ls_number_restraints     2
_refine_ls_restrained_S_all      1.050
_refine_ls_R_factor_all          0.0334
_refine_ls_R_factor_gt           0.0326
_refine_ls_shift/su_max          0.000
_refine_ls_shift/su_mean         0.000
_refine_ls_structure_factor_coef Fsqd
_refine_ls_weighting_details
'w=1/[\s^2^(Fo^2^)+(0.0576P)^2^+1.0708P] where P=(Fo^2^+2Fc^2^)/3'
_refine_ls_weighting_scheme      calc
_refine_ls_wR_factor_gt          0.0906
_refine_ls_wR_factor_ref         0.0915
_reflns_number_gt                3020
_reflns_number_total             3088
_reflns_threshold_expression     'I > 2\s(I)'
_cod_data_source_file            hb4048sup1.cif
_cod_data_source_block           I
_cod_database_code               1543462
_shelx_space_group_comment
;
The symmetry employed for this shelxl refinement is uniquely defined
by the following loop, which should always be used as a source of
symmetry information in preference to the above space-group names.
They are only intended as comments.
;
_shelx_estimated_absorpt_t_min   0.931
_shelx_estimated_absorpt_t_max   0.953
_shelx_hkl_file
;
  -2   0   0 5172.68  134.49
   2   0   0 5731.03  135.69
  -2   0   0 5468.05  135.29
  -2   0   0 5520.45  134.29
  -2   0   0 5547.65  135.39
  -4   0   0    6.30    0.70
  -4   0   0    6.80    0.90
  -4   0   0    6.00    0.80
   4   0   0    6.70    0.90
   4   0   0    6.20    0.60
   4   0   0    4.50    0.70
   4   0   0    6.20    0.80
  -4   0   0    6.20    0.80
   6   0   0  316.77    8.80
  -6   0   0  317.07    9.20
  -6   0   0  329.47    9.20
  -6   0   0  323.67    9.00
   6   0   0  311.67    9.20
   6   0   0  330.17    8.60
  -6   0   0  319.27    8.60
   6   0   0  318.07    9.30
   8   0   0  151.98    5.00
  -8   0   0  150.88    5.40
  -8   0   0  149.69    4.90
   8   0   0  155.48    4.80
   8   0   0  149.09    5.70
  -8   0   0  146.49    5.60
  -8   0   0  156.28    5.60
   8   0   0  147.49    5.50
 -10   0   0  300.97    9.60
 -10   0   0  298.47    9.90
  10   0   0  281.47    8.60
  10   0   0  305.07    8.90
 -10   0   0  299.07    9.80
  10   0   0  292.97    9.90
  10   0   0  284.77    9.80
  12   0   0   23.50    3.30
 -12   0   0   23.30    3.40
 -12   0   0   31.80    3.60
  12   0   0   22.50    3.10
  12   0   0   21.30    2.60
 -12   0   0   25.50    2.50
 -12   0   0   26.90    3.40
  12   0   0   21.40    2.40
  12   0   0   26.00    2.30
 -14   0   0  182.28    7.10
  14   0   0  202.78    6.90
  14   0   0  202.78    9.10
 -14   0   0  192.68    8.50
 -14   0   0  201.38    9.20
  14   0   0  190.88    7.20
  14   0   0  189.48    7.10
  14   0   0  197.78    8.90
 -14   0   0  194.88    8.60
  -1  -1   0  100.09    2.90
   1  -1   0  109.49    2.70
  -1  -1   0  106.09    2.90
  -1   1   0  107.49    3.10
  -3  -1   0  620.24   15.80
   3  -1   0  627.04   15.70
   3  -1   0  630.74   15.50
   3  -1   0  633.04   15.60
  -3  -1   0  624.34   15.90
   3  -1   0  632.74   15.90
  -3  -1   0  645.44   16.00
   3  -1   0  614.54   16.00
   3   1   0  638.94   15.80
  -3   1   0  622.84   15.60
  -3   1   0  621.94   16.00
   3   1   0  636.34   16.00
  -3   1   0  629.84   15.70
  -3   1   0  637.34   16.00
   3   1   0  615.94   15.60
   3   1   0  645.54   15.90
  -5  -1   0  357.86    9.90
   5  -1   0  359.16   10.10
  -5  -1   0  362.96   10.00
   5  -1   0  371.26    9.60
  -5  -1   0  361.16    9.90
  -5  -1   0  357.06    9.50
   5  -1   0  372.06    9.50
   5  -1   0  359.26   10.00
  -5   1   0  382.16   10.10
  -5   1   0  356.56    9.50
   5   1   0  365.06    9.70
  -5   1   0  386.46   10.00
   5   1   0  363.66    9.50
   5   1   0  339.77    9.90
   5   1   0  361.36   10.00
  -5   1   0  347.17    9.70
   7  -1   0   48.30    2.20
  -7  -1   0   46.40    2.50
  -7  -1   0   44.60    2.50
   7  -1   0   41.70    2.00
   7  -1   0   46.40    2.70
   7  -1   0   44.50    2.60
  -7  -1   0   44.70    2.70
  -7  -1   0   47.20    2.10
   7   1   0   45.80    2.30
  -7   1   0   51.49    2.70
  -7   1   0   45.70    2.10
  -7   1   0   45.50    2.80
   7   1   0   49.20    2.70
   7   1   0   42.20    2.60
   7   1   0   47.10    2.10
  -7   1   0   46.70    2.50
  -9  -1   0  187.68    6.60
  -9  -1   0  185.88    5.90
  -9  -1   0  175.68    6.50
   9  -1   0  181.88    5.90
   9  -1   0  184.78    5.60
   9  -1   0  184.58    6.70
   9  -1   0  185.58    6.90
  -9  -1   0  184.88    6.80
   9  -1   0  181.38    6.60
  -9   1   0  188.78    6.90
   9   1   0  186.98    6.80
   9   1   0  185.58    6.00
  -9   1   0  184.78    6.60
  -9   1   0  184.88    6.40
   9   1   0  180.68    6.70
  -9   1   0  183.68    5.90
 -11  -1   0  407.86   12.70
  11  -1   0  386.06   11.50
  11  -1   0  429.06   13.20
 -11  -1   0  411.26   13.00
 -11  -1   0  401.66   12.60
  11  -1   0  416.16   12.90
  11  -1   0  414.26   11.40
 -11  -1   0  407.96   11.70
  11  -1   0  400.16   11.70
  11   1   0  424.16   13.10
 -11   1   0  402.16   11.70
 -11   1   0  412.56   13.00
  11   1   0  408.76   11.80
  11   1   0  420.06   11.70
 -11   1   0  394.36   12.60
  11   1   0  417.66   12.90
 -11   1   0  409.66   12.50
  13  -1   0   26.40    3.60
 -13  -1   0   27.20    2.80
 -13  -1   0   27.40    4.60
 -13  -1   0   21.00    3.30
 -13  -1   0   29.70    4.10
  13  -1   0   32.30    4.60
  13  -1   0   24.00    2.90
  13  -1   0   26.40    2.70
  13  -1   0   26.40    2.70
  13   1   0   24.20    3.00
  13   1   0   27.60    3.70
 -13   1   0   27.40    3.90
  13   1   0   28.00    2.80
 -13   1   0   28.50    3.80
  13   1   0   30.90    4.50
 -13   1   0   30.00    2.80
 -13   1   0   25.60    3.20
   0  -2   0 1580.64   37.90
   0  -2   0 1444.76   37.70
   0  -2   0 1527.75   38.20
   0  -2   0 1510.45   37.20
   0  -2   0 1564.34   38.10
   0   2   0 1479.65   37.70
   0   2   0 1528.85   37.90
   0   2   0 1512.65   37.10
   0   2   0 1552.84   38.20
   0   2   0 1466.45   37.30
   0   2   0 1551.84   37.40
   0   2   0 1416.46   37.20
  -2  -2   0   44.80    1.70
   2  -2   0   44.90    1.50
   2  -2   0   46.50    1.80
   2  -2   0   47.00    1.50
   2  -2   0   55.69    1.50
   2  -2   0   48.20    1.80
  -2  -2   0   46.90    1.70
  -2  -2   0   47.20    1.50
   2   2   0   48.10    1.80
   2   2   0   47.60    1.70
  -2   2   0   46.60    1.50
   2   2   0   48.90    1.60
  -2   2   0   49.90    1.80
  -2   2   0   49.20    1.50
  -2   2   0   49.10    1.80
  -2   2   0   46.40    1.50
   4  -2   0  152.18    4.40
  -4  -2   0  146.79    4.70
   4  -2   0  148.79    4.80
   4  -2   0  164.88    4.30
   4  -2   0  158.08    4.30
  -4  -2   0  160.88    4.70
  -4  -2   0  160.88    4.80
   4  -2   0  149.19    4.80
  -4  -2   0  156.18    4.40
  -4   2   0  165.18    4.90
   4   2   0  151.38    4.50
  -4   2   0  156.18    4.80
   4   2   0  151.18    4.80
  -4   2   0  160.08    4.40
   4   2   0  158.18    4.80
   4   2   0  149.49    4.40
  -4   2   0  150.28    4.40
  -6  -2   0   76.89    3.20
  -6  -2   0   78.19    3.30
   6  -2   0   79.09    3.40
   6  -2   0   76.09    2.80
   6  -2   0   76.09    2.60
  -6  -2   0   77.99    2.80
  -6  -2   0   70.69    3.10
   6  -2   0   75.59    2.70
  -6   2   0   74.99    2.90
  -6   2   0   80.49    3.40
   6   2   0   73.59    3.40
   6   2   0   74.69    3.20
  -6   2   0   74.99    3.20
   6   2   0   73.79    2.90
  -6   2   0   77.39    2.70
   6   2   0   68.69    2.70
  -8  -2   0  261.77    7.70
   8  -2   0  260.47    8.60
   8  -2   0  267.27    7.50
   8  -2   0  252.67    8.50
  -8  -2   0  266.77    8.40
  -8  -2   0  273.97    8.40
  -8  -2   0  279.57    8.60
   8  -2   0  269.27    7.60
   8  -2   0  273.17    7.70
  -8   2   0  265.17    8.40
   8   2   0  267.67    7.90
   8   2   0  264.57    7.70
   8   2   0  263.37    8.40
   8   2   0  275.07    8.60
  -8   2   0  254.17    8.00
  -8   2   0  278.67    8.70
  -8   2   0  269.07    7.70
  10  -2   0   14.10    2.30
 -10  -2   0    9.10    2.00
 -10  -2   0   13.50    2.20
  10  -2   0   14.20    2.40
 -10  -2   0   10.30    1.90
  10  -2   0   12.80    1.60
  10  -2   0   12.50    1.70
 -10   2   0   13.70    2.00
 -10   2   0   11.90    1.50
  10   2   0   12.90    2.10
  10   2   0    8.70    1.40
 -10   2   0   16.60    2.60
  10   2   0   13.30    1.90
  12  -2   0    7.00    2.20
  12  -2   0    6.00    1.20
  12  -2   0    6.00    1.40
 -12  -2   0    5.10    2.00
 -12  -2   0    6.20    2.40
  12  -2   0    6.80    2.30
 -12  -2   0    8.70    2.30
  12  -2   0    5.80    1.50
 -12  -2   0    6.90    1.50
 -12   2   0    6.00    2.00
 -12   2   0    5.60    1.40
 -12   2   0    3.50    2.00
  12   2   0    7.20    1.60
  12   2   0    6.70    2.20
  12   2   0    7.00    1.60
  12   2   0    9.70    2.50
 -12   2   0    5.70    1.90
 -14  -2   0   49.40    3.70
  14  -2   0   39.70    5.30
  14  -2   0   48.30    3.70
 -14  -2   0   51.49    6.50
  14  -2   0   44.60    3.40
 -14  -2   0   41.70    5.20
  14  -2   0   47.50    5.40
  14  -2   0   41.90    3.50
 -14  -2   0   35.50    5.10
 -14   2   0   39.00    4.70
  14   2   0   39.20    3.70
 -14   2   0   42.10    5.60
  14   2   0   35.50    3.60
 -14   2   0   40.20    3.40
  14   2   0   57.19    5.70
 -14   2   0   43.90    4.90
  14   2   0   48.20    5.20
  -1  -3   0 1502.45   38.00
   1  -3   0 1551.94   38.60
  -1  -3   0 1477.35   38.40
   1  -3   0 1562.64   39.30
   1  -3   0 1557.64   39.30
  -1  -3   0 1566.74   38.50
  -1  -3   0 1588.64   37.60
   1  -3   0 1525.35   38.50
  -1  -3   0 1647.34   38.60
  -1  -3   0 1472.05   37.80
   1   3   0 1577.84   39.10
  -1   3   0 1499.15   37.80
  -1   3   0 1547.45   37.90
   1   3   0 1559.04   38.40
   1   3   0 1488.45   37.90
  -1   3   0 1460.55   37.80
   1   3   0 1592.04   39.30
   1   3   0 1652.93   39.20
   1   3   0 1566.74   38.60
  -1   3   0 1517.45   38.60
   3  -3   0 4190.28  102.89
  -3  -3   0 4140.09  101.79
   3  -3   0 3999.10  102.09
   3  -3   0 3974.50  100.89
   3  -3   0 4076.99  101.29
   3  -3   0 4155.38  100.59
  -3  -3   0 4193.28  102.39
  -3  -3   0 4162.48  102.89
  -3  -3   0 4087.89  102.69
  -3   3   0 3945.51  100.69
  -3   3   0 4164.88  102.69
   3   3   0 3952.80  101.19
   3   3   0 3954.30  101.09
   3   3   0 4162.68  101.19
  -3   3   0 4031.00  100.69
  -3   3   0 4161.08  100.89
   3   3   0 4057.49  101.99
  -3   3   0 4276.07  101.79
  -5  -3   0  571.04   14.80
   5  -3   0  574.44   14.80
   5  -3   0  574.84   14.70
   5  -3   0  588.84   14.80
  -5  -3   0  592.54   15.30
   5  -3   0  586.64   15.50
   5  -3   0  577.84   15.50
  -5  -3   0  572.94   15.30
  -5  -3   0  611.64   15.50
  -5   3   0  590.24   15.50
   5   3   0  595.04   15.50
   5   3   0  535.65   15.20
   5   3   0  557.14   15.00
  -5   3   0  606.14   14.80
   5   3   0  578.54   14.90
  -5   3   0  601.14   15.40
  -5   3   0  561.74   14.90
   7  -3   0   93.99    3.30
   7  -3   0   96.79    3.30
   7  -3   0   91.99    4.10
  -7  -3   0   92.89    3.90
   7  -3   0   94.99    3.20
  -7  -3   0   95.89    4.10
  -7  -3   0   94.69    3.90
  -7  -3   0   94.09    3.40
   7  -3   0   96.29    4.10
  -7   3   0   95.19    4.10
   7   3   0   99.59    3.60
  -7   3   0   92.59    3.40
  -7   3   0   90.49    3.50
   7   3   0   94.59    4.00
   7   3   0   96.19    3.40
   7   3   0  102.39    4.20
  -7   3   0   94.59    3.90
   9  -3   0  328.57    9.20
  -9  -3   0  289.17   10.90
   9  -3   0  314.77   10.30
  -9  -3   0  328.07    9.40
  -9  -3   0  328.77   10.30
   9  -3   0  313.07    9.70
   9  -3   0  339.27    9.10
  -9  -3   0  345.17   10.20
   9   3   0  318.07   10.30
   9   3   0  340.37    9.60
   9   3   0  320.17   10.20
  -9   3   0  337.47   10.20
  -9   3   0  328.17   10.40
   9   3   0  319.77    9.30
  -9   3   0  313.47    9.60
  -9   3   0  318.27    9.30
  11  -3   0  598.54   16.70
 -11  -3   0  612.94   18.00
 -11  -3   0  627.44   18.00
 -11  -3   0  632.54   18.30
  11  -3   0  639.84   16.60
  11  -3   0  632.84   18.40
  11  -3   0  633.84   16.70
  11  -3   0  652.53   18.40
 -11  -3   0  627.84   17.00
 -11   3   0  605.54   17.40
 -11   3   0  595.54   17.90
 -11   3   0  601.74   16.90
  11   3   0  645.24   18.20
 -11   3   0  612.84   18.30
  11   3   0  610.24   17.00
  11   3   0  631.34   16.90
  11   3   0  637.54   18.30
 -13  -3   0  193.48    7.00
  13  -3   0  195.78    6.60
  13  -3   0  187.08    8.50
  13  -3   0  192.58    6.70
 -13  -3   0  202.88    9.00
 -13  -3   0  190.98    9.50
 -13  -3   0  187.88    8.10
  13  -3   0  204.18    6.80
 -13   3   0  174.58    6.80
 -13   3   0  194.68    7.70
  13   3   0  190.28    7.00
  13   3   0  183.88    7.00
  13   3   0  210.88    8.80
 -13   3   0  174.98    8.10
 -13   3   0  204.48    8.70
  13   3   0  199.18    8.50
   0  -4   0 6965.50  171.98
   0  -4   0 6779.72  169.48
   0  -4   0 7139.29  172.08
   0  -4   0 6882.91  172.58
   0   4   0 6664.33  170.68
   0   4   0 7213.08  172.28
   0   4   0 7304.27  171.08
   0   4   0 6821.22  171.18
   0   4   0 6938.31  171.58
   0   4   0 6902.51  172.38
   0   4   0 6910.41  170.98
  -2  -4   0 1192.98   30.00
  -2  -4   0 1206.38   29.70
  -2  -4   0 1163.48   29.90
   2  -4   0 1257.67   30.10
   2  -4   0 1217.18   30.10
   2  -4   0 1152.48   29.60
  -2  -4   0 1222.78   29.80
   2  -4   0 1219.98   29.80
  -2  -4   0 1223.48   30.10
  -2   4   0 1172.08   29.70
   2   4   0 1192.58   30.10
   2   4   0 1186.58   29.70
   2   4   0 1193.48   29.70
   2   4   0 1207.48   30.20
  -2   4   0 1245.78   30.10
   2   4   0 1225.28   30.00
  -2   4   0 1206.98   29.60
   2   4   0 1211.48   30.00
  -2   4   0 1280.07   30.10
   4  -4   0  106.79    3.30
   4  -4   0  108.49    3.10
   4  -4   0  105.39    3.80
   4  -4   0   99.49    3.70
  -4  -4   0  111.09    3.40
   4  -4   0  108.59    3.20
  -4  -4   0  104.09    3.70
  -4  -4   0  103.39    3.60
  -4  -4   0  104.79    3.60
   4   4   0  105.69    3.70
   4   4   0  106.29    3.30
  -4   4   0  104.19    3.20
   4   4   0  112.79    3.70
  -4   4   0  105.39    3.20
   4   4   0   92.79    3.50
  -4   4   0  111.99    3.90
   4   4   0  104.29    3.40
  -6  -4   0 1527.55   37.80
  -6  -4   0 1520.15   37.20
   6  -4   0 1476.25   37.00
  -6  -4   0 1567.24   37.80
  -6  -4   0 1526.15   37.90
   6  -4   0 1474.45   38.00
   6  -4   0 1489.65   37.00
   6  -4   0 1521.35   37.10
   6  -4   0 1459.95   38.00
   6   4   0 1527.45   38.00
  -6   4   0 1563.24   38.10
  -6   4   0 1499.25   37.10
   6   4   0 1494.35   37.40
  -6   4   0 1528.95   37.90
   6   4   0 1387.46   37.10
  -6   4   0 1501.35   37.20
   6   4   0 1451.85   37.80
  -8  -4   0  247.68    7.40
   8  -4   0  249.78    7.10
   8  -4   0  250.97    8.30
  -8  -4   0  246.58    8.00
   8  -4   0  252.47    7.20
   8  -4   0  255.87    8.30
   8  -4   0  255.57    7.20
  -8  -4   0  235.88    8.00
  -8  -4   0  253.37    8.30
  -8   4   0  236.78    7.40
   8   4   0  239.68    8.20
  -8   4   0  252.27    8.20
  -8   4   0  245.08    7.30
   8   4   0  250.97    7.50
   8   4   0  247.48    7.40
   8   4   0  256.97    8.20
  -8   4   0  248.08    8.30
  10  -4   0  147.19    5.00
 -10  -4   0  139.69    6.00
  10  -4   0  143.29    6.30
 -10  -4   0  146.79    6.30
 -10  -4   0  140.79    6.20
 -10  -4   0  137.69    5.30
  10  -4   0  146.59    4.90
  10  -4   0  150.28    5.00
 -10   4   0  142.29    5.10
 -10   4   0  143.79    5.50
  10   4   0  141.69    5.10
  10   4   0  138.09    5.20
 -10   4   0  149.29    6.40
  10   4   0  142.09    6.20
 -10   4   0  135.69    5.90
 -12  -4   0   29.20    2.80
  12  -4   0   28.20    2.60
 -12  -4   0   23.20    3.00
 -12  -4   0   31.80    4.60
 -12  -4   0   28.40    3.80
  12  -4   0   32.40    2.60
  12  -4   0   32.00    4.00
  12  -4   0   30.80    2.60
  12   4   0   27.80    2.80
  12   4   0   22.10    3.10
 -12   4   0   27.90    3.70
  12   4   0   28.30    2.80
 -12   4   0   29.10    2.80
 -12   4   0   30.60    4.30
  12   4   0   26.00    3.30
 -12   4   0   23.90    2.70
  14  -4   0    5.20    1.70
 -14  -4   0   10.10    3.10
 -14  -4   0    5.60    1.90
  14  -4   0   10.90    3.40
  14  -4   0    3.80    1.80
 -14  -4   0    9.90    3.00
  14  -4   0    5.60    1.90
 -14  -4   0    5.80    3.70
  14  -4   0    2.50    2.70
  14   4   0    8.20    3.30
 -14   4   0    6.20    1.80
  14   4   0   -1.90    2.80
 -14   4   0    7.20    3.10
 -14   4   0    7.00    2.50
 -14   4   0    6.00    2.80
  14   4   0    5.00    1.80
  -1  -5   0  743.83   18.40
   1  -5   0  726.73   18.10
   1  -5   0  692.73   17.70
  -1  -5   0  772.92   18.10
  -1  -5   0  681.93   18.00
  -1  -5   0  730.63   18.40
   1  -5   0  739.43   18.50
   1  -5   0  719.53   18.50
   1  -5   0  722.43   18.30
  -1  -5   0  750.52   18.60
  -1  -5   0  742.53   18.60
  -1   5   0  712.33   18.00
  -1   5   0  727.93   18.20
  -1   5   0  684.23   18.30
  -1   5   0  753.42   18.50
   1   5   0  732.43   18.50
   1   5   0  747.23   18.50
   1   5   0  708.83   18.10
   1   5   0  735.53   18.40
   1   5   0  648.04   18.20
   1   5   0  714.33   17.90
  -1   5   0  742.73   18.50
   3  -5   0  163.68    5.20
  -3  -5   0  165.48    5.00
   3  -5   0  176.78    4.90
   3  -5   0  167.68    4.70
   3  -5   0  173.08    5.30
   3  -5   0  164.48    4.40
  -3  -5   0  165.78    5.10
  -3  -5   0  164.68    5.20
  -3  -5   0  165.28    4.80
   3   5   0  151.98    5.00
   3   5   0  174.08    4.80
  -3   5   0  179.78    5.40
  -3   5   0  167.58    4.80
   3   5   0  169.58    5.20
  -3   5   0  176.18    4.70
   3   5   0  157.88    5.40
   3   5   0  160.08    4.80
  -3   5   0  163.08    5.20
   5  -5   0   49.80    2.60
   5  -5   0   48.00    2.60
  -5  -5   0   43.80    2.00
   5  -5   0   44.30    1.80
  -5  -5   0   45.20    2.40
   5  -5   0   44.10    1.90
   5  -5   0   46.00    2.00
  -5  -5   0   44.10    2.50
  -5  -5   0   41.90    2.40
   5   5   0   46.80    2.40
   5   5   0   49.70    2.50
  -5   5   0   42.30    1.90
   5   5   0   42.30    2.00
  -5   5   0   46.60    2.00
   5   5   0   48.30    2.20
  -5   5   0   47.00    2.60
   5   5   0   45.10    2.50
  -5   5   0   41.00    2.40
  -7  -5   0   24.70    2.30
   7  -5   0   22.60    2.40
  -7  -5   0   25.80    2.30
   7  -5   0   27.60    2.50
   7  -5   0   25.90    1.60
   7  -5   0   23.80    1.60
  -7  -5   0   25.00    1.80
  -7  -5   0   25.40    2.40
   7  -5   0   24.60    1.60
  -7   5   0   25.60    2.50
   7   5   0   25.70    2.30
   7   5   0   25.90    1.80
  -7   5   0   25.70    2.20
   7   5   0   23.00    2.20
  -7   5   0   23.40    1.70
   7   5   0   26.00    1.90
  -7   5   0   23.10    1.60
   9  -5   0   32.00    3.20
  -9  -5   0   30.90    2.30
  -9  -5   0   31.20    2.90
   9  -5   0   33.40    2.10
  -9  -5   0   30.10    3.00
   9  -5   0   25.60    2.10
   9  -5   0   31.20    3.10
   9  -5   0   29.90    2.30
  -9  -5   0   33.00    3.20
  -9   5   0   29.00    2.10
   9   5   0   28.70    2.40
  -9   5   0   28.90    2.20
  -9   5   0   24.10    3.40
   9   5   0   31.80    3.10
  -9   5   0   29.10    3.10
   9   5   0   29.50    2.90
   9   5   0   27.90    2.20
 -11  -5   0   27.90    3.80
 -11  -5   0   30.50    3.70
  11  -5   0   33.80    2.50
  11  -5   0   34.00    2.50
 -11  -5   0   35.20    2.80
  11  -5   0   36.00    3.80
  11  -5   0   31.30    2.50
 -11  -5   0   27.90    4.00
  11  -5   0   32.10    3.70
  11   5   0   31.70    3.70
 -11   5   0   36.10    2.70
 -11   5   0   25.20    3.40
 -11   5   0   34.10    3.00
  11   5   0   29.00    2.60
  11   5   0   29.10    2.70
  11   5   0   37.00    3.60
 -11   5   0   28.80    4.00
  13  -5   0   45.10    3.30
 -13  -5   0   42.40    3.70
 -13  -5   0   40.30    5.20
  13  -5   0   43.60    5.10
  13  -5   0   39.80    3.30
  13  -5   0   40.30    5.30
 -13  -5   0   48.10    5.80
 -13  -5   0   47.80    5.10
  13  -5   0   42.30    3.30
 -13   5   0   40.80    5.40
 -13   5   0   39.80    3.20
  13   5   0   46.80    5.10
  13   5   0   29.30    3.30
 -13   5   0   43.10    4.50
  13   5   0   36.60    3.50
 -13   5   0   41.50    3.90
   0  -6   0 1653.43   42.10
   0  -6   0 1723.23   42.40
   0  -6   0 1727.33   41.90
   0  -6   0 1710.63   41.90
   0   6   0 1666.63   42.00
   0   6   0 1695.03   41.90
   0   6   0 1735.63   41.80
   0   6   0 1658.93   42.00
   0   6   0 1642.34   41.60
   0   6   0 1713.53   41.60
   0   6   0 1704.73   42.00
   2  -6   0  496.65   12.90
   2  -6   0  526.15   13.70
  -2  -6   0  531.65   13.90
  -2  -6   0  523.45   14.00
  -2  -6   0  533.95   14.00
  -2  -6   0  516.25   13.50
   2  -6   0  516.35   13.40
  -2  -6   0  537.85   13.60
   2  -6   0  534.95   14.00
   2  -6   0  535.85   14.00
   2   6   0  530.65   13.30
  -2   6   0  543.25   14.10
  -2   6   0  530.95   13.90
   2   6   0  526.45   13.90
  -2   6   0  505.75   13.40
   2   6   0  537.75   13.90
   2   6   0  528.65   14.10
  -2   6   0  518.65   14.00
   2   6   0  527.65   13.80
  -2   6   0  530.65   13.60
   2   6   0  516.25   13.50
   4  -6   0  121.49    4.00
   4  -6   0  127.89    3.80
  -4  -6   0  127.89    4.40
   4  -6   0  121.19    3.50
   4  -6   0  117.89    4.50
  -4  -6   0  129.39    4.00
  -4  -6   0  121.39    4.20
   4  -6   0  117.79    4.40
  -4  -6   0  124.19    4.50
  -4   6   0  128.99    3.90
   4   6   0  127.49    4.00
  -4   6   0  116.99    3.80
   4   6   0  124.49    4.30
   4   6   0  126.79    4.40
   4   6   0  125.49    4.80
   4   6   0  118.69    4.40
  -4   6   0  124.99    4.50
  -4   6   0  127.09    4.60
   4   6   0  121.59    3.90
  -6  -6   0  226.38    7.40
  -6  -6   0  240.78    6.90
   6  -6   0  247.68    7.80
   6  -6   0  222.58    7.60
  -6  -6   0  232.68    7.60
   6  -6   0  230.08    6.80
   6  -6   0  232.98    6.40
  -6  -6   0  237.28    7.50
   6  -6   0  239.08    6.70
  -6   6   0  247.88    7.80
   6   6   0  228.78    6.90
  -6   6   0  228.38    7.50
   6   6   0  230.18    7.00
  -6   6   0  242.08    6.80
   6   6   0  238.98    7.40
   6   6   0  236.88    7.40
  -6   6   0  232.28    6.70
   6   6   0  239.68    7.60
   8  -6   0  185.08    6.90
   8  -6   0  170.08    5.60
  -8  -6   0  184.48    5.90
   8  -6   0  176.78    6.80
  -8  -6   0  181.98    6.70
  -8  -6   0  184.48    6.60
   8  -6   0  181.18    5.80
  -8  -6   0  174.38    6.70
   8  -6   0  186.38    5.40
   8   6   0  183.18    6.50
  -8   6   0  183.18    6.80
  -8   6   0  181.58    5.70
   8   6   0  178.28    5.90
   8   6   0  172.58    6.60
   8   6   0  173.18    6.50
  -8   6   0  183.28    6.60
   8   6   0  176.68    5.80
  10  -6   0  143.69    5.00
 -10  -6   0  141.39    6.20
  10  -6   0  132.39    4.60
  10  -6   0  145.89    6.40
 -10  -6   0  147.79    6.40
 -10  -6   0  143.69    5.20
  10  -6   0  138.49    6.40
 -10  -6   0  140.09    6.40
  10  -6   0  143.59    5.00
  10   6   0  132.59    5.10
 -10   6   0  128.59    6.10
 -10   6   0  133.59    5.90
 -10   6   0  135.29    6.30
  10   6   0  136.19    6.30
  10   6   0  138.29    6.20
  10   6   0  137.69    5.30
 -10   6   0  132.89    5.00
  12  -6   0    0.80    2.40
  12  -6   0   -0.40    1.30
  12  -6   0    1.90    2.30
 -12  -6   0    1.80    2.20
 -12  -6   0   -1.20    2.40
 -12  -6   0   -0.50    2.30
  12  -6   0    0.70    1.20
  12  -6   0    1.20    1.20
 -12  -6   0    0.30    1.40
 -12   6   0   -2.70    2.10
 -12   6   0    0.00    1.30
  12   6   0   -2.30    2.10
  12   6   0   -2.10    2.20
 -12   6   0   -0.20    1.50
 -12   6   0   -1.30    2.10
  12   6   0   -0.70    1.30
  12   6   0   -0.80    1.30
  -1  -7   0  375.36   10.20
   1  -7   0  386.16    9.90
   1  -7   0  384.16   10.20
  -1  -7   0  362.56   10.30
   1  -7   0  367.06   10.40
   1  -7   0  366.36   10.30
  -1  -7   0  356.36   10.50
  -1  -7   0  366.46    9.70
   1  -7   0  363.16    9.40
  -1   7   0  388.16   10.40
   1   7   0  372.36   10.40
  -1   7   0  368.46   10.30
  -1   7   0  366.26    9.80
  -1   7   0  375.26   10.00
  -1   7   0  374.36    9.90
  -1   7   0  367.26   10.30
   1   7   0  359.46   10.10
   1   7   0  374.46    9.50
   1   7   0  360.46   10.30
   1   7   0  372.36    9.90
   1   7   0  364.26    9.90
   1   7   0  373.86   10.30
   1   7   0  375.06   10.20
   3  -7   0  392.36   10.00
  -3  -7   0  363.26   10.20
  -3  -7   0  371.66   10.40
  -3  -7   0  360.56   10.50
   3  -7   0  384.86   10.70
   3  -7   0  371.86   10.20
  -3  -7   0  391.36   10.00
   3  -7   0  351.96   10.60
  -3  -7   0  376.06   10.60
  -3   7   0  386.06    9.90
   3   7   0  359.36   10.50
   3   7   0  370.56   10.80
   3   7   0  381.86   10.50
  -3   7   0  371.26   10.60
   3   7   0  384.86    9.90
  -3   7   0  373.26   10.60
  -3   7   0  374.26   10.00
   3   7   0  357.36   10.00
  -3   7   0  360.56   10.40
   3   7   0  383.56   10.40
  -5  -7   0   71.79    2.90
   5  -7   0   69.99    2.70
   5  -7   0   69.19    2.90
  -5  -7   0   73.39    3.40
  -5  -7   0   72.19    3.30
   5  -7   0   71.59    2.40
   5  -7   0   70.69    3.50
   5  -7   0   70.29    3.50
  -5  -7   0   68.69    3.50
  -5   7   0   68.69    3.50
  -5   7   0   69.89    3.40
   5   7   0   73.89    3.30
   5   7   0   69.69    3.40
  -5   7   0   70.79    2.70
   5   7   0   71.09    3.30
  -5   7   0   73.79    2.80
   5   7   0   74.09    2.90
   5   7   0   71.29    2.90
   5   7   0   72.89    3.80
   7  -7   0  611.74   17.10
   7  -7   0  607.84   15.80
  -7  -7   0  584.34   16.00
  -7  -7   0  603.04   17.00
  -7  -7   0  595.44   17.10
   7  -7   0  596.84   15.40
   7  -7   0  598.64   17.10
   7  -7   0  603.04   16.00
  -7  -7   0  623.34   16.80
  -7   7   0  614.44   16.00
  -7   7   0  621.64   17.10
  -7   7   0  609.64   16.90
   7   7   0  614.84   16.80
  -7   7   0  606.74   15.90
   7   7   0  613.04   16.20
   7   7   0  581.94   16.20
   7   7   0  613.74   16.80
   7   7   0  602.54   16.90
  -9  -7   0   57.29    4.00
  -9  -7   0   63.39    4.30
   9  -7   0   60.69    4.10
   9  -7   0   63.29    2.70
   9  -7   0   65.79    4.40
   9  -7   0   60.19    3.10
  -9  -7   0   64.59    3.30
  -9  -7   0   61.99    4.10
   9  -7   0   66.19    3.10
   9   7   0   60.19    4.00
  -9   7   0   63.29    4.30
  -9   7   0   59.09    3.00
   9   7   0   63.99    3.90
  -9   7   0   57.19    3.80
   9   7   0   65.29    3.20
   9   7   0   58.69    3.20
   9   7   0   62.19    3.90
 -11  -7   0   93.69    5.50
  11  -7   0   89.09    5.80
 -11  -7   0   96.39    4.50
 -11  -7   0   94.09    5.90
  11  -7   0   91.99    4.20
  11  -7   0   93.39    5.60
  11  -7   0   96.29    3.70
 -11  -7   0   87.19    5.70
  11  -7   0   87.39    4.10
  11   7   0   98.99    5.40
  11   7   0   97.59    5.30
 -11   7   0   97.69    5.70
 -11   7   0   85.09    4.10
  11   7   0   90.19    4.30
  11   7   0   93.49    5.50
  11   7   0   89.99    4.40
 -11   7   0   91.39    5.20
  13  -7   0   61.89    7.30
  13  -7   0   51.19    3.90
 -13  -7   0   64.09    6.90
  13  -7   0   48.10    3.80
 -13  -7   0   50.19    4.10
 -13  -7   0   47.70    5.60
  13  -7   0   43.00    3.30
  13  -7   0   42.00    6.10
 -13   7   0   47.30    3.70
 -13   7   0   46.90    5.30
  13   7   0   54.69    5.70
  13   7   0   48.60    5.40
  13   7   0   43.10    5.10
  13   7   0   48.00    3.70
 -13   7   0   50.69    5.60
   0  -8   0    1.40    0.90
   0  -8   0    3.30    1.00
   0  -8   0    2.00    0.90
   0  -8   0    1.60    0.50
   0   8   0    1.50    0.70
   0   8   0    1.60    0.60
   0   8   0    1.90    0.90
   0   8   0    2.00    0.80
   0   8   0    2.20    0.80
   0   8   0    1.40    0.60
   0   8   0    2.30    0.80
   2  -8   0  479.65   12.80
  -2  -8   0  486.45   12.90
   2  -8   0  508.45   13.60
   2  -8   0  474.25   12.20
   2  -8   0  471.45   13.50
  -2  -8   0  474.35   13.60
  -2  -8   0  502.15   13.60
   2  -8   0  495.15   13.30
  -2  -8   0  465.55   13.30
  -2   8   0  492.75   13.00
  -2   8   0  498.35   13.40
  -2   8   0  506.15   13.60
   2   8   0  499.95   13.10
   2   8   0  502.55   13.60
   2   8   0  490.35   13.30
   2   8   0  501.45   12.60
   2   8   0  474.65   12.90
   2   8   0  485.55   13.40
  -2   8   0  485.95   12.80
   2   8   0  504.95   13.50
  -2   8   0  495.75   13.50
   2   8   0  489.35   13.30
  -4  -8   0  185.28    5.70
  -4  -8   0  184.78    6.40
  -4  -8   0  198.78    6.30
   4  -8   0  183.88    6.40
  -4  -8   0  181.38    6.00
   4  -8   0  184.18    5.60
   4  -8   0  184.18    6.40
   4  -8   0  178.38    5.10
   4  -8   0  194.48    5.90
   4   8   0  185.38    5.80
   4   8   0  186.18    6.20
   4   8   0  189.38    6.20
  -4   8   0  198.38    5.60
   4   8   0  186.38    6.60
   4   8   0  196.48    6.40
  -4   8   0  185.38    6.40
  -4   8   0  188.28    5.70
   4   8   0  194.98    5.60
  -4   8   0  184.78    6.30
  -6  -8   0  249.58    8.10
   6  -8   0  253.37    7.20
   6  -8   0  243.18    8.30
  -6  -8   0  260.97    8.10
  -6  -8   0  264.57    8.40
  -6  -8   0  250.27    7.40
   6  -8   0  242.28    6.60
   6  -8   0  235.48    8.20
   6  -8   0  240.78    7.50
  -6   8   0  251.87    8.20
   6   8   0  254.87    8.10
   6   8   0  253.77    7.40
   6   8   0  243.18    8.60
   6   8   0  240.78    8.00
  -6   8   0  236.98    7.20
  -6   8   0  255.97    7.30
   6   8   0  254.07    7.50
  -6   8   0  245.78    8.30
   6   8   0  229.78    8.00
  -8  -8   0  137.59    6.00
   8  -8   0  136.39    4.10
  -8  -8   0  141.19    5.00
  -8  -8   0  137.69    5.80
   8  -8   0  138.39    4.70
   8  -8   0  131.99    4.90
   8  -8   0  125.29    5.90
   8  -8   0  136.09    5.90
  -8  -8   0  136.39    5.80
   8   8   0  141.59    5.70
   8   8   0  134.99    6.30
   8   8   0  133.89    5.00
   8   8   0  130.59    5.80
   8   8   0  130.99    4.90
  -8   8   0  129.69    4.70
  -8   8   0  133.09    4.80
  -8   8   0  136.09    5.70
  -8   8   0  135.39    6.10
 -10  -8   0    7.20    2.40
  10  -8   0    5.50    1.00
  10  -8   0    6.10    2.20
  10  -8   0    2.40    1.20
 -10  -8   0    5.60    1.50
 -10  -8   0    8.00    2.40
  10  -8   0    6.70    1.40
  10  -8   0   10.40    2.50
 -10   8   0    6.70    1.40
 -10   8   0    8.60    2.50
  10   8   0   10.00    2.30
  10   8   0    5.40    1.40
  10   8   0    5.10    1.50
  10   8   0    6.10    2.00
 -10   8   0    4.70    2.00
  10   8   0    4.10    1.90
 -12  -8   0   22.90    3.60
  12  -8   0   17.40    3.20
  12  -8   0   23.90    2.90
 -12  -8   0   22.40    3.80
  12  -8   0   17.90    2.30
  12  -8   0   19.00    3.40
 -12  -8   0   32.10    3.40
  12  -8   0   21.70    3.10
 -12  -8   0   20.10    3.60
  12   8   0   21.50    3.30
  12   8   0   24.80    3.30
 -12   8   0   21.70    2.80
  12   8   0   22.20    3.40
  12   8   0   16.60    2.20
 -12   8   0   23.90    3.30
 -12   8   0   20.30    3.40
  12   8   0   24.20    3.40
  -1  -9   0  113.99    4.50
   1  -9   0  107.89    4.20
  -1  -9   0  111.19    3.70
   1  -9   0  112.89    4.50
   1  -9   0  106.09    3.30
  -1  -9   0  110.29    4.30
  -1  -9   0  103.49    4.50
   1   9   0  109.29    4.40
  -1   9   0  109.79    3.90
   1   9   0  106.99    3.80
  -1   9   0  108.19    3.70
  -1   9   0  102.39    4.40
   1   9   0  112.29    4.40
   1   9   0  103.29    4.30
  -1   9   0  109.59    4.20
  -1   9   0  106.39    4.30
   1   9   0  113.39    4.10
   1   9   0  107.39    4.10
  -1   9   0  113.39    4.40
   1   9   0  110.49    3.90
  -1   9   0  108.69    3.90
   3  -9   0  167.28    6.20
  -3  -9   0  173.78    6.40
  -3  -9   0  173.98    6.10
   3  -9   0  187.18    6.40
  -3  -9   0  173.38    5.50
   3  -9   0  175.08    5.50
   3  -9   0  172.78    6.10
  -3  -9   0  177.88    6.40
  -3  -9   0  182.88    5.80
   3  -9   0  175.18    4.70
  -3   9   0  178.98    6.20
   3   9   0  186.18    6.10
  -3   9   0  174.58    5.40
   3   9   0  177.58    6.20
   3   9   0  180.08    5.60
  -3   9   0  180.78    6.10
  -3   9   0  179.78    6.30
   3   9   0  180.28    6.30
  -3   9   0  184.38    5.60
   3   9   0  179.28    6.00
   3   9   0  181.48    5.30
   5  -9   0   20.20    1.20
  -5  -9   0   17.30    2.30
   5  -9   0   22.30    1.80
  -5  -9   0   22.90    2.40
   5  -9   0   25.20    3.10
  -5  -9   0   22.90    2.40
  -5  -9   0   20.10    1.90
   5  -9   0   23.30    2.70
  -5   9   0   27.30    2.70
   5   9   0   20.50    2.60
  -5   9   0   24.40    1.80
  -5   9   0   18.40    2.30
   5   9   0   22.50    2.50
   5   9   0   18.50    1.70
   5   9   0   18.30    2.20
  -5   9   0   19.40    1.70
   5   9   0   21.30    1.90
   5   9   0   23.90    2.40
   7  -9   0  145.79    6.10
   7  -9   0  118.49    5.50
  -7  -9   0  151.58    5.90
  -7  -9   0  143.69    5.00
   7  -9   0  140.59    6.10
  -7  -9   0  142.59    6.10
   7  -9   0  142.09    5.20
   7  -9   0  140.19    4.00
  -7  -9   0  144.09    5.80
   7   9   0  140.79    5.80
   7   9   0  127.99    6.10
   7   9   0  142.59    5.80
  -7   9   0  144.19    4.90
   7   9   0  141.39    5.00
  -7   9   0  133.69    5.90
   7   9   0  143.69    5.10
  -7   9   0  140.69    4.80
   7   9   0  134.69    5.60
  -7   9   0  126.29    5.60
   9  -9   0    5.60    1.40
  -9  -9   0    3.80    1.30
   9  -9   0    4.50    2.00
  -9  -9   0    9.80    2.20
  -9  -9   0    6.70    2.50
   9  -9   0    7.80    1.40
   9  -9   0   10.50    2.20
  -9  -9   0    6.80    1.90
   9  -9   0    7.20    0.90
   9   9   0    3.50    2.90
   9   9   0    4.70    1.80
   9   9   0    7.40    1.40
   9   9   0    7.00    2.00
  -9   9   0    6.60    2.10
  -9   9   0    4.30    1.20
  -9   9   0    7.00    1.30
  -9   9   0    6.40    2.00
   9   9   0    3.20    1.30
 -11  -9   0   83.79    4.50
  11  -9   0   85.89    3.30
  11  -9   0   90.69    4.50
  11  -9   0   87.19    4.30
  11  -9   0   87.39    5.90
 -11  -9   0   90.19    6.40
  11  -9   0   81.59    6.10
 -11  -9   0   89.29    6.40
 -11  -9   0   84.19    5.80
  11   9   0   84.69    5.40
  11   9   0   92.79    5.90
 -11   9   0   89.59    5.70
 -11   9   0   88.79    6.10
  11   9   0   83.39    4.40
  11   9   0   86.29    4.50
  11   9   0   83.19    5.50
 -11   9   0   84.89    4.20
   0 -10   0  218.18    7.60
   0 -10   0  228.78    7.50
   0 -10   0  227.28    6.50
   0  10   0  216.58    7.40
   0  10   0  226.08    6.80
   0  10   0  233.58    7.30
   0  10   0  233.38    6.90
   0  10   0  222.08    7.00
   0  10   0  229.08    7.40
   0  10   0  231.68    7.50
  -2 -10   0  185.68    6.50
   2 -10   0  196.68    6.80
   2 -10   0  189.68    6.90
  -2 -10   0  185.48    5.90
   2 -10   0  186.08    8.20
  -2 -10   0  179.68    7.40
   2 -10   0  183.18    5.20
  -2  10   0  201.18    6.70
  -2  10   0  190.38    6.10
   2  10   0  189.68    6.40
  -2  10   0  194.98    6.50
   2  10   0  188.08    6.60
  -2  10   0  190.08    6.70
   2  10   0  195.08    6.10
  -2  10   0  204.08    6.10
   2  10   0  190.38    6.70
  -2  10   0  185.98    5.80
   2  10   0  195.78    6.40
   2  10   0  190.68    6.60
   2  10   0  189.28    6.00
  -4 -10   0  509.85   13.50
   4 -10   0  484.15   12.60
   4 -10   0  490.25   13.90
   4 -10   0  489.85   14.50
  -4 -10   0  508.45   14.30
  -4 -10   0  514.75   14.60
  -4 -10   0  511.25   14.00
   4 -10   0  485.95   12.40
   4 -10   0  493.55   14.40
   4 -10   0  512.05   13.50
  -4  10   0  485.45   14.30
  -4  10   0  490.25   14.20
   4  10   0  500.55   13.20
  -4  10   0  510.85   14.50
   4  10   0  517.95   13.70
   4  10   0  507.55   14.20
   4  10   0  497.15   14.30
   4  10   0  505.25   14.60
  -4  10   0  499.25   13.40
  -4  10   0  502.05   13.50
   4  10   0  492.15   14.10
   6 -10   0  289.27    9.00
   6 -10   0  307.97    8.70
  -6 -10   0  300.47    9.60
   6 -10   0  294.17    9.90
  -6 -10   0  296.07    8.70
  -6 -10   0  297.77    9.50
  -6 -10   0  303.57   10.00
   6 -10   0  292.77    9.80
   6  10   0  291.67    8.80
  -6  10   0  289.97    8.60
   6  10   0  270.57   10.00
   6  10   0  295.77    9.50
   6  10   0  279.27    9.60
  -6  10   0  293.27    8.70
  -6  10   0  312.17   10.00
   6  10   0  295.67   10.00
   6  10   0  296.07    9.50
  -6  10   0  288.97    9.60
   8 -10   0   24.60    1.20
   8 -10   0   24.20    3.60
  -8 -10   0   24.90    2.70
  -8 -10   0   28.30    3.40
   8 -10   0   23.00    2.70
   8 -10   0   26.50    2.40
  -8 -10   0   23.40    3.40
   8 -10   0   32.10    3.70
  -8 -10   0   19.90    3.00
   8  10   0   24.70    3.20
  -8  10   0   27.90    3.20
   8  10   0   30.40    3.70
   8  10   0   21.90    3.20
   8  10   0   22.00    2.30
  -8  10   0   27.50    2.20
  -8  10   0   21.80    2.20
   8  10   0   21.20    3.00
   8  10   0   23.80    2.50
  -8  10   0   24.50    3.00
  10 -10   0    5.30    1.70
  10 -10   0    5.60    1.70
  10 -10   0    4.30    0.80
  10 -10   0    9.60    2.80
  10 -10   0    3.40    2.40
 -10 -10   0    3.40    1.60
 -10 -10   0    1.70    2.40
 -10 -10   0    3.70    2.50
 -10 -10   0    4.10    3.00
  10  10   0   11.00    2.40
  10  10   0    7.40    2.50
  10  10   0    3.50    1.50
 -10  10   0    7.00    2.10
  10  10   0    3.40    2.30
 -10  10   0    1.10    2.20
  10  10   0    6.40    1.60
  10  10   0    3.90    2.60
 -10  10   0    6.30    1.50
  -1 -11   0   76.59    3.20
  -1 -11   0   82.99    4.20
  -1 -11   0   73.19    4.30
   1 -11   0   75.69    4.00
  -1 -11   0   87.19    4.10
   1 -11   0   77.89    2.90
   1 -11   0   76.49    4.10
   1  11   0   75.19    3.90
  -1  11   0   78.19    3.80
   1  11   0   80.49    3.50
  -1  11   0   79.39    3.90
   1  11   0   77.19    3.70
  -1  11   0   80.69    3.50
   1  11   0   77.19    3.30
  -1  11   0   76.29    3.20
   1  11   0   72.29    3.80
  -1  11   0   69.49    3.80
  -1  11   0   75.99    4.00
  -1  11   0   79.59    4.10
   1  11   0   75.49    3.90
   1  11   0   75.39    4.00
   3 -11   0   11.80    1.80
   3 -11   0   16.10    1.10
   3 -11   0   17.40    2.40
   3 -11   0   13.40    1.60
  -3 -11   0   19.00    2.40
   3 -11   0   14.30    2.20
  -3 -11   0   14.50    1.80
  -3 -11   0   17.30    2.20
  -3  11   0   15.70    2.30
   3  11   0   18.40    2.60
  -3  11   0   16.40    1.80
   3  11   0   16.20    2.00
   3  11   0   17.50    2.50
  -3  11   0   18.40    2.30
  -3  11   0   18.00    2.20
   3  11   0   17.50    2.30
   3  11   0   13.40    2.10
  -3  11   0   16.80    1.70
   3  11   0   16.50    2.00
  -5 -11   0  560.94   14.80
   5 -11   0  526.75   15.90
  -5 -11   0  565.84   15.70
  -5 -11   0  546.45   15.40
   5 -11   0  550.34   15.30
  -5 -11   0  542.35   15.90
   5 -11   0  529.55   15.80
   5 -11   0  551.14   14.70
  -5  11   0  525.65   15.60
  -5  11   0  517.35   14.50
  -5  11   0  552.34   14.80
   5  11   0  514.75   15.50
   5  11   0  529.45   15.90
   5  11   0  550.84   15.50
   5  11   0  546.95   14.50
   5  11   0  552.04   14.90
   5  11   0  558.24   15.50
  -5  11   0  531.05   15.80
  -5  11   0  536.85   15.70
  -7 -11   0    5.70    2.40
  -7 -11   0    4.00    1.90
   7 -11   0    3.00    2.00
  -7 -11   0    7.00    1.50
  -7 -11   0    6.50    2.10
   7 -11   0    3.90    1.30
   7 -11   0    3.20    2.00
   7 -11   0    5.40    1.40
   7  11   0    5.70    2.00
   7  11   0    3.90    1.30
  -7  11   0    5.30    1.30
  -7  11   0    4.90    1.90
   7  11   0    4.40    1.40
  -7  11   0    3.80    1.80
   7  11   0    7.80    1.90
   7  11   0    2.60    1.50
  -7  11   0    3.00    1.20
   7  11   0    3.90    1.80
  -9 -11   0   27.80    3.00
  -9 -11   0   31.10    4.30
   9 -11   0   35.20    3.30
  -9 -11   0   26.00    3.50
   9 -11   0   21.50    3.20
   9 -11   0   34.20    3.00
  -9 -11   0   30.40    4.00
   9 -11   0   23.80    3.50
   9  11   0   34.50    4.00
   9  11   0   28.10    3.90
   9  11   0   36.70    4.00
  -9  11   0   26.40    2.50
  -9  11   0   28.50    3.70
  -9  11   0   27.40    3.60
   9  11   0   28.20    2.60
   9  11   0   31.60    4.30
   9  11   0   28.50    3.20
  -9  11   0   22.50    2.60
 -11 -11   0    1.90    2.00
 -11 -11   0    4.80    3.90
 -11 -11   0    0.50    3.20
  11 -11   0    1.00    2.10
  11 -11   0    0.30    3.10
  11 -11   0    4.50    1.80
  11  11   0    4.10    2.60
 -11  11   0   -2.00    2.40
 -11  11   0    4.30    2.80
  11  11   0   -2.00    2.50
 -11  11   0    1.20    1.70
  11  11   0    0.50    2.50
  11  11   0    2.80    3.20
  11  11   0   -0.80    1.40
   0 -12   0  878.21   22.80
   0 -12   0  943.21   24.30
   0 -12   0  910.81   24.60
   0  12   0  866.91   23.50
   0  12   0  882.31   24.20
   0  12   0  914.21   23.40
   0  12   0  861.81   23.30
   0  12   0  895.31   24.10
   0  12   0  895.31   24.20
   0  12   0  916.61   23.90
   2 -12   0  128.69    5.90
   2 -12   0  133.89    5.60
   2 -12   0  130.19    4.10
  -2 -12   0  132.79    4.90
  -2 -12   0  138.19    5.70
  -2 -12   0  130.99    5.80
  -2  12   0  130.89    4.90
  -2  12   0  112.49    6.10
   2  12   0  127.59    4.90
   2  12   0  127.59    5.60
  -2  12   0  139.49    5.70
   2  12   0  123.69    5.40
  -2  12   0  129.89    5.00
   2  12   0  132.69    5.60
   2  12   0  134.69    5.20
   2  12   0  131.09    5.40
  -2  12   0  128.79    5.40
  -2  12   0  127.99    5.70
  -2  12   0  131.59    5.70
   4 -12   0   26.20    3.30
   4 -12   0   26.40    2.90
  -4 -12   0   23.20    3.10
  -4 -12   0   27.60    3.00
   4 -12   0   20.30    2.40
   4 -12   0   22.60    2.80
   4 -12   0   21.40    1.40
   4 -12   0   23.50    1.20
   4  12   0   28.00    3.40
   4  12   0   21.30    2.70
   4  12   0   19.80    2.60
   4  12   0   21.00    2.40
  -4  12   0   19.00    1.90
   4  12   0   24.50    1.80
   4  12   0   21.60    2.30
   4  12   0   21.70    2.50
  -4  12   0   16.00    2.30
  -4  12   0   22.90    3.00
  -4  12   0   19.80    2.50
  -4  12   0   19.40    2.00
   4  12   0   20.30    3.00
   6 -12   0   58.49    4.30
  -6 -12   0   55.89    4.10
   6 -12   0   54.19    3.70
  -6 -12   0   60.89    4.30
   6 -12   0   52.79    3.20
  -6 -12   0   59.69    4.80
   6 -12   0   44.30    4.00
  -6 -12   0   52.09    3.20
  -6  12   0   50.39    3.80
  -6  12   0   52.09    2.90
   6  12   0   50.89    2.80
  -6  12   0   54.19    4.00
   6  12   0   51.99    4.00
  -6  12   0   52.39    4.10
   6  12   0   57.09    3.80
   6  12   0   52.99    3.20
   6  12   0   52.79    3.90
  -6  12   0   48.90    3.00
   6  12   0   59.59    3.90
   8 -12   0   10.40    2.80
   8 -12   0    8.60    1.80
  -8 -12   0    6.10    1.80
  -8 -12   0    8.30    2.70
   8 -12   0    7.40    2.10
   8 -12   0    9.00    2.60
  -8 -12   0    6.40    3.10
  -8 -12   0    5.00    3.10
  -8  12   0    7.40    2.30
   8  12   0    8.60    2.30
   8  12   0    7.40    1.40
   8  12   0    5.10    1.60
   8  12   0   11.50    2.60
  -8  12   0    5.50    1.30
   8  12   0    6.60    2.30
  -8  12   0   11.50    2.70
   8  12   0    8.50    2.40
  -8  12   0    6.20    2.10
  -8  12   0    6.60    1.40
  10 -12   0    7.50    3.10
  10 -12   0    7.60    2.30
 -10 -12   0    8.60    2.10
  10 -12   0    9.20    2.20
 -10 -12   0   12.70    3.50
 -10 -12   0   12.00    3.80
 -10 -12   0    9.20    3.70
  10  12   0    8.40    1.60
 -10  12   0   11.20    1.90
  10  12   0    9.30    3.20
  10  12   0    6.50    2.50
 -10  12   0   10.60    2.80
 -10  12   0    8.80    1.90
  10  12   0   10.00    2.30
  10  12   0   11.50    3.10
 -10  12   0    3.40    3.00
  10  12   0    8.40    2.40
   1 -13   0   59.79    4.40
  -1 -13   0   60.49    4.20
   1 -13   0   66.39    4.10
  -1 -13   0   61.09    3.30
   1 -13   0   58.19    2.80
  -1 -13   0   65.29    4.20
  -1 -13   0   66.79    4.70
  -1  13   0   60.29    3.30
  -1  13   0   55.49    3.00
   1  13   0   59.19    3.80
   1  13   0   52.19    3.80
  -1  13   0   62.79    3.40
  -1  13   0   64.79    3.90
   1  13   0   61.79    3.40
  -1  13   0   54.49    3.90
  -1  13   0   58.09    3.90
   1  13   0   55.69    3.20
  -1  13   0   53.99    3.80
   1  13   0   60.29    3.40
   1  13   0   62.69    3.80
   1  13   0   62.69    4.00
  -3 -13   0    6.50    2.00
  -3 -13   0    4.80    2.00
   3 -13   0    6.30    0.90
  -3 -13   0    5.00    2.00
   3 -13   0    4.40    1.80
   3 -13   0    4.50    1.90
   3  13   0    8.10    2.00
   3  13   0    5.60    1.90
  -3  13   0    5.50    1.40
   3  13   0    4.70    1.40
   3  13   0    3.30    1.50
  -3  13   0    3.10    1.10
   3  13   0    4.40    1.40
   3  13   0    6.00    1.60
  -3  13   0    6.00    1.30
   3  13   0    7.30    1.90
  -3  13   0    3.70    1.70
  -3  13   0    6.20    1.80
  -3  13   0    2.80    1.90
  -3  13   0    6.30    1.90
  -5 -13   0   16.50    2.40
   5 -13   0   17.20    2.50
   5 -13   0   15.10    2.60
   5 -13   0   17.40    2.70
  -5 -13   0   17.80    2.70
   5 -13   0   14.80    2.10
  -5  13   0   16.20    2.40
   5  13   0   19.50    2.70
   5  13   0   20.80    2.80
  -5  13   0   16.40    2.60
   5  13   0   19.30    2.60
  -5  13   0   14.40    1.80
   5  13   0   16.70    2.60
  -5  13   0   20.60    3.10
   5  13   0   17.50    2.60
   5  13   0   13.70    2.20
  -5  13   0   15.10    2.10
   5  13   0   18.50    2.50
   7 -13   0   45.00    4.10
  -7 -13   0   45.30    3.50
   7 -13   0   47.30    4.70
  -7 -13   0   46.30    4.70
  -7 -13   0   42.30    5.50
   7 -13   0   46.10    3.50
  -7 -13   0   48.90    4.80
   7 -13   0   48.70    4.80
   7  13   0   43.90    4.10
   7  13   0   39.40    4.30
   7  13   0   45.00    2.90
   7  13   0   51.99    3.60
   7  13   0   46.60    4.30
  -7  13   0   55.09    4.40
  -7  13   0   42.60    4.10
  -7  13   0   43.00    4.40
  -7  13   0   45.90    3.00
  -7  13   0   41.50    3.00
  -9 -13   0   28.70    3.90
  -9 -13   0   32.00    5.30
   9 -13   0   37.90    3.90
   9 -13   0   34.30    4.70
   9 -13   0   32.90    4.30
  -9 -13   0   29.20    4.10
  -9 -13   0   32.00    3.90
  -9  13   0   28.40    3.60
   9  13   0   30.60    2.90
   9  13   0   32.60    4.10
   9  13   0   34.40    4.70
  -9  13   0   28.40    3.00
   9  13   0   32.90    4.40
  -9  13   0   30.90    4.10
   9  13   0   31.20    3.70
   9  13   0   31.50    3.80
  -9  13   0   29.60    3.70
  -9  13   0   33.90    3.00
   0 -14   0   66.59    4.70
   0 -14   0   69.09    3.50
   0 -14   0   61.39    5.10
   0  14   0   79.19    4.30
   0  14   0   67.39    3.40
   0  14   0   69.69    3.80
   0  14   0   67.29    4.40
   0  14   0   63.79    3.70
   0  14   0   76.49    4.60
   0  14   0   60.39    4.40
  -2 -14   0    7.20    2.30
  -2 -14   0   10.60    2.60
  -2 -14   0   11.30    2.00
   2 -14   0   13.30    2.70
   2 -14   0    7.00    2.00
   2 -14   0   12.20    1.40
  -2  14   0    9.40    1.80
  -2  14   0    9.80    2.10
  -2  14   0   11.90    2.40
  -2  14   0    9.00    1.60
   2  14   0   12.10    2.40
   2  14   0    8.40    1.70
   2  14   0    9.40    1.60
   2  14   0   11.20    2.20
   2  14   0   11.10    2.10
   2  14   0    8.90    2.10
  -2  14   0    7.40    2.10
  -2  14   0   10.70    2.30
   2  14   0   12.70    2.10
  -2  14   0   15.30    2.10
   4 -14   0   28.10    3.90
   4 -14   0   32.40    3.80
  -4 -14   0   38.30    3.90
  -4 -14   0   28.80    4.20
   4 -14   0   27.10    3.40
   4  14   0   33.00    3.80
   4  14   0   28.10    3.80
  -4  14   0   26.70    2.50
  -4  14   0   26.30    2.70
   4  14   0   30.00    3.60
   4  14   0   27.50    3.00
   4  14   0   31.00    3.50
  -4  14   0   34.50    4.10
   4  14   0   28.60    3.60
  -4  14   0   32.30    3.90
   4  14   0   29.50    3.10
  -4  14   0   28.60    3.60
  -4  14   0   29.40    3.10
  -4  14   0   32.70    3.80
   6 -14   0   33.80    4.70
   6 -14   0   32.00    4.10
   6 -14   0   34.80    3.40
  -6 -14   0   30.60    3.50
  -6 -14   0   34.80    4.70
   6 -14   0   25.70    3.70
  -6  14   0   30.90    4.80
  -6  14   0   29.00    2.90
   6  14   0   33.40    3.60
  -6  14   0   32.30    4.00
  -6  14   0   23.40    2.60
  -6  14   0   32.90    4.10
   6  14   0   34.10    3.90
   6  14   0   27.20    3.50
   6  14   0   30.70    4.00
   6  14   0   30.80    3.20
   6  14   0   28.80    4.00
   6  14   0   27.10    4.10
  -8 -14   0   38.30    4.40
   8 -14   0   43.70    4.20
  -8 -14   0   35.20    3.90
  -8 -14   0   27.30    4.60
  -8 -14   0   35.50    4.50
   8  14   0   25.90    3.40
  -8  14   0   32.90    3.20
  -8  14   0   26.70    3.10
   8  14   0   25.30    3.80
   8  14   0   40.30    3.00
  -8  14   0   35.00    4.30
  -8  14   0   41.90    4.90
   8  14   0   44.20    5.00
  -8  14   0   31.30    3.80
   8  14   0   40.50    3.90
   8  14   0   33.70    4.50
   1 -15   0   48.90    5.30
   1 -15   0   38.40    3.00
  -1 -15   0   36.10    4.50
  -1 -15   0   43.20    3.60
   1 -15   0   42.20    4.80
   1  15   0   41.20    3.40
  -1  15   0   38.90    4.00
  -1  15   0   46.90    4.20
   1  15   0   35.30    3.30
   1  15   0   42.90    4.00
   1  15   0   40.10    3.20
  -1  15   0   39.20    3.30
  -1  15   0   50.49    4.20
   1  15   0   45.30    4.00
  -1  15   0   46.40    3.60
  -1  15   0   46.40    3.10
  -1  15   0   43.30    4.30
   1  15   0   33.10    4.10
   1  15   0   35.60    4.10
   3 -15   0   46.90    4.80
   3 -15   0   51.39    5.30
  -3 -15   0   50.19    4.30
  -3 -15   0   46.10    5.30
   3 -15   0   46.70    2.40
  -3 -15   0   47.90    5.10
  -3  15   0   52.29    3.80
  -3  15   0   49.90    4.60
  -3  15   0   50.09    4.20
  -3  15   0   44.60    3.00
   3  15   0   48.10    4.40
  -3  15   0   40.80    3.30
   3  15   0   45.90    3.60
   3  15   0   41.60    4.40
   3  15   0   52.59    4.40
  -3  15   0   41.40    4.40
   3  15   0   33.90    4.30
   3  15   0   44.70    3.50
   3  15   0   48.40    3.80
  -3  15   0   52.99    4.50
  -5 -15   0   23.20    3.70
   5 -15   0   21.70    3.70
   5 -15   0   19.80    3.40
   5 -15   0   16.10    3.10
  -5 -15   0   17.50    3.00
  -5  15   0   20.40    3.70
   5  15   0   20.80    2.70
   5  15   0   21.40    3.00
  -5  15   0   18.80    2.80
   5  15   0   22.00    3.20
  -5  15   0   15.70    2.10
  -5  15   0   23.60    2.80
   5  15   0   23.70    3.40
   5  15   0   15.00    2.80
   5  15   0   19.40    2.50
  -5  15   0   19.10    2.60
  -5  15   0   15.60    2.80
   0 -16   0   78.59    6.80
   0 -16   0   75.49    4.40
   0 -16   0   88.59    6.20
   0  16   0   83.69    5.30
   0  16   0   70.39    5.30
   0  16   0   73.99    4.40
   0  16   0   77.09    5.30
   0  16   0   77.69    4.10
   0  16   0   81.39    4.70
   0  16   0   70.79    5.10
   2 -16   0   43.10    6.00
   2 -16   0   46.30    6.20
  -2 -16   0   43.10    5.50
   2 -16   0   36.80    2.90
  -2 -16   0   32.60    4.20
   2  16   0   39.50    4.30
  -2  16   0   37.30    4.40
   2  16   0   33.30    4.50
  -2  16   0   43.10    3.70
  -2  16   0   42.40    4.40
   2  16   0   40.00    3.70
  -2  16   0   46.30    4.30
   2  16   0   38.80    3.50
   2  16   0   38.70    3.60
  -2  16   0   40.60    3.20
   2  16   0   32.40    4.10
  -2  16   0   41.60    4.70
   2  16   0   37.60    4.30
  -2  16   0   34.00    3.30
  -4 -16   0   10.90    3.00
  -4  16   0   14.10    3.00
   4  16   0   12.00    2.30
   4  16   0   10.40    2.60
   4  16   0   11.10    2.90
  -4  16   0   12.20    2.40
  -4  16   0    8.80    2.50
   4  16   0   12.50    2.90
   4  16   0   14.70    3.50
  -4  16   0   11.70    1.70
   4  16   0   11.30    2.30
   4  16   0   16.20    2.40
  -4  16   0   12.60    2.10
  -4  16   0   19.50    3.20
  -4  16   0   10.20    2.70
  14   0  -1   -3.50    2.30
  14   0  -1   -3.00    1.60
 -14   0   1   -0.10    2.20
 -14   0   1   -2.30    1.40
 -14   0   1    0.80    2.60
  14   0  -1    3.50    2.60
 -14   0   1   -2.70    2.20
  14   0  -1   -2.30    1.50
  14   0  -1   -1.60    1.50
  12   0  -1   -2.30    1.80
  12   0  -1   -0.90    1.10
  12   0  -1    0.90    1.20
 -12   0   1    0.60    1.00
 -12   0   1    0.80    1.60
  12   0  -1    3.10    1.90
  12   0  -1    1.20    1.10
 -12   0   1    1.50    1.50
  10   0  -1    0.80    0.90
  10   0  -1    0.50    1.30
 -10   0   1   -0.50    1.10
  10   0  -1   -1.50    1.20
 -10   0   1   -0.60    1.40
  10   0  -1   -0.30    0.80
  -8   0   1    0.60    0.80
  -8   0   1    0.40    0.80
   8   0  -1   -0.60    0.90
   8   0  -1    0.60    0.60
  -8   0   1    1.80    1.10
   8   0  -1    0.50    0.60
  -8   0   1    0.30    0.60
   8   0  -1    1.40    1.10
  -6   0   1    0.40    0.50
  -6   0   1   -0.80    0.60
   6   0  -1    1.00    0.50
  -6   0   1    0.80    0.60
   6   0  -1    0.00    0.80
   6   0  -1    0.70    0.70
  -6   0   1    0.80    0.90
   6   0  -1    0.30    0.40
   4   0  -1   -0.60    0.40
   4   0  -1    0.00    0.30
   4   0  -1    0.00    0.50
  -4   0   1   -0.30    0.30
  -4   0   1    0.30    0.30
   4   0  -1    0.00    0.30
  -4   0   1   -0.30    0.30
  -4   0   1    0.90    0.50
  -2   0   1    0.30    0.30
   2   0  -1    0.10    0.10
  -2   0   1   -0.20    0.10
  -2   0   1    0.20    0.20
   2   0  -1    0.00    0.10
   2   0  -1    0.20    0.30
  -2   0   1   -0.10    0.30
   2   0  -1    0.00    0.20
  -2   0  -1    0.00    0.30
   2   0   1    0.20    0.20
  -2   0  -1    0.30    0.30
   2   0   1    0.30    0.40
  -2   0  -1    0.00    0.30
   2   0   1    0.20    0.30
  -2   0  -1    0.60    0.20
   2   0   1    0.00    0.30
   4   0   1    0.10    0.30
  -4   0  -1    0.30    0.50
  -4   0  -1   -0.20    0.50
   4   0   1   -0.10    0.40
  -4   0  -1    0.80    0.30
   4   0   1    0.10    0.40
   4   0   1   -0.30    0.50
  -4   0  -1    1.70    0.60
   6   0   1   -0.60    0.60
   6   0   1   -0.20    0.60
   6   0   1    0.10    0.40
  -6   0  -1    1.40    0.90
  -6   0  -1    0.20    0.70
  -6   0  -1   -0.40    0.70
  -6   0  -1   -0.70    0.40
   6   0   1   -0.50    0.80
  -8   0  -1    2.30    1.10
  -8   0  -1    1.50    0.80
   8   0   1    2.00    1.20
   8   0   1    0.60    0.60
  -8   0  -1   -0.10    1.00
  -8   0  -1    0.50    1.20
   8   0   1    0.20    0.80
 -10   0  -1   -0.30    1.20
 -10   0  -1   -1.40    1.30
  10   0   1   -0.30    1.40
 -10   0  -1    0.60    1.40
  10   0   1    0.10    0.80
  10   0   1    0.40    1.10
 -10   0  -1    2.20    1.50
  12   0   1   -0.80    1.40
 -12   0  -1   -0.40    1.70
  12   0   1   -1.10    1.20
  12   0   1   -3.10    1.80
  12   0   1   -1.80    1.00
 -12   0  -1   -0.10    1.10
 -12   0  -1   -0.40    2.00
  12   0   1   -2.10    1.90
 -12   0  -1   -1.60    2.00
  14   0   1    0.40    1.60
  14   0   1    5.30    2.80
 -14   0  -1    3.00    3.00
 -14   0  -1   -1.50    1.50
  14   0   1    0.40    1.80
 -14   0  -1    4.30    2.80
  14   0   1    0.30    2.70
 -14   0  -1    3.60    2.60
 -13  -1   1   21.50    2.70
 -13  -1   1   17.60    3.30
  13  -1  -1   14.20    2.80
  13  -1  -1   16.50    2.10
 -13  -1   1   17.30    2.90
  13  -1  -1   17.40    2.30
 -13  -1   1   15.70    2.70
  13  -1  -1   17.80    3.00
  13  -1  -1   14.40    2.00
 -13   1   1   15.60    2.00
 -13   1   1   15.90    2.60
 -13   1   1   22.90    3.40
 -13   1   1   14.30    2.50
  13   1  -1   13.60    1.90
  13   1  -1   15.00    3.00
  13   1  -1   16.80    2.10
  13   1  -1   15.80    1.90
  13   1  -1   16.90    3.00
 -11  -1   1   34.40    3.80
 -11  -1   1   39.20    3.40
 -11  -1   1   33.90    3.40
  11  -1  -1   36.30    4.00
 -11  -1   1   35.20    2.50
  11  -1  -1   38.70    2.50
  11  -1  -1   32.90    3.30
  11  -1  -1   36.90    2.50
 -11   1   1   40.70    3.30
 -11   1   1   37.30    3.80
  11   1  -1   38.00    2.60
 -11   1   1   28.40    3.40
 -11   1   1   31.40    2.50
  11   1  -1   31.70    3.50
  11   1  -1   29.20    2.80
  11   1  -1   38.20    3.70
  -9  -1   1    9.60    1.70
   9  -1  -1   10.70    1.40
   9  -1  -1    8.20    1.60
  -9  -1   1    8.90    1.60
  -9  -1   1    7.30    1.10
   9  -1  -1    9.70    1.20
  -9  -1   1   10.80    1.90
   9  -1  -1    9.80    1.80
   9  -1  -1    8.70    1.20
   9   1  -1   13.50    2.00
   9   1  -1    8.70    1.20
  -9   1   1    8.30    1.20
   9   1  -1    7.40    1.10
  -9   1   1    9.50    1.70
   9   1  -1   11.30    1.90
  -9   1   1    9.50    1.50
  -9   1   1   10.00    1.80
  -7  -1   1  636.44   17.00
  -7  -1   1  628.44   16.60
  -7  -1   1  640.84   16.30
   7  -1  -1  619.54   16.90
   7  -1  -1  613.24   16.80
  -7  -1   1  621.84   16.80
   7  -1  -1  630.64   16.00
   7  -1  -1  608.84   15.80
   7  -1  -1  605.14   16.00
   7   1  -1  637.34   16.20
  -7   1   1  624.44   16.40
  -7   1   1  647.74   16.20
   7   1  -1  655.13   17.00
  -7   1   1  626.04   16.90
   7   1  -1  610.44   16.80
   7   1  -1  609.44   16.10
  -7   1   1  647.44   16.80
  -5  -1   1 1049.89   26.90
  -5  -1   1 1081.99   26.60
  -5  -1   1 1085.49   26.40
   5  -1  -1 1025.10   26.20
   5  -1  -1 1064.29   26.20
  -5  -1   1 1044.20   26.80
   5  -1  -1 1098.69   26.90
   5  -1  -1 1024.90   26.10
   5  -1  -1 1061.19   26.80
   5   1  -1 1046.90   26.30
   5   1  -1 1062.39   26.30
   5   1  -1 1092.19   26.80
   5   1  -1 1010.50   26.90
  -5   1   1 1117.39   26.90
  -5   1   1 1091.29   26.40
  -5   1   1 1053.19   26.40
  -5   1   1 1057.09   26.80
   3  -1  -1 9999.00  234.28
  -3  -1   1 9965.00  232.38
  -3  -1   1 8744.33  232.08
   3  -1  -1 8769.72  230.88
  -3  -1   1 9584.84  234.38
  -3  -1   1 9426.56  233.28
   3  -1  -1 9772.82  231.68
   3  -1  -1 9997.00  233.88
   3   1  -1 9144.19  231.98
  -3   1   1 9139.39  231.68
   3   1  -1 9460.75  233.88
  -3   1   1 9781.92  233.58
   3   1  -1 9250.38  232.08
   3   1  -1 9527.75  233.68
  -3   1   1 9936.81  232.08
  -3   1   1 9681.63  233.58
   1  -1  -1 1541.95   38.20
   1  -1  -1 1637.74   38.50
   1  -1  -1 1429.46   37.70
  -1  -1   1 1531.35   38.60
  -1  -1   1 1597.04   38.20
  -1  -1   1 1516.15   38.00
  -1  -1   1 1557.94   38.30
   1  -1  -1 1542.75   38.30
   1   1  -1 1505.95   38.10
  -1   1   1 1564.04   38.10
   1   1  -1 1564.84   38.70
   1   1  -1 1633.94   38.80
  -1   1   1 1538.65   37.80
   1   1  -1 1479.95   38.20
  -1   1   1 1612.54   38.30
   1   1  -1 1540.55   38.70
   1   1  -1 1537.45   38.80
  -1   1   1 1546.85   38.30
   1  -1   1 7349.66  183.38
  -1  -1  -1 7910.11  185.28
   1  -1   1 7741.83  184.98
   1  -1   1 7510.55  184.68
  -1   1  -1 7179.28  184.38
   1   1   1 7489.45  183.58
  -1   1  -1 7598.84  185.08
   3  -1   1  533.45   13.80
   3  -1   1  515.95   13.80
   3  -1   1  511.45   13.40
  -3  -1  -1  532.35   13.30
  -3  -1  -1  529.15   13.70
  -3  -1  -1  530.45   13.60
   3  -1   1  543.05   13.70
  -3  -1  -1  538.55   13.80
   3   1   1  547.05   13.70
  -3   1  -1  515.15   13.40
   3   1   1  539.65   13.70
  -3   1  -1  541.45   13.70
   3   1   1  549.54   13.80
  -3   1  -1  553.74   13.80
   3   1   1  532.85   13.40
  -3   1  -1  545.95   13.80
   5  -1   1 1715.33   45.00
  -5  -1  -1 1813.22   44.40
  -5  -1  -1 1798.22   44.90
   5  -1   1 1849.81   44.80
  -5  -1  -1 1803.72   45.00
   5  -1   1 1769.12   44.40
   5  -1   1 1726.33   45.00
  -5  -1  -1 1864.11   45.00
  -5   1  -1 1835.52   44.40
  -5   1  -1 1860.51   45.10
  -5   1  -1 1915.21   45.00
   5   1   1 1760.52   44.90
   5   1   1 1880.11   44.90
   5   1   1 1847.52   45.00
   5   1   1 1773.52   44.40
  -5   1  -1 1767.42   44.80
   7  -1   1  172.88    6.10
  -7  -1  -1  175.98    6.00
   7  -1   1  178.78    6.10
  -7  -1  -1  183.28    5.40
  -7  -1  -1  174.88    6.10
   7  -1   1  187.58    5.80
  -7  -1  -1  171.28    6.00
   7  -1   1  178.38    5.30
  -7   1  -1  173.08    6.10
   7   1   1  173.08    6.10
  -7   1  -1  184.18    5.40
   7   1   1  178.38    5.40
  -7   1  -1  178.28    6.00
   7   1   1  183.48    6.10
  -7   1  -1  182.48    6.00
   7   1   1  179.38    5.80
   9  -1   1   24.10    2.80
   9  -1   1   29.50    2.90
   9  -1   1   30.80    2.00
  -9  -1  -1   27.70    2.80
  -9  -1  -1   27.20    2.10
   9  -1   1   30.00    2.00
  -9  -1  -1   30.90    3.10
  -9  -1  -1   27.50    2.80
   9  -1   1   28.90    2.40
   9   1   1   27.50    2.40
  -9   1  -1   27.60    2.70
  -9   1  -1   27.70    3.00
   9   1   1   30.70    2.80
   9   1   1   27.30    2.10
   9   1   1   25.30    2.80
  -9   1  -1   27.30    2.60
  -9   1  -1   30.20    2.10
  11  -1   1    8.10    2.00
 -11  -1  -1    7.30    1.30
 -11  -1  -1    6.50    2.00
  11  -1   1    8.10    1.70
  11  -1   1    9.10    1.40
 -11  -1  -1    6.50    2.10
 -11  -1  -1    3.40    1.70
  11  -1   1   10.40    1.40
  11  -1   1    8.80    2.40
 -11   1  -1    8.50    2.00
 -11   1  -1    9.70    2.60
  11   1   1    8.20    2.20
 -11   1  -1    7.70    2.00
  11   1   1    8.60    2.20
  11   1   1    7.20    1.50
 -11   1  -1    6.40    1.40
  11   1   1    6.40    1.30
 -13  -1  -1   13.40    3.20
 -13  -1  -1   17.60    2.90
  13  -1   1   12.50    2.80
  13  -1   1   19.50    3.30
  13  -1   1   15.60    1.90
  13  -1   1   15.10    2.00
 -13  -1  -1   19.70    2.70
 -13  -1  -1   17.80    3.20
  13  -1   1   24.30    3.20
  13   1   1   20.10    2.40
  13   1   1   20.40    3.30
 -13   1  -1   21.80    3.00
  13   1   1   17.30    2.30
 -13   1  -1   17.00    2.30
 -13   1  -1   22.70    3.80
 -13   1  -1   14.50    3.00
  13   1   1   22.20    3.40
 -14  -2   1   13.30    2.20
  14  -2  -1   13.10    2.00
  14  -2  -1   13.50    2.10
 -14  -2   1    9.80    2.90
 -14  -2   1   11.60    3.00
  14  -2  -1   11.70    3.10
  14  -2  -1    9.20    1.70
 -14  -2   1    9.20    3.40
  14  -2  -1    7.70    2.90
 -14   2   1    8.60    2.40
 -14   2   1   11.70    3.30
  14   2  -1    8.80    1.90
 -14   2   1   12.80    2.70
 -14   2   1    9.30    1.80
  14   2  -1   13.30    3.40
  14   2  -1   13.70    3.20
  14   2  -1    6.90    2.00
  12  -2  -1  177.78    7.60
 -12  -2   1  186.58    7.50
  12  -2  -1  183.38    7.90
 -12  -2   1  183.78    6.60
 -12  -2   1  200.18    8.10
 -12  -2   1  179.68    7.40
  12  -2  -1  176.38    6.80
  12  -2  -1  190.98    6.30
  12  -2  -1  188.58    6.00
 -12   2   1  174.38    6.40
  12   2  -1  184.48    6.40
  12   2  -1  191.78    6.50
  12   2  -1  194.38    7.80
 -12   2   1  191.18    7.10
 -12   2   1  190.48    8.00
  12   2  -1  173.98    7.80
 -12   2   1  178.98    7.40
  10  -2  -1 1051.19   29.20
 -10  -2   1 1141.29   29.20
  10  -2  -1 1084.49   28.00
  10  -2  -1 1071.29   27.70
 -10  -2   1 1125.39   29.10
  10  -2  -1 1105.49   27.90
 -10  -2   1 1129.39   29.40
  10  -2  -1 1071.49   29.30
 -10  -2   1 1075.19   28.90
  10   2  -1 1076.19   28.10
 -10   2   1 1105.49   28.60
  10   2  -1 1133.49   29.40
  10   2  -1 1146.09   29.60
  10   2  -1 1116.49   28.20
 -10   2   1 1109.29   29.30
 -10   2   1 1094.49   28.20
   8  -2  -1   30.10    2.40
  -8  -2   1   30.90    1.90
  -8  -2   1   29.30    2.30
   8  -2  -1   29.80    2.50
  -8  -2   1   32.30    2.60
   8  -2  -1   27.50    1.70
   8  -2  -1   33.90    1.80
  -8  -2   1   32.70    2.40
   8  -2  -1   29.30    1.60
  -8   2   1   29.30    2.10
   8   2  -1   31.80    1.90
   8   2  -1   28.80    2.40
  -8   2   1   32.40    2.60
  -8   2   1   29.90    1.80
   8   2  -1   29.50    1.80
   8   2  -1   30.80    2.50
  -8   2   1   33.50    2.40
   6  -2  -1   20.10    1.20
  -6  -2   1   19.00    1.60
  -6  -2   1   20.50    1.80
  -6  -2   1   18.70    1.70
  -6  -2   1   20.70    1.40
   6  -2  -1   18.60    1.10
   6  -2  -1   17.90    1.70
   6  -2  -1   18.40    1.20
   6  -2  -1   20.20    1.80
   6   2  -1   20.70    1.30
   6   2  -1   18.40    1.70
   6   2  -1   20.80    1.40
  -6   2   1   16.60    1.60
  -6   2   1   19.50    1.30
  -6   2   1   23.00    1.50
  -6   2   1   19.80    1.80
   6   2  -1   19.40    1.70
   4  -2  -1  105.69    3.10
   4  -2  -1  110.29    3.00
   4  -2  -1  105.79    3.10
  -4  -2   1  108.39    3.70
  -4  -2   1  113.69    3.40
   4  -2  -1  106.79    3.60
  -4  -2   1  106.79    3.40
  -4  -2   1  111.69    3.60
   4  -2  -1  106.29    3.60
  -4   2   1  115.49    3.20
  -4   2   1  115.59    3.70
   4   2  -1  111.29    3.70
  -4   2   1  108.49    3.10
   4   2  -1  113.19    3.70
   4   2  -1  111.19    3.30
  -4   2   1  111.39    3.20
  -4   2   1  110.39    3.60
   4   2  -1  111.99    3.30
  -2  -2   1 3847.82   96.89
  -2  -2   1 3727.33   96.59
   2  -2  -1 3770.72   96.49
  -2  -2   1 4139.19   98.39
   2  -2  -1 3848.11   97.39
  -2  -2   1 3815.32   96.99
   2  -2  -1 3974.30   97.09
   2  -2  -1 3845.52   95.99
  -2   2   1 4107.99   97.59
   2   2  -1 4012.70   98.29
  -2   2   1 3917.71   96.39
  -2   2   1 3966.90   96.09
  -2   2   1 4000.00   97.49
   2   2  -1 3973.80   96.99
  -2   2   1 3780.02   95.29
   2   2  -1 4139.99   98.59
   2   2  -1 3952.50   96.99
   2   2  -1 3856.51   96.69
   0  -2   1 3335.47   81.29
   0  -2   1 3402.96   80.29
   0  -2   1 2981.00   79.99
   0  -2   1 3203.88   79.99
   0  -2   1 3271.97   80.69
   0  -2  -1 3141.19   80.09
   0  -2  -1 3122.29   79.09
   0  -2  -1 3208.18   79.79
   0   2   1 3229.28   79.99
   0   2   1 3334.07   79.19
   0   2   1 3150.38   78.99
   0   2  -1 3346.27   81.09
   0   2  -1 3250.57   80.89
   0   2  -1 3187.38   79.79
   0   2  -1 3355.36   81.09
   0   2   1 3252.37   79.79
   0   2   1 3265.47   79.09
   0   2  -1 3156.28   79.89
   0   2   1 3319.37   79.19
   2  -2   1  169.58    5.00
   2  -2   1  182.88    5.10
  -2  -2  -1  173.78    4.80
   2  -2   1  170.18    4.60
   2  -2   1  166.58    4.60
  -2  -2  -1  173.68    4.50
  -2  -2  -1  176.68    5.00
   2  -2   1  176.48    4.80
  -2   2  -1  187.38    5.10
  -2   2  -1  169.28    5.00
   2   2   1  180.18    4.90
  -2   2  -1  173.88    4.60
  -2   2  -1  180.28    4.70
   2   2   1  168.48    4.80
   2   2   1  177.78    4.60
   2   2   1  176.38    4.80
   4  -2   1 4103.99  100.89
  -4  -2  -1 4104.19   98.29
   4  -2   1 4148.08   99.59
   4  -2   1 3528.75   98.69
  -4  -2  -1 3986.50  100.39
  -4  -2  -1 3836.82   98.19
   4  -2   1 4053.99   99.39
   4  -2   1 4018.60   97.89
  -4  -2  -1 3913.41   97.69
  -4   2  -1 4025.40   99.79
  -4   2  -1 3870.41   97.29
   4   2   1 4059.09   99.39
  -4   2  -1 4151.38  100.69
  -4   2  -1 4076.99   99.69
   4   2   1 4000.70   99.99
   4   2   1 3877.21  100.39
   4   2   1 4079.59   99.29
   6  -2   1  405.86   10.70
  -6  -2  -1  415.16   10.70
  -6  -2  -1  396.96   11.40
   6  -2   1  419.66   11.10
   6  -2   1  409.26   11.50
   6  -2   1  411.06   10.70
  -6  -2  -1  401.46   11.20
  -6  -2  -1  429.06   11.50
  -6   2  -1  426.36   10.80
   6   2   1  383.76   11.30
   6   2   1  421.16   11.20
  -6   2  -1  391.56   11.40
   6   2   1  388.76   11.40
   6   2   1  386.26   10.70
  -6   2  -1  409.36   11.50
  -6   2  -1  396.86   11.10
   8  -2   1 1426.16   37.20
  -8  -2  -1 1486.55   38.20
   8  -2   1 1489.35   37.60
  -8  -2  -1 1497.15   37.30
   8  -2   1 1496.65   38.40
  -8  -2  -1 1515.65   38.20
  -8  -2  -1 1460.65   38.00
   8  -2   1 1510.15   38.40
   8  -2   1 1477.05   37.10
   8   2   1 1464.65   38.10
  -8   2  -1 1499.15   37.30
   8   2   1 1499.65   38.30
  -8   2  -1 1488.05   37.90
   8   2   1 1530.95   37.80
  -8   2  -1 1552.44   38.30
  -8   2  -1 1501.55   38.30
   8   2   1 1507.85   37.60
  10  -2   1  558.64   14.80
 -10  -2  -1  516.85   15.40
 -10  -2  -1  548.75   15.80
 -10  -2  -1  550.94   16.00
  10  -2   1  540.45   16.10
 -10  -2  -1  569.24   16.10
  10  -2   1  544.05   16.20
  10  -2   1  561.94   15.10
  10  -2   1  560.74   14.70
  10   2   1  546.35   16.10
  10   2   1  565.74   14.90
 -10   2  -1  552.84   15.70
  10   2   1  548.05   16.00
 -10   2  -1  552.64   16.20
 -10   2  -1  552.74   14.90
 -10   2  -1  504.75   16.80
  10   2   1  540.95   15.30
 -12  -2  -1   15.50    2.70
  12  -2   1   16.10    2.20
 -12  -2  -1   16.10    3.00
 -12  -2  -1   14.10    1.80
  12  -2   1   17.40    2.30
 -12  -2  -1   13.30    2.50
  12  -2   1   15.70    2.20
  12  -2   1   22.70    3.30
  12  -2   1   16.50    2.80
 -12   2  -1   14.70    3.00
  12   2   1   19.40    3.90
  12   2   1   16.90    2.20
 -12   2  -1   23.60    3.10
 -12   2  -1   13.50    1.80
 -12   2  -1   20.30    2.80
  12   2   1   14.00    2.60
  12   2   1   14.30    1.80
  14  -2   1   96.89    4.80
  14  -2   1  100.89    6.80
 -14  -2  -1   86.49    4.90
  14  -2   1  104.69    5.30
 -14  -2  -1  111.29    7.50
 -14  -2  -1   94.59    6.80
  14  -2   1  110.99    7.60
 -14  -2  -1  100.99    6.50
  14  -2   1  117.79    7.30
  14   2   1  105.19    6.90
  14   2   1  104.29    6.90
 -14   2  -1  100.99    6.60
 -14   2  -1   99.29    4.90
  14   2   1   90.89    5.20
 -14   2  -1   93.59    7.20
 -14   2  -1   97.19    6.40
  13  -3  -1   20.20    3.40
  13  -3  -1   14.60    2.90
  13  -3  -1   22.60    2.60
  13  -3  -1   18.10    2.00
 -13  -3   1   17.90    3.20
 -13  -3   1   14.80    2.10
 -13  -3   1   26.50    3.40
 -13  -3   1   16.40    3.00
  13  -3  -1   18.00    2.50
 -13   3   1   17.00    2.60
  13   3  -1   18.60    2.90
 -13   3   1   22.80    3.10
 -13   3   1   20.10    2.60
  13   3  -1   18.00    2.20
 -13   3   1   13.20    3.00
  13   3  -1   15.80    3.20
  13   3  -1   14.40    2.10
  11  -3  -1    6.50    1.10
 -11  -3   1    9.10    2.30
 -11  -3   1    6.70    1.70
  11  -3  -1    8.40    1.30
  11  -3  -1    5.70    2.00
  11  -3  -1    6.40    2.00
  11  -3  -1    6.90    1.30
 -11  -3   1    6.70    1.50
 -11  -3   1    6.60    2.10
 -11   3   1    7.00    2.60
  11   3  -1    9.80    2.30
  11   3  -1    6.70    1.40
  11   3  -1    8.30    1.50
  11   3  -1    7.10    2.10
 -11   3   1    4.10    1.60
 -11   3   1    7.90    1.40
 -11   3   1    6.20    1.80
  -9  -3   1   69.49    5.80
  -9  -3   1   85.89    4.30
   9  -3  -1   93.29    3.40
   9  -3  -1   96.19    4.50
  -9  -3   1   93.89    3.70
   9  -3  -1   92.49    4.60
   9  -3  -1   91.69    3.40
  -9  -3   1   91.79    4.60
   9  -3  -1   96.79    3.40
  -9   3   1   91.89    4.50
  -9   3   1   95.79    3.90
   9   3  -1   92.89    4.60
   9   3  -1   87.29    3.60
   9   3  -1   92.89    3.70
   9   3  -1   95.59    4.70
  -9   3   1   86.29    4.20
  -9   3   1   95.49    3.60
  -7  -3   1  143.59    5.40
   7  -3  -1  152.08    4.60
   7  -3  -1  150.98    5.40
   7  -3  -1  152.28    5.40
  -7  -3   1  152.48    4.80
  -7  -3   1  153.48    5.20
   7  -3  -1  149.59    4.40
   7  -3  -1  147.09    4.40
  -7  -3   1  155.08    5.30
   7   3  -1  149.49    5.40
   7   3  -1  142.09    5.20
  -7   3   1  153.08    4.70
  -7   3   1  148.99    5.40
  -7   3   1  152.88    5.30
   7   3  -1  146.39    4.70
  -7   3   1  145.59    4.70
   7   3  -1  153.28    4.80
  -5  -3   1  194.18    5.50
   5  -3  -1  189.58    5.20
   5  -3  -1  187.58    5.00
   5  -3  -1  198.58    5.90
  -5  -3   1  188.88    5.60
  -5  -3   1  180.78    5.90
   5  -3  -1  184.38    5.20
  -5  -3   1  189.98    5.80
   5  -3  -1  186.78    5.90
  -5   3   1  188.08    5.90
   5   3  -1  189.58    5.40
  -5   3   1  187.38    5.20
  -5   3   1  181.48    5.70
  -5   3   1  192.88    5.30
   5   3  -1  184.28    5.90
  -5   3   1  192.88    5.20
   5   3  -1  176.98    5.80
   5   3  -1  192.08    5.40
  -3  -3   1  476.65   12.20
   3  -3  -1  459.55   11.90
  -3  -3   1  480.45   12.20
   3  -3  -1  483.05   12.40
  -3  -3   1  485.35   12.50
   3  -3  -1  460.15   12.00
   3  -3  -1  484.05   12.40
  -3  -3   1  507.55   12.60
   3  -3  -1  450.95   11.60
   3   3  -1  478.85   12.20
   3   3  -1  499.95   12.30
  -3   3   1  463.75   11.90
  -3   3   1  498.65   12.40
   3   3  -1  477.75   12.10
  -3   3   1  467.45   12.30
   3   3  -1  477.75   12.50
  -3   3   1  469.75   11.80
  -3   3   1  484.25   12.00
   3   3  -1  479.25   12.50
   1  -3  -1 5311.67  130.69
  -1  -3   1 5144.29  130.09
  -1  -3   1 5173.98  131.79
   1  -3  -1 5394.46  129.09
  -1  -3   1 5531.95  132.09
   1  -3  -1 5320.57  131.39
  -1  -3   1 5077.09  130.99
  -1  -3   1 5114.89  130.79
   1  -3  -1 5378.66  130.69
  -1  -3   1 5532.45  131.29
  -1   3   1 5273.87  130.59
  -1   3   1 5221.18  129.59
   1   3  -1 5313.77  132.49
   1   3  -1 5406.76  132.49
   1   3  -1 5249.17  130.59
  -1   3   1 5154.98  128.79
   1   3  -1 5468.75  131.39
  -1   3   1 5560.24  130.59
  -1   3   1 5521.25  130.69
   1   3  -1 5139.49  131.09
   1   3  -1 5337.37  131.99
   1  -3   1 1809.72   45.20
   1  -3   1 1805.82   45.20
   1  -3   1 1893.61   45.60
  -1  -3  -1 1842.22   44.30
  -1  -3  -1 1843.92   45.20
  -1  -3  -1 1774.22   44.50
   1  -3   1 1835.32   45.30
   1   3   1 1693.33   44.10
  -1   3  -1 1877.21   45.20
  -1   3  -1 1738.03   44.30
   1   3   1 1837.22   44.60
   1   3   1 1794.92   45.10
  -1   3  -1 1751.82   44.20
   1   3   1 1855.71   45.40
   1   3   1 1747.73   44.70
  -1   3  -1 1724.23   44.20
   3  -3   1 2211.28   57.49
  -3  -3  -1 2430.16   58.59
   3  -3   1 2427.86   59.19
   3  -3   1 2267.17   57.59
  -3  -3  -1 2258.57   57.19
   3  -3   1 2406.16   58.59
  -3  -3  -1 2314.87   57.49
   3  -3   1 2380.46   58.19
  -3  -3  -1 2357.46   58.49
   3   3   1 2418.06   59.39
   3   3   1 2274.27   57.79
  -3   3  -1 2370.26   58.49
  -3   3  -1 2383.36   57.59
  -3   3  -1 2357.46   58.49
   3   3   1 2233.48   57.39
   3   3   1 2413.96   58.29
   5  -3   1  614.74   17.60
   5  -3   1  639.44   17.00
  -5  -3  -1  655.73   17.50
   5  -3   1  614.84   17.70
  -5  -3  -1  693.33   17.00
  -5  -3  -1  684.83   17.70
  -5  -3  -1  672.13   17.50
   5  -3   1  684.23   17.00
   5  -3   1  692.13   17.30
   5   3   1  671.83   17.50
  -5   3  -1  705.23   17.90
   5   3   1  692.03   17.70
  -5   3  -1  665.53   17.00
  -5   3  -1  681.83   17.30
   5   3   1  683.03   17.50
   5   3   1  671.23   17.00
  -5   3  -1  693.33   17.70
   7  -3   1   77.39    3.80
   7  -3   1   71.99    2.80
   7  -3   1   75.59    2.80
  -7  -3  -1   76.49    3.60
  -7  -3  -1   74.49    3.70
  -7  -3  -1   78.39    2.90
  -7  -3  -1   71.89    3.40
   7  -3   1   75.69    3.20
   7  -3   1   75.69    3.70
   7   3   1   69.59    3.30
   7   3   1   72.59    2.90
   7   3   1   72.49    3.50
  -7   3  -1   78.79    3.30
  -7   3  -1   76.79    3.70
  -7   3  -1   72.79    2.80
   7   3   1   77.09    3.30
  -7   3  -1   70.79    3.50
  -9  -3  -1   10.10    1.90
  -9  -3  -1   10.70    1.40
   9  -3   1    9.70    1.90
   9  -3   1   14.90    1.80
  -9  -3  -1    8.00    1.70
  -9  -3  -1   14.90    2.30
   9  -3   1   15.50    2.10
   9   3   1   15.60    2.20
   9   3   1   12.20    1.70
   9   3   1   14.10    1.70
  -9   3  -1   12.60    2.20
  -9   3  -1   10.00    1.90
  -9   3  -1   13.00    1.80
  -9   3  -1   13.80    1.70
   9   3   1   12.40    2.00
 -11  -3  -1   93.99    5.40
  11  -3   1   84.29    5.10
  11  -3   1   79.59    3.80
  11  -3   1   83.29    3.70
 -11  -3  -1   82.69    3.90
  11  -3   1   89.79    4.20
 -11  -3  -1   89.99    5.00
  11   3   1   87.59    5.00
  11   3   1   89.39    5.20
  11   3   1   86.99    3.90
 -11   3  -1   90.29    5.50
 -11   3  -1   86.99    3.90
 -11   3  -1   82.99    4.90
  11   3   1   88.59    4.30
 -11   3  -1   88.69    4.70
 -13  -3  -1    5.10    2.50
  13  -3   1    6.20    1.60
 -13  -3  -1    5.40    1.80
  13  -3   1    6.20    1.90
 -13  -3  -1    1.20    2.40
 -13  -3  -1   10.00    3.20
  13  -3   1   11.10    3.10
  13  -3   1    8.90    2.80
  13  -3   1    6.30    1.50
  13   3   1    5.00    1.70
 -13   3  -1    6.40    2.50
 -13   3  -1   12.10    2.50
 -13   3  -1    6.00    2.90
  13   3   1    9.00    3.00
  13   3   1   10.20    2.70
 -13   3  -1    5.10    1.50
  13   3   1    2.10    1.80
 -14  -4   1    2.90    2.80
 -14  -4   1   11.30    3.80
  14  -4  -1   11.50    3.30
  14  -4  -1    4.30    2.90
  14  -4  -1    2.40    1.60
 -14  -4   1    7.90    2.00
  14  -4  -1    7.80    1.90
  14  -4  -1    6.30    1.90
 -14  -4   1    8.50    3.20
 -14   4   1    8.00    2.50
  14   4  -1    2.50    3.00
 -14   4   1    7.50    2.60
 -14   4   1    7.60    1.90
 -14   4   1    9.10    3.00
  14   4  -1   -1.40    2.70
  12  -4  -1   53.29    3.00
  12  -4  -1   52.19    3.10
  12  -4  -1   55.99    4.60
  12  -4  -1   53.89    4.60
 -12  -4   1   59.69    4.50
 -12  -4   1   50.79    3.40
  12  -4  -1   52.19    3.00
 -12  -4   1   61.09    4.60
 -12  -4   1   54.69    4.90
 -12   4   1   44.40    3.10
 -12   4   1   49.20    4.10
  12   4  -1   54.09    4.50
 -12   4   1   43.70    3.60
 -12   4   1   57.79    4.80
  12   4  -1   48.30    3.20
  12   4  -1   52.19    6.10
  12   4  -1   53.29    3.30
  10  -4  -1  195.98    6.10
 -10  -4   1  190.38    7.50
 -10  -4   1  199.48    7.30
  10  -4  -1  184.68    7.40
 -10  -4   1  193.48    6.40
  10  -4  -1  169.68    6.70
 -10  -4   1  177.88    7.00
  10  -4  -1  196.58    5.80
  10  -4  -1  195.08    7.40
 -10   4   1  193.18    7.10
  10   4  -1  197.28    7.40
 -10   4   1  192.88    6.50
  10   4  -1  207.78    7.40
  10   4  -1  197.88    6.30
  10   4  -1  190.68    6.40
 -10   4   1  184.78    7.30
 -10   4   1  179.68    6.20
  -8  -4   1  476.05   13.70
   8  -4  -1  471.95   12.40
   8  -4  -1  490.65   13.70
  -8  -4   1  486.25   13.40
  -8  -4   1  470.85   13.40
   8  -4  -1  462.15   13.60
   8  -4  -1  478.85   12.50
   8  -4  -1  480.35   12.20
  -8  -4   1  463.05   12.80
   8   4  -1  464.15   13.60
   8   4  -1  463.95   12.70
   8   4  -1  447.16   13.40
  -8   4   1  457.65   12.70
  -8   4   1  484.85   12.70
  -8   4   1  467.35   13.40
   8   4  -1  467.55   12.70
  -8   4   1  475.25   13.60
   6  -4  -1  712.13   18.70
  -6  -4   1  728.03   19.40
  -6  -4   1  759.12   19.10
   6  -4  -1  741.33   18.50
  -6  -4   1  786.32   19.80
   6  -4  -1  707.53   19.50
   6  -4  -1  742.13   19.70
  -6  -4   1  786.52   19.60
   6  -4  -1  739.23   18.80
   6   4  -1  748.83   19.70
   6   4  -1  747.23   19.60
   6   4  -1  694.83   19.00
  -6   4   1  745.33   18.70
   6   4  -1  750.62   19.00
  -6   4   1  744.63   18.80
  -6   4   1  774.22   19.70
  -6   4   1  744.73   18.90
  -6   4   1  741.03   19.50
  -4  -4   1  137.39    4.50
  -4  -4   1  133.29    4.10
   4  -4  -1  130.19    3.80
   4  -4  -1  136.09    4.40
   4  -4  -1  131.69    4.30
   4  -4  -1  135.59    3.90
  -4  -4   1  125.49    4.00
   4  -4  -1  131.79    3.40
  -4  -4   1  130.19    4.40
  -4   4   1  129.29    3.60
  -4   4   1  135.99    3.80
   4   4  -1  129.39    4.40
  -4   4   1  136.09    4.40
   4   4  -1  128.29    4.30
  -4   4   1  132.49    3.80
   4   4  -1  137.79    4.00
   4   4  -1  129.09    4.00
   4   4  -1  133.19    4.20
  -4   4   1  135.99    4.30
  -2  -4   1  338.27    8.90
  -2  -4   1  338.77    8.80
  -2  -4   1  340.47    9.20
  -2  -4   1  326.97    8.70
   2  -4  -1  335.57    8.80
   2  -4  -1  339.37    8.50
   2  -4  -1  333.97    8.90
  -2  -4   1  339.87    9.10
   2  -4  -1  337.47    8.90
   2   4  -1  325.97    9.00
   2   4  -1  325.77    8.60
   2   4  -1  326.67    8.80
  -2   4   1  344.67    8.90
   2   4  -1  344.17    8.90
  -2   4   1  342.67    8.70
   2   4  -1  339.27    9.40
  -2   4   1  340.97    8.60
   2   4  -1  332.97    9.20
  -2   4   1  359.26    9.00
   0  -4  -1  543.85   13.60
   0  -4   1  559.74   14.10
   0  -4   1  554.64   14.10
   0  -4  -1  535.25   13.80
   0  -4   1  553.24   14.20
   0  -4   1  548.45   13.80
   0  -4  -1  550.04   14.00
   0  -4   1  549.95   13.80
   0  -4  -1  552.24   13.70
   0   4  -1  546.85   13.80
   0   4   1  531.05   13.70
   0   4   1  504.15   14.00
   0   4  -1  555.44   13.80
   0   4  -1  547.55   14.10
   0   4  -1  536.25   14.00
   0   4   1  546.25   13.90
   0   4   1  570.34   13.80
   0   4  -1  562.54   13.80
   0   4  -1  542.45   14.10
   0   4   1  541.35   13.80
   0   4   1  542.25   13.50
   2  -4   1    1.70    0.40
   2  -4   1    1.70    0.60
  -2  -4  -1    3.10    0.60
   2  -4   1    3.10    0.80
  -2  -4  -1    3.50    0.60
   2   4   1    2.90    0.50
   2   4   1    3.10    0.60
  -2   4  -1    1.80    0.40
  -2   4  -1    2.20    0.60
   2   4   1    2.30    0.40
  -2   4  -1    3.00    0.70
   2   4   1    1.60    0.40
   2   4   1    2.10    0.70
  -4  -4  -1 1502.95   37.60
  -4  -4  -1 1521.95   37.50
   4  -4   1 1515.15   37.10
  -4  -4  -1 1473.55   37.30
   4  -4   1 1534.65   37.80
   4  -4   1 1469.55   37.00
   4  -4   1 1475.05   37.00
  -4  -4  -1 1496.45   36.90
   4  -4   1 1501.45   37.70
   4   4   1 1488.55   37.30
  -4   4  -1 1537.45   37.00
  -4   4  -1 1608.34   37.80
   4   4   1 1435.76   37.30
   4   4   1 1386.26   36.90
  -4   4  -1 1591.14   37.80
   4   4   1 1538.75   37.50
  -4   4  -1 1482.65   37.00
  -6  -4  -1  651.13   17.10
   6  -4   1  647.34   16.60
   6  -4   1  645.34   16.80
   6  -4   1  616.74   17.40
  -6  -4  -1  650.33   17.40
  -6  -4  -1  647.54   16.60
   6  -4   1  656.93   16.60
  -6  -4  -1  621.44   17.20
   6  -4   1  628.54   17.50
  -6   4  -1  647.64   17.40
  -6   4  -1  666.23   17.50
   6   4   1  651.93   16.60
   6   4   1  656.03   17.20
   6   4   1  653.13   17.00
   6   4   1  649.14   17.30
  -6   4  -1  651.43   16.60
  -6   4  -1  626.34   16.80
   8  -4   1  314.07    9.90
   8  -4   1  308.77    9.90
  -8  -4  -1  309.97   10.90
   8  -4   1  314.07    9.00
  -8  -4  -1  315.97    9.80
  -8  -4  -1  315.07    9.60
   8  -4   1  317.17    8.90
  -8  -4  -1  312.97    8.90
   8  -4   1  319.07    8.80
  -8   4  -1  317.47    9.80
   8   4   1  306.67    9.60
   8   4   1  303.57    9.20
   8   4   1  301.37    9.70
  -8   4  -1  318.07   10.00
  -8   4  -1  306.87    9.20
   8   4   1  317.47    8.90
  -8   4  -1  283.97    8.80
  10  -4   1   38.60    2.50
 -10  -4  -1   38.80    3.70
 -10  -4  -1   44.30    3.60
  10  -4   1   44.10    2.50
 -10  -4  -1   38.90    3.10
 -10  -4  -1   45.80    3.90
  10  -4   1   40.60    2.80
  10  -4   1   37.40    3.70
  10  -4   1   42.70    3.80
 -10   4  -1   41.10    3.50
 -10   4  -1   39.20    2.50
  10   4   1   40.60    2.60
 -10   4  -1   34.70    3.00
  10   4   1   41.20    3.60
 -10   4  -1   33.90    3.80
  10   4   1   46.10    3.00
  10   4   1   41.10    3.70
  12  -4   1   29.20    2.70
  12  -4   1   25.40    3.50
  12  -4   1   32.70    3.10
 -12  -4  -1   35.00    4.20
  12  -4   1   34.60    2.80
 -12  -4  -1   34.20    4.00
 -12  -4  -1   29.40    2.90
  12  -4   1   27.10    4.00
 -12  -4  -1   33.10    4.70
 -12   4  -1   32.80    4.30
  12   4   1   34.90    4.20
 -12   4  -1   29.30    4.00
  12   4   1   35.60    4.10
 -12   4  -1   34.10    3.70
  12   4   1   30.60    2.90
  12   4   1   29.80    3.00
 -12   4  -1   23.60    2.70
  14  -4   1   99.89    5.20
  14  -4   1   95.69    4.90
  14  -4   1  107.29    7.10
 -14  -4  -1  101.19    7.00
 -14  -4  -1  102.49    8.50
  14  -4   1   99.99    7.30
 -14  -4  -1   91.99    5.10
 -14   4  -1  114.09    7.90
 -14   4  -1   89.79    6.50
  14   4   1  105.29    7.30
 -14   4  -1   93.59    5.00
  14   4   1   94.39    5.30
  14   4   1  102.49    7.00
 -14   4  -1  103.69    6.40
 -13  -5   1    9.30    2.80
  13  -5  -1    7.70    2.90
  13  -5  -1    8.90    1.70
 -13  -5   1   10.00    2.00
 -13  -5   1   10.50    5.00
  13  -5  -1    6.20    1.60
 -13  -5   1    9.50    2.90
  13  -5  -1   10.30    1.80
  13  -5  -1    9.20    2.90
 -13   5   1    9.20    2.60
 -13   5   1   13.70    3.20
 -13   5   1    6.70    1.60
  13   5  -1   10.80    3.00
 -13   5   1    5.50    2.00
  13   5  -1   16.30    3.30
  13   5  -1    9.10    1.80
  13   5  -1    8.40    1.80
  11  -5  -1    5.30    1.20
 -11  -5   1    2.30    1.90
 -11  -5   1    3.90    1.80
  11  -5  -1    5.30    1.20
 -11  -5   1    3.20    1.90
  11  -5  -1    4.00    2.00
  11  -5  -1    5.00    1.20
  11  -5  -1    3.00    2.00
 -11  -5   1    2.60    1.20
 -11   5   1    1.70    1.60
  11   5  -1    2.80    1.20
  11   5  -1    2.90    2.00
  11   5  -1    4.30    2.00
 -11   5   1    2.30    1.90
 -11   5   1    5.50    1.40
  11   5  -1    4.90    1.40
 -11   5   1    2.90    1.40
   9  -5  -1  249.58    7.90
   9  -5  -1  255.07    8.90
   9  -5  -1  238.98    8.50
  -9  -5   1  263.37    8.80
  -9  -5   1  251.27    7.70
  -9  -5   1  251.47    8.50
   9  -5  -1  256.07    7.00
  -9  -5   1  249.48    8.40
   9  -5  -1  256.27    7.40
   9   5  -1  234.58    8.80
   9   5  -1  268.27    7.80
  -9   5   1  255.37    7.50
   9   5  -1  266.77    8.60
  -9   5   1  225.58    8.00
   9   5  -1  257.37    8.70
  -9   5   1  228.18    9.20
  -9   5   1  258.67    8.70
   7  -5  -1  125.49    3.60
  -7  -5   1  125.99    4.30
  -7  -5   1  120.99    4.80
   7  -5  -1  123.29    4.00
  -7  -5   1  127.79    4.80
   7  -5  -1  124.79    4.00
   7  -5  -1  122.69    4.90
   7  -5  -1  118.89    5.20
  -7  -5   1  135.29    5.20
   7   5  -1  121.09    4.90
   7   5  -1  124.99    4.60
   7   5  -1  128.99    4.30
   7   5  -1  123.49    4.80
  -7   5   1  116.49    3.90
  -7   5   1  123.19    4.90
   7   5  -1  118.29    4.20
  -7   5   1  120.29    4.70
  -7   5   1  125.59    4.10
  -7   5   1  130.29    4.00
  -5  -5   1  744.43   19.20
   5  -5  -1  769.42   18.80
   5  -5  -1  738.53   19.00
   5  -5  -1  717.63   18.30
   5  -5  -1  764.62   19.70
  -5  -5   1  789.22   19.80
  -5  -5   1  732.93   19.40
  -5  -5   1  733.23   19.60
   5  -5  -1  761.82   19.60
   5   5  -1  747.33   19.60
   5   5  -1  732.73   19.10
  -5   5   1  766.12   19.60
  -5   5   1  748.23   18.90
  -5   5   1  718.63   18.50
   5   5  -1  760.32   19.10
  -5   5   1  769.82   19.70
   5   5  -1  776.02   19.50
  -5   5   1  750.52   18.90
   5   5  -1  736.43   19.80
  -3  -5   1 2308.27   56.19
  -3  -5   1 2267.47   55.69
   3  -5  -1 2255.67   56.49
   3  -5  -1 2319.67   56.89
   3  -5  -1 2183.98   55.89
   3  -5  -1 2253.57   55.89
  -3  -5   1 2259.27   55.89
  -3  -5   1 2259.67   55.69
  -3   5   1 2326.87   56.89
  -3   5   1 2327.27   55.89
   3   5  -1 2304.17   56.19
  -3   5   1 2336.17   56.49
   3   5  -1 2317.67   56.79
   3   5  -1 2416.06   56.69
   3   5  -1 2262.07   55.79
   3   5  -1 2121.29   55.99
  -3   5   1 2296.77   55.99
   3   5  -1 2152.78   55.39
  -1  -5   1 2370.96   60.49
  -1  -5   1 2367.36   60.19
  -1  -5   1 2590.24   61.69
  -1  -5   1 2495.35   61.89
   1  -5  -1 2443.16   59.99
  -1  -5   1 2428.06   60.69
   1  -5  -1 2506.45   61.89
   1  -5  -1 2442.06   60.49
   1  -5  -1 2497.15   60.29
  -1   5   1 2497.55   61.09
  -1   5   1 2531.55   62.19
  -1   5   1 2560.04   61.39
  -1   5   1 2430.66   59.99
  -1   5   1 2413.06   59.99
   1   5  -1 2377.56   60.39
   1   5  -1 2486.35   61.39
   1   5  -1 2593.94   61.59
  -1   5   1 2414.16   59.99
   1   5  -1 2513.35   61.09
   1   5  -1 2398.56   60.29
   1   5  -1 2459.05   60.39
   1   5  -1 2245.18   59.89
  -1  -5  -1  973.50   24.20
   1  -5   1  972.10   24.30
   1  -5   1  961.10   24.70
  -1  -5  -1  990.90   24.60
   1  -5   1  981.90   24.70
  -1  -5  -1  975.50   24.20
   1  -5   1  971.50   24.20
   1   5   1  952.70   24.00
   1   5   1  943.71   24.30
   1   5   1  978.90   24.20
  -1   5  -1  980.10   24.20
  -1   5  -1  980.10   24.30
   1   5   1  953.60   24.00
  -1   5  -1  954.00   24.60
  -1   5  -1  996.00   24.70
  -1   5  -1 1019.70   24.70
   1   5   1  992.30   24.50
   1   5   1  956.20   24.40
  -1   5  -1  974.10   24.20
  -3  -5  -1  930.71   23.40
   3  -5   1  929.11   23.90
  -3  -5  -1  909.81   23.50
   3  -5   1  947.61   23.90
   3  -5   1  916.81   23.20
  -3  -5  -1  919.21   23.60
   3  -5   1  919.41   23.20
   3  -5   1  945.21   23.20
  -3  -5  -1  898.61   23.00
  -3   5  -1  942.01   23.80
  -3   5  -1  950.40   23.20
   3   5   1  880.21   23.10
   3   5   1  888.51   23.40
  -3   5  -1  975.20   23.90
   3   5   1  907.61   23.50
  -3   5  -1  935.51   23.20
   3   5   1  977.30   23.80
   3   5   1  946.11   23.40
  -5  -5  -1  536.95   14.90
  -5  -5  -1  570.74   15.10
   5  -5   1  552.74   14.30
   5  -5   1  562.94   15.20
   5  -5   1  545.25   15.20
   5  -5   1  553.24   14.40
  -5  -5  -1  560.04   14.30
   5  -5   1  540.85   14.30
  -5  -5  -1  568.74   14.80
  -5   5  -1  554.14   14.40
   5   5   1  558.64   14.80
  -5   5  -1  569.94   14.40
   5   5   1  554.14   14.40
  -5   5  -1  531.45   15.10
   5   5   1  535.85   14.90
   5   5   1  574.34   14.70
  -5   5  -1  561.14   15.20
   7  -5   1  600.24   16.80
  -7  -5  -1  583.74   16.40
  -7  -5  -1  600.74   15.60
  -7  -5  -1  588.74   16.50
   7  -5   1  600.04   15.60
   7  -5   1  596.74   15.70
  -7  -5  -1  611.14   16.30
   7  -5   1  605.64   15.60
   7  -5   1  606.24   16.70
  -7   5  -1  597.94   16.70
  -7   5  -1  583.64   16.50
   7   5   1  590.14   16.00
   7   5   1  605.44   16.50
   7   5   1  593.54   15.70
  -7   5  -1  609.64   15.70
   7   5   1  565.74   16.20
  -9  -5  -1   21.90    2.00
   9  -5   1   18.80    2.00
   9  -5   1   24.40    2.00
  -9  -5  -1   21.90    2.70
   9  -5   1   16.90    2.40
  -9  -5  -1   16.20    2.30
  -9  -5  -1   20.70    3.10
   9  -5   1   22.20    2.20
   9  -5   1   23.20    3.00
   9   5   1   20.30    2.60
  -9   5  -1   24.00    2.30
  -9   5  -1   17.90    2.50
   9   5   1   23.40    2.20
  -9   5  -1   14.70    1.80
   9   5   1   20.30    2.00
  -9   5  -1   23.60    3.30
   9   5   1   21.50    2.90
 -11  -5  -1   72.09    5.20
 -11  -5  -1   62.09    5.30
  11  -5   1   69.39    5.00
  11  -5   1   70.39    3.40
  11  -5   1   67.49    4.80
  11  -5   1   71.99    3.60
  11  -5   1   65.19    3.60
 -11  -5  -1   68.99    3.70
 -11  -5  -1   56.89    4.80
  11   5   1   71.09    3.60
 -11   5  -1   66.49    5.00
 -11   5  -1   60.89    3.90
 -11   5  -1   62.29    4.50
 -11   5  -1   71.09    3.60
  11   5   1   71.99    4.70
  11   5   1   65.09    3.80
  11   5   1   66.09    4.60
  13  -5   1    0.60    1.40
  13  -5   1   -0.30    1.60
 -13  -5  -1   -3.10    2.40
  13  -5   1   -2.00    2.80
 -13  -5  -1   -1.20    2.50
 -13  -5  -1   -3.80    3.00
 -13  -5  -1   -0.50    1.70
  13  -5   1    3.00    2.60
  13  -5   1    0.80    1.70
  13   5   1    0.80    1.70
 -13   5  -1    1.90    2.00
 -13   5  -1    4.10    2.60
  13   5   1   -0.30    1.50
  13   5   1    1.60    2.80
 -13   5  -1   -0.20    2.30
 -13   5  -1   -2.20    1.30
  13   5   1    2.40    2.40
 -12  -6   1   50.39    3.60
  12  -6  -1   46.20    4.80
  12  -6  -1   48.70    3.20
  12  -6  -1   50.49    4.80
 -12  -6   1   58.19    5.50
  12  -6  -1   53.69    3.30
  12  -6  -1   49.20    2.70
 -12  -6   1   52.09    4.70
 -12  -6   1   50.39    4.80
  12   6  -1   49.70    3.30
  12   6  -1   45.60    4.60
 -12   6   1   50.59    3.40
  12   6  -1   45.50    3.30
 -12   6   1   44.50    4.70
  12   6  -1   52.19    4.60
 -12   6   1   49.00    3.30
 -12   6   1   44.40    4.10
 -10  -6   1  165.58    6.90
  10  -6  -1  158.88    4.70
 -10  -6   1  148.69    5.60
  10  -6  -1  155.58    5.20
  10  -6  -1  141.69    6.50
 -10  -6   1  154.88    6.40
  10  -6  -1  144.99    6.40
  10  -6  -1  156.08    5.20
  10   6  -1  158.48    6.70
  10   6  -1  153.18    5.50
 -10   6   1  152.28    5.40
  10   6  -1  143.89    5.40
 -10   6   1  142.99    6.50
  10   6  -1  154.18    6.40
 -10   6   1  153.28    5.60
 -10   6   1  150.68    6.20
  -8  -6   1   30.60    2.80
   8  -6  -1   27.50    2.80
   8  -6  -1   39.30    2.10
  -8  -6   1   28.90    2.70
   8  -6  -1   30.00    1.50
  -8  -6   1   30.60    3.10
   8  -6  -1   31.80    2.00
  -8  -6   1   30.60    2.20
   8   6  -1   33.10    2.80
  -8   6   1   32.60    2.70
  -8   6   1   33.70    2.00
  -8   6   1   32.50    1.90
   8   6  -1   30.40    2.80
   8   6  -1   29.60    2.60
  -8   6   1   35.40    2.90
   8   6  -1   31.30    2.20
   8   6  -1   31.70    2.20
   6  -6  -1   16.90    1.40
   6  -6  -1   19.10    1.90
  -6  -6   1   21.40    2.10
   6  -6  -1   17.90    2.00
   6  -6  -1   15.80    1.30
  -6  -6   1   14.10    1.50
  -6  -6   1   17.50    2.20
   6  -6  -1   17.70    0.80
  -6  -6   1   17.60    1.80
   6   6  -1   16.70    1.80
   6   6  -1   16.80    1.60
  -6   6   1   18.20    1.90
   6   6  -1   17.30    2.00
  -6   6   1   15.20    1.90
  -6   6   1   18.00    1.40
   6   6  -1   18.10    2.00
   6   6  -1   18.80    1.50
  -6   6   1   16.10    1.30
  -4  -6   1   18.70    1.40
   4  -6  -1   15.60    1.30
  -4  -6   1   15.40    1.80
   4  -6  -1   18.70    1.10
   4  -6  -1   17.30    1.60
   4  -6  -1   18.90    1.60
  -4  -6   1   15.80    1.70
  -4  -6   1   19.80    1.40
   4   6  -1   14.10    1.70
  -4   6   1   19.90    1.70
   4   6  -1   17.30    1.70
   4   6  -1   15.90    1.30
   4   6  -1   20.20    1.30
  -4   6   1   17.90    1.60
  -4   6   1   17.30    1.30
   4   6  -1   17.60    1.90
   4   6  -1   15.90    1.50
  -4   6   1   19.60    1.20
  -2  -6   1   65.39    3.00
  -2  -6   1   67.29    2.70
  -2  -6   1   59.39    3.10
  -2  -6   1   62.99    2.30
   2  -6  -1   62.49    2.10
  -2  -6   1   57.79    2.40
  -2  -6   1   57.69    2.70
   2  -6  -1   64.59    1.80
   2  -6  -1   63.49    2.60
   2  -6  -1   64.59    2.60
   2  -6  -1   56.19    2.60
   2   6  -1   54.99    2.60
  -2   6   1   58.99    2.50
   2   6  -1   57.69    2.40
   2   6  -1   67.29    2.60
  -2   6   1   63.19    2.60
  -2   6   1   64.79    2.60
   2   6  -1   69.59    2.60
  -2   6   1   62.59    2.20
  -2   6   1   66.09    2.40
   0  -6   1  237.18    6.40
   0  -6   1  240.08    6.80
   0  -6   1  244.78    7.20
   0  -6   1  238.88    7.30
   0  -6  -1  246.58    6.50
   0  -6  -1  230.58    6.80
   0  -6   1  249.97    7.00
   0  -6  -1  239.18    7.00
   0  -6  -1  240.58    7.10
   0   6  -1  238.38    6.70
   0   6   1  243.08    6.30
   0   6   1  253.57    6.90
   0   6   1  246.88    6.90
   0   6  -1  242.88    6.80
   0   6   1  254.47    7.00
   0   6  -1  254.77    6.80
   0   6   1  240.88    6.60
   0   6   1  247.78    6.90
   0   6  -1  230.28    7.10
   0   6  -1  244.38    7.30
   0   6  -1  255.37    7.30
   0   6   1  247.88    6.80
   0   6  -1  254.17    7.40
   0   6   1  243.98    6.60
  -2  -6  -1  448.46   11.90
   2  -6   1  419.16   12.30
  -2  -6  -1  449.36   11.50
  -2  -6  -1  451.65   11.90
   2  -6   1  452.45   11.90
   2  -6   1  462.15   11.80
  -2  -6  -1  448.36   12.20
   2  -6   1  451.85   12.40
   2   6   1  468.95   12.20
  -2   6  -1  459.25   12.30
   2   6   1  442.16   11.60
   2   6   1  452.35   12.10
   2   6   1  450.85   11.60
  -2   6  -1  469.55   12.40
  -2   6  -1  460.35   12.40
   2   6   1  414.26   11.80
   2   6   1  433.56   11.90
  -2   6  -1  460.15   11.70
  -2   6  -1  466.15   11.80
   4  -6   1  923.61   23.10
  -4  -6  -1  927.11   23.00
   4  -6   1  910.31   23.00
   4  -6   1  874.61   23.90
  -4  -6  -1  917.61   23.70
  -4  -6  -1  930.91   23.60
   4  -6   1  917.11   23.90
  -4  -6  -1  916.71   23.40
   4  -6   1  907.21   23.20
   4   6   1  971.70   23.80
   4   6   1  910.31   23.30
   4   6   1  915.41   23.60
  -4   6  -1  958.30   24.00
   4   6   1  889.61   23.40
  -4   6  -1  898.01   23.00
   4   6   1  899.61   23.10
  -4   6  -1  920.21   23.10
  -4   6  -1  933.51   23.90
  -6  -6  -1   80.29    3.80
   6  -6   1   87.39    4.10
  -6  -6  -1   85.19    3.90
  -6  -6  -1   81.89    3.60
   6  -6   1   83.89    3.10
  -6  -6  -1   82.89    3.10
   6  -6   1   80.59    3.10
   6  -6   1   81.19    4.10
   6  -6   1   83.49    3.20
   6   6   1   88.69    3.70
  -6   6  -1   82.19    4.00
  -6   6  -1   81.99    3.10
  -6   6  -1   80.29    3.10
   6   6   1   84.39    3.40
   6   6   1   82.49    3.20
   6   6   1   78.69    3.70
   6   6   1   81.39    3.70
  -6   6  -1   78.19    3.80
  -8  -6  -1  181.88    5.80
   8  -6   1  187.18    7.10
   8  -6   1  180.78    5.80
  -8  -6  -1  183.28    7.00
   8  -6   1  188.08    5.90
   8  -6   1  169.28    6.90
  -8  -6  -1  183.88    6.60
   8  -6   1  187.98    5.80
  -8  -6  -1  177.98    6.70
  -8   6  -1  195.68    7.10
   8   6   1  168.18    7.80
  -8   6  -1  180.78    6.90
   8   6   1  185.08    5.90
   8   6   1  177.88    6.60
   8   6   1  165.98    6.60
  10  -6   1  178.28    7.60
 -10  -6  -1  180.28    7.50
  10  -6   1  176.18    7.40
  10  -6   1  190.68    6.10
 -10  -6  -1  195.58    7.60
 -10  -6  -1  175.58    7.40
  10  -6   1  183.38    6.10
  10  -6   1  184.28    6.10
 -10  -6  -1  185.78    7.30
  10   6   1  185.18    7.30
 -10   6  -1  178.98    6.10
  10   6   1  174.48    7.20
 -10   6  -1  146.29    8.50
  10   6   1  179.68    6.40
  10   6   1  189.28    6.30
 -10   6  -1  173.98    7.20
  12  -6   1   32.70    4.70
 -12  -6  -1   23.10    3.50
  12  -6   1   28.90    3.10
  12  -6   1   24.60    3.80
  12  -6   1   20.10    2.70
 -12  -6  -1   35.40    4.60
 -12  -6  -1   21.90    3.00
 -12  -6  -1   25.30    3.80
  12  -6   1   25.50    3.00
  12   6   1   24.10    2.90
 -12   6  -1   28.80    2.90
 -12   6  -1   23.50    3.50
  12   6   1   24.20    3.50
  12   6   1   23.70    3.00
 -12   6  -1   28.10    3.50
  12   6   1   30.70    4.40
  13  -7  -1    1.90    1.20
  13  -7  -1    2.10    1.70
 -13  -7   1   -3.80    3.20
 -13  -7   1    2.50    2.00
  13  -7  -1    3.40    3.50
  13  -7  -1    1.20    1.80
 -13  -7   1    0.70    2.90
  13  -7  -1    1.10    2.70
 -13   7   1    0.10    1.60
  13   7  -1    1.90    2.60
 -13   7   1    2.90    2.70
  13   7  -1    1.80    2.50
 -13   7   1    0.10    1.50
  13   7  -1    1.30    2.30
 -13   7   1   -0.70    2.40
  13   7  -1    3.60    2.50
  13   7  -1   -0.20    1.40
 -11  -7   1   53.89    5.20
  11  -7  -1   51.39    4.50
  11  -7  -1   50.19    4.70
  11  -7  -1   54.99    3.20
 -11  -7   1   38.70    4.20
 -11  -7   1   47.60    3.50
 -11  -7   1   51.09    4.40
  11  -7  -1   50.69    2.40
  11  -7  -1   54.59    3.10
  11   7  -1   47.00    3.10
  11   7  -1   44.80    3.90
  11   7  -1   49.60    3.40
 -11   7   1   51.79    3.10
 -11   7   1   44.40    4.30
  11   7  -1   40.10    4.10
 -11   7   1   51.49    4.20
  11   7  -1   52.49    4.60
   9  -7  -1  131.19    3.80
   9  -7  -1  125.89    5.80
   9  -7  -1  125.29    5.80
   9  -7  -1  135.99    4.60
  -9  -7   1  128.79    4.90
   9  -7  -1  129.09    4.70
  -9  -7   1  131.79    6.00
  -9  -7   1  126.69    5.60
  -9  -7   1  129.39    5.70
   9   7  -1  127.69    5.80
   9   7  -1  127.59    5.50
   9   7  -1  121.99    4.80
  -9   7   1  133.89    4.70
   9   7  -1  124.19    4.70
  -9   7   1  125.29    5.50
  -9   7   1  132.79    5.80
   7  -7  -1   75.39    2.20
  -7  -7   1   76.29    3.30
   7  -7  -1   72.79    2.90
   7  -7  -1   73.09    5.50
  -7  -7   1   73.79    3.90
   7  -7  -1   73.59    3.90
  -7  -7   1   77.09    4.20
  -7  -7   1   78.29    3.90
   7  -7  -1   74.29    3.10
   7   7  -1   72.39    3.90
   7   7  -1   76.79    3.90
  -7   7   1   77.19    3.70
  -7   7   1   82.59    4.00
   7   7  -1   75.69    3.90
  -7   7   1   78.39    3.00
   7   7  -1   78.69    3.80
   7   7  -1   80.39    3.20
  -7   7   1   75.59    3.10
  -5  -7   1   48.30    3.10
   5  -7  -1   49.20    2.80
   5  -7  -1   51.29    2.10
  -5  -7   1   53.69    2.50
   5  -7  -1   51.09    2.40
  -5  -7   1   51.49    2.90
  -5  -7   1   55.39    2.70
   5  -7  -1   51.69    2.80
  -5   7   1   55.19    2.30
   5   7  -1   48.50    2.70
  -5   7   1   48.80    2.70
   5   7  -1   50.59    3.10
   5   7  -1   50.09    2.40
  -5   7   1   55.69    2.20
   5   7  -1   53.39    2.30
   5   7  -1   50.69    2.70
   5   7  -1   50.19    2.90
  -5   7   1   52.59    2.90
   3  -7  -1  971.50   24.60
  -3  -7   1 1020.00   25.00
   3  -7  -1 1008.10   25.40
   3  -7  -1  952.60   25.30
  -3  -7   1 1018.70   25.50
  -3  -7   1  947.11   24.90
   3  -7  -1  987.80   25.10
  -3  -7   1  948.71   25.30
  -3  -7   1 1017.60   25.70
   3   7  -1 1039.10   25.90
  -3   7   1  986.80   24.70
  -3   7   1  953.60   24.80
  -3   7   1 1024.20   25.40
   3   7  -1 1009.20   25.60
   3   7  -1  969.90   25.00
  -3   7   1  971.20   25.20
   3   7  -1 1006.60   25.20
   3   7  -1  973.60   24.60
  -3   7   1 1002.70   25.30
   3   7  -1 1002.00   25.40
   1  -7  -1 1338.27   33.30
  -1  -7   1 1294.37   32.70
  -1  -7   1 1314.07   33.50
   1  -7  -1 1358.86   33.30
  -1  -7   1 1312.27   33.80
   1  -7  -1 1294.17   32.50
   1  -7  -1 1338.37   33.40
  -1  -7   1 1331.77   33.40
  -1   7   1 1340.37   33.30
   1   7  -1 1333.97   33.60
   1   7  -1 1334.67   33.10
  -1   7   1 1340.07   32.80
  -1   7   1 1259.37   33.10
  -1   7   1 1362.76   33.30
   1   7  -1 1372.26   33.70
   1   7  -1 1319.27   33.40
   1   7  -1 1319.87   33.10
   1   7  -1 1358.36   33.70
  -1   7   1 1327.47   33.10
   1   7  -1 1334.17   33.10
   1  -7   1  131.29    4.40
   1  -7   1  135.09    4.80
  -1  -7  -1  134.79    4.40
  -1  -7  -1  131.19    4.70
  -1  -7  -1  136.69    4.20
  -1  -7  -1  132.09    4.70
   1  -7   1  130.69    4.30
   1  -7   1  133.79    3.70
   1  -7   1  128.29    4.80
   1   7   1  128.99    4.40
  -1   7  -1  138.19    4.80
   1   7   1  134.59    4.40
  -1   7  -1  139.39    4.30
  -1   7  -1  135.09    4.30
   1   7   1  147.39    4.00
  -1   7  -1  140.79    4.90
   1   7   1  138.99    4.10
  -1   7  -1  135.79    4.20
   1   7   1  137.49    4.50
  -1   7  -1  136.49    4.70
   1   7   1  131.79    4.30
   1   7   1  141.09    4.60
  -3  -7  -1  332.87    9.30
   3  -7   1  332.67    9.00
  -3  -7  -1  326.97    9.20
  -3  -7  -1  337.77    8.70
   3  -7   1  331.97    9.70
   3  -7   1  322.27    9.70
   3  -7   1  325.97    9.10
  -3  -7  -1  330.87    9.40
   3   7   1  332.67    8.90
  -3   7  -1  329.37    8.90
   3   7   1  329.67    9.60
   3   7   1  330.97    9.30
  -3   7  -1  307.77    9.50
  -3   7  -1  343.87    9.80
   3   7   1  328.37    8.90
  -3   7  -1  319.67    8.90
  -3   7  -1  318.47    9.60
   3   7   1  323.97    9.20
   3   7   1  324.97    9.50
   5  -7   1  126.09    4.10
   5  -7   1  126.29    5.00
  -5  -7  -1  121.09    4.00
   5  -7   1  124.89    4.10
  -5  -7  -1  120.99    4.50
   5  -7   1  122.29    5.00
  -5  -7  -1  125.99    4.80
   5  -7   1  128.09    4.30
  -5  -7  -1  123.49    4.80
   5   7   1  128.39    4.90
   5   7   1  122.19    4.10
  -5   7  -1  126.19    4.10
  -5   7  -1  129.59    5.10
   5   7   1  121.39    4.30
  -5   7  -1  112.29    4.80
  -5   7  -1  121.39    4.10
   5   7   1  121.89    4.50
   5   7   1  118.19    4.60
   7  -7   1  146.79    6.10
  -7  -7  -1  142.79    5.60
  -7  -7  -1  148.39    5.90
  -7  -7  -1  141.19    4.80
   7  -7   1  148.79    4.80
   7  -7   1  148.29    6.10
   7  -7   1  146.69    5.00
  -7  -7  -1  151.48    5.90
   7   7   1  143.19    5.50
   7   7   1  154.48    5.00
  -7   7  -1  139.89    4.90
  -7   7  -1  151.98    5.90
   7   7   1  146.59    5.20
  -7   7  -1  147.89    6.10
  -7   7  -1  147.29    4.90
   7   7   1  145.79    5.70
   7   7   1  144.19    5.70
   9  -7   1   99.79    4.00
  -9  -7  -1   90.79    5.20
   9  -7   1   98.79    5.40
  -9  -7  -1   95.59    5.20
   9  -7   1  102.59    5.50
  -9  -7  -1   98.29    4.10
   9  -7   1  102.79    4.10
  -9  -7  -1  106.49    5.10
   9  -7   1   94.99    3.90
   9   7   1   90.09    4.00
   9   7   1  102.09    5.00
  -9   7  -1   95.69    4.00
  -9   7  -1   94.19    4.90
   9   7   1   92.69    5.00
   9   7   1   98.89    5.00
  11  -7   1   54.19    3.40
 -11  -7  -1   57.19    3.60
  11  -7   1   57.79    3.40
 -11  -7  -1   60.29    5.20
  11  -7   1   59.19    3.90
  11  -7   1   58.29    5.00
 -11  -7  -1   63.29    4.70
 -11  -7  -1   50.39    5.10
  11  -7   1   55.89    5.00
 -11   7  -1   61.89    5.20
  11   7   1   54.69    4.60
 -11   7  -1   51.49    4.60
 -11   7  -1   56.09    3.40
  11   7   1   58.19    4.50
  11   7   1   66.09    3.80
  11   7   1   56.99    3.60
  13  -7   1    5.80    2.10
 -13  -7  -1    6.30    3.40
 -13  -7  -1   11.30    2.30
  13  -7   1    3.70    2.10
  13  -7   1    3.40    1.90
 -13  -7  -1    6.40    3.70
  13  -7   1    5.10    3.20
  13   7   1    4.70    3.10
 -13   7  -1    6.20    2.00
 -13   7  -1    4.00    2.60
  13   7   1    5.00    2.00
  13   7   1    4.30    2.70
 -13   7  -1    1.70    3.20
  12  -8  -1   34.40    2.10
 -12  -8   1   38.50    4.70
  12  -8  -1   34.30    5.00
  12  -8  -1   33.20    3.30
 -12  -8   1   32.40    3.60
 -12  -8   1   22.90    3.50
  12  -8  -1   37.00    3.10
  12  -8  -1   40.70    4.90
 -12  -8   1   44.60    5.70
  12   8  -1   36.30    4.50
  12   8  -1   39.70    4.50
 -12   8   1   35.20    3.10
  12   8  -1   42.90    5.00
 -12   8   1   34.00    4.80
  12   8  -1   31.50    2.80
 -12   8   1   27.20    4.00
  12   8  -1   29.80    3.50
  10  -8  -1  130.29    4.90
 -10  -8   1  131.59    6.60
  10  -8  -1  128.49    6.30
  10  -8  -1  130.99    6.40
 -10  -8   1  124.49    6.10
 -10  -8   1  124.59    5.20
  10  -8  -1  130.59    4.70
  10  -8  -1  124.69    3.70
 -10  -8   1  118.79    6.00
  10   8  -1  126.29    4.90
 -10   8   1  129.49    4.90
 -10   8   1  126.99    5.90
 -10   8   1  119.59    6.10
  10   8  -1  123.89    5.10
  10   8  -1  127.79    5.80
  10   8  -1  126.39    6.10
  10   8  -1  137.19    6.40
   8  -8  -1   67.69    3.00
   8  -8  -1   66.79    4.10
   8  -8  -1   61.39    3.10
  -8  -8   1   68.59    4.00
  -8  -8   1   68.69    3.40
   8  -8  -1   62.69    1.90
  -8  -8   1   68.59    4.50
  -8  -8   1   65.69    4.20
   8  -8  -1   64.09    4.00
  -8   8   1   59.29    3.90
   8   8  -1   70.39    4.20
   8   8  -1   69.29    3.40
  -8   8   1   60.79    3.60
   8   8  -1   65.99    3.00
  -8   8   1   65.99    3.00
  -8   8   1   63.89    2.90
   8   8  -1   69.29    3.90
   8   8  -1   60.79    3.90
  -6  -8   1  472.45   13.80
  -6  -8   1  461.55   12.80
   6  -8  -1  458.15   12.40
  -6  -8   1  475.85   13.40
  -6  -8   1  471.35   13.50
   6  -8  -1  464.65   12.80
   6  -8  -1  463.45   15.80
   6   8  -1  427.56   13.50
   6   8  -1  465.15   13.60
   6   8  -1  481.95   13.50
   6   8  -1  482.45   12.60
   6   8  -1  474.55   13.30
   6   8  -1  462.15   14.10
  -6   8   1  472.85   13.40
  -6   8   1  472.35   12.60
  -6   8   1  485.95   12.50
  -6   8   1  481.95   13.60
   4  -8  -1   22.00    2.00
   4  -8  -1   24.40    2.10
  -4  -8   1   22.00    1.70
   4  -8  -1   23.50    1.50
   4  -8  -1   23.30    1.90
  -4  -8   1   22.30    1.90
  -4  -8   1   25.70    2.30
  -4  -8   1   22.30    2.40
   4   8  -1   24.10    2.40
   4   8  -1   24.10    1.80
   4   8  -1   21.10    2.00
  -4   8   1   22.80    1.60
   4   8  -1   23.60    2.20
   4   8  -1   22.90    1.50
  -4   8   1   23.60    1.40
  -4   8   1   21.50    2.00
   4   8  -1   25.60    2.00
  -4   8   1   26.40    2.10
   2  -8  -1  157.18    5.20
   2  -8  -1  152.98    5.20
  -2  -8   1  156.78    4.90
   2  -8  -1  147.49    4.10
  -2  -8   1  147.79    5.20
  -2  -8   1  148.99    5.70
   2  -8  -1  153.18    5.20
  -2  -8   1  157.58    5.40
  -2  -8   1  161.78    4.80
   2   8  -1  162.78    5.10
  -2   8   1  157.68    5.20
  -2   8   1  159.28    5.10
  -2   8   1  158.38    4.60
   2   8  -1  161.98    5.60
   2   8  -1  146.79    4.90
   2   8  -1  142.19    5.40
   2   8  -1  149.09    5.40
  -2   8   1  160.68    4.90
  -2   8   1  152.58    5.20
   2   8  -1  158.58    5.10
   2   8  -1  156.28    5.30
   0  -8  -1  225.68    6.50
   0  -8   1  238.98    6.40
   0  -8  -1  230.78    7.20
   0  -8   1  247.78    7.30
   0  -8   1  237.28    7.50
   0  -8  -1  210.98    7.10
   0  -8  -1  242.28    7.00
   0  -8   1  232.78    7.10
   0   8  -1  234.48    7.20
   0   8  -1  234.28    7.40
   0   8  -1  229.18    6.80
   0   8   1  243.78    7.10
   0   8  -1  226.08    7.40
   0   8  -1  240.58    6.80
   0   8   1  247.68    6.20
   0   8   1  238.98    6.90
   0   8   1  233.48    7.10
   0   8   1  235.48    6.60
   0   8   1  240.28    7.00
   0   8   1  234.78    6.60
   0   8  -1  225.98    7.40
   0   8   1  234.08    7.10
   0   8  -1  233.48    6.90
  -2  -8  -1   35.30    2.00
   2  -8   1   30.50    2.30
  -2  -8  -1   30.70    2.80
  -2  -8  -1   28.70    2.30
  -2  -8  -1   33.90    2.10
   2  -8   1   34.20    1.90
   2  -8   1   32.70    2.50
   2  -8   1   33.40    2.10
   2   8   1   34.90    2.10
  -2   8  -1   34.70    2.50
   2   8   1   33.00    2.00
   2   8   1   35.90    2.20
   2   8   1   33.70    2.20
  -2   8  -1   32.80    2.40
  -2   8  -1   34.80    2.00
   2   8   1   33.60    1.80
  -2   8  -1   36.20    1.90
  -2   8  -1   36.50    2.30
  -2   8  -1   33.20    1.80
   2   8   1   32.90    1.60
   2   8   1   30.90    2.10
  -4  -8  -1  918.71   23.90
   4  -8   1  934.81   23.40
   4  -8   1  936.71   23.60
   4  -8   1  904.91   23.10
  -4  -8  -1  911.21   23.80
  -4  -8  -1  935.01   24.00
   4  -8   1  926.61   24.40
  -4  -8  -1  938.51   23.20
   4  -8   1  939.81   24.40
  -4   8  -1  909.41   23.40
   4   8   1  841.72   23.80
  -4   8  -1  916.01   23.30
   4   8   1  907.11   23.30
   4   8   1  921.01   24.20
   4   8   1  922.51   23.40
   4   8   1  915.71   23.80
  -4   8  -1  931.21   24.40
  -4   8  -1  936.01   24.30
   4   8   1  924.51   24.10
  -6  -8  -1  178.58    7.50
  -6  -8  -1  180.58    6.70
   6  -8   1  187.68    5.90
  -6  -8  -1  193.28    6.60
   6  -8   1  190.08    7.00
   6  -8   1  185.68    5.70
   6  -8   1  187.98    6.10
   6  -8   1  194.58    7.00
  -6  -8  -1  188.78    5.80
  -6   8  -1  174.68    6.80
  -6   8  -1  191.28    7.10
   6   8   1  193.58    6.10
   6   8   1  189.58    6.50
  -6   8  -1  188.58    5.90
   6   8   1  179.08    6.50
   6   8   1  190.88    6.00
  -6   8  -1  188.18    5.90
   6   8   1  190.58    6.70
   6   8   1  182.48    7.00
  -8  -8  -1  293.57    9.70
   8  -8   1  283.27   10.10
   8  -8   1  298.57    9.00
  -8  -8  -1  300.97   10.00
  -8  -8  -1  314.27    8.90
   8  -8   1  296.77   10.20
  -8  -8  -1  311.27   10.20
   8  -8   1  312.47    8.90
   8  -8   1  313.37    8.60
   8   8   1  296.77    9.90
  -8   8  -1  285.67    9.90
  -8   8  -1  298.47    8.80
   8   8   1  305.97    9.00
   8   8   1  295.07    9.90
   8   8   1  312.07    9.80
  -8   8  -1  290.87    8.90
   8   8   1  308.57    9.20
  10  -8   1   66.49    5.10
  10  -8   1   78.99    5.20
 -10  -8  -1   72.29    5.40
  10  -8   1   76.89    3.70
  10  -8   1   71.09    3.40
 -10  -8  -1   77.69    3.80
  10  -8   1   72.59    3.90
 -10  -8  -1   80.49    5.00
 -10  -8  -1   67.79    5.20
 -10   8  -1   74.89    3.70
  10   8   1   69.89    3.70
 -10   8  -1   65.69    5.10
  10   8   1   71.69    3.90
  10   8   1   66.99    4.70
  10   8   1   71.69    4.80
 -10   8  -1   68.59    4.70
 -12  -8  -1   90.69    6.30
 -12  -8  -1   94.19    7.10
  12  -8   1   99.49    6.90
  12  -8   1   88.09    4.80
  12  -8   1   89.89    6.70
 -12  -8  -1   87.29    6.80
  12  -8   1   95.99    4.70
  12  -8   1   95.99    4.40
 -12  -8  -1   97.89    4.80
  12   8   1   83.29    4.70
  12   8   1   86.79    6.10
 -12   8  -1   91.99    6.70
 -12   8  -1   85.59    6.00
 -12   8  -1   89.29    4.50
  12   8   1   86.59    6.00
  12   8   1   84.59    4.80
  12   8   1   95.09    6.20
 -11  -9   1   29.50    3.30
 -11  -9   1   20.40    3.00
  11  -9  -1   31.70    3.00
  11  -9  -1   25.30    3.60
  11  -9  -1   29.30    4.40
 -11  -9   1   32.60    4.30
  11  -9  -1   32.50    1.50
 -11  -9   1   41.90    4.50
  11  -9  -1   32.90    3.20
  11   9  -1   28.50    3.60
 -11   9   1   39.00    4.40
  11   9  -1   29.10    3.50
  11   9  -1   27.30    2.80
  11   9  -1   31.20    3.20
  11   9  -1   26.60    3.20
 -11   9   1   31.70    2.80
 -11   9   1   33.00    3.90
   9  -9  -1   15.30    2.50
  -9  -9   1   20.40    2.50
  -9  -9   1   21.90    3.30
   9  -9  -1   23.70    2.50
   9  -9  -1   18.20    2.80
   9  -9  -1   19.20    2.20
  -9  -9   1   16.90    2.50
   9   9  -1   16.10    2.30
  -9   9   1   18.60    2.40
   9   9  -1   24.10    3.20
   9   9  -1   14.60    3.00
  -9   9   1   19.40    2.10
   9   9  -1   22.70    3.20
   9   9  -1   17.80    2.10
  -9   9   1   19.80    2.70
   9   9  -1   20.00    2.50
  -9   9   1   21.60    2.10
   7  -9  -1   74.19    3.20
  -7  -9   1   80.49    4.20
   7  -9  -1   77.49    4.30
  -7  -9   1   81.19    4.30
  -7  -9   1   86.09    3.70
   7  -9  -1   77.59    3.60
  -7  -9   1   80.39    4.80
   7  -9  -1   72.89    4.30
   7   9  -1   78.99    3.30
   7   9  -1   73.59    4.30
  -7   9   1   74.79    4.30
   7   9  -1   80.99    3.60
   7   9  -1   75.59    4.20
  -7   9   1   71.59    3.60
   7   9  -1   77.59    4.10
  -7   9   1   77.59    4.00
   7   9  -1   70.79    4.60
   5  -9  -1  595.14   15.90
  -5  -9   1  594.04   15.70
  -5  -9   1  570.54   15.90
   5  -9  -1  536.75   16.60
   5  -9  -1  563.64   16.30
  -5  -9   1  605.94   16.40
   5  -9  -1  583.34   15.30
  -5  -9   1  597.54   16.60
  -5   9   1  598.14   15.50
  -5   9   1  603.94   16.40
  -5   9   1  600.34   16.30
   5   9  -1  599.84   16.10
   5   9  -1  604.14   15.40
  -5   9   1  590.44   15.40
   5   9  -1  585.14   16.80
   5   9  -1  562.94   16.90
   5   9  -1  579.54   16.30
   5   9  -1  591.04   16.60
  -3  -9   1  267.17    8.90
  -3  -9   1  280.17    8.00
  -3  -9   1  267.47    8.50
  -3  -9   1  272.67    8.60
   3  -9  -1  279.47    8.50
   3  -9  -1  263.57    8.40
   3  -9  -1  282.17    8.40
  -3  -9   1  281.67    8.00
   3  -9  -1  271.07    7.70
   3   9  -1  268.87    8.70
  -3   9   1  277.67    8.50
   3   9  -1  285.37    8.50
  -3   9   1  274.17    8.30
  -3   9   1  268.17    8.40
  -3   9   1  280.17    8.00
   3   9  -1  276.57    8.70
   3   9  -1  279.37    8.20
   3   9  -1  285.27    8.10
   3   9  -1  266.57    8.20
   3   9  -1  287.87    8.90
  -3   9   1  280.17    7.70
   1  -9  -1  697.33   18.40
  -1  -9   1  670.43   17.50
   1  -9  -1  666.03   17.30
  -1  -9   1  685.53   18.40
   1  -9  -1  682.83   18.30
  -1  -9   1  681.73   18.80
  -1  -9   1  689.43   18.40
   1   9  -1  696.73   18.60
   1   9  -1  698.43   18.60
   1   9  -1  685.53   18.30
   1   9  -1  678.93   18.50
  -1   9   1  710.93   18.30
  -1   9   1  687.03   17.70
   1   9  -1  695.93   17.90
   1   9  -1  681.43   17.90
   1   9  -1  697.13   18.00
  -1   9   1  664.23   18.20
  -1   9   1  680.13   18.20
  -1   9   1  679.33   17.60
  -1   9   1  694.53   18.00
  -1   9   1  682.73   18.00
   1  -9   1  130.59    5.20
  -1  -9  -1  137.79    5.10
   1  -9   1  131.69    3.90
   1  -9   1  130.39    5.20
  -1  -9  -1  133.49    4.70
   1  -9   1  136.09    4.60
  -1  -9  -1  132.29    5.10
  -1  -9  -1  131.29    4.40
   1  -9   1  145.89    4.90
  -1   9  -1  131.39    5.10
   1   9   1  136.59    4.80
  -1   9  -1  132.19    5.00
  -1   9  -1  125.79    5.20
   1   9   1  128.79    4.60
   1   9   1  129.29    4.70
   1   9   1  129.89    4.80
   1   9   1  137.09    3.90
   1   9   1  129.89    4.40
  -1   9  -1  129.79    4.40
  -1   9  -1  127.99    5.10
   1   9   1  140.49    4.80
  -1   9  -1  133.39    4.60
   1   9   1  130.89    4.30
  -1   9  -1  134.79    4.50
  -3  -9  -1  850.31   21.90
   3  -9   1  866.71   21.50
  -3  -9  -1  834.22   21.80
   3  -9   1  841.42   22.40
  -3  -9  -1  817.92   22.00
   3  -9   1  828.52   21.70
   3  -9   1  839.82   22.40
   3   9   1  791.52   21.80
  -3   9  -1  862.81   22.40
  -3   9  -1  835.72   22.40
  -3   9  -1  827.42   21.40
   3   9   1  845.42   21.20
   3   9   1  808.72   21.30
   3   9   1  829.82   22.00
  -3   9  -1  827.22   21.40
   3   9   1  832.42   21.80
   3   9   1  867.61   22.20
  -3   9  -1  824.62   22.20
   5  -9   1  367.86   10.20
  -5  -9  -1  379.66   11.30
  -5  -9  -1  382.96   10.30
   5  -9   1  391.46   10.60
   5  -9   1  373.66   11.70
  -5  -9  -1  374.66   11.10
   5  -9   1  378.26   11.70
   5  -9   1  379.66   10.90
  -5  -9  -1  366.76   11.20
   5   9   1  387.46   11.10
  -5   9  -1  369.66   11.50
   5   9   1  368.96   11.20
  -5   9  -1  387.76   11.80
   5   9   1  389.36   10.60
   5   9   1  388.46   10.60
   5   9   1  381.86   11.60
  -5   9  -1  387.56   10.50
  -5   9  -1  375.26   10.50
   5   9   1  364.66   11.30
  -7  -9  -1  110.29    4.10
  -7  -9  -1  102.89    5.10
  -7  -9  -1   99.09    4.90
   7  -9   1  106.49    4.10
   7  -9   1  107.99    5.40
  -7  -9  -1  109.99    5.20
   7  -9   1  109.89    4.40
   7  -9   1  102.99    3.80
   7  -9   1  102.19    5.30
   7   9   1  101.59    4.20
   7   9   1  105.19    5.30
  -7   9  -1  102.19    4.00
   7   9   1  102.09    4.80
  -7   9  -1   96.39    6.80
  -7   9  -1  104.19    4.00
   7   9   1  101.59    4.20
  -7   9  -1   98.09    5.00
   7   9   1  111.39    5.00
   7   9   1  102.09    4.70
  -9  -9  -1  108.29    4.40
   9  -9   1  108.39    4.00
   9  -9   1  110.09    5.90
  -9  -9  -1  107.19    6.00
   9  -9   1  105.59    4.60
   9  -9   1  110.69    4.50
   9  -9   1  108.89    5.80
  -9  -9  -1  106.49    5.60
  -9  -9  -1  106.19    5.90
   9   9   1  100.19    5.50
  -9   9  -1  105.49    4.40
   9   9   1  106.09    4.50
  -9   9  -1  100.29    6.00
   9   9   1  111.99    5.30
  -9   9  -1  102.19    5.50
   9   9   1  101.49    4.60
   9   9   1  104.99    5.40
  11  -9   1    2.50    1.40
  11  -9   1    3.50    1.70
  11  -9   1    0.30    1.50
 -11  -9  -1    0.20    2.60
  11  -9   1    5.90    3.00
 -11  -9  -1    0.10    2.70
 -11  -9  -1    5.40    1.70
  11  -9   1   -2.30    2.40
 -11  -9  -1    0.40    3.10
  11   9   1   -0.30    1.40
  11   9   1    0.30    2.20
  11   9   1    2.80    2.30
  11   9   1    2.60    1.60
 -11   9  -1   -1.80    1.30
  11   9   1   -1.40    2.20
 -11   9  -1    2.60    2.20
 -11   9  -1    0.50    2.40
 -12 -10   1   -3.70    3.90
 -12 -10   1    4.90    2.20
 -12 -10   1    6.70    3.20
  12 -10  -1    4.90    2.20
  12 -10  -1    8.30    2.00
 -12  10   1    5.10    1.80
 -12  10   1    2.70    2.60
  12  10  -1    4.90    3.30
  12  10  -1    2.70    2.90
  12  10  -1    5.90    1.70
  12  10  -1    9.00    2.80
 -10 -10   1   95.29    6.60
  10 -10  -1   84.89    5.70
  10 -10  -1   88.89    4.60
 -10 -10   1   93.39    4.60
 -10 -10   1   87.29    5.60
  10 -10  -1   95.39    5.70
  10 -10  -1   95.89    4.20
 -10 -10   1   88.29    5.70
 -10  10   1   94.19    5.60
  10  10  -1   89.29    5.20
  10  10  -1   79.69    4.00
  10  10  -1   98.09    4.60
 -10  10   1   81.89    5.10
  10  10  -1   93.79    5.50
  10  10  -1   85.49    5.90
 -10  10   1   90.69    4.10
 -10  10   1   83.19    4.10
  10  10  -1   89.99    5.60
  -8 -10   1   43.90    4.10
  -8 -10   1   43.80    3.00
  -8 -10   1   46.10    3.90
  -8 -10   1   49.50    4.60
   8 -10  -1   43.70    3.90
   8 -10  -1   48.20    3.10
   8 -10  -1   47.30    2.80
   8 -10  -1   45.20    3.80
   8  10  -1   44.60    3.80
   8  10  -1   47.50    4.30
  -8  10   1   49.10    2.70
   8  10  -1   46.60    3.00
   8  10  -1   48.10    4.00
  -8  10   1   41.70    2.60
   8  10  -1   49.10    3.80
  -8  10   1   42.50    3.50
   8  10  -1   51.39    2.80
  -8  10   1   49.20    3.90
   6 -10  -1    6.10    1.60
  -6 -10   1    4.00    1.50
   6 -10  -1    4.70    1.30
  -6 -10   1    5.70    1.90
   6 -10  -1    9.60    1.90
  -6 -10   1    3.10    1.80
   6 -10  -1    6.30    1.20
  -6 -10   1    7.90    1.40
   6  10  -1    8.10    2.50
   6  10  -1    4.40    1.10
   6  10  -1    9.80    2.00
  -6  10   1    5.00    1.50
  -6  10   1    9.10    1.80
   6  10  -1    7.10    1.90
   6  10  -1    7.90    1.80
  -6  10   1    3.70    1.00
   6  10  -1    8.10    1.50
  -6  10   1    7.40    1.30
  -4 -10   1   11.40    1.90
  -4 -10   1    9.60    1.40
  -4 -10   1   12.80    1.70
  -4 -10   1   10.60    2.10
   4 -10  -1    9.80    1.20
   4 -10  -1    7.50    1.40
   4 -10  -1   13.10    1.90
  -4 -10   1   10.60    1.90
   4 -10  -1   12.10    1.90
  -4  10   1   12.80    1.90
   4  10  -1   11.30    1.60
  -4  10   1   14.00    1.80
   4  10  -1   10.60    1.50
  -4  10   1   12.20    1.50
   4  10  -1   11.10    2.10
  -4  10   1    8.80    1.60
   4  10  -1   12.80    1.90
   4  10  -1   13.80    2.00
  -4  10   1   10.50    1.30
   4  10  -1   12.50    1.60
   2 -10  -1    1.90    1.30
  -2 -10   1   -0.10    1.10
  -2 -10   1    1.40    1.20
   2 -10  -1    0.80    0.50
   2 -10  -1    2.70    1.20
  -2 -10   1    1.60    0.80
  -2  10   1   -0.20    1.00
  -2  10   1    0.00    0.90
   2  10  -1    0.00    1.10
   2  10  -1   -0.40    1.10
  -2  10   1   -0.70    0.90
  -2  10   1    0.90    0.70
  -2  10   1    0.00    1.10
  -2  10   1    0.60    0.70
   2  10  -1    1.30    1.20
   2  10  -1    1.00    0.80
   2  10  -1    0.20    0.80
   2  10  -1    0.10    0.90
   2  10  -1   -0.50    1.10
   0 -10   1  172.88    6.20
   0 -10   1  177.18    5.20
   0 -10  -1  180.58    6.40
   0 -10  -1  177.78    6.30
   0 -10   1  173.98    6.70
   0 -10  -1  171.88    5.40
   0  10  -1  184.38    5.80
   0  10   1  182.78    6.10
   0  10  -1  187.48    6.50
   0  10  -1  166.28    6.10
   0  10   1  180.18    5.60
   0  10  -1  180.18    6.50
   0  10   1  174.28    6.10
   0  10  -1  183.98    5.70
   0  10   1  175.68    6.10
   0  10  -1  182.88    6.50
   0  10  -1  186.08    5.90
   0  10   1  177.28    5.90
   0  10   1  175.48    5.90
   0  10   1  182.18    5.60
   2 -10   1   93.79    3.70
   2 -10   1   91.19    2.90
  -2 -10  -1   77.59    4.80
   2 -10   1   85.19    4.50
   2 -10   1   81.59    5.00
  -2 -10  -1   88.59    3.70
  -2 -10  -1   89.59    4.00
   2 -10   1   89.79    4.40
   2  10   1   90.49    4.00
  -2  10  -1   91.19    4.30
   2  10   1   93.69    4.10
   2  10   1   91.59    4.00
  -2  10  -1   95.89    3.50
   2  10   1   98.99    3.90
   2  10   1   99.59    3.70
  -2  10  -1   96.09    4.30
   2  10   1   94.79    3.10
  -2  10  -1   92.49    3.80
   2  10   1   91.49    4.00
  -2  10  -1   89.89    3.60
   2  10   1   89.89    3.50
  -2  10  -1   87.99    4.40
   4 -10   1   63.59    4.10
  -4 -10  -1   74.39    3.80
   4 -10   1   72.59    3.50
   4 -10   1   72.29    2.90
   4 -10   1   74.09    3.30
  -4 -10  -1   73.09    4.00
  -4 -10  -1   74.29    3.80
   4 -10   1   76.19    4.20
   4  10   1   66.09    4.80
   4  10   1   71.79    3.50
  -4  10  -1   72.99    4.10
   4  10   1   74.19    3.10
  -4  10  -1   71.79    3.10
  -4  10  -1   67.59    3.90
   4  10   1   74.69    3.20
   4  10   1   70.89    3.80
   4  10   1   72.79    3.70
   6 -10   1  132.39    4.40
  -6 -10  -1  135.09    6.00
  -6 -10  -1  144.69    5.80
   6 -10   1  142.29    6.20
   6 -10   1  141.69    5.30
   6 -10   1  146.39    6.20
  -6 -10  -1  135.49    4.70
  -6 -10  -1  137.39    5.80
   6 -10   1  137.99    5.00
  -6  10  -1  145.39    6.20
   6  10   1  135.69    5.50
  -6  10  -1  137.09    4.80
   6  10   1  123.69    5.20
   6  10   1  137.89    6.10
  -6  10  -1  131.29    4.80
  -6  10  -1  136.89    6.00
   6  10   1  133.29    5.60
   6  10   1  139.19    5.00
   6  10   1  141.89    5.80
   8 -10   1  108.69    5.80
   8 -10   1  107.99    3.90
  -8 -10  -1  108.79    5.50
   8 -10   1  120.09    4.60
  -8 -10  -1  111.89    5.80
  -8 -10  -1  103.49    5.70
  -8 -10  -1  100.69    4.30
   8 -10   1  101.59    5.90
   8 -10   1  111.89    4.70
   8  10   1  112.29    5.30
  -8  10  -1  107.79    6.00
  -8  10  -1  107.39    5.50
  -8  10  -1  101.39    4.30
   8  10   1  110.89    5.80
   8  10   1  109.39    4.50
  -8  10  -1  109.29    4.40
   8  10   1  106.09    4.60
   8  10   1   96.49    5.10
   8  10   1  107.09    5.40
 -10 -10  -1    7.60    1.80
  10 -10   1    6.90    1.90
 -10 -10  -1    7.30    3.70
  10 -10   1    4.60    2.80
  10 -10   1    9.00    1.90
  10 -10   1    6.30    2.70
  10 -10   1    8.80    1.40
 -10 -10  -1    8.20    3.10
 -10 -10  -1   12.70    3.30
  10  10   1    9.10    2.50
  10  10   1    7.10    2.60
  10  10   1    9.40    2.40
 -10  10  -1    6.80    1.70
 -10  10  -1    9.40    3.00
  10  10   1    5.30    1.70
  10  10   1   10.50    2.60
  10  10   1    7.10    1.90
 -10  10  -1    8.70    2.50
  11 -11  -1    3.80    2.00
  11 -11  -1    4.90    3.50
 -11 -11   1    0.30    3.00
 -11 -11   1   10.00    2.30
 -11 -11   1    4.50    4.20
  11 -11  -1   10.20    2.10
  11  11  -1    7.70    2.70
 -11  11   1    3.90    2.60
  11  11  -1    7.60    1.60
 -11  11   1    8.60    1.70
  11  11  -1    8.90    2.90
  11  11  -1    9.60    3.60
  11  11  -1    1.50    3.20
 -11  11   1    6.60    2.80
  -9 -11   1   28.40    4.20
   9 -11  -1   30.90    4.30
  -9 -11   1   29.60    3.10
  -9 -11   1   38.60    5.20
  -9 -11   1   34.20    4.20
   9 -11  -1   25.30    3.10
   9 -11  -1   36.30    4.20
   9 -11  -1   28.10    2.80
   9  11  -1   30.60    4.10
   9  11  -1   32.70    3.80
  -9  11   1   23.70    3.00
  -9  11   1   32.40    4.00
   9  11  -1   33.30    4.40
   9  11  -1   28.10    2.50
  -9  11   1   29.90    2.60
  -9  11   1   29.90    2.70
   9  11  -1   29.50    3.10
   9  11  -1   31.40    4.20
   7 -11  -1   17.70    2.60
  -7 -11   1   17.40    2.70
  -7 -11   1   19.60    2.40
   7 -11  -1   16.50    2.50
  -7 -11   1   23.60    3.20
  -7 -11   1   16.40    2.80
   7 -11  -1   16.30    2.20
   7 -11  -1   19.50    2.70
   7  11  -1   17.30    2.40
   7  11  -1   22.80    2.50
  -7  11   1   17.80    2.00
  -7  11   1   21.10    2.70
   7  11  -1   17.10    2.80
  -7  11   1   22.80    2.00
   7  11  -1   18.10    2.00
  -7  11   1   17.10    2.40
   7  11  -1   16.20    2.20
   5 -11  -1   77.39    4.40
   5 -11  -1   72.49    4.10
  -5 -11   1   72.59    4.50
  -5 -11   1   72.09    3.80
   5 -11  -1   69.79    3.80
  -5 -11   1   72.09    3.60
   5 -11  -1   72.29    3.20
  -5 -11   1   74.79    4.80
   5  11  -1   71.99    3.90
   5  11  -1   72.29    4.20
  -5  11   1   77.89    4.10
  -5  11   1   72.89    3.90
   5  11  -1   72.49    3.90
   5  11  -1   74.49    4.40
   5  11  -1   74.69    4.20
  -5  11   1   71.49    3.30
   5  11  -1   71.19    3.50
  -5  11   1   72.99    4.00
   3 -11  -1  452.55   12.90
  -3 -11   1  453.55   13.20
  -3 -11   1  447.36   13.10
   3 -11  -1  454.35   13.10
  -3 -11   1  454.45   12.40
   3 -11  -1  437.86   12.90
   3  11  -1  446.56   13.30
  -3  11   1  415.86   12.80
   3  11  -1  462.75   13.20
  -3  11   1  443.26   12.00
  -3  11   1  445.46   12.80
   3  11  -1  449.76   13.00
   3  11  -1  427.86   12.40
  -3  11   1  454.15   12.70
   3  11  -1  414.66   14.20
  -3  11   1  412.66   13.70
   1 -11  -1   78.59    2.90
  -1 -11   1   75.29    3.10
  -1 -11   1   81.89    4.50
   1 -11  -1   78.69    4.10
   1 -11  -1   80.69    4.10
  -1 -11   1   73.49    4.20
  -1 -11   1   83.69    4.20
  -1  11   1   67.69    3.90
  -1  11   1   76.59    3.30
   1  11  -1   58.39    4.80
  -1  11   1   75.29    3.90
   1  11  -1   77.19    4.00
  -1  11   1   73.89    3.50
  -1  11   1   77.29    3.10
   1  11  -1   72.99    3.90
   1  11  -1   75.99    3.40
   1  11  -1   81.59    3.70
   1  11  -1   76.29    4.00
  -1  11   1   81.39    3.80
   1  11  -1   77.69    4.20
   1 -11   1  607.04   17.70
  -1 -11  -1  618.14   16.40
  -1 -11  -1  615.34   17.50
  -1 -11  -1  614.24   17.40
  -1 -11  -1  652.23   17.10
   1 -11   1  639.94   17.20
   1 -11   1  615.64   15.90
  -1  11  -1  633.84   17.60
   1  11   1  616.54   17.10
  -1  11  -1  609.44   17.20
  -1  11  -1  626.64   16.90
  -1  11  -1  609.34   17.50
   1  11   1  633.74   16.50
   1  11   1  622.94   16.50
   1  11   1  610.74   17.00
  -1  11  -1  616.94   16.50
   1  11   1  614.24   16.80
   3 -11   1  251.77    8.00
   3 -11   1  242.48    6.50
   3 -11   1  253.77    8.60
   3 -11   1  235.98    8.60
   3 -11   1  245.88    7.60
  -3 -11  -1  252.97    7.90
  -3 -11  -1  254.77    8.10
   3  11   1  245.28    7.60
  -3  11  -1  240.68    8.30
  -3  11  -1  222.18    7.40
   3  11   1  241.68    8.00
   3  11   1  248.48    7.00
  -3  11  -1  249.88    8.30
  -3  11  -1  244.68    7.80
   3  11   1  236.58    8.00
   3  11   1  239.68    7.40
  -3  11  -1  238.38    8.20
   3  11   1  232.18    8.00
   3  11   1  236.18    7.80
   5 -11   1   77.89    4.80
  -5 -11  -1   85.49    3.50
   5 -11   1   90.49    3.30
   5 -11   1   88.59    4.90
  -5 -11  -1   91.09    4.60
  -5 -11  -1   87.09    4.50
   5 -11   1   84.19    2.60
   5 -11   1   96.49    4.30
   5 -11   1   84.69    3.90
  -5 -11  -1   91.49    4.90
   5  11   1   85.69    4.20
   5  11   1   91.79    4.50
   5  11   1   82.99    4.30
   5  11   1   79.89    4.50
  -5  11  -1   84.19    3.70
   5  11   1   87.99    3.80
  -5  11  -1   88.19    3.70
  -5  11  -1   84.79    4.80
   5  11   1   87.79    3.60
  -5  11  -1   81.89    4.50
  -5  11  -1   80.49    4.60
   7 -11   1  158.58    5.60
   7 -11   1  146.39    6.80
   7 -11   1  140.39    4.60
  -7 -11  -1  148.49    5.30
  -7 -11  -1  157.08    6.50
   7 -11   1  152.28    6.80
   7 -11   1  151.18    5.90
  -7 -11  -1  150.58    6.70
  -7 -11  -1  150.28    6.60
   7  11   1  147.69    6.30
   7  11   1  149.39    5.50
   7  11   1  140.79    6.30
  -7  11  -1  144.59    6.50
  -7  11  -1  149.88    5.40
  -7  11  -1  150.78    6.80
  -7  11  -1  147.29    5.40
   7  11   1  146.19    5.40
   7  11   1  140.49    6.70
   7  11   1  157.68    6.30
   9 -11   1   -4.30    2.40
   9 -11   1   -0.80    1.40
   9 -11   1    0.20    2.40
   9 -11   1   -1.50    1.00
  -9 -11  -1   -4.90    2.60
  -9 -11  -1    4.20    2.60
  -9 -11  -1   -4.10    2.30
   9 -11   1    1.20    1.40
   9  11   1   -2.60    1.90
  -9  11  -1   -0.20    2.40
   9  11   1    4.20    2.40
  -9  11  -1   -3.30    1.90
   9  11   1   -1.50    1.70
  -9  11  -1   -2.70    1.10
   9  11   1   -1.30    2.00
   9  11   1   -0.50    1.30
  -9  11  -1   -1.50    1.30
   9  11   1   -0.70    1.30
  10 -12  -1   16.20    2.60
  10 -12  -1   19.60    2.40
 -10 -12   1   11.40    2.30
 -10 -12   1   12.90    3.50
  10 -12  -1   14.80    3.90
 -10 -12   1   17.70    3.70
 -10 -12   1   18.30    4.20
 -10  12   1   11.60    1.80
  10  12  -1   12.30    2.70
  10  12  -1   18.10    3.10
  10  12  -1   15.50    3.00
 -10  12   1   13.30    2.70
  10  12  -1   10.30    3.10
  10  12  -1   13.40    1.90
 -10  12   1   19.10    2.60
  10  12  -1   14.30    2.80
   8 -12  -1   25.10    3.30
   8 -12  -1   30.20    3.50
  -8 -12   1   23.20    3.70
  -8 -12   1   26.30    3.10
  -8 -12   1   27.00    3.30
  -8 -12   1   35.20    4.70
   8 -12  -1   29.30    2.90
   8 -12  -1   27.50    3.50
   8  12  -1   32.70    4.30
   8  12  -1   25.90    3.70
   8  12  -1   27.50    2.40
  -8  12   1   30.60    2.60
   8  12  -1   29.70    3.70
  -8  12   1   25.40    2.50
  -8  12   1   25.30    3.50
   8  12  -1   29.60    3.80
  -8  12   1   26.40    3.90
  -8  12   1   22.60    3.30
   8  12  -1   29.00    3.00
   6 -12  -1   13.20    2.30
   6 -12  -1   15.90    2.60
  -6 -12   1   13.00    2.20
  -6 -12   1   11.70    2.80
   6 -12  -1   14.40    2.00
  -6 -12   1   17.80    2.50
   6 -12  -1   14.60    1.80
  -6 -12   1   12.40    2.60
  -6  12   1   14.30    2.30
  -6  12   1   17.30    2.40
   6  12  -1   14.90    2.20
   6  12  -1   11.30    2.10
  -6  12   1   14.40    2.30
  -6  12   1   18.30    2.00
   6  12  -1   14.40    2.40
   6  12  -1   14.60    2.40
   6  12  -1   12.10    2.30
   6  12  -1   12.50    1.80
  -6  12   1   14.80    2.00
   4 -12  -1  197.88    7.40
  -4 -12   1  210.48    7.10
   4 -12  -1  208.28    7.60
  -4 -12   1  210.78    7.70
   4 -12  -1  202.58    7.40
  -4 -12   1  208.68    7.70
  -4  12   1  191.08    6.40
  -4  12   1  191.88    7.30
   4  12  -1  208.68    7.80
   4  12  -1  202.08    7.80
  -4  12   1  215.08    7.70
  -4  12   1  198.08    6.70
   4  12  -1  210.98    7.50
  -4  12   1  207.68    7.40
   4  12  -1  197.98    6.90
   4  12  -1  213.08    6.90
   4  12  -1  207.48    7.80
   4  12  -1  199.28    7.10
   2 -12  -1  105.69    5.00
   2 -12  -1  108.89    5.10
  -2 -12   1  100.39    5.70
   2 -12  -1  103.69    3.50
  -2 -12   1  109.49    4.30
  -2 -12   1  112.79    5.40
  -2 -12   1  112.79    5.20
   2  12  -1  108.49    5.00
   2  12  -1  103.79    4.40
   2  12  -1  107.29    5.30
   2  12  -1  109.39    4.60
  -2  12   1  105.89    4.30
   2  12  -1  110.39    4.50
   2  12  -1  108.29    5.20
  -2  12   1   99.69    4.80
   2  12  -1  105.29    5.10
  -2  12   1   98.69    4.80
  -2  12   1  108.49    4.00
  -2  12   1  112.59    4.70
  -2  12   1  112.69    4.90
   0 -12   1   95.99    3.60
   0 -12   1  100.99    4.80
   0 -12   1  106.79    5.40
   0 -12  -1   98.39    5.00
   0 -12  -1   95.69    3.70
   0 -12  -1  101.09    5.00
   0  12   1  101.59    4.00
   0  12  -1   96.99    5.00
   0  12   1  100.09    4.60
   0  12   1   94.89    4.00
   0  12  -1  102.19    4.30
   0  12  -1   91.69    4.90
   0  12   1  101.69    4.40
   0  12   1   93.79    4.50
   0  12  -1   94.59    4.00
   0  12  -1   99.79    4.90
   0  12   1   96.09    4.50
   0  12  -1   97.29    4.10
   0  12  -1  102.09    4.70
   0  12   1   97.39    4.20
   2 -12   1  125.49    4.00
  -2 -12  -1  128.59    5.00
   2 -12   1  129.49    6.00
  -2 -12  -1  120.79    5.70
  -2 -12  -1  128.99    5.40
   2 -12   1  132.19    5.50
  -2  12  -1  130.29    5.10
  -2  12  -1  137.69    6.00
  -2  12  -1  124.69    5.60
  -2  12  -1  133.19    5.90
  -2  12  -1  135.69    5.60
   2  12   1  131.79    5.50
   2  12   1  125.79    5.20
   2  12   1  126.09    4.80
   2  12   1  123.69    5.10
   2  12   1  114.99    5.20
   2  12   1  125.39    5.20
  -2  12  -1  127.99    4.70
  -2  12  -1  125.79    4.80
   4 -12   1    8.80    1.90
   4 -12   1    9.60    1.70
  -4 -12  -1   11.00    2.10
  -4 -12  -1    7.60    1.80
   4 -12   1    6.00    1.90
   4 -12   1    9.90    2.00
   4 -12   1    9.40    1.10
   4  12   1    8.30    1.30
   4  12   1    8.50    1.70
   4  12   1   11.30    2.10
  -4  12  -1   13.30    1.80
   4  12   1   10.60    1.30
   4  12   1    6.30    1.60
  -4  12  -1    7.50    2.30
   4  12   1   11.80    1.90
  -4  12  -1   12.60    2.20
  -4  12  -1    9.00    2.10
  -4  12  -1    9.40    1.50
  -4  12  -1    8.40    1.60
   4  12   1    7.40    1.70
   6 -12   1   94.59    5.50
  -6 -12  -1   97.69    5.20
  -6 -12  -1   98.69    4.00
   6 -12   1   94.19    4.30
   6 -12   1   90.39    5.50
  -6 -12  -1   93.99    5.50
  -6 -12  -1   97.39    5.30
   6 -12   1   91.69    3.40
   6 -12   1   87.29    4.60
   6 -12   1   92.19    2.70
  -6  12  -1   84.39    5.10
  -6  12  -1   90.49    5.30
  -6  12  -1   91.89    5.40
  -6  12  -1   92.89    4.10
   6  12   1   80.89    5.00
  -6  12  -1   89.09    4.00
   6  12   1   87.29    4.80
   6  12   1   99.39    4.80
   6  12   1   91.09    5.00
   6  12   1   97.69    4.20
   6  12   1   92.79    3.90
   8 -12   1   51.99    3.70
  -8 -12  -1   50.09    5.20
  -8 -12  -1   46.90    5.50
   8 -12   1   47.60    5.00
   8 -12   1   50.99    2.30
  -8 -12  -1   50.89    3.50
   8 -12   1   45.50    5.30
  -8 -12  -1   46.50    5.00
   8 -12   1   47.80    3.80
  -8  12  -1   53.59    4.60
   8  12   1   51.29    3.60
  -8  12  -1   46.20    3.30
  -8  12  -1   50.59    5.10
   8  12   1   54.49    3.40
   8  12   1   46.40    4.40
  -8  12  -1   54.89    3.30
   8  12   1   54.69    4.30
   8  12   1   53.49    4.80
  -8  12  -1   52.69    4.60
   8  12   1   55.79    4.30
  10 -12   1   26.40    2.00
 -10 -12  -1   28.80    4.90
 -10 -12  -1   28.80    3.60
  10 -12   1   27.70    4.30
 -10 -12  -1   35.00    4.30
  10 -12   1   26.00    2.90
  10  12   1   31.40    3.70
 -10  12  -1   27.20    4.20
  10  12   1   29.30    3.70
  10  12   1   32.50    4.60
  10  12   1   28.80    3.70
 -10  12  -1   24.20    3.00
  10  12   1   25.10    3.10
 -10  12  -1   21.60    3.30
  10  12   1   19.00    3.80
  -9 -13   1    8.90    3.30
  -9 -13   1    8.80    2.40
   9 -13  -1    5.90    2.60
  -9 -13   1   18.80    4.40
  -9 -13   1    6.90    2.90
   9 -13  -1    8.40    2.10
   9  13  -1   12.50    3.00
  -9  13   1    8.20    1.70
  -9  13   1    2.20    2.50
  -9  13   1    5.00    1.50
   9  13  -1    5.20    2.40
   9  13  -1   12.10    2.60
  -9  13   1    7.70    2.40
   9  13  -1    6.50    2.70
  -9  13   1   12.10    2.90
   9  13  -1    9.30    3.00
   7 -13  -1   -2.00    2.80
  -7 -13   1    2.70    2.50
   7 -13  -1    4.50    1.60
  -7 -13   1    6.20    2.40
  -7 -13   1    5.80    1.80
   7 -13  -1    5.00    2.20
  -7 -13   1    5.00    3.00
   7 -13  -1    7.30    2.60
   7  13  -1    6.00    2.30
  -7  13   1    4.70    1.20
   7  13  -1    8.20    1.90
   7  13  -1    4.80    2.00
   7  13  -1    8.00    2.50
  -7  13   1    5.80    1.30
  -7  13   1    6.50    2.20
   7  13  -1    4.00    2.30
  -7  13   1    3.10    2.00
   7  13  -1    6.80    2.00
  -7  13   1    6.30    2.00
  -5 -13   1   26.10    3.30
   5 -13  -1   20.40    2.50
   5 -13  -1   21.60    2.90
   5 -13  -1   21.90    3.10
  -5 -13   1   32.50    3.40
   5  13  -1   18.20    2.80
   5  13  -1   20.50    2.50
  -5  13   1   21.80    3.10
   5  13  -1   17.50    2.40
  -5  13   1   24.60    3.30
   5  13  -1   23.40    3.40
   5  13  -1   19.40    2.80
   5  13  -1   28.50    3.50
  -5  13   1   19.20    2.10
  -5  13   1   21.70    2.50
   5  13  -1   24.90    2.80
  -5  13   1   19.20    2.60
  -3 -13   1   -0.40    1.70
  -3 -13   1    1.10    1.60
   3 -13  -1    2.10    1.80
  -3 -13   1    0.40    1.30
   3 -13  -1    0.90    1.70
   3  13  -1    0.80    1.10
  -3  13   1    0.10    1.30
   3  13  -1    4.00    1.70
   3  13  -1   -1.40    1.50
   3  13  -1    0.60    1.10
  -3  13   1    0.10    1.50
  -3  13   1    1.10    1.50
  -3  13   1    0.70    1.40
  -3  13   1   -0.20    0.90
  -3  13   1   -0.20    1.00
   3  13  -1    1.60    1.50
  -3  13   1    1.60    1.10
   3  13  -1    1.50    1.20
   3  13  -1    1.40    1.70
   1 -13  -1   56.29    4.10
  -1 -13   1   51.39    4.60
  -1 -13   1   51.79    2.90
  -1 -13   1   51.89    4.00
   1 -13  -1   54.59    4.00
   1 -13  -1   47.20    2.60
  -1 -13   1   49.90    4.00
   1  13  -1   45.80    3.00
  -1  13   1   53.19    3.40
   1  13  -1   43.70    2.90
  -1  13   1   44.60    2.90
  -1  13   1   50.59    3.50
  -1  13   1   47.50    3.00
   1  13  -1   55.49    4.10
   1  13  -1   50.89    3.20
   1  13  -1   47.20    3.80
  -1  13   1   49.80    2.80
  -1  13   1   44.80    3.30
   1  13  -1   49.70    3.70
   1  13  -1   49.30    3.80
  -1  13   1   48.50    3.40
   1 -13   1   29.70    3.30
   1 -13   1   29.00    3.90
  -1 -13  -1   27.00    2.50
  -1 -13  -1   29.10    3.40
   1 -13   1   30.10    2.00
  -1  13  -1   31.30    2.40
   1  13   1   27.60    2.60
   1  13   1   27.20    2.50
  -1  13  -1   28.00    2.50
   1  13   1   29.40    2.80
  -1  13  -1   28.40    3.10
   1  13   1   32.70    2.50
  -1  13  -1   28.40    2.70
   1  13   1   31.60    3.10
  -1  13  -1   34.80    3.40
   1  13   1   27.30    2.80
  -1  13  -1   30.00    3.10
   1  13   1   27.00    2.70
  -1  13  -1   26.80    3.50
   3 -13   1   63.49    4.50
   3 -13   1   58.49    4.60
  -3 -13  -1   60.59    4.20
  -3 -13  -1   55.39    4.40
   3 -13   1   52.59    2.40
   3 -13   1   61.79    4.10
  -3  13  -1   60.99    4.20
  -3  13  -1   65.89    4.50
   3  13   1   52.89    3.70
   3  13   1   54.89    3.30
  -3  13  -1   60.19    3.60
  -3  13  -1   63.29    4.40
  -3  13  -1   62.69    4.20
   3  13   1   62.69    3.90
  -3  13  -1   60.09    3.20
   3  13   1   63.39    2.70
   3  13   1   56.89    3.80
   3  13   1   54.99    3.20
   3  13   1   59.89    3.80
   3  13   1   58.69    3.60
  -3  13  -1   52.99    3.00
  -5 -13  -1   43.50    4.00
   5 -13   1   44.40    3.70
   5 -13   1   37.50    4.20
  -5 -13  -1   36.00    3.90
   5 -13   1   35.80    2.30
   5 -13   1   34.80    1.70
   5 -13   1   33.60    3.10
   5 -13   1   32.00    4.00
  -5  13  -1   26.70    3.50
   5  13   1   32.50    3.60
  -5  13  -1   32.00    3.20
   5  13   1   44.60    4.00
   5  13   1   29.40    3.50
  -5  13  -1   40.00    4.10
  -5  13  -1   35.20    2.70
  -5  13  -1   30.40    3.70
   5  13   1   33.30    2.40
   5  13   1   33.50    3.30
   5  13   1   36.00    3.50
  -5  13  -1   39.20    2.80
   5  13   1   36.00    2.90
   7 -13   1    4.90    2.40
   7 -13   1    1.80    1.70
   7 -13   1   -4.00    2.60
  -7 -13  -1    0.20    1.50
  -7 -13  -1    0.60    2.60
  -7 -13  -1    2.10    2.30
  -7 -13  -1    2.10    2.80
   7 -13   1    1.30    1.70
  -7  13  -1    1.80    2.20
   7  13   1    1.00    2.00
  -7  13  -1    2.40    1.30
   7  13   1    3.20    1.30
   7  13   1    0.70    2.20
   7  13   1    4.00    2.10
  -7  13  -1   -1.20    1.30
   7  13   1    2.00    1.90
   7  13   1    2.20    1.50
  -7  13  -1    5.00    2.60
  -7  13  -1    6.10    2.30
  -9 -13  -1   23.10    4.10
  -9 -13  -1   33.90    4.80
   9 -13   1   33.20    3.80
  -9 -13  -1   37.60    3.70
   9 -13   1   23.20    3.90
  -9 -13  -1   40.40    4.60
  -9  13  -1   27.50    3.10
   9  13   1   25.10    3.30
   9  13   1   27.10    3.00
  -9  13  -1   31.60    3.10
  -9  13  -1   30.10    4.40
   9  13   1   30.50    3.60
   9  13   1   37.70    4.40
   9  13   1   20.80    3.70
   9  13   1   26.00    3.60
  -9  13  -1   27.90    3.80
  -9  13  -1   24.50    4.00
  -8 -14   1    6.90    4.10
   8 -14  -1    4.40    2.40
  -8 -14   1    7.60    3.00
  -8 -14   1    8.40    3.40
  -8 -14   1    4.30    2.30
   8 -14  -1   10.10    2.20
   8  14  -1    6.80    2.60
  -8  14   1    6.90    1.70
  -8  14   1    4.40    2.60
   8  14  -1    5.00    3.00
   8  14  -1    4.60    2.70
   8  14  -1    3.80    1.90
  -8  14   1    5.90    1.70
  -8  14   1    2.80    2.50
  -8  14   1    6.50    2.30
   8  14  -1    6.40    2.40
   6 -14  -1   16.70    2.90
  -6 -14   1   20.10    3.40
  -6 -14   1   23.40    3.20
   6 -14  -1   18.50    3.20
   6 -14  -1   13.70    2.60
   6  14  -1   20.40    2.80
  -6  14   1   19.20    2.60
  -6  14   1   24.20    2.50
   6  14  -1   19.70    2.50
  -6  14   1   24.20    3.10
  -6  14   1   23.20    3.00
  -6  14   1   17.30    2.70
   6  14  -1   20.20    3.10
   6  14  -1   26.10    3.30
   6  14  -1   22.70    3.30
   6  14  -1   19.60    3.00
  -4 -14   1   17.30    3.00
   4 -14  -1   21.90    2.90
  -4 -14   1   20.50    2.50
   4 -14  -1   22.10    3.10
   4 -14  -1   26.50    3.80
  -4 -14   1   19.00    3.00
  -4  14   1   20.80    2.60
   4  14  -1   18.40    2.90
  -4  14   1   26.60    3.20
  -4  14   1   17.70    2.70
   4  14  -1   16.00    2.30
  -4  14   1   20.10    2.30
   4  14  -1   17.20    2.20
   4  14  -1   19.80    3.10
  -4  14   1   23.20    2.80
  -4  14   1   19.40    2.10
   4  14  -1   18.30    2.20
  -4  14   1   15.70    2.50
   4  14  -1   23.10    3.00
  -2 -14   1   14.70    2.70
   2 -14  -1   14.00    2.70
   2 -14  -1   16.60    1.80
  -2 -14   1   10.90    2.40
   2 -14  -1   13.40    2.50
  -2 -14   1   16.90    2.10
  -2  14   1   17.00    2.50
   2  14  -1   14.00    1.90
   2  14  -1   15.40    2.10
  -2  14   1   19.20    2.50
  -2  14   1   13.90    2.30
  -2  14   1   15.20    2.10
   2  14  -1   17.00    2.50
   2  14  -1   11.70    1.80
  -2  14   1   17.20    2.40
  -2  14   1   15.60    2.40
   2  14  -1   14.50    2.30
   2  14  -1   16.90    2.70
  -2  14   1   12.60    1.60
   2  14  -1   16.20    2.80
   0 -14   1   20.70    2.90
   0 -14  -1   17.10    2.40
   0 -14   1   16.00    1.90
   0 -14   1   14.40    2.90
   0 -14  -1   15.50    2.80
   0 -14  -1   16.70    2.70
   0  14   1   16.10    2.00
   0  14  -1   17.80    2.30
   0  14   1   15.20    1.90
   0  14  -1   14.60    2.50
   0  14   1   22.50    2.80
   0  14   1   15.60    2.30
   0  14  -1   12.80    1.70
   0  14  -1   20.00    2.80
   0  14   1   18.80    2.50
   0  14   1   18.30    2.60
   0  14  -1   18.30    2.90
   0  14  -1   13.40    2.50
   0  14  -1   17.50    2.10
   0  14   1   15.30    2.10
   2 -14   1   10.40    2.40
  -2 -14  -1   11.70    2.10
  -2 -14  -1   15.10    2.70
   2 -14   1   15.20    1.90
  -2 -14  -1   14.70    2.60
   2 -14   1   13.40    2.80
   2  14   1   15.90    2.40
  -2  14  -1   14.20    2.60
   2  14   1   14.40    2.10
   2  14   1   14.50    2.20
   2  14   1   13.00    1.90
  -2  14  -1   17.70    2.30
   2  14   1   13.30    2.40
   2  14   1   12.70    2.30
  -2  14  -1   10.00    2.30
  -2  14  -1   13.40    1.80
   2  14   1   12.80    1.80
  -2  14  -1   11.10    1.70
  -2  14  -1   14.30    2.50
  -2  14  -1   15.40    2.80
   4 -14   1   53.89    2.40
   4 -14   1   60.89    4.50
  -4 -14  -1   54.39    4.80
   4 -14   1   50.29    4.80
  -4 -14  -1   51.09    4.40
   4 -14   1   53.09    2.90
   4 -14   1   62.39    4.80
   4  14   1   56.59    4.10
   4  14   1   60.89    3.60
  -4  14  -1   51.49    3.40
   4  14   1   51.99    4.10
   4  14   1   55.99    4.30
  -4  14  -1   59.79    4.50
   4  14   1   56.29    4.00
   4  14   1   61.79    4.30
   4  14   1   57.49    3.70
  -4  14  -1   54.99    4.50
  -4  14  -1   52.79    3.20
  -4  14  -1   55.29    3.80
  -4  14  -1   54.79    4.80
  -6 -14  -1   18.50    3.10
   6 -14   1   15.90    2.40
   6 -14   1   23.90    3.20
  -6 -14  -1   19.60    3.30
   6 -14   1   20.30    3.40
   6 -14   1   16.70    3.40
  -6  14  -1   18.70    2.80
   6  14   1   14.80    2.40
  -6  14  -1   20.00    2.50
   6  14   1   21.20    2.50
  -6  14  -1   12.50    2.90
   6  14   1   17.50    2.80
   6  14   1   14.50    2.50
   6  14   1   16.50    2.70
   6  14   1   24.00    3.00
   6  14   1   17.30    2.30
   6  14   1   19.30    3.20
  -6  14  -1   23.10    3.30
  -6  14  -1   11.20    1.70
  -6  14  -1   18.10    3.00
  -5 -15   1   38.70    4.80
   5 -15  -1   32.20    3.70
   5 -15  -1   37.90    5.10
  -5 -15   1   46.10    5.60
   5 -15  -1   44.70    5.00
  -5  15   1   37.30    4.10
  -5  15   1   39.00    4.20
  -5  15   1   36.00    3.30
  -5  15   1   43.60    4.20
   5  15  -1   42.30    4.50
  -5  15   1   42.10    4.60
   5  15  -1   37.70    3.90
   5  15  -1   39.40    4.00
   5  15  -1   41.80    4.60
   5  15  -1   35.50    4.50
   5  15  -1   37.40    3.60
  -5  15   1   35.80    3.80
   5  15  -1   35.30    4.50
  -5  15   1   41.30    3.00
  -3 -15   1   76.29    4.60
   3 -15  -1   68.79    5.30
  -3 -15   1   72.29    5.50
   3 -15  -1   74.59    5.60
  -3  15   1   70.89    4.80
   3  15  -1   73.49    4.40
   3  15  -1   76.19    5.20
  -3  15   1   71.99    3.60
  -3  15   1   69.29    4.70
   3  15  -1   76.69    5.40
  -3  15   1   79.29    4.60
   3  15  -1   66.79    5.20
  -3  15   1   76.19    5.00
  -3  15   1   68.79    4.20
   3  15  -1   73.99    4.30
  -3  15   1   67.69    3.90
   3  15  -1   70.89    4.30
   3  15  -1   74.79    5.10
   1 -15  -1   51.29    5.10
   1 -15  -1   61.09    5.20
   1 -15  -1   61.69    3.40
  -1 -15   1   65.59    5.20
  -1 -15   1   74.79    5.90
   1  15  -1   53.99    3.50
  -1  15   1   61.89    4.40
   1  15  -1   66.49    3.90
  -1  15   1   62.29    3.40
  -1  15   1   65.49    3.90
  -1  15   1   61.09    4.40
   1  15  -1   55.99    4.70
  -1  15   1   62.19    3.80
  -1  15   1   67.59    4.30
   1  15  -1   69.49    4.90
   1  15  -1   61.79    5.00
  -1  15   1   60.89    4.30
   1  15  -1   64.79    4.10
   1 -15   1   80.39    6.10
  -1 -15  -1   68.29    5.50
   1 -15   1   66.99    3.50
   1 -15   1   72.69    5.10
  -1 -15  -1   73.79    4.30
   1  15   1   70.59    4.10
  -1  15  -1   63.29    4.70
  -1  15  -1   71.89    5.00
   1  15   1   72.49    4.40
   1  15   1   62.79    4.60
   1  15   1   73.69    4.70
  -1  15  -1   66.29    3.70
  -1  15  -1   79.39    4.50
  -1  15  -1   60.59    3.80
   1  15   1   67.39    3.80
   1  15   1   69.49    4.50
  -1  15  -1   70.39    5.90
   1  15   1   73.09    4.10
  -1  15  -1   70.39    5.20
   3 -15   1   25.70    3.40
  -3 -15  -1   23.40    3.50
  -3 -15  -1   30.10    4.10
   3 -15   1   24.10    2.30
   3 -15   1   24.60    3.90
   3  15   1   26.50    3.60
  -3  15  -1   28.10    3.50
   3  15   1   27.80    3.30
   3  15   1   25.60    3.30
  -3  15  -1   30.30    4.10
  -3  15  -1   30.20    3.70
  -3  15  -1   22.50    3.40
   3  15   1   26.80    3.00
  -3  15  -1   30.90    3.00
   3  15   1   26.30    3.10
   3  15   1   27.70    3.10
  -3  15  -1   30.30    4.00
  -3  15  -1   25.90    2.70
   3  15   1   20.40    2.90
   5 -15   1   13.50    3.20
  -5 -15  -1   11.30    3.30
   5 -15   1   14.20    3.30
  -5 -15  -1   14.80    3.00
   5 -15   1   15.70    4.10
   5  15   1   11.50    2.60
   5  15   1   15.20    2.70
  -5  15  -1   15.60    3.10
   5  15   1   16.00    2.20
   5  15   1   15.90    2.80
  -5  15  -1   15.50    2.70
  -5  15  -1   16.30    2.20
   5  15   1   19.00    2.50
  -5  15  -1   14.20    2.30
  -5  15  -1   16.30    3.10
  -5  15  -1   13.30    1.90
   5  15   1   17.20    2.80
   5  15   1   18.40    2.90
  -4 -16   1   13.00    3.60
  -4 -16   1   18.30    3.10
   4  16  -1   12.80    3.10
  -4  16   1    7.70    2.40
  -4  16   1   19.50    3.00
   4  16  -1   19.50    3.30
  -4  16   1   18.00    2.90
  -4  16   1   12.90    2.30
  -4  16   1   20.70    3.00
  -4  16   1   14.60    2.20
   4  16  -1    7.50    2.20
   4  16  -1   15.00    2.50
   4  16  -1   15.20    3.40
   4  16  -1   14.20    2.40
   4  16  -1   12.60    3.10
  -4  16   1   17.80    2.50
   2 -16  -1   20.10    3.70
  -2 -16   1   26.30    3.10
   2 -16  -1   22.50    3.90
   2 -16  -1   26.10    2.30
  -2 -16   1   22.60    3.70
   2  16  -1   18.70    3.10
   2  16  -1   23.70    3.50
  -2  16   1   21.60    2.60
  -2  16   1   29.00    3.40
  -2  16   1   23.60    3.00
  -2  16   1   28.00    4.10
  -2  16   1   24.00    2.90
  -2  16   1   21.80    2.90
  -2  16   1   28.60    3.90
   2  16  -1   24.00    3.30
   2  16  -1   24.80    3.30
   2  16  -1   17.50    3.30
   2  16  -1   27.30    3.40
   0 -16   1   27.70    3.50
   0 -16   1   40.20    5.30
   0 -16  -1   26.60    4.20
   0 -16  -1   34.70    3.60
   0 -16   1   29.50    4.50
   0 -16  -1   27.60    3.80
   0  16   1   32.00    3.90
   0  16   1   34.80    3.10
   0  16   1   29.00    4.20
   0  16   1   34.90    3.90
   0  16  -1   34.10    3.00
   0  16   1   30.70    3.50
   0  16   1   33.20    3.40
   0  16  -1   38.70    4.80
   0  16   1   27.60    3.90
   0  16  -1   30.00    4.10
   0  16  -1   34.60    4.40
   0  16  -1   39.30    4.50
   0  16  -1   24.10    3.00
   0  16  -1   30.40    3.20
   2 -16   1   17.80    2.00
   2 -16   1   21.80    6.60
  -2 -16  -1   14.20    2.80
  -2  16  -1   16.10    2.90
   2  16   1   15.50    2.70
   2  16   1   14.20    2.20
   2  16   1   12.90    2.90
  -2  16  -1   11.30    1.80
  -2  16  -1   11.10    1.80
  -2  16  -1   23.60    3.30
   2  16   1   12.70    2.40
  -2  16  -1   13.30    3.10
  -2  16  -1   11.00    2.80
   2  16   1   16.10    2.50
  -2  16  -1   14.40    2.50
   2  16   1   14.70    2.70
   2  16   1   18.50    2.50
  -4 -16  -1    1.40    2.70
  -4 -16  -1    0.20    3.10
   4 -16   1    2.20    1.60
   4 -16   1    0.00    1.60
   4  16   1    2.80    2.00
  -4  16  -1    1.30    2.60
  -4  16  -1    1.20    2.40
   4  16   1    2.10    2.40
   4  16   1   -3.30    2.40
   4  16   1    1.10    2.30
   4  16   1    2.50    2.20
   4  16   1    1.90    1.90
  -4  16  -1    3.70    2.70
  -4  16  -1    2.10    2.60
   4  16   1   -1.80    1.70
  -4  16  -1   -2.30    1.40
  -4  16  -1    0.70    2.20
  -4  16  -1   -1.50    1.50
 -14   0   2   13.20    2.90
 -14   0   2   10.20    2.60
 -14   0   2   13.60    2.10
  14   0  -2   13.00    3.30
 -14   0   2    7.40    2.90
  14   0  -2   16.50    1.90
  14   0  -2   15.90    2.20
  14   0  -2   13.50    1.90
  14   0  -2    9.80    3.10
  12   0  -2   65.39    3.40
  12   0  -2   66.89    4.90
  12   0  -2   72.09    3.30
 -12   0   2   68.79    4.90
 -12   0   2   69.39    3.60
 -12   0   2   63.99    4.40
  12   0  -2   58.89    3.40
  12   0  -2   64.69    4.60
 -12   0   2   75.29    4.40
  10   0  -2   13.10    1.40
 -10   0   2   13.20    2.10
 -10   0   2    9.30    1.70
  10   0  -2   15.40    2.30
  10   0  -2    9.90    1.30
  10   0  -2    8.90    1.70
 -10   0   2   17.90    2.30
  10   0  -2   12.80    1.70
  -8   0   2  823.92   21.40
   8   0  -2  835.82   22.30
  -8   0   2  838.32   22.30
   8   0  -2  833.12   21.20
  -8   0   2  854.01   22.10
  -8   0   2  823.72   21.70
   8   0  -2  849.22   21.30
   8   0  -2  842.42   22.20
   6   0  -2 1983.10   48.10
  -6   0   2 2034.70   48.90
  -6   0   2 1978.80   48.30
   6   0  -2 1990.50   48.00
   6   0  -2 1954.90   48.80
   6   0  -2 1825.02   48.70
  -6   0   2 1984.00   48.70
  -6   0   2 1961.10   48.20
   4   0  -2 1304.07   31.90
   4   0  -2 1283.67   32.00
  -4   0   2 1293.47   32.00
  -4   0   2 1295.37   31.90
  -4   0   2 1338.97   31.60
  -4   0   2 1259.77   31.50
   4   0  -2 1232.28   31.90
   0   0   2 3838.12   89.59
   0   0  -2 3695.13   90.39
   0   0   2 3441.76   91.39
   0   0  -2 3835.82   89.19
   0   0  -2 3681.73   90.59
   0   0  -2 3793.52   89.29
   0   0   2 3758.62   89.49
   0   0   2 3728.43   90.39
   0   0  -2 3256.67   90.79
   2   0   2    5.30    0.70
   2   0   2    4.70    0.40
   2   0   2    3.70    0.60
  -2   0  -2    3.80    0.60
  -2   0  -2    5.50    0.40
  -2   0  -2    4.70    0.60
  -4   0  -2  781.62   20.00
   4   0   2  788.22   20.10
   4   0   2  803.82   20.20
  -4   0  -2  773.02   20.10
   4   0   2  731.13   19.50
  -4   0  -2  766.42   20.20
   4   0   2  802.72   20.20
  -4   0  -2  831.92   19.60
   6   0   2    2.00    0.90
  -6   0  -2    1.80    1.00
   6   0   2    1.10    0.50
   6   0   2   -0.30    0.70
  -6   0  -2    0.90    0.90
  -6   0  -2    1.00    0.80
  -6   0  -2    1.10    0.50
   8   0   2 1364.06   35.40
  -8   0  -2 1387.56   34.40
  -8   0  -2 1420.66   35.50
   8   0   2 1382.36   35.00
  -8   0  -2 1362.76   35.30
  -8   0  -2 1376.66   35.20
   8   0   2 1303.47   34.30
   8   0   2 1375.56   35.40
 -10   0  -2  442.06   13.10
 -10   0  -2  453.95   13.20
 -10   0  -2  427.36   12.90
  10   0   2  411.56   14.90
  10   0   2  398.46   13.20
 -10   0  -2  357.96   11.90
  10   0   2  423.96   13.10
  10   0   2  434.66   11.80
  12   0   2  315.67    9.80
  12   0   2  325.17   10.50
 -12   0  -2  322.17   11.20
 -12   0  -2  346.57   11.80
  12   0   2  339.97   11.70
 -12   0  -2  313.57    9.90
 -12   0  -2  322.87   11.20
  12   0   2  321.67   11.40
 -14   0  -2   80.89    6.60
  14   0   2   90.29    4.80
  14   0   2   79.39    5.20
 -14   0  -2   99.79    7.40
 -14   0  -2   90.09    6.40
  14   0   2   78.99    6.80
 -14   0  -2   85.49    4.80
  13  -1  -2   45.00    3.20
 -13  -1   2   40.90    4.20
  13  -1  -2   39.50    4.60
  13  -1  -2   50.69    4.60
 -13  -1   2   50.29    4.30
  13  -1  -2   45.30    2.80
 -13  -1   2   44.90    3.30
 -13  -1   2   57.69    5.10
  13  -1  -2   49.40    3.00
  13   1  -2   53.49    3.00
 -13   1   2   44.50    4.70
  13   1  -2   52.29    3.10
 -13   1   2   51.49    4.20
  13   1  -2   49.70    3.30
 -13   1   2   39.30    4.00
  13   1  -2   52.59    4.70
  13   1  -2   51.79    5.00
 -11  -1   2  115.29    5.50
 -11  -1   2  118.59    5.80
  11  -1  -2  120.79    4.40
  11  -1  -2  113.49    5.70
  11  -1  -2  124.49    4.30
  11  -1  -2  119.99    4.10
 -11  -1   2  118.99    4.70
  11  -1  -2  117.19    5.60
 -11  -1   2  122.19    5.30
 -11   1   2  114.89    4.60
 -11   1   2  118.69    5.30
  11   1  -2  117.69    5.80
  11   1  -2  119.89    5.60
  11   1  -2  118.49    4.50
 -11   1   2  112.79    5.80
   9  -1  -2   72.59    2.80
   9  -1  -2   64.59    2.80
  -9  -1   2   71.39    3.50
   9  -1  -2   55.19    4.10
   9  -1  -2   69.79    3.90
  -9  -1   2   73.09    3.10
  -9  -1   2   67.89    3.60
  -9  -1   2   69.09    3.90
   9  -1  -2   71.39    2.60
   9   1  -2   71.29    3.90
   9   1  -2   72.29    2.90
   9   1  -2   69.29    3.70
  -9   1   2   70.79    3.30
  -9   1   2   63.99    3.50
  -9   1   2   69.19    3.80
   9   1  -2   67.29    2.90
  -9   1   2   73.99    3.10
   7  -1  -2  288.87    8.70
  -7  -1   2  313.67    8.80
   7  -1  -2  296.57    7.90
   7  -1  -2  286.27    8.80
  -7  -1   2  288.37    8.20
  -7  -1   2  281.57    8.30
  -7  -1   2  292.87    8.90
   7  -1  -2  288.57    7.70
   7  -1  -2  296.87    8.00
   7   1  -2  291.87    8.80
   7   1  -2  279.67    8.80
   7   1  -2  304.57    8.00
  -7   1   2  307.27    8.90
  -7   1   2  289.67    8.10
   7   1  -2  297.57    8.10
  -7   1   2  302.07    8.30
  -7   1   2  293.97    8.70
  -5  -1   2  632.94   16.50
  -5  -1   2  690.83   17.10
   5  -1  -2  642.94   16.20
  -5  -1   2  674.93   16.50
   5  -1  -2  623.14   16.10
   5  -1  -2  659.93   16.90
  -5  -1   2  677.73   17.00
   5  -1  -2  633.44   16.30
   5  -1  -2  659.83   16.90
   5   1  -2  659.63   16.90
   5   1  -2  690.83   17.10
  -5   1   2  576.64   16.30
   5   1  -2  642.04   16.40
  -5   1   2  665.23   16.90
  -5   1   2  663.93   16.80
   5   1  -2  631.04   16.30
  -5   1   2  640.64   16.40
  -3  -1   2  800.82   20.40
   3  -1  -2  821.82   20.10
  -3  -1   2  826.92   20.20
  -3  -1   2  789.02   20.10
   3  -1  -2  812.92   20.40
  -3  -1   2  832.42   20.50
   3  -1  -2  817.02   20.30
   3  -1  -2  830.82   20.10
  -3   1   2  827.12   20.00
   3   1  -2  785.32   20.10
  -3   1   2  825.52   20.30
  -3   1   2  829.82   20.30
  -3   1   2  778.82   19.90
   3   1  -2  847.62   20.50
  -3   1   2  802.52   20.00
   3   1  -2  815.82   20.40
  -1  -1   2  331.87    8.30
  -1  -1   2  313.67    8.10
  -1  -1   2  309.77    7.80
   1  -1  -2  310.07    7.80
  -1  -1   2  330.87    8.30
  -1  -1   2  322.77    8.00
   1  -1  -2  316.17    7.80
  -1  -1   2  313.77    8.00
   1   1  -2  304.87    8.20
   1   1  -2  321.37    8.20
   1   1  -2  308.57    7.80
   1   1  -2  313.97    8.10
  -1   1   2  320.47    7.90
  -1   1   2  329.57    7.90
   1   1  -2  311.07    7.90
  -1   1   2  310.07    7.80
   1   1  -2  306.67    7.90
  -1  -1  -2  450.25   11.50
  -1  -1  -2  425.86   11.10
   1  -1   2  436.16   11.10
   1  -1   2  446.66   11.40
   1  -1   2  448.66   11.40
   1  -1   2  442.86   11.10
  -1   1  -2  450.15   11.00
  -1   1  -2  449.76   11.10
   1   1   2  448.16   10.90
  -1   1  -2  427.96   11.40
  -1   1  -2  458.45   11.40
   1   1   2  444.06   11.50
   1   1   2  431.16   11.10
   1   1   2  468.55   11.10
   3  -1   2 2518.85   65.69
   3  -1   2 2633.94   66.09
  -3  -1  -2 2648.64   65.79
   3  -1   2 2809.82   66.89
   3  -1   2 2570.84   67.19
  -3  -1  -2 2680.53   67.19
  -3  -1  -2 2674.33   67.09
  -3  -1  -2 2722.33   66.79
  -3   1  -2 2591.24   65.99
  -3   1  -2 2856.91   67.29
   3   1   2 2777.02   68.09
   3   1   2 2572.44   66.09
   3   1   2 2854.11   66.99
   3   1   2 2671.53   67.99
  -3   1  -2 2727.73   66.69
  -3   1  -2 2649.43   65.69
   5  -1   2 1450.35   35.90
  -5  -1  -2 1452.45   35.90
  -5  -1  -2 1454.35   36.70
  -5  -1  -2 1454.05   36.40
  -5  -1  -2 1457.35   36.50
   5  -1   2 1488.85   36.60
   5  -1   2 1485.65   36.70
   5  -1   2 1462.45   36.70
   5   1   2 1473.65   35.90
  -5   1  -2 1400.56   36.50
  -5   1  -2 1472.65   36.70
   5   1   2 1497.35   36.60
   5   1   2 1423.66   36.40
  -5   1  -2 1431.36   35.90
   5   1   2 1430.36   36.50
  -5   1  -2 1484.65   36.60
   7  -1   2  164.98    5.70
  -7  -1  -2  162.88    5.80
   7  -1   2  163.08    5.90
   7  -1   2  168.68    5.90
  -7  -1  -2  170.38    5.10
   7  -1   2  163.38    5.10
  -7  -1  -2  162.38    5.90
  -7  -1  -2  160.78    5.70
   7   1   2  167.38    5.80
  -7   1  -2  159.08    5.80
  -7   1  -2  164.88    5.90
  -7   1  -2  170.28    5.80
   7   1   2  161.38    5.10
   7   1   2  163.48    5.80
  -7   1  -2  156.98    5.00
   7   1   2  167.58    5.70
  -9  -1  -2  751.32   20.30
   9  -1   2  735.33   20.60
   9  -1   2  748.53   20.60
  -9  -1  -2  739.73   20.40
  -9  -1  -2  731.63   19.30
   9  -1   2  709.63   19.30
   9  -1   2  751.42   20.00
  -9  -1  -2  728.93   20.40
  -9   1  -2  739.03   20.50
   9   1   2  753.82   19.30
  -9   1  -2  711.23   19.30
  -9   1  -2  745.63   20.30
   9   1   2  761.72   20.60
   9   1   2  713.63   20.30
   9   1   2  753.12   20.00
  -9   1  -2  763.02   20.40
  11  -1   2  200.28    6.60
 -11  -1  -2  193.68    8.20
 -11  -1  -2  190.98    8.00
 -11  -1  -2  197.98    6.60
 -11  -1  -2  186.78    7.80
  11  -1   2  197.08    8.00
  11  -1   2  196.48    6.50
  11  -1   2  203.78    8.10
  11  -1   2  205.78    7.20
 -11   1  -2  200.78    7.90
 -11   1  -2  191.08    7.60
  11   1   2  193.98    7.90
  11   1   2  193.78    6.60
 -11   1  -2  199.28    6.70
  11   1   2  209.78    8.00
 -11   1  -2  212.68    8.30
  11   1   2  198.68    7.20
  13  -1   2    7.80    2.10
 -13  -1  -2   10.40    1.80
 -13  -1  -2    9.30    2.80
  13  -1   2   14.90    3.20
  13  -1   2    4.40    1.70
  13  -1   2   17.10    3.40
 -13  -1  -2   10.40    2.90
 -13  -1  -2   10.90    3.30
  13  -1   2    6.70    1.60
 -13   1  -2    8.00    1.70
  13   1   2   11.80    2.00
 -13   1  -2   12.10    2.90
  13   1   2    9.80    2.80
  13   1   2    7.30    3.00
  13   1   2    9.90    2.20
 -13   1  -2    6.10    3.30
 -13   1  -2   10.60    2.80
 -14  -2   2    3.50    2.50
 -14  -2   2    1.10    1.60
  14  -2  -2    6.30    2.70
  14  -2  -2    4.70    2.70
 -14  -2   2    4.40    2.40
  14  -2  -2    4.60    1.60
 -14  -2   2    7.80    3.30
  14  -2  -2    4.40    1.50
  14  -2  -2    5.90    1.50
  14   2  -2    2.80    1.60
 -14   2   2    6.20    2.40
  14   2  -2    1.50    2.70
  14   2  -2    3.70    1.70
 -14   2   2    4.20    2.30
 -14   2   2    6.50    2.70
  14   2  -2    5.60    1.90
  14   2  -2    5.30    2.80
 -14   2   2    2.30    1.50
 -12  -2   2    7.70    2.10
  12  -2  -2    5.40    2.10
  12  -2  -2    5.90    1.40
  12  -2  -2    5.10    1.20
  12  -2  -2    5.50    1.20
 -12  -2   2    5.00    2.40
  12  -2  -2    4.90    2.30
 -12  -2   2    4.00    1.30
 -12  -2   2    2.90    1.70
  12   2  -2    5.00    2.00
  12   2  -2    5.10    2.00
 -12   2   2    7.70    1.80
 -12   2   2    2.70    1.70
  12   2  -2    4.80    1.40
 -12   2   2    2.10    1.90
  12   2  -2    5.70    1.40
 -12   2   2    5.00    1.30
  10  -2  -2   52.39    3.60
 -10  -2   2   50.99    2.80
  10  -2  -2   50.49    2.30
  10  -2  -2   49.60    3.70
 -10  -2   2   48.00    3.40
  10  -2  -2   49.50    2.50
 -10  -2   2   51.39    3.80
  10  -2  -2   54.29    2.60
  10   2  -2   49.10    2.70
 -10   2   2   51.69    3.30
  10   2  -2   48.90    3.50
  10   2  -2   52.19    3.70
 -10   2   2   49.20    3.10
  10   2  -2   54.19    2.80
 -10   2   2   52.79    2.80
 -10   2   2   54.89    3.70
  -8  -2   2   25.40    2.40
   8  -2  -2   23.00    1.50
  -8  -2   2   23.10    2.10
   8  -2  -2   22.10    2.20
   8  -2  -2   23.40    2.30
  -8  -2   2   24.50    2.00
   8  -2  -2   21.80    1.30
  -8  -2   2   22.40    1.80
   8  -2  -2   24.50    1.50
  -8   2   2   23.30    2.10
   8   2  -2   24.60    1.60
  -8   2   2   23.50    1.80
   8   2  -2   26.30    2.30
   8   2  -2   19.90    2.30
  -8   2   2   20.00    2.10
   8   2  -2   23.80    1.70
  -8   2   2   21.10    1.60
  -6  -2   2  138.39    4.40
  -6  -2   2  139.79    4.50
   6  -2  -2  143.99    4.10
   6  -2  -2  135.59    3.90
   6  -2  -2  132.09    4.70
  -6  -2   2  138.99    4.80
   6  -2  -2  134.39    4.70
   6  -2  -2  135.99    3.90
  -6  -2   2  141.59    4.90
  -6   2   2  141.49    4.20
  -6   2   2  144.09    4.20
   6   2  -2  136.19    4.90
   6   2  -2  139.29    4.20
  -6   2   2  137.29    4.80
   6   2  -2  140.89    4.80
  -6   2   2  139.39    4.70
   6   2  -2  140.39    4.30
  -4  -2   2  430.16   10.80
   4  -2  -2  414.06   10.40
  -4  -2   2  412.76   10.70
  -4  -2   2  411.96   11.20
   4  -2  -2  417.36   10.90
  -4  -2   2  412.56   11.10
   4  -2  -2  405.46   10.90
   4  -2  -2  414.76   10.40
   4   2  -2  405.46   10.70
   4   2  -2  428.36   11.10
  -4   2   2  410.86   10.50
  -4   2   2  430.06   11.00
   4   2  -2  404.66   10.50
  -4   2   2  426.26   10.90
   4   2  -2  417.76   10.60
  -4   2   2  410.86   10.40
   4   2  -2  407.16   11.10
  -4   2   2  401.76   10.40
  -2  -2   2  375.06    9.40
  -2  -2   2  344.97    8.90
   2  -2  -2  349.47    9.00
   2  -2  -2  349.47    8.90
  -2  -2   2  354.66    9.40
   2  -2  -2  352.16    9.00
  -2  -2   2  362.26    9.10
  -2   2   2  362.36    9.00
   2   2  -2  349.37    8.80
   2   2  -2  364.46    9.40
   2   2  -2  373.56    9.60
   2   2  -2  348.27    9.30
  -2   2   2  349.67    8.80
  -2   2   2  353.96    8.90
   2   2  -2  341.87    9.00
   2   2  -2  344.07    9.10
  -2   2   2  351.86    8.70
   0  -2   2  561.84   14.20
   0  -2   2  554.34   13.70
   0  -2   2  565.34   14.20
   0  -2   2  542.75   13.80
   0  -2   2  554.54   14.10
   0  -2   2  576.24   13.90
   0   2  -2  558.04   14.20
   0   2  -2  547.85   14.10
   0   2  -2  549.74   13.80
   0   2  -2  540.85   13.70
   0   2   2  571.34   14.00
   0   2  -2  581.44   14.20
   0   2   2  562.34   14.00
   0   2  -2  518.05   13.80
   2  -2   2 3084.99   76.69
  -2  -2  -2 2988.40   76.09
  -2  -2  -2 2942.01   75.79
  -2  -2  -2 3095.89   74.99
   2  -2   2 3159.58   77.29
  -2  -2  -2 2903.21   75.19
   2  -2   2 3096.39   76.19
   2  -2   2 3205.48   78.09
   2  -2   2 3114.49   76.39
   2   2   2 2932.21   76.99
  -2   2  -2 2941.41   75.49
   2   2   2 3157.28   75.99
  -2   2  -2 3166.08   77.29
  -2   2  -2 3066.59   76.99
   2   2   2 3008.80   75.59
   2   2   2 3196.48   77.29
   4  -2   2  570.84   14.80
  -4  -2  -2  585.14   15.20
   4  -2   2  594.44   15.50
  -4  -2  -2  574.54   15.10
  -4  -2  -2  581.24   15.50
   4  -2   2  589.44   15.50
  -4  -2  -2  591.64   14.70
   4  -2   2  597.14   15.40
   4  -2   2  571.94   14.80
  -4   2  -2  612.54   15.60
   4   2   2  586.94   15.20
  -4   2  -2  586.04   14.80
  -4   2  -2  590.84   15.50
  -4   2  -2  588.64   15.30
   4   2   2  571.14   15.20
   4   2   2  581.34   14.80
   4   2   2  586.54   15.40
  -6  -2  -2  392.96   10.90
  -6  -2  -2  386.46   10.20
   6  -2   2  400.26   11.20
   6  -2   2  372.36   10.20
  -6  -2  -2  373.26   11.10
   6  -2   2  377.16   11.10
   6  -2   2  391.86   10.90
  -6  -2  -2  384.16   10.90
   6   2   2  372.36   10.80
   6   2   2  377.96   10.90
  -6   2  -2  404.76   11.10
  -6   2  -2  391.56   11.20
  -6   2  -2  385.36   10.90
   6   2   2  382.06   10.20
  -6   2  -2  392.36   10.30
   6   2   2  380.06   10.90
  -8  -2  -2   99.59    4.70
   8  -2   2  102.19    4.80
   8  -2   2  103.99    3.80
   8  -2   2  100.39    4.70
  -8  -2  -2  104.99    3.70
   8  -2   2  101.09    4.30
   8  -2   2  100.39    3.70
  -8  -2  -2  102.69    4.70
  -8  -2  -2  101.99    4.50
   8   2   2  103.09    4.50
   8   2   2  101.39    4.60
  -8   2  -2  101.09    3.80
   8   2   2  104.29    3.80
  -8   2  -2   99.59    4.70
  -8   2  -2  108.59    4.70
   8   2   2  100.39    4.30
  -8   2  -2   99.79    4.50
  10  -2   2   16.10    1.90
  10  -2   2   16.00    2.10
 -10  -2  -2   18.70    2.10
 -10  -2  -2   16.30    2.40
 -10  -2  -2   19.70    2.60
  10  -2   2   14.50    2.30
  10  -2   2   18.40    2.00
 -10  -2  -2   16.60    2.40
  10  -2   2   13.50    2.30
 -10   2  -2   17.80    2.90
  10   2   2   14.50    1.90
  10   2   2   16.40    2.00
 -10   2  -2   17.80    2.10
  10   2   2   18.70    2.60
 -10   2  -2   14.10    2.40
 -10   2  -2   15.70    2.20
  10   2   2   17.60    2.50
 -12  -2  -2  122.39    5.00
 -12  -2  -2  118.89    6.60
 -12  -2  -2  122.99    6.50
  12  -2   2  123.99    6.60
  12  -2   2  116.89    5.40
 -12  -2  -2  121.19    6.30
  12  -2   2  127.29    5.00
  12  -2   2  125.79    5.00
  12   2   2  114.79    5.50
  12   2   2  129.79    6.50
 -12   2  -2  133.09    7.10
 -12   2  -2  117.39    5.00
  12   2   2  108.69    6.20
  12   2   2  123.09    5.10
 -12   2  -2  122.99    6.20
 -12   2  -2  136.79    6.50
 -14  -2  -2    5.70    3.30
  14  -2   2   10.30    3.50
 -14  -2  -2    8.20    2.10
 -14  -2  -2   12.90    3.30
  14  -2   2    8.70    3.60
  14  -2   2    7.20    1.90
  14  -2   2    9.30    2.40
 -14  -2  -2    9.70    3.90
  14   2   2    5.90    2.20
  14   2   2    8.30    3.20
 -14   2  -2    8.20    3.00
 -14   2  -2    7.50    3.50
 -14   2  -2    4.30    1.80
  14   2   2   17.40    3.80
 -14   2  -2    9.90    3.20
  13  -3  -2  146.99    5.20
  13  -3  -2  149.29    5.20
 -13  -3   2  145.39    7.10
 -13  -3   2  144.79    7.40
  13  -3  -2  153.28    7.40
 -13  -3   2  141.79    6.90
  13  -3  -2  147.89    5.50
  13  -3  -2  141.49    7.10
 -13  -3   2  132.39    5.80
  13   3  -2  151.08    7.40
  13   3  -2  144.29    5.80
  13   3  -2  144.99    5.50
 -13   3   2  153.58    6.30
 -13   3   2  138.49    6.60
 -13   3   2  148.49    5.80
  13   3  -2  148.19    7.30
 -13   3   2  141.09    7.20
 -11  -3   2  199.98    7.60
  11  -3  -2  199.58    6.10
  11  -3  -2  203.48    6.00
 -11  -3   2  198.78    7.40
 -11  -3   2  209.58    8.00
  11  -3  -2  190.38    7.70
 -11  -3   2  198.68    6.70
  11  -3  -2  208.58    6.40
 -11   3   2  193.98    7.70
 -11   3   2  189.98    6.50
  11   3  -2  195.28    7.70
 -11   3   2  190.58    7.40
  11   3  -2  194.08    6.40
 -11   3   2  194.58    6.90
  11   3  -2  196.68    9.60
  11   3  -2  196.88    6.60
  -9  -3   2  254.97    7.70
  -9  -3   2  266.17    8.50
   9  -3  -2  234.08    8.30
   9  -3  -2  262.27    7.40
   9  -3  -2  245.18    7.10
   9  -3  -2  253.47    7.00
  -9  -3   2  262.97    8.70
   9  -3  -2  259.17    8.60
   9   3  -2  256.77    8.70
  -9   3   2  263.07    8.30
   9   3  -2  260.87    7.70
  -9   3   2  248.18    7.60
  -9   3   2  264.27    8.60
   9   3  -2  259.97    7.50
  -9   3   2  245.58    7.50
   9   3  -2  242.68    8.50
  -7  -3   2   30.10    2.20
   7  -3  -2   30.60    2.30
  -7  -3   2   27.00    1.80
   7  -3  -2   26.80    1.40
   7  -3  -2   28.40    1.50
  -7  -3   2   27.20    2.00
   7  -3  -2   29.60    1.30
   7  -3  -2   26.70    2.10
  -7  -3   2   28.90    2.30
  -7   3   2   29.10    1.70
  -7   3   2   32.50    2.10
   7   3  -2   27.10    1.70
   7   3  -2   26.60    2.20
   7   3  -2   29.00    1.60
   7   3  -2   25.10    2.30
  -7   3   2   27.60    2.20
  -7   3   2   29.10    1.70
  -5  -3   2   40.90    1.80
   5  -3  -2   33.20    1.90
  -5  -3   2   37.60    1.80
  -5  -3   2   33.80    2.10
   5  -3  -2   32.10    1.90
   5  -3  -2   34.10    1.40
   5  -3  -2   34.60    1.40
  -5  -3   2   33.50    2.00
  -5   3   2   35.70    1.50
   5   3  -2   32.80    2.00
  -5   3   2   36.60    1.40
   5   3  -2   33.60    1.60
  -5   3   2   31.80    1.40
  -5   3   2   32.70    1.80
  -5   3   2   32.40    1.90
   5   3  -2   35.80    1.70
   5   3  -2   36.70    1.60
   5   3  -2   32.20    2.00
  -3  -3   2  442.96   11.30
  -3  -3   2  435.66   11.60
  -3  -3   2  458.55   11.80
  -3  -3   2  446.56   11.20
   3  -3  -2  451.05   11.30
   3  -3  -2  432.66   11.30
   3  -3  -2  434.16   11.10
  -3  -3   2  434.56   11.20
   3  -3  -2  420.66   10.80
  -3   3   2  412.86   10.70
  -3   3   2  440.76   11.30
  -3   3   2  442.26   10.90
   3   3  -2  448.86   11.20
   3   3  -2  431.36   12.00
  -3   3   2  433.56   11.00
   3   3  -2  435.26   11.30
   3   3  -2  449.95   11.70
  -3   3   2  442.86   11.20
   3   3  -2  437.46   11.60
   1  -3  -2    5.20    0.40
  -1  -3   2    3.60    0.70
   1  -3  -2    4.80    0.40
   1  -3  -2    4.70    0.70
  -1  -3   2    3.40    0.70
  -1  -3   2    5.60    0.70
  -1  -3   2    3.70    0.70
  -1  -3   2    3.10    0.50
  -1  -3   2    4.60    0.60
   1   3  -2    4.10    0.70
  -1   3   2    5.00    0.40
   1   3  -2    3.80    0.60
   1   3  -2    5.40    0.60
   1   3  -2    4.50    0.80
  -1   3   2    6.50    0.60
   1   3  -2    4.60    0.50
  -1   3   2    4.40    0.50
  -1   3   2    4.40    0.50
  -1   3   2    4.40    0.40
  -1  -3  -2 5569.14  140.69
   1  -3   2 5518.35  141.59
   1  -3   2 5842.02  142.39
   1  -3   2 5495.45  139.69
  -1  -3  -2 5642.44  139.29
   1  -3   2 5371.26  139.79
   1   3   2 5977.70  141.89
   1   3   2 5635.84  138.19
  -1   3  -2 5546.04  139.79
  -1   3  -2 5334.27  140.59
  -1   3  -2 5599.04  142.19
   1   3   2 5652.83  138.99
  -1   3  -2 5806.32  140.89
  -1   3  -2 6121.89  142.79
   1   3   2 5906.51  139.09
  -1   3  -2 5872.21  140.39
   1   3   2 5805.82  140.99
   3  -3   2 5991.90  151.18
  -3  -3  -2 6143.39  151.58
   3  -3   2 6425.06  152.68
   3  -3   2 6129.89  153.08
   3  -3   2 6232.28  153.48
  -3  -3  -2 6173.18  151.28
  -3  -3  -2 6127.59  149.49
   3  -3   2 5981.20  150.78
  -3   3  -2 6033.90  150.38
  -3   3  -2 5986.10  150.48
  -3   3  -2 6086.29  150.98
   3   3   2 6089.59  151.88
   3   3   2 5765.92  151.18
  -3   3  -2 6547.84  153.48
   3   3   2 6170.28  150.78
   3   3   2 5946.00  150.28
   5  -3   2  886.21   23.90
  -5  -3  -2  935.61   24.00
   5  -3   2  935.71   23.20
   5  -3   2  929.31   23.60
  -5  -3  -2  907.91   23.60
  -5  -3  -2  935.31   23.50
  -5  -3  -2  926.61   23.00
   5  -3   2  911.11   24.00
   5  -3   2  904.31   23.10
   5   3   2  965.40   23.80
   5   3   2  879.41   23.60
  -5   3  -2  947.11   24.00
   5   3   2  948.31   23.60
   5   3   2  898.11   23.00
  -5   3  -2  941.31   24.00
  -5   3  -2  902.91   23.10
   7  -3   2   52.09    2.30
  -7  -3  -2   48.90    2.30
   7  -3   2   49.40    3.20
  -7  -3  -2   48.20    3.00
   7  -3   2   51.99    2.40
   7  -3   2   57.19    2.90
  -7  -3  -2   47.10    2.80
  -7  -3  -2   53.09    3.20
   7  -3   2   49.50    3.10
   7   3   2   49.80    2.30
   7   3   2   54.39    3.00
  -7   3  -2   47.70    3.20
  -7   3  -2   52.29    3.10
   7   3   2   50.49    2.90
  -7   3  -2   51.49    2.40
   7   3   2   49.90    2.90
  -7   3  -2   49.10    2.80
   9  -3   2  600.64   15.90
  -9  -3  -2  615.44   17.10
  -9  -3  -2  588.34   15.90
   9  -3   2  606.14   16.50
  -9  -3  -2  613.94   17.30
  -9  -3  -2  619.64   16.90
   9  -3   2  567.94   17.20
   9  -3   2  598.54   16.00
   9   3   2  597.94   17.00
   9   3   2  628.34   16.10
   9   3   2  587.54   17.10
  -9   3  -2  569.74   17.20
  -9   3  -2  608.04   16.80
   9   3   2  582.84   17.20
  -9   3  -2  611.14   17.20
 -11  -3  -2  670.83   19.50
 -11  -3  -2  671.23   18.10
  11  -3   2  692.83   18.00
  11  -3   2  665.73   18.00
  11  -3   2  683.73   19.70
  11  -3   2  644.74   19.60
  11  -3   2  666.73   18.50
 -11  -3  -2  672.13   19.60
 -11  -3  -2  656.83   20.20
 -11   3  -2  712.63   19.80
  11   3   2  663.43   19.50
 -11   3  -2  675.33   19.10
  11   3   2  668.63   19.40
 -11   3  -2  663.13   18.10
  11   3   2  677.03   18.10
  11   3   2  645.64   18.70
 -11   3  -2  683.13   19.50
 -13  -3  -2   24.10    3.20
  13  -3   2   25.60    2.90
  13  -3   2   29.40    4.10
 -13  -3  -2   28.00    4.00
  13  -3   2   21.50    2.90
 -13  -3  -2   30.60    3.80
  13  -3   2   22.70    3.40
 -13  -3  -2   17.80    3.40
  13  -3   2   30.80    3.20
 -13   3  -2   22.50    3.90
 -13   3  -2   25.50    3.10
 -13   3  -2   22.90    3.60
  13   3   2   21.40    3.20
  13   3   2   29.10    3.90
 -13   3  -2   26.00    3.50
  13   3   2   25.50    3.20
 -14  -4   2   12.60    3.30
  14  -4  -2    8.70    1.90
 -14  -4   2    9.50    3.30
  14  -4  -2   11.70    4.20
 -14  -4   2   11.00    2.90
 -14  -4   2   12.70    2.30
  14  -4  -2    8.40    1.80
  14  -4  -2   12.60    1.70
  14  -4  -2   10.80    3.30
 -14   4   2   10.00    2.40
 -14   4   2   10.90    2.10
  14   4  -2    9.50    3.20
 -14   4   2   13.50    2.70
  14   4  -2    9.90    3.50
  14   4  -2   10.10    1.90
  14   4  -2   12.70    2.70
 -14   4   2    9.90    3.20
 -12  -4   2   34.80    3.80
 -12  -4   2   28.70    3.80
  12  -4  -2   30.80    2.50
  12  -4  -2   34.50    2.50
  12  -4  -2   30.20    4.00
 -12  -4   2   35.20    3.10
  12  -4  -2   27.70    3.90
  12  -4  -2   34.40    2.30
  12   4  -2   39.60    4.10
  12   4  -2   33.50    2.80
 -12   4   2   27.10    3.50
  12   4  -2   36.80    2.70
 -12   4   2   38.50    3.30
 -12   4   2   33.40    2.80
  12   4  -2   36.20    4.10
 -10  -4   2   22.00    2.70
  10  -4  -2   19.80    1.90
  10  -4  -2   22.90    1.80
 -10  -4   2   17.00    2.50
  10  -4  -2   19.80    2.80
 -10  -4   2   19.00    2.60
 -10  -4   2   22.00    2.20
  10  -4  -2   21.50    3.00
  10  -4  -2   20.40    1.60
 -10   4   2   22.50    2.00
 -10   4   2   19.70    2.20
  10   4  -2   17.40    1.90
  10   4  -2   21.00    2.10
  10   4  -2   18.60    2.40
 -10   4   2   23.50    3.10
  10   4  -2   16.30    2.40
 -10   4   2   27.90    2.70
  -8  -4   2  569.24   15.80
  -8  -4   2  580.84   16.30
   8  -4  -2  568.14   14.50
   8  -4  -2  557.54   14.90
  -8  -4   2  594.84   15.50
   8  -4  -2  593.54   16.20
  -8  -4   2  584.64   16.10
   8  -4  -2  590.84   16.10
   8  -4  -2  593.14   15.00
   8   4  -2  577.14   16.30
  -8   4   2  562.84   15.10
  -8   4   2  595.24   16.10
  -8   4   2  561.84   15.10
   8   4  -2  556.74   16.10
  -8   4   2  586.74   15.90
   8   4  -2  576.44   15.30
   8   4  -2  573.04   15.20
  -6  -4   2  848.82   21.80
  -6  -4   2  891.91   22.20
   6  -4  -2  844.62   22.10
   6  -4  -2  798.62   20.80
   6  -4  -2  821.62   21.10
   6  -4  -2  837.72   21.20
  -6  -4   2  873.91   22.40
  -6  -4   2  861.21   21.60
   6  -4  -2  832.22   22.00
  -6   4   2  841.82   21.20
  -6   4   2  865.91   21.90
   6   4  -2  833.52   21.40
  -6   4   2  828.62   21.10
  -6   4   2  847.12   21.30
  -6   4   2  876.41   22.10
   6   4  -2  815.42   21.50
   6   4  -2  854.51   21.70
   6   4  -2  868.31   22.20
   6   4  -2  884.51   22.40
  -4  -4   2  160.68    4.80
  -4  -4   2  168.48    4.90
   4  -4  -2  161.28    4.60
   4  -4  -2  166.58    5.00
  -4  -4   2  169.18    5.30
   4  -4  -2  161.28    4.90
  -4  -4   2  159.88    5.30
   4  -4  -2  161.08    4.40
  -4   4   2  171.18    4.20
   4   4  -2  160.18    4.70
  -4   4   2  163.28    4.50
  -4   4   2  158.98    4.90
  -4   4   2  161.88    4.50
  -4   4   2  162.08    4.90
   4   4  -2  155.58    5.10
   4   4  -2  157.88    5.30
   4   4  -2  159.98    4.80
  -2  -4   2 1256.87   32.20
   2  -4  -2 1282.37   32.10
  -2  -4   2 1301.47   32.30
   2  -4  -2 1261.97   32.10
   2  -4  -2 1277.87   32.20
  -2  -4   2 1338.87   32.90
  -2  -4   2 1337.97   33.00
  -2  -4   2 1371.76   32.80
   2   4  -2 1302.77   32.80
   2   4  -2 1315.47   32.60
  -2   4   2 1297.47   31.70
  -2   4   2 1299.77   32.00
   2   4  -2 1319.37   32.70
  -2   4   2 1335.27   32.10
   2   4  -2 1313.57   32.20
  -2   4   2 1344.87   32.20
   2   4  -2 1261.47   32.30
  -2   4   2 1297.97   32.10
   2   4  -2 1303.27   32.10
   0  -4  -2  141.79    3.90
   0  -4  -2  138.39    4.00
   0  -4   2  140.39    4.00
   0  -4   2  144.39    4.10
   0  -4   2  131.79    4.10
   0  -4   2  131.29    4.40
   0  -4   2  134.49    4.40
   0  -4   2  134.49    4.40
   0  -4  -2  136.89    4.20
   0   4  -2  142.59    4.40
   0   4  -2  139.59    4.00
   0   4   2  144.19    4.00
   0   4   2  142.39    3.80
   0   4   2  139.49    3.80
   0   4   2  140.79    3.80
   0   4  -2  137.59    3.90
   0   4   2  132.49    3.70
   0   4  -2  143.09    4.50
   0   4  -2  143.39    4.50
   0   4  -2  134.89    4.10
   0   4   2  141.89    4.20
  -2  -4  -2  518.55   14.10
  -2  -4  -2  532.55   13.20
  -2  -4  -2  528.85   13.70
  -2  -4  -2  541.75   13.60
   2  -4   2  523.65   13.70
   2  -4   2  522.75   13.70
   2  -4   2  528.55   14.30
   2  -4   2  572.34   14.40
   2   4   2  540.35   13.60
   2   4   2  551.64   14.00
   2   4   2  534.45   14.10
   2   4   2  524.45   13.40
   2   4   2  544.95   13.70
  -2   4  -2  532.95   13.70
  -2   4  -2  547.45   13.70
  -2   4  -2  558.74   14.40
  -2   4  -2  561.54   14.30
  -4  -4  -2  840.12   21.20
   4  -4   2  892.51   22.40
  -4  -4  -2  860.41   21.70
   4  -4   2  876.71   21.80
  -4  -4  -2  862.11   22.20
   4  -4   2  829.22   21.50
   4  -4   2  828.22   21.50
   4  -4   2  804.02   22.20
   4   4   2  852.01   21.80
   4   4   2  818.22   21.30
  -4   4  -2  854.91   21.50
  -4   4  -2  877.01   21.50
   4   4   2  875.11   22.00
  -4   4  -2  889.11   22.30
   4   4   2  820.42   21.70
  -4   4  -2  898.01   22.30
  -6  -4  -2  323.57    9.90
   6  -4   2  324.47    9.90
   6  -4   2  340.27    9.10
  -6  -4  -2  326.57    9.50
  -6  -4  -2  326.37    9.60
   6  -4   2  327.57    9.50
   6  -4   2  327.57   10.00
  -6  -4  -2  340.57    8.90
   6  -4   2  314.67    9.00
  -6   4  -2  323.47    9.90
   6   4   2  326.07    9.50
   6   4   2  324.27    9.60
   6   4   2  329.27    9.00
  -6   4  -2  330.67   10.00
  -6   4  -2  339.87    9.10
   6   4   2  335.67    9.60
   8  -4   2   89.89    4.50
  -8  -4  -2   84.79    3.30
   8  -4   2   87.49    3.90
  -8  -4  -2   81.99    4.20
  -8  -4  -2   87.49    4.20
   8  -4   2   86.19    3.50
  -8  -4  -2   82.99    4.40
   8  -4   2   82.69    4.40
   8  -4   2   86.19    3.40
  -8   4  -2   86.59    4.40
   8   4   2   85.39    4.20
   8   4   2   84.99    4.10
  -8   4  -2   85.29    4.60
   8   4   2   83.89    3.40
   8   4   2   84.99    3.90
  -8   4  -2   82.69    3.90
  -8   4  -2   84.59    3.40
 -10  -4  -2  159.48    6.90
  10  -4   2  156.18    6.00
  10  -4   2  150.68    6.90
  10  -4   2  159.58    5.50
 -10  -4  -2  166.58    6.60
  10  -4   2  160.78    6.90
 -10  -4  -2  163.68    5.50
 -10  -4  -2  155.68    6.90
  10  -4   2  158.78    5.60
  10   4   2  155.28    6.60
  10   4   2  163.68    5.60
 -10   4  -2  146.19    6.60
 -10   4  -2  158.08    5.60
  10   4   2  166.88    6.70
  10   4   2  156.38    6.10
 -10   4  -2  165.88    7.10
  12  -4   2    6.20    2.70
 -12  -4  -2    4.10    1.60
  12  -4   2    3.80    1.40
 -12  -4  -2    1.40    3.00
 -12  -4  -2    6.60    2.60
  12  -4   2    6.00    1.80
 -12  -4  -2    4.20    2.30
  12  -4   2    8.20    2.60
  12  -4   2    3.70    1.40
  12   4   2    2.60    2.20
 -12   4  -2    3.70    1.50
 -12   4  -2   10.20    2.70
  12   4   2    1.20    1.50
  12   4   2    6.20    1.60
 -12   4  -2    5.20    2.70
  12   4   2    4.80    2.40
 -12   4  -2    5.40    2.00
  13  -5  -2    8.30    2.70
 -13  -5   2    7.90    2.80
  13  -5  -2    7.90    1.30
 -13  -5   2   10.30    3.10
  13  -5  -2    6.90    1.60
  13  -5  -2   10.30    1.70
  13  -5  -2    6.20    2.70
 -13  -5   2    8.70    2.70
 -13  -5   2    8.10    2.00
  13   5  -2    8.00    1.60
 -13   5   2    7.20    2.60
  13   5  -2    8.60    2.60
 -13   5   2   12.20    1.90
 -13   5   2    4.20    2.20
  13   5  -2    9.20    3.00
  13   5  -2    7.40    1.80
 -13   5   2    6.20    2.20
  11  -5  -2    9.40    1.40
 -11  -5   2   10.80    2.60
  11  -5  -2    7.00    2.10
  11  -5  -2    9.40    1.10
  11  -5  -2    6.40    1.30
  11  -5  -2    6.80    2.10
 -11  -5   2    7.60    1.70
 -11  -5   2    6.70    1.90
 -11  -5   2    7.30    2.20
 -11   5   2    7.90    2.00
  11   5  -2    8.40    1.50
 -11   5   2    8.00    1.50
 -11   5   2   10.50    2.40
  11   5  -2    9.30    2.10
  11   5  -2    6.80    1.40
  11   5  -2    6.80    2.50
 -11   5   2    8.40    1.40
   9  -5  -2   86.09    2.80
  -9  -5   2   86.09    4.40
  -9  -5   2   87.19    4.20
   9  -5  -2   87.89    3.30
   9  -5  -2   86.89    4.50
   9  -5  -2   85.89    3.30
   9  -5  -2   88.49    4.40
  -9  -5   2   85.69    4.70
  -9   5   2   86.79    4.60
   9   5  -2   88.29    3.70
   9   5  -2   86.69    4.00
  -9   5   2   85.49    3.40
  -9   5   2   79.19    4.30
   9   5  -2   84.09    3.90
  -9   5   2   92.59    3.60
   9   5  -2   82.29    4.60
  -7  -5   2  312.17    8.80
   7  -5  -2  291.47    8.20
   7  -5  -2  312.37    9.40
  -7  -5   2  290.47    9.00
  -7  -5   2  316.67    9.60
   7  -5  -2  295.07    7.70
  -7  -5   2  308.27    9.30
   7  -5  -2  299.47    8.30
   7  -5  -2  305.87    9.30
  -7   5   2  298.47    8.10
  -7   5   2  300.47    8.40
   7   5  -2  299.17    8.80
   7   5  -2  304.87    8.70
  -7   5   2  308.97    8.30
   7   5  -2  299.47    8.50
   7   5  -2  321.87    9.40
  -7   5   2  311.17    9.10
  -7   5   2  309.87    9.30
   7   5  -2  300.37    9.40
   5  -5  -2   13.80    1.50
  -5  -5   2   16.70    1.40
   5  -5  -2   11.00    1.40
  -5  -5   2   12.90    1.30
  -5  -5   2   12.60    1.60
   5  -5  -2   12.70    1.10
  -5  -5   2   12.40    1.70
   5  -5  -2   13.40    0.90
   5   5  -2   12.70    1.30
  -5   5   2   14.00    1.00
  -5   5   2   14.80    1.40
  -5   5   2   14.20    1.00
   5   5  -2   13.20    1.70
  -5   5   2   14.20    0.70
  -5   5   2   14.00    1.50
   5   5  -2   13.30    1.20
   5   5  -2   12.10    1.50
   5   5  -2   15.60    1.40
  -3  -5   2  171.08    5.40
  -3  -5   2  166.08    5.00
   3  -5  -2  167.08    4.40
   3  -5  -2  167.28    5.00
   3  -5  -2  166.18    5.00
  -3  -5   2  174.28    5.60
  -3  -5   2  167.58    4.90
  -3  -5   2  155.58    5.00
   3  -5  -2  165.48    4.90
  -3   5   2  171.08    4.90
  -3   5   2  173.78    4.80
   3   5  -2  176.08    5.00
   3   5  -2  164.18    5.10
   3   5  -2  170.18    5.00
  -3   5   2  166.68    5.00
   3   5  -2  172.38    5.40
   3   5  -2  167.38    5.70
   3   5  -2  162.18    5.40
  -3   5   2  171.68    4.60
  -1  -5   2  121.79    4.00
  -1  -5   2  121.19    3.70
   1  -5  -2  113.19    3.30
  -1  -5   2  110.79    3.60
  -1  -5   2  103.09    4.00
   1  -5  -2  114.79    3.80
   1  -5  -2  110.09    3.40
  -1  -5   2  121.29    3.80
   1  -5  -2  116.19    3.50
  -1   5   2  119.19    3.40
  -1   5   2  114.19    3.20
   1   5  -2  114.59    3.90
   1   5  -2  112.39    3.60
  -1   5   2  115.69    3.20
  -1   5   2  116.59    3.70
   1   5  -2  119.09    3.60
  -1   5   2  120.69    3.40
  -1   5   2  118.59    3.50
   1   5  -2  114.79    4.00
   1   5  -2  110.39    3.50
   1  -5   2  102.49    3.90
   1  -5   2  105.39    3.40
   1  -5   2  105.69    3.90
  -1  -5  -2  108.89    3.30
  -1  -5  -2  107.69    3.50
   1  -5   2  109.39    3.50
  -1  -5  -2  107.49    3.30
   1   5   2  108.79    3.30
  -1   5  -2  109.39    3.90
  -1   5  -2  107.59    3.90
  -1   5  -2  111.29    3.90
  -1   5  -2  110.29    3.40
   1   5   2  120.49    3.80
   1   5   2  112.29    3.40
  -1   5  -2  115.69    3.40
  -1   5  -2  109.79    3.50
   1   5   2  108.79    3.40
   1   5   2  104.99    3.20
   1   5   2  110.09    3.10
   3  -5   2  344.97    9.40
   3  -5   2  348.97   10.10
   3  -5   2  356.36    9.40
  -3  -5  -2  366.56   10.00
  -3  -5  -2  320.17    9.90
  -3  -5  -2  347.17    9.50
  -3  -5  -2  350.46    9.00
  -3   5  -2  358.56    9.40
  -3   5  -2  369.76   10.20
  -3   5  -2  360.06    9.40
   3   5   2  368.06   10.00
   3   5   2  325.97    9.40
   3   5   2  358.26    9.70
  -3   5  -2  370.46   10.20
   3   5   2  364.86    9.20
   5  -5   2  163.78    5.20
   5  -5   2  174.38    6.10
  -5  -5  -2  174.78    5.00
  -5  -5  -2  177.58    5.60
  -5  -5  -2  171.48    5.70
   5  -5   2  174.58    5.50
   5  -5   2  177.38    5.30
  -5  -5  -2  176.28    6.00
   5  -5   2  171.78    6.00
   5   5   2  169.28    5.50
  -5   5  -2  170.08    6.00
  -5   5  -2  163.88    6.10
   5   5   2  171.18    5.60
   5   5   2  170.38    5.10
  -5   5  -2  170.08    5.20
  -5   5  -2  173.38    5.20
   5   5   2  181.88    5.70
   7  -5   2   10.40    1.50
   7  -5   2    9.40    1.80
  -7  -5  -2   11.50    1.40
   7  -5   2    8.90    1.20
  -7  -5  -2    7.80    1.50
   7  -5   2   11.00    1.90
  -7  -5  -2   10.10    1.70
  -7  -5  -2    8.40    1.60
   7  -5   2   13.40    1.50
  -7   5  -2   12.10    1.90
   7   5   2    5.80    1.10
   7   5   2   10.30    1.60
   7   5   2    8.30    1.10
  -7   5  -2    8.60    1.70
   7   5   2   13.70    2.00
  -7   5  -2    8.60    1.10
   9  -5   2   15.10    2.60
   9  -5   2   13.80    1.90
   9  -5   2   13.70    1.90
  -9  -5  -2   10.90    2.00
  -9  -5  -2   15.50    1.90
  -9  -5  -2   12.60    2.20
  -9  -5  -2   16.00    2.30
   9  -5   2   16.10    1.90
   9  -5   2   20.10    2.70
   9   5   2   14.60    1.90
   9   5   2   19.50    2.70
   9   5   2   16.00    2.30
  -9   5  -2   14.30    2.30
  -9   5  -2   13.00    2.30
  -9   5  -2   14.20    1.90
   9   5   2   18.60    2.60
  11  -5   2   98.39    5.90
 -11  -5  -2   97.79    4.30
  11  -5   2   93.79    4.90
  11  -5   2  102.79    4.30
 -11  -5  -2   94.79    5.50
  11  -5   2   93.09    4.30
  11  -5   2   88.49    5.80
 -11  -5  -2   99.79    5.90
 -11  -5  -2   98.39    5.90
  11   5   2   95.99    4.40
  11   5   2   95.49    5.50
 -11   5  -2   95.89    4.30
  11   5   2   97.09    5.40
 -11   5  -2   85.29    8.80
 -11   5  -2   96.49    5.50
  11   5   2  100.09    4.80
  13  -5   2   12.70    2.40
 -13  -5  -2   13.20    3.80
 -13  -5  -2   18.30    4.40
  13  -5   2   13.30    2.50
 -13  -5  -2   12.60    3.30
 -13  -5  -2   10.40    2.30
  13  -5   2   12.10    2.10
  13  -5   2   14.70    3.30
  13  -5   2   18.70    3.40
  13   5   2   15.70    3.40
 -13   5  -2   12.20    3.60
  13   5   2   13.70    2.50
 -13   5  -2   15.70    3.40
  13   5   2    6.50    2.90
  13   5   2   10.20    2.30
 -13   5  -2   13.70    2.20
  12  -6  -2   26.60    2.60
  12  -6  -2   21.60    3.20
  12  -6  -2   30.60    3.60
 -12  -6   2   25.70    3.30
 -12  -6   2   25.60    3.10
  12  -6  -2   22.10    2.60
  12  -6  -2   26.10    1.90
 -12  -6   2   26.60    3.40
 -12  -6   2   16.90    5.10
  12   6  -2   24.40    2.90
  12   6  -2   21.50    3.20
 -12   6   2   24.70    2.70
  12   6  -2   24.20    2.40
 -12   6   2   21.30    3.00
 -12   6   2   27.00    3.60
  12   6  -2   29.40    3.60
 -12   6   2   24.30    2.70
  12   6  -2   22.30    3.30
  10  -6  -2   67.19    4.20
 -10  -6   2   62.49    4.10
  10  -6  -2   63.69    4.10
 -10  -6   2   60.99    4.70
  10  -6  -2   61.49    2.30
  10  -6  -2   60.49    2.90
 -10  -6   2   61.89    3.50
 -10  -6   2   60.09    4.20
  10  -6  -2   63.89    3.10
  10   6  -2   55.29    3.20
 -10   6   2   65.19    4.20
 -10   6   2   67.29    3.90
  10   6  -2   63.89    3.80
  10   6  -2   71.69    4.30
 -10   6   2   62.09    2.90
  10   6  -2   56.99    2.90
  10   6  -2   58.99    4.40
 -10   6   2   59.89    3.10
   8  -6  -2  343.27   10.90
   8  -6  -2  344.07   11.00
  -8  -6   2  369.56   10.80
   8  -6  -2  360.36    9.80
  -8  -6   2  360.26   11.10
  -8  -6   2  368.06   10.40
  -8  -6   2  359.56   11.30
   8  -6  -2  364.86   10.00
  -8   6   2  367.86   10.00
   8   6  -2  357.36   10.10
   8   6  -2  369.86   10.60
  -8   6   2  346.97   10.70
  -8   6   2  352.16    9.60
  -8   6   2  372.76   11.00
  -8   6   2  362.56    9.80
   8   6  -2  380.36   11.40
   8   6  -2  366.76   10.30
   8   6  -2  365.86   11.10
   6  -6  -2  123.59    4.60
  -6  -6   2  118.49    4.20
   6  -6  -2  119.29    3.70
   6  -6  -2  119.59    4.00
  -6  -6   2  122.89    5.00
   6  -6  -2  123.39    4.60
  -6  -6   2  122.49    4.40
  -6  -6   2  119.39    4.80
   6   6  -2  120.69    4.40
  -6   6   2  122.29    4.60
   6   6  -2  123.39    4.90
   6   6  -2  118.39    4.70
   6   6  -2  122.59    4.30
  -6   6   2  124.89    4.50
  -6   6   2  124.69    3.90
   6   6  -2  127.09    4.00
  -6   6   2  118.19    3.90
  -4  -6   2  779.02   18.90
   4  -6  -2  731.23   18.70
  -4  -6   2  723.93   19.00
  -4  -6   2  738.83   18.70
   4  -6  -2  700.83   18.20
   4  -6  -2  746.03   19.00
  -4  -6   2  736.63   19.50
  -4  -6   2  761.32   19.40
   4  -6  -2  696.53   18.90
   4   6  -2  699.03   18.80
  -4   6   2  710.83   18.30
  -4   6   2  738.73   18.50
   4   6  -2  755.92   19.50
   4   6  -2  739.33   19.80
  -4   6   2  731.03   18.90
   4   6  -2  721.03   19.20
  -4   6   2  721.63   18.90
   4   6  -2  750.42   18.80
  -2  -6   2 3813.82   96.09
   2  -6  -2 3907.61   96.19
  -2  -6   2 4081.89   96.49
   2  -6  -2 3936.21   96.69
  -2  -6   2 3906.51   97.59
   2  -6  -2 3963.30   97.69
  -2  -6   2 3741.83   95.79
  -2  -6   2 3605.44   95.29
  -2  -6   2 3905.21   95.69
   2   6  -2 3836.22   97.09
  -2   6   2 3796.62   94.89
   2   6  -2 3872.21   95.89
  -2   6   2 4013.60   97.19
   2   6  -2 4053.09   98.09
  -2   6   2 4061.89   96.29
  -2   6   2 3967.00   97.79
   2   6  -2 4210.38   99.09
   2   6  -2 3770.72   95.09
  -2   6   2 3751.82   97.29
  -2   6   2 4004.70   96.19
   2   6  -2 3947.10   97.19
   0  -6   2 1012.20   25.60
   0  -6  -2  991.40   25.40
   0  -6   2 1013.30   25.60
   0  -6  -2 1007.20   25.30
   0  -6   2 1011.50   26.30
   0  -6  -2  996.10   25.50
   0  -6  -2 1017.40   25.90
   0   6  -2  961.60   25.90
   0   6  -2 1012.10   25.40
   0   6   2 1049.09   25.40
   0   6  -2 1050.99   26.30
   0   6   2 1012.90   25.30
   0   6  -2 1033.80   25.50
   0   6   2 1021.50   25.20
   0   6   2 1059.49   25.40
   0   6  -2 1039.80   25.60
   0   6  -2 1058.39   26.20
   0   6   2 1030.20   25.40
   0   6   2 1011.30   25.70
  -2  -6  -2  759.02   19.70
  -2  -6  -2  788.42   20.00
   2  -6   2  765.52   20.40
   2  -6   2  793.22   20.40
   2  -6   2  751.52   19.70
   2  -6   2  782.82   19.70
  -2  -6  -2  757.22   19.60
  -2   6  -2  833.32   20.50
  -2   6  -2  763.42   20.30
   2   6   2  774.12   19.70
   2   6   2  789.52   19.70
   2   6   2  787.12   19.80
   2   6   2  741.83   19.50
  -2   6  -2  796.52   19.60
  -2   6  -2  774.82   19.80
  -2   6  -2  757.02   19.60
   2   6   2  748.63   19.50
   2   6   2  822.12   20.20
  -2   6  -2  745.13   20.20
   4  -6   2  490.05   12.90
   4  -6   2  475.05   13.60
  -4  -6  -2  486.15   13.00
   4  -6   2  489.05   12.80
  -4  -6  -2  482.65   13.40
  -4  -6  -2  483.15   12.40
   4  -6   2  489.75   13.00
   4  -6   2  458.95   13.60
   4   6   2  489.65   13.50
  -4   6  -2  507.85   13.80
   4   6   2  497.25   12.60
   4   6   2  503.05   13.20
   4   6   2  454.25   12.90
  -4   6  -2  497.45   12.80
  -4   6  -2  504.35   13.70
   4   6   2  490.35   13.10
  -4   6  -2  473.65   12.70
   6  -6   2   38.40    2.10
  -6  -6  -2   49.50    2.90
   6  -6   2   42.70    2.50
   6  -6   2   45.30    2.20
  -6  -6  -2   43.40    3.00
  -6  -6  -2   43.80    2.70
   6  -6   2   40.50    3.00
  -6  -6  -2   40.10    2.00
   6  -6   2   34.30    2.90
   6   6   2   38.10    2.60
  -6   6  -2   41.60    3.00
  -6   6  -2   40.00    2.10
  -6   6  -2   40.30    3.10
   6   6   2   38.40    2.10
   6   6   2   41.70    2.50
   6   6   2   39.60    2.50
  -6   6  -2   40.30    2.10
   8  -6   2   68.39    3.10
  -8  -6  -2   70.79    4.10
   8  -6   2   66.39    4.30
  -8  -6  -2   68.39    4.30
   8  -6   2   76.79    3.60
   8  -6   2   66.39    4.40
  -8  -6  -2   69.99    3.90
  -8  -6  -2   70.79    3.10
   8  -6   2   70.99    3.20
   8   6   2   66.79    3.80
   8   6   2   71.59    3.60
   8   6   2   70.19    3.20
  -8   6  -2   74.19    4.50
  -8   6  -2   70.49    3.20
   8   6   2   73.39    3.80
  10  -6   2   20.60    2.80
 -10  -6  -2   20.10    2.70
  10  -6   2   20.40    2.30
 -10  -6  -2   20.60    2.40
  10  -6   2   20.30    2.20
  10  -6   2   18.50    2.90
  10  -6   2   19.00    3.00
 -10  -6  -2   19.50    3.00
 -10  -6  -2   23.00    3.10
  10   6   2   25.50    3.50
  10   6   2   21.90    2.60
 -10   6  -2   16.00    2.20
  10   6   2   24.10    3.10
 -10   6  -2   16.40    2.50
 -10   6  -2   20.40    3.50
  10   6   2   17.60    2.20
  12  -6   2   64.29    3.70
 -12  -6  -2   55.49    5.40
 -12  -6  -2   52.79    5.70
  12  -6   2   47.60    5.40
 -12  -6  -2   65.49    5.90
  12  -6   2   56.69    3.90
  12  -6   2   57.49    4.10
 -12  -6  -2   57.99    3.80
  12  -6   2   49.70    5.40
  12   6   2   59.99    5.20
  12   6   2   55.99    3.70
  12   6   2   66.19    5.00
  12   6   2   52.09    3.90
 -12   6  -2   55.09    3.60
 -12   6  -2   54.29    5.80
 -12   6  -2   59.19    5.10
  13  -7  -2   64.99    3.80
  13  -7  -2   67.09    9.20
  13  -7  -2   57.39    3.90
 -13  -7   2   57.99    5.40
 -13  -7   2   48.90    6.50
  13  -7  -2   48.90    5.50
 -13  -7   2   54.59    6.10
 -13  -7   2   60.39    4.30
  13   7  -2   54.39    5.50
 -13   7   2   47.20    4.70
 -13   7   2   54.19    5.40
  13   7  -2   61.19    5.10
  13   7  -2   50.59    3.40
  13   7  -2   62.69    5.80
 -13   7   2   59.99    3.80
 -13   7   2   57.39    3.50
 -11  -7   2   42.50    4.10
  11  -7  -2   42.30    4.20
  11  -7  -2   40.20    2.90
 -11  -7   2   41.10    4.90
  11  -7  -2   45.20    2.80
 -11  -7   2   39.20    3.20
 -11  -7   2   31.30    3.80
  11  -7  -2   47.30    4.30
 -11   7   2   40.30    3.00
  11   7  -2   44.50    4.20
 -11   7   2   48.60    3.80
  11   7  -2   39.30    3.20
  11   7  -2   40.70    2.80
 -11   7   2   43.30    2.50
  11   7  -2   39.40    3.80
  11   7  -2   51.59    4.60
 -11   7   2   47.70    4.20
   9  -7  -2  276.47    9.40
   9  -7  -2  270.67    9.80
  -9  -7   2  290.57    8.80
   9  -7  -2  287.27    8.10
  -9  -7   2  285.27    9.30
   9  -7  -2  287.27    9.50
  -9  -7   2  280.47    9.80
  -9   7   2  281.87    9.20
   9   7  -2  278.17    8.30
   9   7  -2  289.67    8.70
  -9   7   2  288.57    9.50
  -9   7   2  262.37    7.60
   9   7  -2  283.87    9.00
  -9   7   2  280.87    8.30
   9   7  -2  294.37    9.80
   9   7  -2  278.37    9.50
  -7  -7   2   45.30    2.60
  -7  -7   2   43.70    3.40
   7  -7  -2   44.90    2.40
  -7  -7   2   45.10    2.90
   7  -7  -2   37.70    3.00
  -7  -7   2   42.40    3.00
   7  -7  -2   36.80    2.90
   7  -7  -2   39.70    2.00
  -7   7   2   39.70    2.70
   7   7  -2   39.30    3.50
   7   7  -2   42.70    2.20
  -7   7   2   39.10    2.10
   7   7  -2   44.80    3.60
   7   7  -2   40.20    2.70
  -7   7   2   40.50    2.00
   7   7  -2   39.70    3.10
   7   7  -2   39.90    2.50
  -7   7   2   40.60    2.80
  -5  -7   2  363.66   10.10
   5  -7  -2  351.86   10.00
  -5  -7   2  356.46   10.90
  -5  -7   2  376.06   10.70
   5  -7  -2  363.36   10.40
   5  -7  -2  360.96    9.50
   5  -7  -2  345.67   10.30
  -5  -7   2  358.86   10.10
  -5   7   2  367.16   10.30
  -5   7   2  370.76    9.80
   5   7  -2  358.86   10.60
   5   7  -2  369.96   11.20
   5   7  -2  358.76   10.80
   5   7  -2  355.86   10.20
  -5   7   2  359.66   10.40
   5   7  -2  376.66   10.10
  -5   7   2  356.86    9.60
   3  -7  -2  231.48    7.10
  -3  -7   2  251.77    7.60
   3  -7  -2  239.28    7.10
  -3  -7   2  235.28    7.20
  -3  -7   2  256.67    7.10
  -3  -7   2  251.37    7.80
  -3  -7   2  238.68    6.90
   3  -7  -2  239.78    7.10
   3   7  -2  245.38    7.10
  -3   7   2  236.98    6.90
  -3   7   2  239.18    7.10
   3   7  -2  231.88    7.40
   3   7  -2  251.57    7.70
   3   7  -2  255.37    7.10
   3   7  -2  249.28    7.20
  -3   7   2  242.58    7.00
  -3   7   2  235.48    6.50
   3   7  -2  248.68    7.90
  -3   7   2  240.38    7.10
  -1  -7   2  798.22   20.40
  -1  -7   2  794.62   21.20
   1  -7  -2  775.82   19.90
  -1  -7   2  762.42   20.50
   1  -7  -2  788.12   20.60
   1  -7  -2  776.52   20.30
  -1  -7   2  827.02   20.90
  -1  -7   2  775.42   19.90
   1   7  -2  815.52   21.00
  -1   7   2  801.72   20.40
   1   7  -2  807.62   20.80
  -1   7   2  776.52   19.60
   1   7  -2  823.12   20.40
  -1   7   2  804.12   20.20
  -1   7   2  790.32   19.90
   1   7  -2  829.32   20.40
   1   7  -2  818.92   21.10
   1   7  -2  792.92   20.30
  -1   7   2  783.52   20.30
   1   7  -2  827.42   21.10
  -1   7   2  779.82   20.10
  -1   7   2  797.52   20.30
  -1  -7  -2  197.88    6.30
  -1  -7  -2  189.28    5.70
   1  -7   2  195.78    5.90
   1  -7   2  199.18    6.60
  -1  -7  -2  196.08    5.90
   1  -7   2  199.88    6.00
   1  -7   2  202.28    6.50
  -1   7  -2  198.08    6.00
   1   7   2  199.38    5.60
  -1   7  -2  203.78    6.60
   1   7   2  195.38    5.80
  -1   7  -2  199.68    5.80
   1   7   2  204.98    6.20
   1   7   2  203.98    5.80
   1   7   2  195.38    5.50
   1   7   2  202.38    5.90
   1   7   2  194.48    5.70
  -1   7  -2  195.78    6.50
  -1   7  -2  192.68    6.30
  -1   7  -2  197.88    5.80
  -3  -7  -2   33.10    1.90
  -3  -7  -2   29.90    2.20
   3  -7   2   32.00    2.50
   3  -7   2   26.50    1.70
   3  -7   2   29.70    2.40
  -3  -7  -2   30.30    2.00
   3  -7   2   31.20    1.80
   3   7   2   30.20    1.80
   3   7   2   29.70    2.10
  -3   7  -2   29.60    1.60
   3   7   2   25.40    2.20
   3   7   2   29.90    2.20
  -3   7  -2   27.90    2.40
  -3   7  -2   29.30    2.20
   3   7   2   31.90    1.60
   3   7   2   30.90    1.80
  -3   7  -2   32.30    2.40
  -3   7  -2   28.60    1.70
   5  -7   2  577.44   16.40
   5  -7   2  574.14   15.40
  -5  -7  -2  610.74   16.30
  -5  -7  -2  587.14   15.00
  -5  -7  -2  561.64   15.80
  -5  -7  -2  582.24   15.70
   5  -7   2  596.44   15.40
   5  -7   2  592.94   15.50
   5  -7   2  591.14   16.50
  -5   7  -2  594.44   15.30
   5   7   2  590.64   15.70
   5   7   2  567.74   15.80
   5   7   2  564.94   15.60
  -5   7  -2  618.14   16.60
  -5   7  -2  588.54   16.40
  -5   7  -2  563.64   15.30
   5   7   2  574.34   15.20
   5   7   2  576.14   16.20
   7  -7   2  186.88    7.10
  -7  -7  -2  180.38    6.50
   7  -7   2  178.08    6.00
  -7  -7  -2  178.28    6.40
  -7  -7  -2  177.28    5.50
   7  -7   2  178.98    5.80
   7  -7   2  174.28    7.00
   7  -7   2  184.28    5.90
  -7  -7  -2  177.28    6.90
  -7   7  -2  176.88    7.10
  -7   7  -2  173.58    6.90
   7   7   2  178.58    6.40
   7   7   2  184.18    5.80
   7   7   2  184.18    6.50
   7   7   2  173.78    6.30
   9  -7   2  171.28    6.00
   9  -7   2  162.38    5.80
  -9  -7  -2  169.48    6.90
   9  -7   2  163.18    7.10
   9  -7   2  162.38    7.20
  -9  -7  -2  168.48    5.60
  -9  -7  -2  161.88    7.20
   9  -7   2  164.38    5.80
  -9  -7  -2  171.18    6.70
  -9   7  -2  164.48    7.30
   9   7   2  171.08    5.80
  -9   7  -2  169.38    7.10
   9   7   2  166.68    6.70
   9   7   2  160.08    6.60
   9   7   2  165.78    6.20
  -9   7  -2  166.28    5.80
 -11  -7  -2   71.09    5.50
 -11  -7  -2   59.99    3.70
 -11  -7  -2   57.79    5.20
  11  -7   2   65.89    3.70
  11  -7   2   65.69    3.80
  11  -7   2   64.89    4.10
  11  -7   2   72.29    5.60
  11  -7   2   57.59    5.30
 -11   7  -2   55.39    4.90
  11   7   2   63.09    3.90
 -11   7  -2   57.19    3.60
  11   7   2   57.89    4.70
  11   7   2   59.99    3.70
  11   7   2   67.59    5.10
 -11   7  -2   63.29    5.50
  12  -8  -2   -0.10    2.60
 -12  -8   2    0.20    2.10
  12  -8  -2    0.70    1.50
 -12  -8   2    4.30    1.80
 -12  -8   2    2.20    2.50
  12  -8  -2    2.00    1.50
  12  -8  -2    1.20    2.50
  12   8  -2    1.20    1.20
 -12   8   2    3.50    2.20
  12   8  -2    2.40    1.80
  12   8  -2   -0.80    2.40
 -12   8   2    4.10    2.30
 -12   8   2    1.50    1.40
  12   8  -2    3.30    2.40
  12   8  -2    1.20    2.20
 -10  -8   2   62.19    4.80
 -10  -8   2   70.29    5.40
 -10  -8   2   68.69    3.80
  10  -8  -2   63.49    4.60
 -10  -8   2   67.99    4.50
  10  -8  -2   71.69    3.60
  10  -8  -2   65.69    3.20
  10  -8  -2   66.19    4.70
 -10   8   2   61.89    3.30
 -10   8   2   71.99    4.40
  10   8  -2   77.89    5.00
 -10   8   2   63.89    4.40
  10   8  -2   62.29    4.60
  10   8  -2   64.59    3.30
  10   8  -2   69.89    3.80
  10   8  -2   68.69    4.30
   8  -8  -2   71.49    4.10
   8  -8  -2   67.59    3.40
   8  -8  -2   67.59    2.80
  -8  -8   2   74.69    4.00
   8  -8  -2   63.39    4.00
  -8  -8   2   69.79    3.50
  -8  -8   2   65.19    4.10
  -8  -8   2   67.69    4.60
   8   8  -2   64.09    3.70
  -8   8   2   63.79    3.80
   8   8  -2   64.49    4.70
   8   8  -2   69.09    3.40
  -8   8   2   62.29    3.60
  -8   8   2   68.39    3.00
   8   8  -2   73.09    4.20
   8   8  -2   72.29    4.20
   8   8  -2   66.89    3.00
  -6  -8   2   30.10    2.70
  -6  -8   2   28.20    2.20
  -6  -8   2   28.00    2.80
   6  -8  -2   28.70    1.70
   6  -8  -2   29.70    2.20
   6  -8  -2   28.70    2.50
  -6  -8   2   27.50    3.00
   6   8  -2   32.20    2.20
   6   8  -2   27.50    1.80
  -6   8   2   26.50    2.40
   6   8  -2   26.40    2.50
  -6   8   2   29.80    1.80
   6   8  -2   29.70    2.40
  -6   8   2   30.70    1.80
  -6   8   2   28.80    2.30
   6   8  -2   30.50    2.80
   6   8  -2   29.80    3.10
  -4  -8   2  325.97    9.80
  -4  -8   2  329.07    9.60
  -4  -8   2  328.17   10.10
   4  -8  -2  323.07    9.30
   4  -8  -2  323.37    9.40
  -4  -8   2  314.37    9.20
  -4  -8   2  330.67    9.20
   4  -8  -2  317.27    8.50
   4  -8  -2  320.17    9.40
  -4   8   2  323.87    9.30
  -4   8   2  330.57    9.40
   4   8  -2  320.27   10.10
   4   8  -2  320.07    9.40
  -4   8   2  318.67    8.70
   4   8  -2  321.77    9.70
   4   8  -2  315.17    9.20
   4   8  -2  332.27    9.30
   4   8  -2  329.77   10.00
  -4   8   2  319.87    8.90
   2  -8  -2   66.49    2.90
  -2  -8   2   67.89    3.70
   2  -8  -2   64.69    3.10
  -2  -8   2   66.09    3.00
  -2  -8   2   63.49    3.20
   2  -8  -2   64.59    2.80
  -2  -8   2   66.19    2.50
   2  -8  -2   64.69    2.00
  -2  -8   2   67.29    2.90
  -2   8   2   66.79    2.80
   2   8  -2   63.69    3.30
  -2   8   2   67.89    2.80
   2   8  -2   72.49    3.50
   2   8  -2   67.49    3.50
   2   8  -2   66.59    3.20
   2   8  -2   61.89    2.80
  -2   8   2   64.59    2.80
  -2   8   2   64.29    2.30
   2   8  -2   68.39    2.90
  -2   8   2   65.89    2.70
   2   8  -2   67.59    2.80
   0  -8   2  315.37    9.10
   0  -8  -2  316.67    8.80
   0  -8   2  317.67    9.40
   0  -8  -2  320.67    9.00
   0  -8  -2  312.77    9.00
   0  -8   2  315.87    9.00
   0  -8  -2  316.97    9.30
   0  -8   2  315.57    9.70
   0  -8   2  314.27    8.30
   0   8   2  311.47    8.80
   0   8   2  311.87    8.70
   0   8   2  313.07    8.50
   0   8   2  305.97    9.00
   0   8  -2  309.57    9.50
   0   8   2  313.47    8.50
   0   8   2  317.67    8.80
   0   8  -2  319.47    8.80
   0   8  -2  313.17    9.40
   0   8  -2  324.27    9.70
   0   8   2  318.37    8.30
   0   8  -2  332.27    8.90
   0   8  -2  320.47    9.00
   0   8   2  329.07    8.90
   0   8  -2  306.77    9.50
  -2  -8  -2   11.30    1.50
   2  -8   2    9.70    1.40
  -2  -8  -2    7.90    1.20
  -2  -8  -2   11.30    1.50
   2  -8   2   11.80    1.40
   2  -8   2   10.30    1.70
   2  -8   2   10.30    1.40
  -2   8  -2    8.60    1.50
   2   8   2   10.90    1.10
   2   8   2   10.90    1.30
  -2   8  -2    9.90    1.20
   2   8   2   11.30    1.50
   2   8   2    9.50    1.10
  -2   8  -2   11.00    1.50
  -2   8  -2   10.90    1.50
   2   8   2   11.10    1.50
  -2   8  -2   12.50    1.80
  -2   8  -2   10.10    1.20
   2   8   2   10.90    1.40
   4  -8   2  179.48    5.60
   4  -8   2  176.78    5.60
   4  -8   2  166.68    6.40
   4  -8   2  178.18    6.50
  -4  -8  -2  170.38    4.90
   4  -8   2  174.38    5.60
  -4  -8  -2  177.58    5.80
  -4  -8  -2  173.48    6.10
   4   8   2  171.38    5.60
  -4   8  -2  181.28    6.30
  -4   8  -2  165.48    5.40
   4   8   2  170.08    6.10
   4   8   2  172.98    6.00
  -4   8  -2  175.08    6.50
   4   8   2  169.48    5.30
  -4   8  -2  177.08    5.50
   4   8   2  165.58    5.80
   4   8   2  167.18    5.50
  -4   8  -2  182.18    6.50
  -6  -8  -2  138.29    5.50
   6  -8   2  136.89    5.00
  -6  -8  -2  144.99    5.90
   6  -8   2  139.99    5.00
  -6  -8  -2  147.79    5.40
   6  -8   2  150.68    6.10
  -6  -8  -2  139.69    4.50
   6  -8   2  141.29    5.00
   6  -8   2  141.59    6.00
  -6   8  -2  142.39    6.00
   6   8   2  146.19    4.90
   6   8   2  136.99    5.30
   6   8   2  146.79    5.20
  -6   8  -2  143.89    6.10
   6   8   2  149.09    5.40
   6   8   2  129.89    7.00
  -8  -8  -2    6.10    2.10
   8  -8   2    4.90    1.30
  -8  -8  -2    7.70    2.10
  -8  -8  -2    6.70    1.90
   8  -8   2    6.20    1.50
   8  -8   2    4.90    1.30
   8  -8   2    3.70    1.90
  -8  -8  -2    4.80    1.20
   8  -8   2    7.60    2.10
   8   8   2    6.60    1.70
   8   8   2    2.70    1.80
  -8   8  -2    2.60    1.80
   8   8   2    8.10    1.70
  -8   8  -2    4.50    2.30
   8   8   2    4.20    1.20
  -8   8  -2    8.40    1.40
   8   8   2    4.60    1.50
  10  -8   2   83.49    5.90
 -10  -8  -2   82.29    4.00
 -10  -8  -2   86.29    5.40
  10  -8   2   77.29    4.00
  10  -8   2   80.89    5.70
 -10  -8  -2   77.49    5.50
  10  -8   2   83.39    5.70
  10  -8   2   86.49    4.20
 -10  -8  -2   85.89    5.60
 -10   8  -2   84.09    5.90
  10   8   2   87.59    4.10
  10   8   2   90.39    5.10
  10   8   2   83.89    5.00
 -10   8  -2   77.79    5.30
  10   8   2   84.89    5.20
 -10   8  -2   79.89    4.00
 -12  -8  -2   -1.50    1.70
  12  -8   2   -1.20    2.00
  12  -8   2    0.30    2.90
  12  -8   2    0.50    1.80
  12  -8   2    1.00    3.20
 -12  -8  -2   -1.50    3.10
 -12   8  -2    4.10    2.70
  12   8   2    1.20    1.80
  12   8   2    1.50    2.40
  12   8   2   -2.30    2.40
 -12   8  -2   -7.30    3.00
  12   8   2   -1.20    1.70
 -12   8  -2   -1.90    1.50
  12   8   2    2.80    2.80
 -11  -9   2    5.20    3.50
 -11  -9   2    4.20    1.90
 -11  -9   2   11.60    2.80
  11  -9  -2    6.10    1.50
  11  -9  -2    8.20    2.50
  11  -9  -2    8.60    2.80
 -11  -9   2    4.20    2.50
  11  -9  -2    7.60    1.80
  11   9  -2    3.40    2.40
 -11   9   2    4.40    2.10
 -11   9   2    6.60    1.60
  11   9  -2    4.10    1.40
 -11   9   2    6.70    2.20
  11   9  -2    5.50    1.90
  11   9  -2    9.80    3.20
  11   9  -2    6.90    2.20
  -9  -9   2  156.08    7.30
   9  -9  -2  152.68    5.60
  -9  -9   2  153.28    6.80
  -9  -9   2  153.48    5.80
   9  -9  -2  159.18    5.40
  -9  -9   2  156.78    6.50
   9  -9  -2  146.19    6.50
   9  -9  -2  154.88    6.70
   9   9  -2  152.98    5.30
  -9   9   2  148.89    5.30
  -9   9   2  149.09    6.50
  -9   9   2  148.39    5.20
   9   9  -2  150.58    6.70
   9   9  -2  157.28    6.20
   9   9  -2  152.58    6.90
   9   9  -2  163.18    5.90
  -9   9   2  151.58    6.30
   9   9  -2  141.29    7.40
  -7  -9   2   42.90    3.30
   7  -9  -2   50.19    3.60
   7  -9  -2   46.70    2.90
  -7  -9   2   51.19    3.40
   7  -9  -2   47.00    2.30
  -7  -9   2   55.59    4.10
   7  -9  -2   44.40    3.30
  -7  -9   2   45.20    3.60
  -7   9   2   49.40    2.50
  -7   9   2   47.90    3.30
   7   9  -2   48.70    2.90
   7   9  -2   45.80    4.00
   7   9  -2   45.90    3.70
   7   9  -2   53.19    4.10
   7   9  -2   48.50    3.20
  -7   9   2   50.29    2.50
  -7   9   2   47.80    3.10
   7   9  -2   45.90    2.50
   5  -9  -2   50.49    2.20
   5  -9  -2   50.99    2.80
  -5  -9   2   42.20    3.20
  -5  -9   2   50.09    3.40
  -5  -9   2   51.09    3.70
  -5  -9   2   54.89    2.80
   5  -9  -2   48.40    3.00
   5   9  -2   49.30    2.70
   5   9  -2   50.99    3.40
  -5   9   2   49.10    2.30
   5   9  -2   53.99    3.00
  -5   9   2   49.40    2.90
   5   9  -2   54.89    3.30
  -5   9   2   49.00    2.90
   5   9  -2   55.29    3.70
  -5   9   2   54.29    2.50
   5   9  -2   53.29    3.00
   3  -9  -2  127.09    4.70
  -3  -9   2  130.59    4.90
  -3  -9   2  135.99    4.60
  -3  -9   2  131.59    4.40
  -3  -9   2  134.09    5.20
   3  -9  -2  125.39    4.80
   3  -9  -2  123.79    4.60
  -3   9   2  124.89    4.40
   3   9  -2  135.29    5.40
   3   9  -2  130.49    5.10
   3   9  -2  130.39    4.60
   3   9  -2  120.59    5.10
   3   9  -2  130.19    5.40
   3   9  -2  125.79    4.50
  -3   9   2  130.89    4.00
  -3   9   2  124.39    4.50
  -3   9   2  127.79    4.70
  -3   9   2  129.09    4.60
   3   9  -2  128.19    4.70
  -1  -9   2   82.59    2.90
  -1  -9   2   76.59    3.60
  -1  -9   2   83.59    3.90
   1  -9  -2   80.89    3.50
   1  -9  -2   83.89    3.80
  -1  -9   2   86.79    4.30
   1  -9  -2   80.09    2.80
   1   9  -2   80.59    3.80
  -1   9   2   85.49    2.40
  -1   9   2   84.29    3.40
  -1   9   2   83.19    2.90
   1   9  -2   83.19    3.30
   1   9  -2   77.89    3.50
  -1   9   2   84.99    3.30
   1   9  -2   83.49    3.40
   1   9  -2   86.49    4.10
  -1   9   2   84.69    3.40
  -1   9   2   83.99    3.40
   1   9  -2   84.59    4.00
   1   9  -2   82.89    4.00
  -1   9   2   80.19    3.20
   1  -9   2  446.06   11.50
  -1  -9  -2  450.05   12.20
  -1  -9  -2  437.86   12.10
   1  -9   2  454.85   12.40
   1  -9   2  454.95   12.60
   1  -9   2  442.06   13.20
   1  -9   2  440.56   13.00
  -1  -9  -2  460.25   13.00
   1   9   2  439.76   12.20
   1   9   2  450.25   12.10
  -1   9  -2  465.25   13.40
   1   9   2  442.26   12.30
  -1   9  -2  466.15   13.20
  -1   9  -2  435.16   12.10
  -1   9  -2  463.15   13.30
   1   9   2  457.15   12.30
   1   9   2  461.65   12.60
   1   9   2  442.36   11.90
  -1   9  -2  432.76   12.80
   1   9   2  446.66   11.70
  -1   9  -2  449.76   12.10
  -1   9  -2  447.56   13.10
  -3  -9  -2  221.48    7.70
  -3  -9  -2  247.38    7.80
  -3  -9  -2  247.18    7.60
   3  -9   2  231.98    8.20
   3  -9   2  260.27    8.50
   3  -9   2  258.47    7.50
   3  -9   2  248.38    8.40
  -3   9  -2  256.57    7.40
  -3   9  -2  257.37    8.40
   3   9   2  212.28    8.40
  -3   9  -2  248.68    8.20
   3   9   2  247.48    7.50
   3   9   2  254.37    7.80
   3   9   2  254.07    7.20
   3   9   2  254.37    7.30
   3   9   2  258.87    8.10
  -3   9  -2  259.27    8.50
  -3   9  -2  255.57    7.40
  -3   9  -2  253.07    7.70
   5  -9   2  534.35   15.60
   5  -9   2  544.85   14.40
   5  -9   2  499.85   15.40
  -5  -9  -2  541.65   13.70
  -5  -9  -2  483.85   15.40
  -5  -9  -2  547.35   14.70
   5  -9   2  547.45   14.30
  -5  -9  -2  510.95   15.10
   5  -9   2  536.75   14.50
   5   9   2  539.95   14.40
   5   9   2  530.45   14.60
  -5   9  -2  540.95   15.60
   5   9   2  545.45   14.20
   5   9   2  517.05   15.10
   5   9   2  507.95   14.70
  -5   9  -2  542.25   15.40
  -7  -9  -2   -0.80    1.50
   7  -9   2    0.50    1.10
  -7  -9  -2    2.00    1.70
   7  -9   2    1.90    1.70
   7  -9   2    0.50    1.20
  -7  -9  -2    1.40    0.90
   7  -9   2   -1.60    1.60
   7  -9   2    0.90    1.00
  -7  -9  -2    0.30    1.50
   7   9   2    4.20    1.40
   7   9   2    1.40    1.10
  -7   9  -2    2.70    2.70
   7   9   2    1.20    1.00
  -7   9  -2    0.90    0.90
   7   9   2   -0.30    1.50
  -7   9  -2    1.10    0.90
  -7   9  -2   -0.60    1.60
   7   9   2    1.60    1.30
   7   9   2    2.50    1.50
  -9  -9  -2   66.49    4.90
   9  -9   2   79.29    5.30
  -9  -9  -2   69.39    4.90
  -9  -9  -2   73.59    3.50
  -9  -9  -2   68.49    5.30
   9  -9   2   74.69    3.90
   9  -9   2   78.09    3.80
   9  -9   2   73.89    4.00
   9  -9   2   68.49    5.30
   9   9   2   79.29    5.00
   9   9   2   73.19    4.00
  -9   9  -2   68.79    4.90
   9   9   2   71.69    3.70
   9   9   2   75.69    4.70
  -9   9  -2   69.19    5.50
  -9   9  -2   70.89    3.60
   9   9   2   72.99    4.50
  11  -9   2   72.69    6.30
  11  -9   2   77.49    6.30
  11  -9   2   78.69    4.50
  11  -9   2   79.79    4.60
 -11  -9  -2   87.79    6.30
 -11  -9  -2   61.29    6.30
 -11  -9  -2   76.99    4.40
 -11  -9  -2   81.99    6.50
  11  -9   2   83.79    4.50
  11   9   2   82.19    5.50
 -11   9  -2   78.09    5.40
 -11   9  -2   80.49    4.20
 -11   9  -2   74.39    6.40
  11   9   2   85.39    5.70
  11   9   2   71.59    4.30
  11   9   2   78.79    5.50
  11   9   2   78.49    4.40
  12 -10  -2    0.10    1.90
 -12 -10   2    6.30    4.40
  12 -10  -2    0.20    1.70
 -12 -10   2   -2.50    2.90
 -12 -10   2    3.00    1.90
 -12  10   2    1.90    1.50
  12  10  -2    9.50    3.70
  12  10  -2   -5.40    2.70
  12  10  -2   -0.90    2.40
  10 -10  -2    1.40    1.50
 -10 -10   2    3.50    2.20
  10 -10  -2    0.50    2.00
 -10 -10   2    0.10    1.60
  10 -10  -2    2.60    2.40
  10 -10  -2    1.00    1.30
 -10 -10   2   -1.20    2.90
 -10 -10   2    3.10    2.30
  10  10  -2    0.20    1.90
 -10  10   2    3.90    1.40
 -10  10   2   -4.20    1.80
  10  10  -2    3.40    1.70
  10  10  -2    1.90    1.10
 -10  10   2    0.30    1.90
  10  10  -2    0.90    2.60
  10  10  -2    1.50    2.20
  10  10  -2   -0.60    2.10
 -10  10   2    1.20    1.10
  -8 -10   2   82.49    4.60
   8 -10  -2   84.09    4.10
   8 -10  -2   86.69    3.50
   8 -10  -2   82.89    4.80
  -8 -10   2   90.99    5.70
  -8 -10   2   82.99    4.10
   8 -10  -2   82.19    4.80
  -8 -10   2   88.29    5.00
   8  10  -2   85.79    5.00
   8  10  -2   78.19    5.30
   8  10  -2   83.09    4.40
  -8  10   2   83.29    3.60
   8  10  -2   81.19    4.10
  -8  10   2   80.39    4.40
  -8  10   2   80.19    4.60
  -8  10   2   79.99    3.50
   8  10  -2   87.29    4.90
   6 -10  -2  147.59    5.80
  -6 -10   2  153.68    5.70
  -6 -10   2  144.59    6.50
   6 -10  -2  141.29    5.50
   6 -10  -2  146.99    5.90
   6 -10  -2  139.29    4.60
  -6 -10   2  149.88    6.20
   6  10  -2  145.29    5.60
   6  10  -2  146.99    5.40
  -6  10   2  134.19    5.60
   6  10  -2  150.28    6.20
   6  10  -2  142.59    6.00
  -6  10   2  139.79    5.60
   6  10  -2  145.19    6.40
  -6  10   2  151.08    4.80
   6  10  -2  141.49    5.60
  -4 -10   2  114.79    4.40
  -4 -10   2  121.49    5.20
   4 -10  -2  122.19    4.90
   4 -10  -2  117.09    4.80
  -4 -10   2  122.69    5.60
   4 -10  -2  118.99    4.70
  -4 -10   2  120.89    4.50
  -4  10   2  113.09    4.40
  -4  10   2  119.59    4.30
  -4  10   2  118.19    4.60
   4  10  -2  114.19    4.50
  -4  10   2  118.39    3.90
   4  10  -2  116.99    5.30
   4  10  -2   98.19    5.20
   4  10  -2  115.49    5.00
   4  10  -2  116.89    5.30
   4  10  -2  116.79    4.60
  -2 -10   2  230.88    7.50
  -2 -10   2  209.18    8.20
  -2 -10   2  219.28    7.60
   2 -10  -2  223.58    6.00
   2 -10  -2  226.08    7.20
  -2 -10   2  232.88    6.70
   2 -10  -2  233.38    7.70
  -2  10   2  237.38    7.20
  -2  10   2  221.68    6.90
  -2  10   2  225.98    7.20
   2  10  -2  225.88    7.80
  -2  10   2  235.18    7.10
   2  10  -2  223.98    7.00
   2  10  -2  235.58    7.90
   2  10  -2  208.08    7.40
  -2  10   2  228.08    6.50
  -2  10   2  222.38    7.00
   2  10  -2  231.78    7.10
   2  10  -2  225.88    7.90
   0 -10   2   68.79    2.60
   0 -10  -2   70.09    3.50
   0 -10   2   61.79    5.70
   0 -10  -2   68.89    2.90
   0 -10   2   68.49    3.60
   0  10   2   66.99    3.10
   0  10   2   67.79    2.30
   0  10  -2   65.29    3.70
   0  10  -2   65.49    3.80
   0  10  -2   60.49    3.70
   0  10  -2   68.29    3.00
   0  10   2   64.19    3.10
   0  10   2   65.99    3.00
   0  10   2   66.49    2.80
   0  10  -2   67.29    3.00
   0  10  -2   69.89    3.50
   0  10   2   70.29    3.30
   0  10  -2   75.09    4.10
   0  10   2   66.09    2.80
   0  10   2   69.09    3.20
   2 -10   2  620.04   16.40
   2 -10   2  621.74   17.10
  -2 -10  -2  588.34   16.10
   2 -10   2  598.54   16.10
  -2 -10  -2  599.64   16.20
   2 -10   2  582.14   17.10
   2  10   2  611.94   15.70
   2  10   2  599.84   16.50
  -2  10  -2  590.54   16.30
   2  10   2  611.44   15.50
  -2  10  -2  602.24   17.10
   2  10   2  567.34   15.90
   2  10   2  613.64   16.20
  -2  10  -2  565.34   16.90
  -2  10  -2  603.04   15.90
   2  10   2  601.04   16.20
   2  10   2  620.04   16.30
  -2  10  -2  593.14   16.80
  -2  10  -2  610.64   16.00
   4 -10   2  831.42   22.40
  -4 -10  -2  864.31   22.50
   4 -10   2  839.02   23.40
   4 -10   2  848.72   25.30
   4 -10   2  830.62   22.20
  -4 -10  -2  864.71   22.80
   4  10   2  860.01   22.00
   4  10   2  872.91   22.80
  -4  10  -2  829.32   23.30
  -4  10  -2  859.41   22.20
  -4  10  -2  874.81   23.50
   4  10   2  862.41   23.00
   4  10   2  811.32   22.50
   4  10   2  841.42   22.30
   4  10   2  877.91   22.10
  -4  10  -2  864.91   23.20
  -4  10  -2  876.31   22.10
   6 -10   2  133.19    5.10
   6 -10   2  130.99    4.80
  -6 -10  -2  130.59    4.30
   6 -10   2  120.09    6.10
   6 -10   2  134.49    4.90
  -6 -10  -2  130.19    5.90
   6 -10   2  132.49    6.20
  -6 -10  -2  132.69    5.80
  -6 -10  -2  130.69    5.50
   6  10   2  121.29    5.70
   6  10   2  132.19    5.70
  -6  10  -2  128.39    6.40
   6  10   2  123.49    5.20
  -6  10  -2  128.19    4.70
   6  10   2  128.79    4.80
  -6  10  -2  131.89    5.90
  -6  10  -2  118.09    5.80
   6  10   2  129.29    5.20
   6  10   2  126.69    4.70
  -6  10  -2  123.09    4.70
   8 -10   2   22.50    2.70
   8 -10   2   20.60    3.10
   8 -10   2   18.80    3.00
  -8 -10  -2   27.80    3.60
  -8 -10  -2   24.30    3.10
   8 -10   2   23.70    2.60
  -8 -10  -2   21.30    2.90
   8 -10   2   21.60    2.60
  -8 -10  -2   23.50    2.30
  -8  10  -2   24.20    3.40
   8  10   2   23.50    2.60
   8  10   2   22.30    3.00
  -8  10  -2   22.60    2.30
  -8  10  -2   28.00    3.60
  -8  10  -2   26.20    2.40
   8  10   2   21.90    2.40
   8  10   2   23.60    2.90
   8  10   2   32.80    3.60
   8  10   2   23.40    3.10
  10 -10   2   29.20    4.30
  10 -10   2   23.90    3.30
 -10 -10  -2   29.70    3.00
  10 -10   2   28.40    3.30
 -10 -10  -2   28.30    4.00
  10 -10   2   25.00    3.90
 -10 -10  -2   31.10    3.80
  10 -10   2   24.90    3.20
 -10 -10  -2   23.10    3.60
  10  10   2   24.20    3.20
 -10  10  -2   25.10    2.80
  10  10   2   25.60    3.30
  10  10   2   24.00    3.50
  10  10   2   21.30    2.80
 -10  10  -2   22.90    3.90
  10  10   2   31.20    4.00
 -10  10  -2   24.70    3.30
 -11 -11   2   12.60    3.70
  11 -11  -2   12.60    2.40
  11 -11  -2   15.40    2.20
 -11 -11   2   18.80    2.70
 -11 -11   2   19.50    4.50
  11  11  -2   10.10    1.90
 -11  11   2   10.60    2.70
 -11  11   2   13.50    2.90
  11  11  -2   21.20    3.10
 -11  11   2   14.40    2.00
  11  11  -2   15.90    3.60
  11  11  -2   14.40    3.00
  11  11  -2   16.00    3.60
  -9 -11   2   39.90    5.50
  -9 -11   2   36.10    4.20
   9 -11  -2   37.00    4.20
   9 -11  -2   35.70    3.50
   9 -11  -2   39.50    3.30
  -9 -11   2   40.70    3.50
   9 -11  -2   35.60    4.50
  -9 -11   2   38.10    4.40
  -9  11   2   38.20    2.80
  -9  11   2   36.40    2.70
  -9  11   2   34.60    3.70
   9  11  -2   38.00    4.40
   9  11  -2   31.00    4.00
  -9  11   2   37.10    3.80
   9  11  -2   36.50    3.30
   9  11  -2   41.80    3.80
   9  11  -2   31.80    4.30
  -7 -11   2  208.58    8.30
   7 -11  -2  216.58    7.40
   7 -11  -2  216.38    6.40
  -7 -11   2  210.48    7.60
  -7 -11   2  218.88    8.70
   7 -11  -2  216.58    7.90
   7 -11  -2  203.98    7.80
  -7 -11   2  212.78    7.20
   7  11  -2  212.38    8.60
   7  11  -2  216.58    7.30
   7  11  -2  205.08    7.90
  -7  11   2  204.08    7.70
   7  11  -2  205.08    7.50
  -7  11   2  206.08    6.70
   7  11  -2  200.98    7.50
   7  11  -2  209.18    8.20
  -7  11   2  212.48    7.60
  -7  11   2  207.88    6.60
  -5 -11   2   21.50    2.60
   5 -11  -2   26.00    2.80
   5 -11  -2   21.40    2.70
   5 -11  -2   27.10    2.80
  -5 -11   2   19.80    2.90
  -5 -11   2   25.10    3.30
   5  11  -2   22.60    2.40
  -5  11   2   23.20    1.80
   5  11  -2   19.30    2.60
  -5  11   2   27.70    2.10
   5  11  -2   23.20    3.10
  -5  11   2   20.80    2.60
  -5  11   2   23.50    2.50
   5  11  -2   25.80    3.10
   5  11  -2   24.90    2.40
   5  11  -2   30.40    3.30
  -5  11   2   22.70    2.40
   3 -11  -2   55.99    3.50
  -3 -11   2   55.29    3.10
   3 -11  -2   52.59    3.20
  -3 -11   2   59.39    3.60
   3 -11  -2   49.90    3.30
  -3 -11   2   49.20    2.90
  -3 -11   2   60.39    3.80
   3  11  -2   50.49    3.00
  -3  11   2   56.89    3.10
  -3  11   2   55.19    2.50
   3  11  -2   56.39    3.00
   3  11  -2   47.00    3.80
   3  11  -2   46.80    4.20
  -3  11   2   49.60    3.00
   3  11  -2   58.69    3.60
   3  11  -2   49.40    3.60
  -3  11   2   56.79    3.00
   3  11  -2   51.19    3.70
   1 -11  -2   94.29    3.40
  -1 -11   2  100.89    3.70
   1 -11  -2   98.29    4.50
  -1 -11   2  100.59    5.20
  -1 -11   2  102.49    4.80
   1 -11  -2   99.39    4.70
  -1 -11   2  103.89    4.60
  -1  11   2  100.39    4.10
  -1  11   2   99.89    4.30
   1  11  -2   97.49    5.00
  -1  11   2  101.49    3.90
  -1  11   2   95.59    4.10
  -1  11   2   96.79    3.70
   1  11  -2   94.29    4.20
   1  11  -2   95.29    4.70
  -1  11   2  103.09    3.60
   1  11  -2   96.19    4.10
   1  11  -2   83.19    4.70
   1  11  -2  103.69    4.70
  -1 -11  -2    0.50    1.10
   1 -11   2    2.70    1.60
  -1 -11  -2    1.00    1.40
   1 -11   2    1.30    0.70
  -1 -11  -2    1.40    1.30
   1 -11   2    1.40    1.20
   1  11   2    0.30    1.00
  -1  11  -2    1.40    1.40
   1  11   2    2.90    1.00
   1  11   2    0.80    0.80
  -1  11  -2   -0.10    0.80
  -1  11  -2    0.20    0.80
   1  11   2    1.30    0.90
  -1  11  -2   -0.10    1.50
  -1  11  -2    0.20    0.90
   1  11   2    0.90    1.10
  -1  11  -2    1.80    1.40
  -1  11  -2    1.20    1.40
   1  11   2    1.40    1.10
   1  11   2    1.50    1.10
   1  11   2    1.50    0.60
  -3 -11  -2  311.37    9.60
   3 -11   2  305.27   10.50
   3 -11   2  323.67    9.40
   3 -11   2  313.17    9.60
   3 -11   2  312.77   10.40
   3 -11   2  311.57    8.20
  -3 -11  -2  307.77    9.40
   3  11   2  322.87    8.80
  -3  11  -2  318.67   10.20
  -3  11  -2  278.97   11.30
   3  11   2  310.87    9.80
   3  11   2  293.97    9.70
   3  11   2  293.17    9.40
   3  11   2  327.97    9.00
  -3  11  -2  329.47    9.20
  -3  11  -2  292.37    9.00
  -3  11  -2  304.27    9.50
  -3  11  -2  305.67   10.20
   3  11   2  316.27    9.30
   5 -11   2   46.00    3.90
   5 -11   2   41.30    3.00
   5 -11   2   42.30    2.90
  -5 -11  -2   46.20    3.70
   5 -11   2   38.00    3.90
   5 -11   2   42.10    2.80
  -5 -11  -2   46.20    3.50
  -5  11  -2   43.40    3.80
  -5  11  -2   40.20    2.50
  -5  11  -2   47.40    3.70
   5  11   2   42.00    2.70
   5  11   2   37.30    3.40
  -5  11  -2   39.40    4.00
   5  11   2   36.80    3.00
   5  11   2   43.50    3.40
  -5  11  -2   43.80    2.60
   5  11   2   43.80    3.10
  -7 -11  -2   93.09    5.40
   7 -11   2   92.69    5.80
  -7 -11  -2   91.99    5.10
  -7 -11  -2   88.69    3.60
   7 -11   2   91.69    5.60
  -7 -11  -2   87.09    5.20
   7 -11   2   82.89    3.90
   7 -11   2   86.29    4.20
   7 -11   2   82.69    4.40
   7  11   2   84.19    4.00
  -7  11  -2   89.59    5.70
   7  11   2   87.69    4.60
   7  11   2   75.39    4.80
  -7  11  -2   82.49    5.20
  -7  11  -2   85.09    3.90
  -7  11  -2   77.09    3.80
   7  11   2   89.19    4.50
  -7  11  -2   87.49    5.20
   7  11   2   77.79    4.90
   7  11   2   85.09    3.90
  -9 -11  -2   33.70    4.70
   9 -11   2   37.30    4.90
  -9 -11  -2   28.20    2.90
   9 -11   2   30.60    3.10
   9 -11   2   25.10    3.40
   9 -11   2   30.20    4.00
   9 -11   2   28.70    3.20
  -9 -11  -2   25.70    3.80
  -9 -11  -2   25.80    3.50
   9  11   2   30.60    3.90
   9  11   2   28.40    3.70
   9  11   2   27.90    3.00
  -9  11  -2   34.50    3.00
  -9  11  -2   34.10    4.10
   9  11   2   23.60    3.20
  -9  11  -2   38.70    5.20
   9  11   2   34.10    3.90
   9  11   2   34.80    3.20
 -10 -12   2    8.50    4.00
 -10 -12   2   11.30    3.30
  10 -12  -2    7.00    2.30
  10 -12  -2   12.30    2.10
 -10 -12   2    7.40    2.20
  10  12  -2   14.80    3.00
 -10  12   2    9.60    1.80
  10  12  -2    7.90    2.40
 -10  12   2   16.60    2.90
 -10  12   2   10.40    2.60
  10  12  -2   10.60    3.40
  10  12  -2   14.60    3.90
 -10  12   2   10.00    1.60
  -8 -12   2   22.20    3.00
   8 -12  -2   22.40    2.70
  -8 -12   2   23.40    3.40
   8 -12  -2   28.30    2.70
   8 -12  -2   26.10    3.30
   8 -12  -2   22.10    3.10
  -8 -12   2   22.60    3.10
  -8 -12   2   25.10    4.00
   8  12  -2   28.70    3.30
  -8  12   2   24.20    2.40
   8  12  -2   25.90    3.50
  -8  12   2   22.10    2.30
   8  12  -2   28.90    3.90
   8  12  -2   23.20    2.90
   8  12  -2   24.80    3.50
   8  12  -2   28.40    4.20
  -8  12   2   21.90    2.80
  -8  12   2   27.20    3.40
  -8  12   2   26.10    3.50
   6 -12  -2   14.10    2.40
  -6 -12   2   15.70    2.20
  -6 -12   2   15.90    2.90
  -6 -12   2   11.90    2.90
   6 -12  -2   14.40    2.20
   6 -12  -2   20.60    2.70
  -6 -12   2   18.80    2.40
   6  12  -2   15.60    2.70
  -6  12   2   16.30    1.90
  -6  12   2   22.50    2.10
   6  12  -2   15.90    2.20
  -6  12   2   13.50    2.20
   6  12  -2   20.60    2.80
   6  12  -2   12.70    2.70
   6  12  -2   14.20    2.00
   6  12  -2   17.50    2.20
  -6  12   2   13.10    2.00
  -6  12   2   16.10    2.10
  -4 -12   2    0.40    1.30
  -4 -12   2    2.20    2.00
   4 -12  -2   -0.30    1.40
  -4 -12   2    1.30    1.10
  -4 -12   2    0.80    1.50
   4 -12  -2    1.00    1.60
   4 -12  -2    0.40    1.40
   4  12  -2   -0.30    1.20
   4  12  -2    0.40    1.80
   4  12  -2    1.70    1.20
  -4  12   2    3.50    1.10
  -4  12   2    0.70    0.80
  -4  12   2    0.40    1.20
   4  12  -2    0.20    1.10
   4  12  -2   -2.10    1.70
  -4  12   2   -0.20    1.20
  -4  12   2    2.00    1.30
   4  12  -2    0.90    1.70
   4  12  -2    2.30    1.70
   2 -12  -2  298.97    9.50
   2 -12  -2  289.17    7.80
  -2 -12   2  297.37    9.70
  -2 -12   2  304.57   10.00
  -2 -12   2  287.27   10.60
  -2 -12   2  297.47    8.70
   2 -12  -2  304.47    9.70
  -2  12   2  282.37    8.90
   2  12  -2  289.37    9.00
  -2  12   2  306.87    8.80
   2  12  -2  279.47    8.90
   2  12  -2  300.77    9.70
  -2  12   2  299.77    9.00
   2  12  -2  298.47   10.00
   2  12  -2  304.67    9.10
  -2  12   2  288.67    9.20
  -2  12   2  285.47    8.40
   2  12  -2  301.77   10.20
  -2  12   2  294.17    9.30
  -2  12   2  271.47    9.10
   2  12  -2  293.57   10.00
   0 -12  -2  123.79    5.80
   0 -12  -2  137.09    5.80
   0 -12  -2  127.89    4.70
   0 -12   2  126.19    5.60
   0 -12   2  139.89    6.40
   0 -12   2  140.79    4.50
   0  12  -2  134.69    6.00
   0  12  -2  134.89    5.00
   0  12  -2  130.19    4.90
   0  12  -2  139.59    5.30
   0  12   2  135.09    4.70
   0  12   2  135.29    4.80
   0  12   2  130.59    5.20
   0  12  -2  121.69    6.00
   0  12  -2  138.29    5.80
   0  12   2  134.19    5.00
   0  12   2  129.89    5.20
   0  12  -2  125.39    5.90
   0  12   2  136.49    5.20
   2 -12   2   25.40    1.70
  -2 -12  -2   29.00    2.80
   2 -12   2   28.60    3.50
   2 -12   2   24.90    2.90
   2 -12   2   23.80    2.70
  -2 -12  -2   30.70    2.90
   2  12   2   26.10    2.10
  -2  12  -2   21.90    2.20
   2  12   2   27.60    1.80
   2  12   2   26.30    2.40
   2  12   2   29.90    2.30
  -2  12  -2   23.50    2.60
  -2  12  -2   27.90    3.50
  -2  12  -2   27.10    3.60
  -2  12  -2   27.50    2.30
  -2  12  -2   27.50    3.30
  -2  12  -2   34.30    3.40
   2  12   2   22.30    2.70
   2  12   2   25.90    2.60
   2  12   2   27.60    2.60
   2  12   2   26.60    2.70
   4 -12   2   23.90    3.60
  -4 -12  -2   19.80    2.40
   4 -12   2   16.40    2.60
   4 -12   2   25.60    2.80
  -4 -12  -2   23.20    3.30
   4 -12   2   18.20    2.10
   4 -12   2   20.30    1.40
  -4  12  -2   23.10    2.20
   4  12   2   17.80    2.30
  -4  12  -2   20.00    2.10
  -4  12  -2   17.10    2.60
   4  12   2   25.00    2.60
  -4  12  -2   21.50    3.00
  -4  12  -2   19.90    3.10
   4  12   2   18.30    2.10
   4  12   2   19.90    2.40
   4  12   2   19.40    2.00
  -4  12  -2   22.40    2.60
   4  12   2   19.40    2.60
   4  12   2   21.50    2.80
   6 -12   2   23.90    2.90
   6 -12   2   21.50    2.80
  -6 -12  -2   23.40    2.90
   6 -12   2   16.90    2.90
  -6 -12  -2   20.80    3.10
  -6 -12  -2   18.10    2.80
   6 -12   2   18.80    3.10
   6 -12   2   19.80    2.70
  -6  12  -2   29.20    4.20
   6  12   2   15.40    2.40
  -6  12  -2   20.60    2.90
   6  12   2   24.90    2.50
   6  12   2   21.70    2.90
  -6  12  -2   21.00    2.30
   6  12   2   20.00    2.80
   6  12   2   20.20    2.30
  -6  12  -2   20.80    2.20
   6  12   2   19.80    2.90
  -6  12  -2   18.90    2.90
  -8 -12  -2   22.20    3.50
   8 -12   2   16.30    3.40
   8 -12   2   20.80    3.30
  -8 -12  -2   20.50    3.30
   8 -12   2   16.40    2.50
  -8 -12  -2   23.30    3.60
  -8 -12  -2   19.40    2.10
   8 -12   2   21.10    2.90
   8 -12   2   26.90    3.30
   8  12   2   19.50    2.70
   8  12   2   16.90    2.80
   8  12   2   18.20    2.20
  -8  12  -2   20.00    2.60
   8  12   2   19.10    2.30
  -8  12  -2   18.80    3.50
  -8  12  -2   18.90    3.10
   8  12   2   24.60    3.50
   8  12   2   20.30    2.90
  -8  12  -2   21.90    2.60
  -8  12  -2   26.90    3.70
  -9 -13   2   36.50    4.10
  -9 -13   2   42.60    5.40
   9 -13  -2   33.20    3.80
  -9 -13   2   33.00    4.30
  -9 -13   2   36.80    5.40
   9 -13  -2   33.40    3.20
   9  13  -2   28.20    4.80
  -9  13   2   36.50    4.10
  -9  13   2   33.30    3.00
  -9  13   2   34.20    3.00
  -9  13   2   34.80    4.30
  -9  13   2   35.50    4.50
   9  13  -2   44.60    4.40
   9  13  -2   30.60    4.10
   9  13  -2   34.50    4.80
   9  13  -2   33.00    3.70
  -7 -13   2   12.40    2.20
  -7 -13   2   15.40    3.50
  -7 -13   2   15.20    2.60
   7 -13  -2   12.10    2.40
  -7 -13   2   17.30    3.30
   7 -13  -2   14.80    2.90
   7 -13  -2   15.90    2.70
  -7  13   2   17.50    2.00
   7  13  -2   10.70    2.80
  -7  13   2   14.00    1.80
  -7  13   2   15.30    2.50
   7  13  -2   21.30    2.70
  -7  13   2   16.40    2.50
  -7  13   2   17.50    2.40
   7  13  -2   20.30    2.50
   7  13  -2   16.00    2.80
   7  13  -2   12.80    2.90
   7  13  -2   16.70    2.50
  -5 -13   2    6.40    1.90
   5 -13  -2    8.80    2.10
   5 -13  -2    7.80    2.10
  -5 -13   2    4.90    2.40
  -5 -13   2    6.80    1.80
   5 -13  -2    7.70    2.20
   5  13  -2    7.50    1.70
   5  13  -2    5.40    1.40
  -5  13   2    5.40    1.80
   5  13  -2    4.50    2.30
   5  13  -2    9.40    1.80
  -5  13   2    6.00    1.20
  -5  13   2    7.50    1.30
   5  13  -2    3.30    2.40
  -5  13   2    8.10    1.90
   5  13  -2   10.70    2.40
  -5  13   2    9.40    2.00
   5  13  -2    8.30    2.30
  -3 -13   2   50.59    3.30
  -3 -13   2   52.39    4.00
   3 -13  -2   50.99    4.00
  -3 -13   2   53.59    4.30
   3 -13  -2   55.39    4.10
   3  13  -2   45.40    3.20
  -3  13   2   48.30    3.10
   3  13  -2   51.29    3.30
  -3  13   2   40.30    3.30
   3  13  -2   49.90    3.30
   3  13  -2   48.90    4.30
  -3  13   2   48.70    3.20
   3  13  -2   50.39    4.00
   3  13  -2   49.30    4.10
   3  13  -2   54.59    4.10
  -3  13   2   48.30    2.60
  -3  13   2   48.50    3.10
  -3  13   2   47.80    3.30
   1 -13  -2   12.80    2.20
  -1 -13   2   13.50    2.30
   1 -13  -2   13.40    1.80
  -1 -13   2   16.00    2.10
  -1 -13   2   13.80    2.90
   1 -13  -2   14.40    2.40
   1  13  -2   16.50    2.10
   1  13  -2   18.40    3.00
   1  13  -2   13.90    2.40
  -1  13   2   14.50    2.00
  -1  13   2   16.80    2.30
  -1  13   2   12.30    2.00
   1  13  -2   15.90    2.60
  -1  13   2   15.00    2.20
   1  13  -2   12.50    1.70
  -1  13   2   12.40    1.70
  -1  13   2   16.00    2.30
  -1  13   2   14.00    1.80
   1  13  -2   13.40    1.80
   1  13  -2   14.10    2.60
  -1 -13  -2    0.40    1.90
   1 -13   2    1.80    1.50
   1 -13   2   -0.70    0.90
  -1 -13  -2    0.20    1.30
   1 -13   2    2.00    2.00
   1  13   2   -0.90    1.20
  -1  13  -2    0.30    1.00
  -1  13  -2    2.30    1.60
   1  13   2    0.20    1.30
   1  13   2   -0.90    1.80
   1  13   2    1.10    1.10
  -1  13  -2    1.40    1.80
  -1  13  -2    0.80    1.20
   1  13   2    1.10    1.10
   1  13   2    0.70    1.20
  -1  13  -2    1.50    1.00
   1  13   2   -1.00    1.20
  -1  13  -2   -1.60    1.60
   3 -13   2   79.19    3.00
   3 -13   2   88.99    5.20
  -3 -13  -2   80.99    4.50
   3 -13   2   75.99    5.20
   3 -13   2   70.79    4.40
   3 -13   2   80.49    4.20
  -3  13  -2   76.59    3.70
  -3  13  -2   83.79    4.90
  -3  13  -2   80.69    5.70
   3  13   2   76.79    3.80
  -3  13  -2   75.89    3.60
  -3  13  -2   72.89    5.20
   3  13   2   81.29    3.20
  -3  13  -2   68.89    4.10
   3  13   2   80.49    4.30
   3  13   2   69.29    4.00
   3  13   2   81.89    4.00
   3  13   2   77.29    3.60
  -3  13  -2   76.39    4.90
   3  13   2   73.49    4.30
  -5 -13  -2  139.99    6.30
   5 -13   2  140.19    6.90
   5 -13   2  139.09    4.20
  -5 -13  -2  146.59    6.70
   5 -13   2  143.89    6.20
   5 -13   2  133.79    6.90
   5 -13   2  141.69    5.20
   5 -13   2  145.09    5.80
   5  13   2  124.69    6.10
  -5  13  -2  122.19    6.90
  -5  13  -2  142.89    6.70
   5  13   2  139.19    6.20
   5  13   2  123.39    5.80
  -5  13  -2  139.29    5.30
  -5  13  -2  135.89    5.90
   5  13   2  149.39    5.90
  -5  13  -2  120.59    5.20
  -5  13  -2  142.79    6.80
   5  13   2  140.19    5.30
   5  13   2  148.69    6.20
   5  13   2  135.89    5.00
  -7 -13  -2   42.30    5.30
  -7 -13  -2   48.00    5.00
   7 -13   2   45.20    4.10
   7 -13   2   48.10    5.30
   7 -13   2   42.20    5.50
  -7 -13  -2   43.20    5.30
   7 -13   2   51.99    3.40
   7 -13   2   49.99    4.00
  -7  13  -2   46.40    4.60
   7  13   2   44.80    3.90
   7  13   2   48.90    4.10
   7  13   2   47.50    3.40
  -7  13  -2   45.60    3.20
  -7  13  -2   43.30    5.40
  -7  13  -2   46.40    3.30
   7  13   2   45.00    4.40
   7  13   2   46.00    4.50
   7  13   2   41.80    3.20
  -7  13  -2   55.99    4.70
  -8 -14   2   32.10    4.10
  -8 -14   2   36.10    4.60
  -8 -14   2   33.10    4.10
   8 -14  -2   24.40    3.30
  -8 -14   2   26.70    4.90
  -8  14   2   32.00    4.40
  -8  14   2   28.20    4.10
  -8  14   2   33.40    3.00
   8  14  -2   32.90    4.00
   8  14  -2   32.90    4.00
   8  14  -2   35.20    4.30
  -8  14   2   32.30    2.90
   8  14  -2   23.60    3.10
   8  14  -2   27.50    3.90
  -8  14   2   29.80    4.10
  -6 -14   2   28.60    3.50
   6 -14  -2   26.50    3.50
   6 -14  -2   25.20    3.20
  -6 -14   2   25.60    3.70
   6 -14  -2   38.20    4.40
  -6 -14   2   30.60    3.40
   6  14  -2   23.30    3.20
  -6  14   2   32.10    2.90
   6  14  -2   30.30    3.60
   6  14  -2   32.80    4.50
   6  14  -2   34.10    4.60
  -6  14   2   27.00    3.60
  -6  14   2   29.50    3.60
   6  14  -2   34.80    5.00
   6  14  -2   25.00    3.30
   6  14  -2   28.80    3.70
  -6  14   2   27.80    2.50
  -6  14   2   27.50    3.50
  -4 -14   2    7.60    2.90
   4 -14  -2   13.80    2.60
  -4 -14   2    5.10    2.50
  -4 -14   2   10.50    2.10
   4 -14  -2   11.10    2.60
  -4  14   2    8.20    2.00
  -4  14   2    9.20    1.50
   4  14  -2   10.00    2.30
   4  14  -2   10.30    2.70
  -4  14   2   10.60    2.00
  -4  14   2   11.20    2.50
  -4  14   2    9.40    2.10
   4  14  -2   11.90    2.10
   4  14  -2    3.70    2.20
   4  14  -2    8.30    2.60
   4  14  -2   12.40    2.10
  -4  14   2    8.70    1.70
  -4  14   2    9.10    1.80
   4  14  -2    9.00    2.00
   2 -14  -2   58.69    4.40
   2 -14  -2   55.09    2.30
  -2 -14   2   56.69    4.50
   2 -14  -2   53.49    4.70
  -2 -14   2   58.79    3.50
  -2 -14   2   47.70    4.90
  -2  14   2   54.19    3.60
   2  14  -2   53.29    3.60
   2  14  -2   58.69    4.50
  -2  14   2   49.60    2.90
  -2  14   2   57.09    3.50
  -2  14   2   53.89    3.30
  -2  14   2   55.49    3.70
   2  14  -2   58.09    3.50
   2  14  -2   47.90    4.60
   2  14  -2   62.99    4.70
   2  14  -2   60.69    4.40
   2  14  -2   54.09    3.50
  -2  14   2   57.99    4.00
  -2  14   2   53.59    3.80
   0 -14  -2    9.10    2.30
   0 -14  -2   12.70    2.60
   0 -14   2    9.00    1.50
   0 -14  -2    8.50    1.50
   0 -14   2    9.80    2.50
   0 -14   2   10.20    3.10
   0  14   2   11.20    2.10
   0  14  -2    6.40    1.40
   0  14   2   10.80    2.00
   0  14  -2    9.00    1.80
   0  14   2   12.60    1.80
   0  14   2   10.80    1.90
   0  14   2   11.80    1.70
   0  14  -2    9.40    2.30
   0  14  -2    8.10    2.20
   0  14   2   10.80    2.00
   0  14  -2    8.30    1.50
   0  14  -2   10.70    2.40
   0  14   2   10.60    1.80
   0  14  -2    9.50    2.60
  -2 -14  -2   31.50    3.50
  -2 -14  -2   28.60    3.70
   2 -14   2   27.10    2.20
   2 -14   2   25.50    3.10
   2 -14   2   25.60    3.60
   2  14   2   26.20    3.40
  -2  14  -2   29.40    2.80
   2  14   2   26.00    2.90
  -2  14  -2   24.10    3.20
   2  14   2   28.30    2.70
  -2  14  -2   33.10    3.30
  -2  14  -2   26.40    3.70
   2  14   2   28.90    2.60
   2  14   2   29.10    3.00
  -2  14  -2   26.90    2.60
  -2  14  -2   22.90    3.10
   2  14   2   32.80    3.20
  -2  14  -2   21.20    3.30
   2  14   2   24.60    3.20
  -4 -14  -2   39.70    4.20
   4 -14   2   41.40    3.80
   4 -14   2   38.40    2.20
   4 -14   2   40.80    4.80
   4 -14   2   38.00    4.00
  -4 -14  -2   48.10    4.40
   4 -14   2   29.00    3.80
   4  14   2   39.20    2.60
   4  14   2   40.70    3.50
   4  14   2   38.20    3.10
   4  14   2   39.90    3.20
  -4  14  -2   39.40    4.20
  -4  14  -2   39.00    3.00
  -4  14  -2   38.70    3.60
   4  14   2   35.10    4.40
   4  14   2   38.00    3.70
   4  14   2   36.40    3.50
   4  14   2   38.50    3.70
  -4  14  -2   37.50    2.90
  -4  14  -2   42.10    4.90
  -4  14  -2   45.20    4.50
   6 -14   2   46.70    4.60
  -6 -14  -2   54.79    5.20
   6 -14   2   48.50    2.20
  -6 -14  -2   52.79    5.40
   6 -14   2   52.89    3.40
   6 -14   2   49.90    5.60
   6 -14   2   47.00    4.30
   6 -14   2   47.60    5.50
  -6  14  -2   41.20    5.40
  -6  14  -2   46.70    4.90
   6  14   2   43.50    4.40
   6  14   2   46.40    4.20
   6  14   2   43.10    3.40
  -6  14  -2   50.59    5.30
   6  14   2   52.49    4.60
   6  14   2   62.49    4.30
   6  14   2   44.20    4.10
  -6  14  -2   47.10    3.30
  -6  14  -2   42.60    3.30
   6  14   2   50.49    3.20
  -6  14  -2   45.50    4.30
  -5 -15   2   11.50    3.30
  -5 -15   2    8.40    2.50
   5 -15  -2   10.60    3.10
   5 -15  -2    9.00    2.70
   5  15  -2    8.90    2.90
  -5  15   2   10.40    1.80
   5  15  -2   16.00    3.30
  -5  15   2    8.10    2.20
  -5  15   2   11.50    2.30
  -5  15   2   10.50    2.20
  -5  15   2    7.10    2.20
   5  15  -2   10.80    2.90
   5  15  -2    8.10    2.10
   5  15  -2   13.20    3.10
  -5  15   2   11.00    2.80
  -5  15   2   14.70    1.90
   5  15  -2   10.90    2.20
   5  15  -2    6.70    2.00
  -3 -15   2   27.50    3.70
  -3 -15   2   30.20    4.00
  -3 -15   2   27.00    3.50
   3 -15  -2   26.30    3.50
   3 -15  -2   31.80    4.50
  -3  15   2   28.60    2.50
   3  15  -2   21.00    3.10
  -3  15   2   29.00    3.50
   3  15  -2   26.80    3.50
  -3  15   2   24.70    3.30
   3  15  -2   31.90    4.80
  -3  15   2   31.30    3.00
   3  15  -2   27.30    3.20
   3  15  -2   23.70    2.80
  -3  15   2   34.60    3.60
   3  15  -2   27.00    3.20
   3  15  -2   30.90    4.20
  -3  15   2   31.00    3.70
  -3  15   2   24.00    3.00
  -1 -15   2   22.50    4.10
   1 -15  -2   24.70    3.50
   1 -15  -2   15.90    2.90
  -1 -15   2   26.20    3.10
  -1 -15   2   27.70    3.50
   1 -15  -2   24.80    2.60
   1  15  -2   29.30    4.10
  -1  15   2   24.40    2.80
  -1  15   2   24.70    3.40
   1  15  -2   24.20    3.50
  -1  15   2   25.80    2.50
   1  15  -2   19.40    3.10
   1  15  -2   19.80    2.40
   1  15  -2   21.60    2.40
   1  15  -2   26.40    3.20
  -1  15   2   20.10    2.70
   1  15  -2   20.20    3.30
  -1  15   2   24.90    2.70
  -1  15   2   24.20    2.90
  -1  15   2   24.90    3.60
  -1 -15  -2   34.70    4.30
   1 -15   2   46.10    5.40
   1 -15   2   37.20    4.50
  -1 -15  -2   41.60    3.80
   1 -15   2   39.60    3.00
   1  15   2   38.90    3.50
  -1  15  -2   44.60    4.90
   1  15   2   40.50    3.80
   1  15   2   46.10    4.00
  -1  15  -2   39.10    4.50
   1  15   2   39.90    3.40
  -1  15  -2   45.30    4.60
   1  15   2   40.50    3.30
   1  15   2   42.00    3.10
  -1  15  -2   45.10    3.20
  -1  15  -2   33.30    3.10
  -1  15  -2   41.50    4.40
   1  15   2   40.10    3.80
  -1  15  -2   39.00    3.70
  -3 -15  -2   15.70    3.20
   3 -15   2   15.30    2.20
   3 -15   2   11.90    2.60
  -3 -15  -2   16.10    2.80
   3 -15   2   15.70    3.50
   3  15   2   11.70    1.90
   3  15   2   14.70    2.10
   3  15   2   18.00    2.50
   3  15   2   12.00    2.90
  -3  15  -2   12.60    2.40
  -3  15  -2   16.50    2.90
  -3  15  -2   15.60    3.10
  -3  15  -2   15.00    2.00
  -3  15  -2   15.70    2.80
  -3  15  -2   11.30    1.70
  -3  15  -2   14.30    3.30
   3  15   2   13.40    2.40
   3  15   2   12.80    2.50
   3  15   2   11.10    2.40
   5 -15   2    5.60    1.90
   5 -15   2    5.50    2.40
  -5 -15  -2    2.80    2.60
   5 -15   2    5.20    1.20
   5 -15   2    5.00    3.20
  -5 -15  -2    3.20    3.00
   5  15   2    5.30    2.20
  -5  15  -2    5.30    1.70
  -5  15  -2    5.60    2.70
   5  15   2    7.30    2.20
  -5  15  -2   10.70    2.80
   5  15   2    8.00    2.00
  -5  15  -2    4.40    1.60
  -5  15  -2    3.70    2.90
   5  15   2    3.20    2.10
   5  15   2    4.90    1.70
   5  15   2    4.00    2.00
   5  15   2    8.40    1.50
  -5  15  -2    2.80    2.60
   5  15   2    4.90    2.30
  -4 -16   2   20.70    3.90
  -4 -16   2   18.10    3.20
   4 -16  -2   19.10    4.00
  -4  16   2   19.30    2.50
   4  16  -2   13.70    3.40
   4  16  -2   19.30    2.80
   4  16  -2   14.30    3.40
   4  16  -2   15.30    2.50
   4  16  -2   21.70    3.40
  -4  16   2   16.40    2.00
  -4  16   2   19.30    2.60
  -4  16   2   14.10    2.70
  -4  16   2   17.10    2.70
  -4  16   2   18.20    2.80
   4  16  -2   19.80    3.60
   2 -16  -2   35.20    4.40
  -2 -16   2   31.10    3.20
  -2 -16   2   34.00    4.20
   2 -16  -2   30.70    5.40
   2  16  -2   37.70    4.40
  -2  16   2   40.30    4.10
  -2  16   2   37.10    3.60
  -2  16   2   32.00    3.50
   2  16  -2   36.80    4.70
  -2  16   2   33.30    3.90
   2  16  -2   25.70    3.50
   2  16  -2   32.90    3.80
  -2  16   2   30.70    2.90
   2  16  -2   34.50    4.80
   2  16  -2   38.00    3.30
  -2  16   2   34.80    3.40
   2  16  -2   36.10    4.70
  -2  16   2   39.90    5.20
   0 -16   2   28.70    3.60
   0 -16   2   27.90    4.10
   0 -16  -2   31.30    3.60
   0 -16  -2   44.40    6.30
   0  16   2   38.90    3.60
   0  16  -2   26.00    2.90
   0  16   2   32.60    3.90
   0  16   2   32.60    3.40
   0  16  -2   35.10    4.10
   0  16   2   32.90    3.10
   0  16  -2   35.00    4.60
   0  16   2   38.50    3.50
   0  16  -2   34.30    4.00
   0  16   2   27.90    3.90
   0  16  -2   29.30    3.30
   0  16  -2   38.20    5.00
   0  16  -2   42.10    4.90
   0  16   2   35.20    4.20
  -2 -16  -2    6.60    2.50
   2 -16   2    5.40    1.70
   2  16   2    4.40    2.10
   2  16   2    4.30    2.00
   2  16   2    7.90    1.90
  -2  16  -2    1.50    2.70
  -2  16  -2    6.20    1.60
  -2  16  -2    4.50    2.20
   2  16   2    3.30    1.60
   2  16   2    8.30    2.10
   2  16   2    6.90    2.50
  -2  16  -2    5.10    1.70
  -2  16  -2   10.50    3.10
  -2  16  -2    7.10    2.80
  -2  16  -2    5.90    2.90
   2  16   2    4.70    2.30
  14   0  -3    2.40    2.50
  14   0  -3    0.30    1.40
 -14   0   3   -1.30    2.20
  14   0  -3   -0.60    2.60
 -14   0   3   -2.30    1.40
 -14   0   3    0.90    2.70
 -14   0   3   -4.00    2.00
  14   0  -3   -0.20    1.20
  14   0  -3    0.90    1.30
  12   0  -3    2.20    2.00
  12   0  -3    0.20    1.00
  12   0  -3    1.10    2.00
 -12   0   3    1.60    1.40
  12   0  -3   -1.00    0.90
 -12   0   3    1.50    1.20
  12   0  -3    0.10    0.90
 -12   0   3   -0.60    2.10
 -12   0   3   -0.10    1.70
  10   0  -3   -1.00    0.60
  10   0  -3    0.40    0.80
 -10   0   3    0.70    0.80
 -10   0   3   -0.10    1.00
 -10   0   3    1.70    1.30
 -10   0   3    0.40    1.40
  10   0  -3   -0.80    0.70
  10   0  -3    0.50    1.30
  10   0  -3    0.70    1.40
  -8   0   3   -0.70    0.50
   8   0  -3   -0.80    0.50
   8   0  -3   -0.30    0.60
  -8   0   3    0.60    0.90
   8   0  -3   -0.60    0.90
   8   0  -3   -0.60    0.40
   8   0  -3   -0.30    0.90
  -8   0   3    0.00    0.70
  -8   0   3    0.70    1.00
   6   0  -3    0.40    0.50
   6   0  -3   -0.90    0.60
  -6   0   3   -0.30    0.50
  -6   0   3    0.50    0.70
   6   0  -3   -0.30    0.30
  -6   0   3    0.20    0.70
  -6   0   3    0.20    0.50
   6   0  -3   -0.60    0.70
   4   0  -3    0.50    0.30
  -4   0   3    0.80    0.50
  -4   0   3    0.50    0.50
  -4   0   3    0.00    0.30
   4   0  -3    0.70    0.50
   4   0  -3    0.30    0.10
   4   0  -3    0.50    0.50
  -4   0   3    1.00    0.40
   2   0  -3    0.30    0.20
  -2   0   3    0.10    0.20
   2   0  -3    0.10    0.30
  -2   0   3    0.70    0.40
   2   0  -3   -0.10    0.40
  -2   0   3    0.00    0.30
   2   0  -3    0.50    0.30
  -2   0   3    0.30    0.30
   0   0  -3    0.40    0.10
   0   0   3    0.10    0.30
   0   0   3    0.30    0.30
   0   0  -3    0.50    0.30
   0   0  -3   -0.10    0.30
   0   0  -3    0.30    0.40
   0   0   3    0.10    0.20
   2   0   3   -0.90    0.40
   2   0   3    0.30    0.50
   2   0   3    0.50    0.60
   2   0   3    0.30    0.30
  -2   0  -3    0.40    0.20
  -2   0  -3   -0.10    0.40
  -4   0  -3    0.00    0.60
  -4   0  -3   -0.50    0.60
   4   0   3    0.00    0.60
  -4   0  -3    0.10    0.30
   4   0   3   -0.20    0.70
   4   0   3    0.00    0.60
  -4   0  -3    0.10    0.80
   4   0   3    0.00    0.40
   6   0   3    1.50    0.80
   6   0   3    1.20    0.90
  -6   0  -3    0.00    0.90
  -6   0  -3    0.80    0.90
  -6   0  -3   -0.20    0.50
   6   0   3    0.50    0.70
  -6   0  -3   -0.50    0.80
  -8   0  -3   -0.20    0.70
  -8   0  -3    0.50    1.20
  -8   0  -3    0.40    1.30
   8   0   3   -0.50    0.80
   8   0   3   -0.20    1.10
   8   0   3    0.20    1.20
   8   0   3   -1.60    1.20
  -8   0  -3   -1.00    1.30
 -10   0  -3   -0.50    1.70
  10   0   3    1.70    1.60
 -10   0  -3   -1.60    0.90
  10   0   3    1.00    1.70
  10   0   3    0.00    0.90
 -10   0  -3    0.60    1.90
 -10   0  -3    1.00    1.70
  10   0   3    0.10    2.40
  12   0   3   -0.80    1.30
 -12   0  -3    1.80    3.10
 -12   0  -3   -0.60    2.40
  12   0   3    2.80    2.40
 -12   0  -3   -1.90    2.10
  12   0   3    2.50    2.50
  12   0   3    0.30    1.70
 -12   0  -3    0.60    1.30
  13  -1  -3   18.20    2.50
  13  -1  -3   21.90    3.40
 -13  -1   3   17.40    3.30
 -13  -1   3   15.60    2.60
  13  -1  -3   19.90    2.20
  13  -1  -3   17.80    2.10
 -13  -1   3   14.80    2.60
 -13  -1   3   23.10    2.60
  13  -1  -3   20.10    4.10
  13   1  -3   17.70    2.20
  13   1  -3   22.00    3.50
  13   1  -3   13.10    2.80
  13   1  -3   18.50    2.30
 -13   1   3   16.90    2.80
  13   1  -3   21.10    2.60
 -13   1   3   18.80    2.90
 -13   1   3   13.50    1.80
 -13   1   3   20.50    2.60
 -11  -1   3   11.40    2.00
  11  -1  -3   12.70    1.40
 -11  -1   3   12.10    1.60
  11  -1  -3   12.80    2.20
  11  -1  -3   13.00    1.60
 -11  -1   3   15.50    2.70
 -11  -1   3   10.00    1.90
  11  -1  -3   14.50    2.40
  11  -1  -3   10.90    1.40
 -11   1   3    8.60    1.90
  11   1  -3   14.30    2.40
  11   1  -3   12.80    1.50
 -11   1   3   13.80    2.20
  11   1  -3   14.90    2.00
  11   1  -3   10.00    1.60
  11   1  -3   16.00    2.60
 -11   1   3   10.70    1.50
 -11   1   3   11.70    2.10
   9  -1  -3  229.58    6.50
   9  -1  -3  235.98    7.90
   9  -1  -3  222.38    7.70
  -9  -1   3  233.28    7.30
  -9  -1   3  218.18    7.60
   9  -1  -3  228.58    6.70
   9  -1  -3  219.98    6.30
  -9  -1   3  226.28    7.00
  -9  -1   3  224.88    7.80
  -9   1   3  221.48    7.50
   9   1  -3  220.68    7.70
  -9   1   3  234.98    7.80
   9   1  -3  228.38    7.90
  -9   1   3  246.78    7.00
   9   1  -3  237.28    6.90
  -9   1   3  232.98    7.10
   9   1  -3  238.28    6.70
  -7  -1   3  560.34   14.40
   7  -1  -3  539.05   14.00
   7  -1  -3  540.55   14.90
  -7  -1   3  548.55   14.40
  -7  -1   3  559.74   14.90
  -7  -1   3  549.45   15.00
   7  -1  -3  517.65   13.70
   7  -1  -3  521.35   14.80
   7   1  -3  564.64   15.00
   7   1  -3  561.34   14.20
  -7   1   3  551.44   14.30
   7   1  -3  507.45   14.90
  -7   1   3  575.44   14.90
  -7   1   3  544.25   14.20
  -7   1   3  569.14   15.00
  -5  -1   3  575.84   15.30
   5  -1  -3  582.34   15.30
   5  -1  -3  553.74   14.30
  -5  -1   3  578.34   15.40
  -5  -1   3  567.64   14.80
   5  -1  -3  560.24   14.60
   5  -1  -3  590.34   15.20
  -5  -1   3  615.74   15.00
   5   1  -3  562.04   15.30
  -5   1   3  591.14   15.30
  -5   1   3  605.24   14.80
  -5   1   3  619.74   15.20
   5   1  -3  575.44   14.80
  -5   1   3  573.04   14.70
   5   1  -3  604.84   15.50
  -3  -1   3 1316.17   31.30
  -3  -1   3 1271.67   31.60
   3  -1  -3 1307.97   31.30
   3  -1  -3 1292.47   31.40
   3  -1  -3 1245.58   31.30
   3  -1  -3 1258.57   31.40
  -3  -1   3 1275.57   31.50
   3  -1  -3 1272.17   31.00
  -3   1   3 1267.77   31.40
  -3   1   3 1310.77   31.10
   3   1  -3 1274.77   31.60
  -3   1   3 1267.57   31.10
   3   1  -3 1237.28   31.50
  -3   1   3 1253.67   31.30
   3   1  -3 1258.47   31.40
   3   1  -3 1255.77   31.30
  -1  -1   3 2546.85   62.59
  -1  -1   3 2553.84   63.79
   1  -1  -3 2626.44   62.79
  -1  -1   3 2503.05   62.99
  -1  -1   3 2564.04   62.59
  -1  -1   3 2504.05   62.79
   1  -1  -3 2629.04   62.99
  -1   1   3 2547.25   62.09
   1   1  -3 2443.86   63.39
   1   1  -3 2587.34   63.79
   1   1  -3 2549.74   63.29
   1   1  -3 2561.34   63.29
  -1   1   3 2600.94   62.79
  -1   1   3 2505.85   62.09
   1   1  -3 2530.25   62.79
   1  -1   3   10.50    0.90
  -1  -1  -3    9.20    0.70
   1  -1   3   11.00    1.00
   1  -1   3    9.90    0.60
   1   1   3    9.60    0.50
   1   1   3    9.50    0.70
   1   1   3    9.90    1.10
  -1   1  -3   10.50    0.60
   1   1   3   10.00    0.70
  -1   1  -3    8.70    0.90
  -1   1  -3   12.40    0.70
  -3  -1  -3 1205.78   30.80
  -3  -1  -3 1246.18   30.40
  -3  -1  -3 1282.87   31.40
   3  -1   3 1238.78   30.60
   3  -1   3 1256.57   31.20
   3  -1   3 1230.78   31.10
   3  -1   3 1253.27   31.30
   3   1   3 1234.58   31.30
   3   1   3 1262.97   30.50
   3   1   3 1245.38   30.90
  -3   1  -3 1245.98   31.10
  -3   1  -3 1229.48   30.50
   3   1   3 1198.58   30.90
  -3   1  -3 1262.97   31.10
  -5  -1  -3  924.01   23.90
   5  -1   3  968.70   24.30
  -5  -1  -3  963.30   24.40
   5  -1   3  970.70   24.20
   5  -1   3  942.81   24.20
   5  -1   3  894.91   23.40
  -5  -1  -3  915.71   23.30
  -5  -1  -3  933.51   24.00
  -5   1  -3  916.31   23.40
  -5   1  -3  944.41   24.20
   5   1   3  864.91   23.30
  -5   1  -3  948.71   24.10
   5   1   3  932.81   24.00
   5   1   3  927.71   24.10
   5   1   3  968.00   24.40
  -5   1  -3  953.70   24.30
  -7  -1  -3  112.29    3.90
   7  -1   3  119.29    4.00
  -7  -1  -3  118.79    5.10
   7  -1   3  110.79    4.80
  -7  -1  -3  119.39    4.80
   7  -1   3  111.99    4.90
   7  -1   3  117.89    4.80
  -7  -1  -3  119.39    4.80
  -7   1  -3  119.09    4.00
   7   1   3  120.99    4.80
   7   1   3  125.59    4.90
   7   1   3  118.69    4.00
   7   1   3  113.99    4.60
  -7   1  -3  113.89    4.90
  -7   1  -3  113.99    4.70
  -7   1  -3  111.39    4.90
  -9  -1  -3  126.69    5.60
  -9  -1  -3  124.79    5.40
   9  -1   3  125.79    5.40
  -9  -1  -3  123.69    5.70
   9  -1   3  124.19    5.70
  -9  -1  -3  126.99    4.50
   9  -1   3  120.09    5.60
   9  -1   3  117.79    4.50
  -9   1  -3  119.49    4.50
  -9   1  -3  120.39    5.50
  -9   1  -3  123.49    5.60
   9   1   3  118.09    5.30
   9   1   3  127.69    4.50
   9   1   3  129.59    5.50
  -9   1  -3  118.59    5.70
   9   1   3  115.99    5.80
  11  -1   3   39.50    2.70
 -11  -1  -3   37.70    2.80
 -11  -1  -3   35.80    4.30
 -11  -1  -3   36.00    5.50
  11  -1   3   36.80    4.20
  11  -1   3   39.10    2.80
 -11  -1  -3   43.90    4.30
  11  -1   3   34.10    3.50
  11  -1   3   36.60    4.00
 -11   1  -3   40.50    4.00
  11   1   3   34.90    3.40
 -11   1  -3   27.30    3.90
  11   1   3   36.10    4.00
 -11   1  -3   40.60    2.90
  11   1   3   36.40    2.70
  11   1   3   42.00    3.90
 -11   1  -3   33.90    4.40
  13  -1   3   51.99    4.60
 -13  -1  -3   56.49    3.80
  13  -1   3   51.89    3.70
 -13  -1  -3   47.00    6.00
 -13  -1  -3   41.50    5.60
  13  -1   3   54.69    3.70
 -13  -1  -3   55.29    5.70
  13  -1   3   47.50    7.30
  13  -1   3   54.89    5.70
  13   1   3   49.40    3.70
  13   1   3   43.70    5.40
 -13   1  -3   50.19    3.80
 -13   1  -3   52.09    5.50
  13   1   3   45.10    4.30
  13   1   3   43.60    5.30
 -13   1  -3   60.89    6.50
 -13   1  -3   49.30    5.40
 -14  -2   3   14.10    2.80
 -14  -2   3   23.40    3.00
  14  -2  -3   21.80    3.60
  14  -2  -3   13.50    2.00
  14  -2  -3   14.00    3.20
 -14  -2   3   16.60    3.00
  14  -2  -3   21.50    2.50
  14  -2  -3   15.70    1.70
 -14  -2   3   14.60    3.30
 -14   2   3   17.30    2.80
  14   2  -3   14.40    3.50
  14   2  -3   21.00    2.50
  14   2  -3   17.80    2.00
 -14   2   3   13.70    3.00
 -14   2   3   10.20    2.00
  14   2  -3   17.00    3.20
 -14   2   3   13.10    2.80
  14   2  -3   14.50    2.20
  12  -2  -3  477.45   15.20
 -12  -2   3  452.45   15.20
 -12  -2   3  482.95   14.10
  12  -2  -3  505.25   13.30
  12  -2  -3  508.45   15.40
  12  -2  -3  500.65   13.70
  12  -2  -3  503.85   13.20
 -12  -2   3  494.65   15.10
 -12  -2   3  490.65   14.70
 -12   2   3  502.05   15.30
 -12   2   3  512.65   14.50
  12   2  -3  503.95   15.30
  12   2  -3  517.75   15.60
  12   2  -3  513.35   13.60
 -12   2   3  472.25   14.80
  12   2  -3  533.55   14.00
 -12   2   3  478.15   14.00
 -10  -2   3  208.68    6.90
 -10  -2   3  195.78    7.40
  10  -2  -3  199.68    7.30
  10  -2  -3  187.28    5.60
  10  -2  -3  191.58    7.10
 -10  -2   3  182.08    7.00
  10  -2  -3  195.98    5.70
 -10  -2   3  180.18    6.30
  10   2  -3  198.78    6.00
 -10   2   3  194.08    6.50
  10   2  -3  193.48    7.20
  10   2  -3  195.58    6.20
 -10   2   3  193.98    6.90
 -10   2   3  196.98    6.30
  -8  -2   3   40.60    2.20
  -8  -2   3   36.70    2.50
   8  -2  -3   34.80    1.50
   8  -2  -3   37.50    2.60
  -8  -2   3   36.80    2.20
   8  -2  -3   35.90    1.80
  -8  -2   3   30.20    2.70
   8  -2  -3   36.40    2.70
   8   2  -3   37.00    2.60
   8   2  -3   33.40    2.00
  -8   2   3   35.90    2.60
  -8   2   3   34.90    2.00
   8   2  -3   34.80    2.70
   8   2  -3   34.00    1.80
  -8   2   3   38.80    2.10
  -8   2   3   36.30    2.40
  -6  -2   3  748.43   19.30
   6  -2  -3  767.82   19.80
   6  -2  -3  718.83   18.70
  -6  -2   3  772.62   19.80
  -6  -2   3  789.12   19.40
  -6  -2   3  746.33   19.90
   6  -2  -3  743.63   18.90
   6  -2  -3  746.83   19.70
  -6   2   3  776.32   19.60
  -6   2   3  777.72   19.20
   6   2  -3  744.23   19.20
  -6   2   3  730.83   19.00
   6   2  -3  790.92   20.00
   6   2  -3  746.83   19.80
  -6   2   3  764.92   19.70
   4  -2  -3  419.26   10.80
  -4  -2   3  428.46   11.20
  -4  -2   3  449.86   11.70
   4  -2  -3  428.76   11.40
   4  -2  -3  435.86   11.40
  -4  -2   3  454.35   11.40
   4  -2  -3  431.86   10.90
  -4  -2   3  450.65   11.80
  -4   2   3  446.86   11.40
   4   2  -3  417.96   11.20
   4   2  -3  432.76   10.90
  -4   2   3  439.26   11.00
   4   2  -3  435.86   11.80
   4   2  -3  434.16   11.70
  -4   2   3  434.66   10.80
  -4   2   3  459.45   11.40
  -4   2   3  417.46   10.90
  -2  -2   3  677.73   16.60
  -2  -2   3  688.73   16.90
  -2  -2   3  641.74   16.30
   2  -2  -3  641.34   16.30
  -2  -2   3  690.13   17.00
  -2  -2   3  657.03   16.70
   2  -2  -3  651.53   16.30
   2   2  -3  656.93   16.80
  -2   2   3  665.43   16.30
  -2   2   3  639.64   16.10
   2   2  -3  644.74   16.20
   2   2  -3  681.43   17.10
  -2   2   3  662.23   16.30
   2   2  -3  656.13   16.90
   2   2  -3  664.93   16.50
  -2   2   3  651.33   16.30
   2   2  -3  679.33   16.60
   0  -2   3  212.68    5.60
   0  -2   3  212.28    6.00
   0  -2  -3  211.88    5.30
   0  -2   3  213.98    5.70
   0  -2   3  209.78    5.50
   0  -2   3  210.88    6.00
   0   2  -3  210.58    6.00
   0   2  -3  207.98    5.50
   0   2   3  207.98    6.00
   0   2  -3  212.88    6.00
   0   2  -3  212.38    5.50
   0   2  -3  212.18    5.60
   0   2  -3  201.68    5.90
  -2  -2  -3 5551.64  138.59
   2  -2   3 5649.04  139.39
   2  -2   3 5369.86  137.79
  -2  -2  -3 5321.27  137.69
   2  -2   3 5749.73  140.29
   2  -2   3 5464.55  138.19
  -2  -2  -3 5639.34  137.89
  -2   2  -3 5664.43  139.69
   2   2   3 5898.31  140.39
   2   2   3 5541.35  136.69
  -2   2  -3 5443.06  137.39
   2   2   3 5516.35  137.69
   2   2   3 5912.61  137.99
  -2   2  -3 5822.72  137.99
  -2   2  -3 5334.07  138.59
  -4  -2  -3 1221.38   31.20
   4  -2   3 1293.87   31.70
   4  -2   3 1284.97   31.70
   4  -2   3 1229.28   30.90
   4  -2   3 1228.78   31.70
  -4  -2  -3 1250.97   30.70
  -4  -2  -3 1269.27   31.80
   4  -2   3 1193.58   30.90
   4   2   3 1234.28   30.80
  -4   2  -3 1240.28   31.70
   4   2   3 1224.18   31.30
  -4   2  -3 1301.37   30.90
  -4   2  -3 1288.77   31.70
   4   2   3 1266.67   31.70
   4   2   3 1214.58   31.20
   6  -2   3 1020.70   26.40
   6  -2   3 1078.59   27.40
   6  -2   3 1016.10   26.40
  -6  -2  -3 1036.70   27.00
  -6  -2  -3 1065.39   27.50
   6  -2   3 1080.89   27.30
  -6  -2  -3 1028.80   26.90
  -6  -2  -3 1018.30   26.20
   6  -2   3 1068.29   27.40
  -6   2  -3 1094.99   27.40
   6   2   3 1032.60   27.10
   6   2   3 1050.89   26.30
  -6   2  -3 1029.10   27.20
   6   2   3 1055.09   27.30
  -6   2  -3 1058.69   27.30
   6   2   3 1058.19   27.00
  -6   2  -3 1070.69   26.40
   8  -2   3  661.13   18.20
  -8  -2  -3  647.54   18.00
  -8  -2  -3  665.83   16.90
   8  -2   3  664.73   17.10
   8  -2   3  643.04   17.00
   8  -2   3  668.23   17.90
   8  -2   3  632.34   18.20
  -8  -2  -3  640.64   17.80
  -8  -2  -3  607.04   18.20
  -8   2  -3  687.33   18.20
   8   2   3  630.54   17.90
  -8   2  -3  647.24   18.00
   8   2   3  645.74   18.00
   8   2   3  649.43   18.00
  -8   2  -3  655.83   18.30
  -8   2  -3  649.43   17.10
   8   2   3  634.04   17.00
  10  -2   3   42.00    3.60
  10  -2   3   39.40    3.70
  10  -2   3   48.40    4.10
 -10  -2  -3   42.40    3.80
  10  -2   3   44.60    2.70
  10  -2   3   50.89    2.90
 -10  -2  -3   45.20    2.80
 -10  -2  -3   51.99    4.10
 -10  -2  -3   45.60    4.20
 -10   2  -3   44.40    4.20
  10   2   3   46.70    3.50
  10   2   3   43.80    3.70
  10   2   3   40.50    2.60
 -10   2  -3   49.50    2.90
 -10   2  -3   43.40    3.90
  10   2   3   41.50    3.90
 -12  -2  -3  105.99    6.20
  12  -2   3  102.49    4.70
 -12  -2  -3  112.89    6.70
  12  -2   3  106.99    6.40
  12  -2   3   94.99    5.40
 -12  -2  -3  102.19    6.30
  12  -2   3  100.09    4.60
 -12  -2  -3  105.19    4.70
  12  -2   3  106.59    6.20
 -12   2  -3  107.79    6.20
  12   2   3  100.39    6.10
 -12   2  -3  112.89    6.80
 -12   2  -3  108.49    4.80
 -12   2  -3   99.99    6.20
  12   2   3  105.69    5.40
  12   2   3  108.99    4.70
  12   2   3  108.89    6.20
  13  -3  -3    6.20    2.40
  13  -3  -3    8.20    1.50
 -13  -3   3    7.50    2.30
  13  -3  -3   10.00    1.80
 -13  -3   3    5.20    2.50
 -13  -3   3    4.30    2.20
 -13  -3   3    9.30    1.90
  13  -3  -3    8.50    2.60
  13   3  -3   10.30    2.80
  13   3  -3    6.40    1.40
  13   3  -3    8.40    2.60
 -13   3   3   11.70    2.40
 -13   3   3   12.00    2.90
 -13   3   3    9.00    1.80
 -13   3   3    7.00    2.00
  13   3  -3   10.60    2.00
 -11  -3   3   51.49    3.60
 -11  -3   3   49.99    3.10
  11  -3  -3   60.99    4.00
  11  -3  -3   56.89    2.40
 -11  -3   3   50.29    3.80
  11  -3  -3   57.69    2.80
  11  -3  -3   56.29    2.60
  11  -3  -3   50.49    4.10
  11   3  -3   50.89    4.20
 -11   3   3   57.79    3.30
 -11   3   3   53.69    3.10
 -11   3   3   54.29    4.00
  11   3  -3   53.19    2.80
 -11   3   3   57.39    3.70
  11   3  -3   54.79    3.10
  11   3  -3   57.19    3.90
   9  -3  -3  125.69    4.00
   9  -3  -3  127.99    5.40
   9  -3  -3  127.69    5.30
  -9  -3   3  132.79    5.60
   9  -3  -3  130.89    4.30
  -9  -3   3  132.09    5.40
  -9  -3   3  120.99    5.40
  -9  -3   3  126.29    4.70
   9   3  -3  131.29    4.40
   9   3  -3  134.99    4.60
   9   3  -3  131.49    5.60
  -9   3   3  124.19    4.50
  -9   3   3  134.49    5.40
   9   3  -3  136.99    5.50
  -9   3   3  131.89    5.10
  -9   3   3  137.09    4.60
  -7  -3   3  141.89    4.80
  -7  -3   3  140.29    5.40
   7  -3  -3  141.59    4.10
   7  -3  -3  144.69    5.10
   7  -3  -3  141.49    4.20
  -7  -3   3  140.49    5.20
   7  -3  -3  144.89    5.10
  -7  -3   3  140.99    4.70
  -7   3   3  151.18    5.00
  -7   3   3  145.99    5.10
  -7   3   3  145.69    4.40
   7   3  -3  144.39    4.60
   7   3  -3  134.59    5.20
   7   3  -3  143.49    4.50
  -7   3   3  146.49    4.50
   7   3  -3  145.89    5.40
   5  -3  -3   60.29    2.50
  -5  -3   3   58.49    2.90
  -5  -3   3   63.69    2.40
   5  -3  -3   58.19    2.60
  -5  -3   3   60.99    2.40
  -5  -3   3   63.09    2.80
   5  -3  -3   58.09    2.00
   5  -3  -3   59.79    1.90
   5   3  -3   58.49    2.30
  -5   3   3   60.69    2.60
  -5   3   3   63.59    2.50
  -5   3   3   61.49    2.00
  -5   3   3   63.89    2.20
  -5   3   3   60.39    1.90
   5   3  -3   57.19    2.70
   5   3  -3   71.49    3.00
   5   3  -3   58.39    2.10
  -3  -3   3  104.29    3.70
   3  -3  -3  103.69    3.10
   3  -3  -3  104.69    3.10
  -3  -3   3   98.79    3.30
  -3  -3   3  102.39    3.00
   3  -3  -3  101.49    3.00
  -3  -3   3  103.49    3.60
  -3   3   3  102.39    3.00
   3   3  -3  105.99    3.30
  -3   3   3  106.09    3.10
   3   3  -3  100.29    3.80
  -3   3   3  102.59    2.80
  -3   3   3   98.09    2.90
   3   3  -3  102.59    3.20
   3   3  -3   99.79    3.60
   3   3  -3  101.89    2.90
   3   3  -3   93.89    3.50
  -1  -3   3  211.68    6.20
  -1  -3   3  221.38    6.00
  -1  -3   3  221.68    6.50
  -1  -3   3  198.88    5.70
  -1  -3   3  211.68    6.00
   1   3  -3  208.38    6.20
   1   3  -3  209.68    6.30
   1   3  -3  217.58    5.60
   1   3  -3  224.78    6.40
  -1   3   3  219.28    5.90
   1   3  -3  219.48    6.30
   1   3  -3  215.28    5.80
  -1   3   3  226.28    6.00
   1   3  -3  217.98    5.90
  -1  -3  -3 1172.78   28.60
  -1  -3  -3 1137.49   27.80
   1  -3   3 1108.29   28.10
   1  -3   3 1131.29   28.70
   1  -3   3 1151.08   28.20
   1  -3   3 1151.68   28.80
  -1  -3  -3 1133.79   28.00
   1   3   3 1163.68   27.90
  -1   3  -3 1159.88   28.80
   1   3   3 1170.98   27.80
   1   3   3 1134.49   28.60
   1   3   3 1147.19   27.80
  -1   3  -3 1141.29   28.70
  -1   3  -3 1152.08   28.10
  -1   3  -3 1115.89   28.70
  -1   3  -3 1128.39   28.30
  -1   3  -3 1116.29   28.10
   3  -3   3 1392.96   34.90
   3  -3   3 1398.36   34.80
  -3  -3  -3 1423.66   34.90
   3  -3   3 1390.26   34.20
   3  -3   3 1364.26   34.90
   3  -3   3 1265.57   34.10
  -3  -3  -3 1352.66   33.60
  -3  -3  -3 1398.86   34.20
  -3  -3  -3 1394.26   34.30
   3   3   3 1404.86   34.80
  -3   3  -3 1451.65   35.00
   3   3   3 1396.06   34.30
  -3   3  -3 1378.76   34.90
   3   3   3 1332.87   33.90
  -3   3  -3 1438.26   34.10
   3   3   3 1383.76   34.20
  -5  -3  -3  123.79    4.90
   5  -3   3  124.09    4.10
   5  -3   3  130.89    4.10
   5  -3   3  126.19    4.80
  -5  -3  -3  131.29    4.40
   5  -3   3  131.09    4.90
  -5  -3  -3  136.39    3.80
   5  -3   3  134.19    4.80
  -5  -3  -3  123.59    4.60
   5   3   3  128.09    3.90
   5   3   3  125.79    4.80
  -5   3  -3  129.79    4.10
   5   3   3  126.09    4.50
  -5   3  -3  123.09    4.80
  -5   3  -3  130.39    4.90
   5   3   3  128.49    4.40
   7  -3   3    9.20    1.70
  -7  -3  -3   10.00    1.30
   7  -3   3   10.30    1.40
   7  -3   3    6.30    1.00
  -7  -3  -3   10.70    1.70
  -7  -3  -3   10.30    1.50
  -7  -3  -3    9.60    1.80
   7  -3   3    9.70    1.80
   7  -3   3    8.90    1.60
  -7   3  -3   11.00    1.80
   7   3   3   12.50    1.40
   7   3   3   10.80    1.60
   7   3   3   12.70    1.70
  -7   3  -3    9.90    1.80
  -7   3  -3   11.00    1.40
   7   3   3    7.40    1.40
   9  -3   3  131.19    4.80
  -9  -3  -3  133.19    5.70
  -9  -3  -3  139.09    4.80
   9  -3   3  133.39    4.80
  -9  -3  -3  138.29    5.90
   9  -3   3  136.79    6.10
  -9  -3  -3  136.89    6.20
   9  -3   3  138.99    5.70
  -9   3  -3  136.49    5.90
  -9   3  -3  133.09    4.90
  -9   3  -3  138.69    6.30
   9   3   3  128.09    5.80
   9   3   3  133.99    5.60
  -9   3  -3  137.69    6.00
   9   3   3  129.29    5.60
   9   3   3  139.79    4.90
 -11  -3  -3   14.20    2.80
  11  -3   3   16.50    2.80
 -11  -3  -3   18.30    2.40
  11  -3   3   15.50    2.80
  11  -3   3   17.20    2.50
 -11  -3  -3   14.30    2.60
  11  -3   3   16.40    2.10
 -11  -3  -3   16.10    2.80
  11  -3   3   16.80    2.40
 -11   3  -3   16.90    2.00
 -11   3  -3   16.40    2.50
  11   3   3   12.30    2.30
 -11   3  -3   13.90    2.90
 -11   3  -3   17.80    2.90
  11   3   3   23.10    2.50
  11   3   3   13.90    2.30
  11   3   3   18.80    2.90
 -13  -3  -3   27.00    4.10
  13  -3   3   17.40    3.70
  13  -3   3   27.10    3.10
  13  -3   3   24.20    3.70
 -13  -3  -3   24.80    3.40
 -13  -3  -3   21.90    4.10
  13  -3   3   19.10    2.50
 -13  -3  -3   29.00    4.00
  13   3   3   26.60    3.40
 -13   3  -3   25.20    3.30
  13   3   3   34.50    4.80
 -13   3  -3   21.20    4.10
  13   3   3   22.90    3.80
 -13   3  -3   24.80    4.00
  13   3   3   20.80    2.90
 -13   3  -3   25.60    3.50
  14  -4  -3    7.40    3.20
 -14  -4   3    9.70    2.20
 -14  -4   3    8.00    3.30
 -14  -4   3   14.70    3.10
 -14  -4   3   10.90    2.90
  14  -4  -3   11.20    2.00
  14  -4  -3   12.60    1.90
 -14   4   3   12.50    2.70
 -14   4   3    6.20    2.60
  14   4  -3   11.40    2.40
  14   4  -3    6.50    3.20
  14   4  -3   12.50    3.30
 -14   4   3   11.20    2.10
 -14   4   3    9.10    2.20
  14   4  -3    9.40    1.70
 -12  -4   3   87.69    4.50
  12  -4  -3   90.19    5.40
 -12  -4   3   94.59    5.20
  12  -4  -3   88.59    3.80
  12  -4  -3   95.19    4.00
  12  -4  -3   91.99    5.50
 -12  -4   3   90.89    5.80
 -12  -4   3   88.49    5.20
 -12   4   3   92.59    5.00
  12   4  -3   92.99    5.70
  12   4  -3   90.09    3.90
 -12   4   3   89.19    5.30
  12   4  -3   96.29    5.60
 -12   4   3   96.39    4.50
  12   4  -3   96.89    4.40
 -12   4   3   89.79    4.20
 -10  -4   3  138.49    6.40
 -10  -4   3  146.99    6.10
  10  -4  -3  145.49    4.70
  10  -4  -3  141.19    4.80
  10  -4  -3  147.39    6.20
  10  -4  -3  152.38    6.20
 -10  -4   3  146.59    5.80
 -10  -4   3  140.59    5.30
  10   4  -3  141.39    4.90
  10   4  -3  145.69    6.60
 -10   4   3  144.49    5.10
  10   4  -3  142.59    5.20
 -10   4   3  158.98    6.10
  10   4  -3  139.99    5.30
 -10   4   3  148.49    5.10
 -10   4   3  148.79    5.80
   8  -4  -3  307.07    8.40
  -8  -4   3  289.77    9.20
   8  -4  -3  290.97   10.20
  -8  -4   3  310.47    9.60
  -8  -4   3  301.67    9.00
  -8  -4   3  324.77   10.00
   8  -4  -3  308.57    8.40
   8  -4  -3  306.27    9.60
   8   4  -3  301.07    9.60
   8   4  -3  303.77    8.60
  -8   4   3  293.97    8.50
  -8   4   3  315.97    9.50
  -8   4   3  320.17    9.40
   8   4  -3  307.67    8.80
   8   4  -3  325.17    9.90
  -8   4   3  328.37    8.80
   8   4  -3  319.97    8.90
  -6  -4   3   20.00    1.60
   6  -4  -3   20.10    1.10
  -6  -4   3   21.60    1.60
   6  -4  -3   21.20    1.80
  -6  -4   3   17.30    1.80
   6  -4  -3   22.10    1.30
  -6  -4   3   22.70    2.20
   6  -4  -3   22.20    1.80
  -6   4   3   19.90    1.10
  -6   4   3   22.40    1.70
   6   4  -3   20.50    1.50
   6   4  -3   20.40    2.00
  -6   4   3   21.20    1.80
  -6   4   3   22.50    1.20
   6   4  -3   18.20    1.90
   6   4  -3   21.70    1.50
  -6   4   3   19.80    1.30
   4  -4  -3   25.30    0.90
   4  -4  -3   24.60    1.50
  -4  -4   3   24.60    1.80
  -4  -4   3   27.60    1.40
   4  -4  -3   25.20    1.30
   4  -4  -3   27.00    1.60
  -4  -4   3   29.30    2.10
  -4   4   3   28.00    1.20
   4   4  -3   25.40    1.90
  -4   4   3   26.10    1.10
   4   4  -3   28.70    1.50
  -4   4   3   26.00    1.50
   4   4  -3   26.60    1.80
   4   4  -3   26.40    2.20
  -4   4   3   27.00    1.00
  -4   4   3   27.20    1.50
   4   4  -3   27.80    1.30
   4   4  -3   25.70    1.60
  -2  -4   3   20.30    1.50
   2  -4  -3   18.20    1.20
  -2  -4   3   19.40    1.20
   2  -4  -3   18.10    0.90
  -2  -4   3   19.70    1.10
  -2  -4   3   20.40    1.80
   2  -4  -3   19.10    1.00
  -2  -4   3   20.90    1.70
  -2   4   3   21.40    1.10
  -2   4   3   20.90    1.10
   2   4  -3   18.60    0.90
   2   4  -3   20.10    1.20
   2   4  -3   19.10    1.20
   2   4  -3   17.90    1.60
   2   4  -3   17.80    1.40
  -2   4   3   18.70    0.90
   2   4  -3   18.50    1.50
  -2   4   3   19.60    0.70
  -2   4   3   19.30    0.80
   0  -4   3  334.87    9.30
   0  -4  -3  324.27    8.10
   0  -4   3  320.07    8.60
   0  -4  -3  329.17    8.80
   0  -4   3  334.17    8.90
   0  -4   3  313.37    8.70
   0  -4   3  315.67    9.30
   0  -4   3  337.77    9.20
   0   4  -3  333.07    8.70
   0   4  -3  336.57    9.30
   0   4   3  329.27    8.90
   0   4  -3  328.47    8.80
   0   4   3  337.07    8.90
   0   4  -3  336.67    9.30
   0   4  -3  316.07    8.50
   0   4  -3  337.07    9.20
   2  -4   3  533.05   14.30
   2  -4   3  514.55   13.50
  -2  -4  -3  524.25   13.40
  -2  -4  -3  521.05   14.00
   2  -4   3  496.95   14.10
   2  -4   3  528.65   13.60
  -2   4  -3  540.75   13.50
  -2   4  -3  531.15   13.70
   2   4   3  542.05   13.40
  -2   4  -3  526.95   13.50
  -2   4  -3  539.05   14.30
   2   4   3  542.65   14.00
   2   4   3  509.05   13.10
  -2   4  -3  531.85   14.20
   2   4   3  526.95   13.30
  -4  -4  -3   30.40    1.80
   4  -4   3   29.20    2.00
  -4  -4  -3   29.70    1.20
   4  -4   3   32.10    2.30
   4  -4   3   31.30    1.70
  -4  -4  -3   29.50    1.80
  -4  -4  -3   31.70    2.30
   4  -4   3   28.80    2.20
   4  -4   3   28.40    1.60
  -4   4  -3   31.90    2.20
   4   4   3   29.60    1.90
   4   4   3   30.90    1.70
  -4   4  -3   31.90    2.40
   4   4   3   30.80    1.40
   4   4   3   30.20    2.10
  -4   4  -3   30.40    1.60
  -6  -4  -3  679.83   17.80
  -6  -4  -3  651.33   17.90
   6  -4   3  640.84   18.40
  -6  -4  -3  682.83   18.50
   6  -4   3  679.63   17.40
   6  -4   3  690.23   18.50
  -6  -4  -3  672.83   17.00
   6  -4   3  692.93   17.40
   6  -4   3  679.43   18.10
   6   4   3  674.43   17.30
  -6   4  -3  648.34   18.30
   6   4   3  643.44   17.90
  -6   4  -3  681.53   17.40
   6   4   3  688.03   18.20
  -6   4  -3  679.63   18.50
   6   4   3  647.24   17.80
   8  -4   3  416.26   13.10
  -8  -4  -3  429.36   11.70
   8  -4   3  456.35   13.30
   8  -4   3  432.86   12.60
  -8  -4  -3  431.16   12.70
  -8  -4  -3  440.16   13.30
   8  -4   3  435.46   11.90
  -8  -4  -3  431.16   12.60
   8   4   3  415.36   12.90
   8   4   3  443.06   12.90
   8   4   3  411.06   12.30
  -8   4  -3  433.56   13.10
   8   4   3  432.26   12.70
  -8   4  -3  437.36   12.00
  -8   4  -3  430.26   13.20
 -10  -4  -3   14.50    2.50
  10  -4   3   13.40    2.60
  10  -4   3   18.40    2.10
  10  -4   3   17.60    3.00
  10  -4   3   16.60    2.80
 -10  -4  -3   13.40    2.40
  10  -4   3   17.50    2.20
 -10  -4  -3   17.30    2.10
 -10  -4  -3   13.80    2.50
  10   4   3   13.90    1.80
 -10   4  -3   16.70    2.10
 -10   4  -3   12.80    2.50
  10   4   3   17.20    2.50
  10   4   3   18.40    2.60
 -10   4  -3   13.20    2.60
  10   4   3   12.10    2.00
  12  -4   3  113.09    6.70
 -12  -4  -3  103.99    4.80
  12  -4   3  119.39    6.90
  12  -4   3  104.99    5.60
 -12  -4  -3  109.89    7.00
 -12  -4  -3  115.39    7.00
 -12  -4  -3  113.59    6.50
  12  -4   3  118.59    5.00
  12  -4   3  110.49    5.00
 -12   4  -3  108.99    5.00
  12   4   3  120.39    6.30
 -12   4  -3  100.19    6.30
  12   4   3  101.59    6.20
  12   4   3   99.09    4.90
  12   4   3  102.59    5.40
 -13  -5   3   27.00    3.40
  13  -5  -3   28.20    2.80
  13  -5  -3   23.90    3.50
 -13  -5   3   21.60    3.60
  13  -5  -3   25.90    3.70
 -13  -5   3   21.40    3.10
  13  -5  -3   23.30    2.70
 -13  -5   3   27.80    3.20
  13   5  -3   24.60    3.00
  13   5  -3   17.20    3.10
 -13   5   3   20.70    2.80
 -13   5   3   24.30    3.20
  13   5  -3   23.90    3.20
 -13   5   3   21.80    2.60
  13   5  -3   23.80    2.60
 -13   5   3   20.60    3.20
  13   5  -3   21.00    3.40
 -11  -5   3  151.88    6.30
  11  -5  -3  153.38    6.60
 -11  -5   3  151.18    6.50
 -11  -5   3  142.59    5.70
  11  -5  -3  156.18    5.10
  11  -5  -3  153.88    6.70
  11  -5  -3  149.19    5.10
 -11  -5   3  133.99    8.20
  11   5  -3  153.38    5.60
 -11   5   3  146.79    6.40
 -11   5   3  146.89    6.20
  11   5  -3  150.88    5.80
  11   5  -3  150.88    6.60
 -11   5   3  146.19    5.30
 -11   5   3  152.88    5.50
  11   5  -3  149.29    5.20
  11   5  -3  149.39    6.90
   9  -5  -3  186.48    5.70
  -9  -5   3  196.28    6.40
  -9  -5   3  196.58    7.40
   9  -5  -3  183.98    7.00
  -9  -5   3  194.08    6.70
   9  -5  -3  193.88    5.70
   9  -5  -3  179.98    6.90
   9   5  -3  193.18    6.00
  -9   5   3  195.28    6.90
  -9   5   3  186.78    5.80
   9   5  -3  189.38    7.30
   9   5  -3  193.28    6.30
   9   5  -3  195.78    6.40
  -9   5   3  184.78    6.00
   9   5  -3  185.98    7.10
  -9   5   3  193.88    6.70
   7  -5  -3  761.92   20.10
  -7  -5   3  749.73   19.70
  -7  -5   3  753.12   19.80
  -7  -5   3  786.02   20.70
   7  -5  -3  760.42   20.10
  -7  -5   3  784.02   20.40
   7  -5  -3  727.03   19.20
   7  -5  -3  735.63   19.00
  -7   5   3  756.62   20.10
   7   5  -3  759.92   20.50
   7   5  -3  765.72   19.50
  -7   5   3  755.02   19.90
  -7   5   3  741.13   19.10
   7   5  -3  794.32   20.70
  -7   5   3  728.73   19.00
  -7   5   3  756.92   19.30
   7   5  -3  752.32   19.70
  -5  -5   3  662.93   17.90
   5  -5  -3  661.73   17.10
  -5  -5   3  690.83   18.20
   5  -5  -3  648.54   16.60
  -5  -5   3  705.13   17.50
  -5  -5   3  666.73   17.30
   5  -5  -3  666.53   17.40
   5  -5  -3  650.23   17.40
   5   5  -3  686.33   17.40
  -5   5   3  697.83   17.50
   5   5  -3  644.74   17.80
   5   5  -3  676.93   18.10
  -5   5   3  679.53   17.30
  -5   5   3  649.43   16.50
  -5   5   3  696.23   16.90
  -5   5   3  663.73   16.90
   5   5  -3  650.73   18.50
   5   5  -3  671.63   17.10
  -3  -5   3  918.01   23.50
   3  -5  -3  942.71   23.70
  -3  -5   3  945.81   23.80
  -3  -5   3  971.40   24.50
   3  -5  -3  930.21   23.50
  -3  -5   3  937.21   23.60
  -3  -5   3  932.91   24.20
   3  -5  -3  943.31   23.50
  -3   5   3  933.61   23.10
   3   5  -3  944.91   24.50
   3   5  -3  963.50   23.70
  -3   5   3  973.40   23.40
   3   5  -3  882.01   24.10
   3   5  -3  921.01   23.80
   3   5  -3  935.11   23.40
  -3   5   3  936.61   23.40
  -3   5   3  958.10   23.50
  -3   5   3  959.60   23.10
   3   5  -3  955.30   24.40
  -1  -5   3  563.84   15.00
  -1  -5   3  534.95   14.30
  -1  -5   3  532.05   14.10
   1  -5  -3  535.25   13.80
  -1  -5   3  576.84   14.80
   1  -5  -3  539.25   14.40
  -1   5   3  558.84   14.30
   1   5  -3  553.74   14.90
   1   5  -3  568.44   14.90
  -1   5   3  547.55   13.60
   1   5  -3  560.94   14.70
   1   5  -3  555.04   14.00
  -1   5   3  530.05   13.60
  -1   5   3  555.24   13.70
   1   5  -3  561.44   14.20
   1   5  -3  556.24   14.90
  -1   5   3  558.94   13.70
   1   5  -3  550.64   14.30
  -1   5   3  563.94   14.10
   1  -5   3  758.72   19.70
   1  -5   3  748.23   18.90
  -1  -5  -3  771.72   19.30
   1  -5   3  705.03   19.60
   1  -5   3  727.23   19.00
  -1  -5  -3  736.93   18.60
   1   5   3  716.83   18.30
  -1   5  -3  751.52   18.90
   1   5   3  776.12   18.60
   1   5   3  775.62   19.20
  -1   5  -3  747.53   19.70
  -1   5  -3  778.92   19.70
   1   5   3  748.53   18.60
   1   5   3  798.32   19.40
  -1   5  -3  745.33   19.10
  -1   5  -3  738.83   18.80
   1   5   3  704.13   18.50
  -1   5  -3  750.82   19.50
   3  -5   3  363.86   10.60
   3  -5   3  351.36    9.80
  -3  -5  -3  352.76    9.70
  -3  -5  -3  349.87    9.70
  -3  -5  -3  373.66   10.50
   3  -5   3  358.86    9.80
   3  -5   3  386.56   10.70
   3   5   3  348.97    9.70
   3   5   3  359.26    9.40
   3   5   3  373.86    9.80
  -3   5  -3  364.46   10.60
   3   5   3  377.36   10.30
  -3   5  -3  369.36   10.60
  -3   5  -3  374.06    9.80
  -3   5  -3  367.56    9.70
   5  -5   3  357.46   10.80
   5  -5   3  364.16    9.90
  -5  -5  -3  371.36   10.80
  -5  -5  -3  352.96   10.10
   5  -5   3  359.86   10.90
   5  -5   3  360.06   10.40
   5  -5   3  357.66    9.90
  -5  -5  -3  368.36    9.40
   5   5   3  354.76   10.10
   5   5   3  356.36    9.60
   5   5   3  355.56   10.20
  -5   5  -3  374.16    9.90
  -5   5  -3  378.66   11.00
   5   5   3  369.46   10.50
  -5   5  -3  331.37   10.70
  -7  -5  -3  249.88    8.30
   7  -5   3  268.87    8.50
   7  -5   3  250.77    7.80
   7  -5   3  271.57    9.00
   7  -5   3  264.07    9.00
  -7  -5  -3  273.57    8.40
   7  -5   3  290.17    7.90
  -7  -5  -3  260.87    9.00
  -7  -5  -3  276.17    7.50
  -7   5  -3  270.27    7.80
   7   5   3  249.97    8.40
   7   5   3  259.87    8.40
   7   5   3  274.87    7.70
  -7   5  -3  255.37    9.00
  -7   5  -3  265.87    8.90
   7   5   3  264.57    8.50
  -9  -5  -3   18.60    2.00
   9  -5   3   20.60    2.20
   9  -5   3   26.00    3.50
  -9  -5  -3   21.50    3.10
  -9  -5  -3   24.30    3.20
  -9  -5  -3   25.80    3.10
   9  -5   3   22.00    2.20
   9  -5   3   19.20    2.90
   9  -5   3   23.80    3.00
  -9   5  -3   17.60    2.10
  -9   5  -3   15.40    2.40
   9   5   3   22.00    2.70
  -9   5  -3   20.10    3.10
   9   5   3   20.30    2.00
   9   5   3   23.30    3.10
   9   5   3   22.10    2.60
  11  -5   3   12.90    2.00
 -11  -5  -3   11.70    2.70
  11  -5   3   15.60    2.10
 -11  -5  -3   13.50    1.90
 -11  -5  -3   15.20    2.80
  11  -5   3    8.30    2.20
 -11  -5  -3    9.20    2.80
  11  -5   3    5.90    2.60
  11  -5   3   10.80    2.90
  11   5   3   11.70    2.00
 -11   5  -3   10.20    1.70
 -11   5  -3   10.90    2.70
  11   5   3   11.40    1.80
  11   5   3   10.80    2.40
 -11   5  -3   10.50    3.20
 -13  -5  -3   23.70    2.70
  13  -5   3   22.10    3.90
 -13  -5  -3   22.60    4.60
  13  -5   3   17.70    2.80
  13  -5   3   24.10    4.30
 -13  -5  -3   26.50    4.20
 -13   5  -3   16.70    2.40
 -13   5  -3   25.70    4.50
  13   5   3   14.20    2.50
  13   5   3   15.70    3.30
  13   5   3   27.80    3.90
 -13   5  -3   21.40    3.90
 -12  -6   3   58.19    4.60
  12  -6  -3   68.39    3.30
 -12  -6   3   62.09    4.80
  12  -6  -3   57.89    3.30
 -12  -6   3   61.49    5.60
  12  -6  -3   62.49    4.80
 -12  -6   3   61.59    3.90
  12  -6  -3   53.39    4.80
 -12   6   3   58.09    3.60
 -12   6   3   52.29    4.40
  12   6  -3   52.69    5.10
 -12   6   3   49.60    3.30
  12   6  -3   56.29    3.20
  12   6  -3   61.69    5.30
 -12   6   3   52.19    4.10
  12   6  -3   55.39    3.70
  12   6  -3   58.89    5.00
  10  -6  -3   14.00    1.90
 -10  -6   3   13.80    1.90
  10  -6  -3   13.20    2.30
 -10  -6   3   16.80    2.90
 -10  -6   3   16.70    2.30
 -10  -6   3   13.70    2.40
  10  -6  -3   12.50    1.40
  10  -6  -3   13.40    2.30
 -10   6   3   12.70    2.10
 -10   6   3   16.30    1.80
 -10   6   3   13.80    2.20
 -10   6   3   11.20    1.50
  10   6  -3   13.10    2.30
  10   6  -3   14.50    3.20
  10   6  -3   15.00    2.00
  10   6  -3   14.50    1.80
  10   6  -3   15.70    1.80
   8  -6  -3    3.10    0.70
   8  -6  -3    1.20    0.80
  -8  -6   3    2.60    1.60
   8  -6  -3    2.70    1.30
  -8  -6   3    3.40    1.40
   8  -6  -3    3.40    1.40
   8   6  -3    2.00    1.10
  -8   6   3    3.40    0.80
  -8   6   3    2.80    0.70
   8   6  -3    3.00    1.40
  -8   6   3    2.80    1.20
   8   6  -3    5.00    1.30
  -8   6   3    1.30    0.80
   8   6  -3    1.00    1.40
   6  -6  -3   15.90    1.50
   6  -6  -3   15.30    1.00
  -6  -6   3   13.40    2.00
   6  -6  -3   17.50    1.90
   6  -6  -3   16.00    1.80
  -6  -6   3   16.20    1.60
  -6  -6   3   15.70    1.70
  -6  -6   3   16.90    2.40
   6   6  -3   16.70    2.10
  -6   6   3   14.70    1.70
   6   6  -3   15.20    2.00
  -6   6   3   14.60    1.20
   6   6  -3   15.70    1.70
   6   6  -3   15.80    2.30
   6   6  -3   14.80    1.60
  -6   6   3   16.40    1.20
  -6   6   3   14.70    1.70
  -4  -6   3   25.60    2.10
  -4  -6   3   25.80    2.40
   4  -6  -3   25.60    1.70
   4  -6  -3   26.50    1.70
  -4  -6   3   26.00    1.70
  -4  -6   3   27.70    1.80
  -4  -6   3   25.90    1.60
   4  -6  -3   26.40    1.70
  -4   6   3   27.80    1.70
  -4   6   3   26.60    1.40
   4   6  -3   24.70    1.80
  -4   6   3   25.50    1.20
   4   6  -3   24.10    2.10
   4   6  -3   27.50    2.30
  -4   6   3   23.60    1.50
   4   6  -3   26.80    1.70
   4   6  -3   23.30    1.70
   2  -6  -3  158.58    5.10
  -2  -6   3  164.28    5.50
  -2  -6   3  153.68    5.80
   2  -6  -3  162.38    4.60
  -2  -6   3  165.88    5.10
   2  -6  -3  157.88    4.70
  -2  -6   3  165.98    5.00
   2   6  -3  167.68    5.60
  -2   6   3  158.78    4.50
  -2   6   3  164.48    4.60
   2   6  -3  162.98    5.60
   2   6  -3  157.08    5.40
  -2   6   3  163.38    4.30
   2   6  -3  166.18    5.70
   2   6  -3  159.98    4.80
  -2   6   3  165.48    4.60
  -2   6   3  159.98    4.40
  -2   6   3  168.48    4.90
   2   6  -3  160.18    5.00
   0  -6   3   95.29    4.10
   0  -6   3   94.99    3.40
   0  -6  -3  102.79    3.40
   0  -6   3  100.69    3.50
   0   6   3  100.29    3.00
   0   6  -3  100.19    3.40
   0   6   3  102.39    3.70
   0   6  -3  101.89    4.10
   0   6  -3  105.39    4.20
   0   6   3   99.49    2.90
   0   6   3  100.39    3.30
   0   6  -3  101.89    3.30
   0   6  -3   95.89    3.50
   0   6   3  100.49    3.00
   0   6  -3   98.29    3.90
   0   6   3  104.39    3.00
   2  -6   3  818.82   21.60
  -2  -6  -3  807.62   21.10
   2  -6   3  792.92   20.70
   2  -6   3  812.52   20.80
   2  -6   3  828.82   21.60
  -2  -6  -3  786.02   20.40
  -2  -6  -3  811.52   20.50
   2   6   3  828.12   21.00
   2   6   3  779.92   20.20
  -2   6  -3  819.02   20.60
  -2   6  -3  871.51   21.70
   2   6   3  822.62   20.60
   2   6   3  828.12   20.50
   2   6   3  861.21   21.40
  -2   6  -3  789.22   21.40
  -2   6  -3  807.32   20.70
  -2   6  -3  824.92   21.60
   2   6   3  800.52   20.40
  -2   6  -3  813.12   20.90
   4  -6   3   28.80    1.80
   4  -6   3   30.60    1.80
   4  -6   3   25.80    2.10
   4  -6   3   27.30    2.40
  -4  -6  -3   30.10    2.40
   4  -6   3   25.90    2.40
  -4  -6  -3   27.10    1.80
  -4  -6  -3   27.30    1.90
  -4  -6  -3   28.00    1.20
  -4   6  -3   28.00    2.30
  -4   6  -3   31.00    1.70
   4   6   3   28.80    2.10
  -4   6  -3   26.40    2.60
   4   6   3   31.30    1.80
   4   6   3   28.10    1.50
   4   6   3   27.10    1.90
   4   6   3   26.30    2.30
  -4   6  -3   28.40    1.70
   6  -6   3    2.00    1.20
  -6  -6  -3    3.20    1.20
   6  -6   3    3.80    1.40
  -6  -6  -3    1.30    1.30
  -6  -6  -3    2.30    0.70
   6  -6   3    3.50    1.00
   6  -6   3    4.20    1.60
   6  -6   3    4.10    1.00
   6   6   3    3.50    1.20
   6   6   3    2.80    1.10
   6   6   3    2.80    0.80
  -6   6  -3    2.50    1.60
  -6   6  -3    1.60    1.30
  -6   6  -3    1.90    0.90
   6   6   3    3.20    1.10
   8  -6   3  171.08    5.80
  -8  -6  -3  168.48    6.50
   8  -6   3  166.98    7.00
   8  -6   3  171.78    6.30
   8  -6   3  173.08    7.10
   8  -6   3  171.68    5.70
  -8  -6  -3  171.08    6.30
  -8  -6  -3  170.38    5.30
  -8  -6  -3  172.38    7.00
  -8   6  -3  174.28    7.20
   8   6   3  174.78    5.70
  -8   6  -3  157.48    5.60
   8   6   3  169.88    6.40
   8   6   3  163.78    6.20
   8   6   3  159.68    6.40
  -8   6  -3  159.88    6.90
  10  -6   3   94.69    4.20
 -10  -6  -3   98.59    4.10
 -10  -6  -3   94.89    5.30
 -10  -6  -3   85.79    5.50
  10  -6   3   91.89    5.70
  10  -6   3  100.09    6.00
 -10  -6  -3  104.09    5.70
  10  -6   3   89.79    4.20
  10  -6   3   93.99    5.10
  10   6   3   87.59    4.70
  10   6   3   97.59    5.20
 -10   6  -3   96.49    6.10
  10   6   3   91.19    4.10
 -10   6  -3   91.69    5.40
 -10   6  -3   91.69    4.20
  10   6   3   92.29    5.10
  12  -6   3   21.10    2.90
 -12  -6  -3   18.80    2.40
 -12  -6  -3   21.50    3.80
  12  -6   3   16.10    3.50
 -12  -6  -3   17.50    4.00
  12  -6   3   14.50    2.20
  12  -6   3   20.50    3.90
 -12  -6  -3   24.60    4.10
  12  -6   3   16.10    2.30
 -12   6  -3   16.30    2.20
 -12   6  -3   21.20    4.20
  12   6   3   22.00    3.30
  12   6   3   14.80    2.50
  12   6   3   27.10    3.60
  12   6   3   18.70    2.40
 -12   6  -3   21.30    3.80
 -13  -7   3    8.00    2.20
 -13  -7   3    7.70    2.90
 -13  -7   3    6.50    3.30
  13  -7  -3    9.70    2.10
  13  -7  -3    5.60    3.10
  13  -7  -3    7.10    1.80
 -13   7   3    4.20    2.40
  13   7  -3    9.90    3.40
  13   7  -3    8.90    3.00
 -13   7   3    7.90    1.70
  13   7  -3   10.10    1.70
 -13   7   3    8.70    2.00
 -13   7   3    5.20    2.60
  13   7  -3    9.50    2.60
  11  -7  -3   57.79    4.60
  11  -7  -3   57.49    4.60
 -11  -7   3   57.69    3.80
  11  -7  -3   59.99    3.30
 -11  -7   3   56.69    4.50
  11  -7  -3   61.79    3.10
 -11  -7   3   61.79    4.60
 -11   7   3   57.39    4.40
  11   7  -3   61.49    4.70
 -11   7   3   58.09    2.80
 -11   7   3   57.69    3.30
 -11   7   3   62.49    4.10
  11   7  -3   63.79    5.10
  11   7  -3   62.19    3.20
  11   7  -3   55.39    4.80
  11   7  -3   54.99    3.60
  -9  -7   3  205.08    7.50
   9  -7  -3  206.78    7.70
   9  -7  -3  213.28    6.70
   9  -7  -3  206.48    7.70
  -9  -7   3  217.18    7.20
   9  -7  -3  211.88    6.30
  -9  -7   3  201.68    7.80
  -9  -7   3  234.18    8.90
   9   7  -3  215.68    8.20
   9   7  -3  215.58    7.10
   9   7  -3  224.48    7.60
   9   7  -3  217.38    8.00
  -9   7   3  217.78    6.40
  -9   7   3  214.08    7.60
  -9   7   3  210.08    6.70
  -9   7   3  205.38    6.00
  -9   7   3  215.28    7.50
  -7  -7   3  106.99    5.30
   7  -7  -3  100.49    4.50
  -7  -7   3  111.09    4.90
  -7  -7   3  102.79    4.30
   7  -7  -3  103.19    3.80
   7  -7  -3  102.79    4.50
   7  -7  -3   97.89    3.30
  -7  -7   3  103.09    4.20
   7   7  -3  103.29    5.40
   7   7  -3  105.99    4.20
  -7   7   3   99.29    3.60
   7   7  -3  102.39    4.90
   7   7  -3  106.99    4.10
   7   7  -3  100.99    4.90
  -7   7   3  104.69    4.30
  -7   7   3  103.99    4.40
  -7   7   3  103.39    3.50
  -5  -7   3  457.15   13.40
   5  -7  -3  457.05   12.60
   5  -7  -3  452.85   11.50
  -5  -7   3  463.25   13.20
   5  -7  -3  459.85   12.60
  -5  -7   3  449.76   12.40
   5  -7  -3  461.95   12.40
  -5  -7   3  479.35   12.70
  -5   7   3  460.25   11.90
   5   7  -3  436.56   13.60
  -5   7   3  465.95   12.10
  -5   7   3  460.95   12.50
   5   7  -3  451.55   12.80
   5   7  -3  461.15   12.40
   5   7  -3  460.85   13.10
   5   7  -3  468.05   13.30
   5   7  -3  446.26   12.50
  -5   7   3  476.25   12.60
  -3  -7   3  284.27    8.40
   3  -7  -3  279.97    8.40
   3  -7  -3  292.07    8.20
  -3  -7   3  291.07    8.40
  -3  -7   3  295.47    8.10
   3  -7  -3  289.27    8.10
  -3  -7   3  305.97    9.00
  -3  -7   3  300.77    9.30
  -3   7   3  290.07    8.00
  -3   7   3  297.37    8.10
  -3   7   3  302.47    8.10
   3   7  -3  288.17    8.10
   3   7  -3  289.47    8.40
   3   7  -3  303.67    8.90
   3   7  -3  282.97    9.20
   3   7  -3  291.37    8.40
  -3   7   3  295.47    7.70
  -3   7   3  298.37    8.10
   3   7  -3  290.07    9.00
  -1  -7   3  151.28    5.30
   1  -7  -3  161.18    4.90
  -1  -7   3  168.78    5.30
  -1  -7   3  162.18    5.20
   1  -7  -3  165.68    5.50
   1  -7  -3  161.08    4.80
  -1  -7   3  171.28    5.80
  -1  -7   3  161.48    6.00
   1   7  -3  167.78    5.00
  -1   7   3  168.38    4.80
   1   7  -3  169.48    5.10
   1   7  -3  162.48    5.20
  -1   7   3  168.08    5.30
  -1   7   3  171.38    4.80
   1   7  -3  166.18    5.90
   1   7  -3  164.18    5.80
  -1   7   3  164.98    4.60
  -1   7   3  161.88    4.70
  -1   7   3  172.58    4.80
  -1   7   3  165.78    4.70
   1   7  -3  161.08    5.60
   1  -7   3  287.07    8.90
   1  -7   3  294.17    8.20
  -1  -7  -3  255.77    8.10
  -1  -7  -3  278.17    8.20
   1  -7   3  289.47    8.10
   1  -7   3  279.57    8.90
  -1   7  -3  283.47    8.90
  -1   7  -3  287.27    7.90
  -1   7  -3  293.27    8.90
   1   7   3  296.47    7.80
   1   7   3  297.07    7.80
  -1   7  -3  280.47    8.00
   1   7   3  287.47    7.60
   1   7   3  290.47    7.80
   1   7   3  282.37    7.50
  -1   7  -3  260.67    8.10
   1   7   3  292.27    8.00
   1   7   3  298.47    8.50
  -1   7  -3  293.47    8.70
  -3  -7  -3  177.18    5.40
  -3  -7  -3  178.58    5.50
   3  -7   3  180.18    6.40
  -3  -7  -3  178.28    6.00
   3  -7   3  187.78    5.60
   3  -7   3  162.28    6.40
   3  -7   3  181.28    5.60
  -3   7  -3  177.18    5.40
  -3   7  -3  164.88    6.30
   3   7   3  174.18    5.30
  -3   7  -3  186.38    5.50
   3   7   3  178.38    5.10
   3   7   3  179.18    6.10
   3   7   3  170.88    5.40
  -3   7  -3  179.78    5.80
   3   7   3  169.78    5.60
  -3   7  -3  178.38    6.40
  -3   7  -3  179.18    6.20
   3   7   3  187.38    5.80
  -5  -7  -3   70.79    2.40
  -5  -7  -3   71.19    3.30
  -5  -7  -3   65.49    3.30
   5  -7   3   75.79    4.00
  -5  -7  -3   68.39    3.70
   5  -7   3   72.89    4.00
   5  -7   3   71.89    3.50
  -5   7  -3   68.99    2.90
  -5   7  -3   71.49    3.00
  -5   7  -3   78.69    4.30
   5   7   3   75.09    3.40
   5   7   3   69.29    3.10
   5   7   3   70.99    2.80
  -5   7  -3   70.49    4.00
   5   7   3   67.09    3.70
   5   7   3   70.69    3.40
   7  -7   3   43.70    2.60
   7  -7   3   46.10    3.70
  -7  -7  -3   44.90    3.50
   7  -7   3   43.60    2.60
   7  -7   3   44.40    3.20
  -7  -7  -3   45.40    3.70
  -7  -7  -3   42.00    3.30
   7  -7   3   50.29    3.90
  -7  -7  -3   45.60    2.20
   7   7   3   47.50    2.50
  -7   7  -3   45.70    2.60
   7   7   3   48.70    3.00
  -7   7  -3   47.00    4.00
   7   7   3   44.00    3.00
   7   7   3   42.30    3.00
   9  -7   3  111.29    4.60
  -9  -7  -3  102.69    5.80
   9  -7   3  116.79    6.10
  -9  -7  -3  106.99    5.50
  -9  -7  -3  116.79    5.50
  -9  -7  -3  108.79    4.10
   9  -7   3  111.69    5.10
   9  -7   3  113.89    4.60
   9  -7   3  107.09    5.90
   9   7   3  101.59    4.90
  -9   7  -3  111.19    5.90
  -9   7  -3  102.19    4.40
   9   7   3  114.09    5.30
  -9   7  -3  115.99    6.40
   9   7   3  101.59    4.30
   9   7   3  110.29    5.30
  11  -7   3   36.50    5.00
 -11  -7  -3   54.69    5.20
  11  -7   3   40.90    3.40
  11  -7   3   44.50    3.50
  11  -7   3   51.89    5.30
  11  -7   3   43.20    4.20
 -11  -7  -3   43.20    5.40
 -11  -7  -3   45.10    4.80
  11   7   3   42.60    5.30
  11   7   3   46.00    4.50
 -11   7  -3   45.80    5.50
 -11   7  -3   41.60    3.30
  11   7   3   43.40    3.30
  11   7   3   45.50    3.80
 -11   7  -3   44.30    5.00
  12  -8  -3  113.89    5.10
  12  -8  -3  101.89    6.50
 -12  -8   3  106.79    7.50
  12  -8  -3  105.89    6.50
 -12  -8   3  112.19    6.50
 -12  -8   3  120.29    6.70
 -12  -8   3  112.59    5.40
  12  -8  -3  115.69    4.60
 -12   8   3  109.79    6.10
  12   8  -3  109.39    5.40
  12   8  -3  121.79    5.80
 -12   8   3  107.69    5.80
 -12   8   3  112.49    5.00
  12   8  -3  115.19    6.50
  12   8  -3  104.89    6.70
  10  -8  -3   26.10    3.20
  10  -8  -3   31.20    2.30
  10  -8  -3   31.90    2.70
 -10  -8   3   29.30    3.70
 -10  -8   3   28.00    2.90
 -10  -8   3   35.00    3.60
  10  -8  -3   30.20    3.80
 -10  -8   3   28.70    3.80
  10   8  -3   31.90    3.80
 -10   8   3   28.60    2.40
  10   8  -3   28.10    3.90
  10   8  -3   28.10    3.50
 -10   8   3   35.30    3.50
  10   8  -3   26.70    2.80
 -10   8   3   31.80    3.30
   8  -8  -3  331.57   10.40
  -8  -8   3  323.87    9.90
   8  -8  -3  322.57    8.90
   8  -8  -3  324.27   10.40
   8  -8  -3  332.57    9.60
  -8  -8   3  333.37   10.80
  -8  -8   3  347.27   11.30
  -8  -8   3  340.27   10.30
   8   8  -3  323.57    9.80
   8   8  -3  335.97    9.90
  -8   8   3  331.17    9.40
  -8   8   3  310.87   10.20
  -8   8   3  330.97    9.20
  -8   8   3  339.47   10.20
   8   8  -3  326.97   10.90
   8   8  -3  338.77   10.80
   8   8  -3  322.67   11.50
  -6  -8   3  150.98    6.20
  -6  -8   3  143.39    5.80
   6  -8  -3  143.39    4.20
   6  -8  -3  144.59    5.00
   6  -8  -3  118.29    6.50
  -6  -8   3  146.89    5.20
   6  -8  -3  139.99    5.30
  -6  -8   3  147.49    5.20
   6   8  -3  153.68    5.80
  -6   8   3  143.79    5.10
  -6   8   3  137.39    5.20
   6   8  -3  142.79    5.10
  -6   8   3  148.49    4.60
   6   8  -3  142.09    6.30
   6   8  -3  146.49    5.10
   6   8  -3  143.49    5.90
   6   8  -3  147.99    5.50
  -6   8   3  145.79    4.50
  -4  -8   3   36.10    2.40
   4  -8  -3   36.80    2.30
   4  -8  -3   37.40    2.30
  -4  -8   3   38.60    2.20
  -4  -8   3   39.80    3.20
   4  -8  -3   39.50    2.40
  -4  -8   3   44.00    3.00
  -4  -8   3   43.40    2.40
   4   8  -3   42.20    2.50
  -4   8   3   39.40    2.20
  -4   8   3   42.80    2.10
   4   8  -3   39.40    2.40
  -4   8   3   37.30    2.10
  -4   8   3   38.60    1.70
   4   8  -3   38.00    2.20
  -4   8   3   38.30    2.10
   4   8  -3   39.00    3.10
   4   8  -3   40.50    2.80
   4   8  -3   37.50    2.90
  -2  -8   3   10.60    1.90
  -2  -8   3    9.80    1.30
   2  -8  -3   10.50    1.30
  -2  -8   3   11.50    1.20
   2  -8  -3    9.30    1.40
   2  -8  -3   10.20    1.30
  -2  -8   3   13.50    1.60
  -2  -8   3    6.10    1.30
   2   8  -3    9.20    1.50
  -2   8   3   11.40    0.70
   2   8  -3   11.00    1.70
  -2   8   3   11.70    1.30
   2   8  -3    7.80    1.60
   2   8  -3   11.90    1.50
  -2   8   3    9.30    0.90
   2   8  -3   11.40    1.80
  -2   8   3   11.50    1.20
   2   8  -3   11.00    1.50
  -2   8   3   11.20    1.20
   2   8  -3   11.50    1.40
  -2   8   3   10.80    1.30
  -2   8   3   11.00    1.40
   0  -8   3  150.78    5.10
   0  -8  -3  150.38    5.40
   0  -8  -3  150.78    4.80
   0  -8   3  149.79    5.80
   0  -8   3  154.98    5.10
   0   8   3  152.78    4.70
   0   8   3  147.69    4.40
   0   8   3  151.18    4.50
   0   8  -3  144.79    5.70
   0   8  -3  149.59    4.90
   0   8   3  152.28    4.60
   0   8  -3  153.58    5.60
   0   8   3  153.28    5.20
   0   8   3  156.38    4.50
   0   8  -3  157.28    5.10
   0   8   3  149.69    4.60
   0   8  -3  156.08    5.80
   0   8  -3  142.39    5.60
   0   8  -3  155.58    4.80
  -2  -8  -3  828.22   21.70
   2  -8   3  845.82   21.90
  -2  -8  -3  828.82   22.10
   2  -8   3  841.42   22.80
  -2  -8  -3  832.02   21.60
   2  -8   3  874.01   22.00
   2  -8   3  842.52   22.90
  -2   8  -3  861.01   21.70
  -2   8  -3  877.21   22.10
  -2   8  -3  884.71   22.90
  -2   8  -3  852.71   21.80
   2   8   3  860.91   21.70
  -2   8  -3  813.42   22.50
  -2   8  -3  887.71   22.90
   2   8   3  844.92   21.50
   2   8   3  851.71   22.40
   2   8   3  827.72   21.30
   2   8   3  850.81   21.80
   2   8   3  845.92   21.60
   4  -8   3   97.19    4.70
  -4  -8  -3   94.39    4.40
  -4  -8  -3   93.19    3.90
   4  -8   3   96.19    4.60
   4  -8   3  100.09    4.70
  -4  -8  -3   97.39    3.80
  -4   8  -3  100.29    5.00
  -4   8  -3  102.29    4.80
  -4   8  -3  103.09    3.70
   4   8   3   93.19    4.30
   4   8   3   98.89    4.10
   4   8   3  101.59    3.80
   4   8   3   92.89    3.40
   4   8   3  100.29    3.90
   4   8   3  105.09    4.50
  -4   8  -3  105.49    5.00
  -4   8  -3   96.79    3.60
   6  -8   3  536.75   14.60
  -6  -8  -3  528.15   14.60
   6  -8   3  551.14   14.40
   6  -8   3  506.55   15.60
   6  -8   3  542.55   15.70
  -6  -8  -3  523.85   13.50
  -6  -8  -3  508.65   15.30
   6  -8   3  538.15   14.40
   6   8   3  527.25   14.00
  -6   8  -3  517.85   14.20
   6   8   3  515.45   14.80
  -6   8  -3  539.25   15.70
   6   8   3  515.65   14.90
   6   8   3  515.65   14.50
  -6   8  -3  521.85   14.20
   6   8   3  515.75   15.30
   8  -8   3  378.66   11.10
  -8  -8  -3  361.46   11.50
   8  -8   3  367.06   12.20
   8  -8   3  369.86   10.70
  -8  -8  -3  362.56   12.00
   8  -8   3  364.06   12.20
  -8  -8  -3  374.76   11.30
   8  -8   3  352.96   10.60
  -8  -8  -3  364.46   10.00
   8   8   3  343.67   11.20
  -8   8  -3  348.37   10.50
   8   8   3  358.96   10.40
   8   8   3  352.26   11.10
   8   8   3  359.16   11.10
  -8   8  -3  382.36   12.40
   8   8   3  354.26   11.70
  -8   8  -3  371.86   12.10
 -10  -8  -3  132.49    7.30
  10  -8   3  137.69    7.30
  10  -8   3  137.89    5.70
  10  -8   3  148.39    6.20
  10  -8   3  145.79    5.70
 -10  -8  -3  145.39    5.30
 -10  -8  -3  147.29    6.90
  10  -8   3  156.38    7.60
 -10  -8  -3  148.79    7.10
 -10   8  -3  137.19    7.00
  10   8   3  136.59    6.10
  10   8   3  133.09    6.80
 -10   8  -3  136.89    7.60
  10   8   3  149.49    6.70
 -10   8  -3  136.19    5.50
  10   8   3  139.89    5.50
  10   8   3  137.69    6.50
  11  -9  -3   18.90    2.30
  11  -9  -3   23.50    2.50
 -11  -9   3   18.90    2.90
  11  -9  -3   13.80    3.00
 -11  -9   3   23.00    4.60
  11  -9  -3   20.00    3.10
 -11  -9   3   24.10    3.60
 -11  -9   3   15.20    2.30
  11   9  -3   31.10    4.40
 -11   9   3   18.30    2.80
  11   9  -3   22.30    3.30
  11   9  -3   23.80    3.40
 -11   9   3   17.50    2.50
  11   9  -3   22.80    2.80
 -11   9   3   20.40    2.70
  11   9  -3   21.30    2.80
  -9  -9   3   27.30    3.30
   9  -9  -3   24.40    2.00
   9  -9  -3   28.70    3.60
  -9  -9   3   26.80    3.80
  -9  -9   3   31.80    4.50
   9  -9  -3   23.80    2.70
   9  -9  -3   23.80    3.20
  -9  -9   3   25.30    2.80
   9   9  -3   28.70    2.80
  -9   9   3   22.50    3.00
   9   9  -3   31.40    3.60
  -9   9   3   26.10    2.10
   9   9  -3   29.00    3.70
  -9   9   3   24.40    2.20
  -9   9   3   21.60    3.00
   9   9  -3   31.30    4.40
   7  -9  -3  107.79    5.50
   7  -9  -3  116.79    3.70
  -7  -9   3  114.09    4.90
  -7  -9   3  113.79    5.90
   7  -9  -3  113.99    5.00
  -7  -9   3  118.69    4.70
   7  -9  -3  115.19    5.10
   7   9  -3  121.49    5.40
   7   9  -3  114.39    4.70
  -7   9   3  118.19    4.10
  -7   9   3  114.89    4.10
   7   9  -3  115.99    4.70
  -7   9   3  122.19    4.80
   7   9  -3  124.79    6.10
  -7   9   3  110.99    4.80
   7   9  -3  119.19    5.70
   5  -9  -3   22.20    2.30
  -5  -9   3   23.50    2.30
  -5  -9   3   26.20    2.30
   5  -9  -3   24.90    2.50
  -5  -9   3   23.80    3.10
  -5  -9   3   27.20    2.50
   5  -9  -3   27.40    2.40
  -5  -9   3   27.10    2.90
   5   9  -3   28.60    3.00
   5   9  -3   23.70    2.20
   5   9  -3   27.80    3.00
  -5   9   3   24.20    1.70
   5   9  -3   24.60    2.60
   5   9  -3   27.00    2.20
  -5   9   3   24.50    1.50
  -5   9   3   25.90    2.10
   3  -9  -3  422.86   11.60
  -3  -9   3  429.06   11.40
   3  -9  -3  423.56   11.60
  -3  -9   3  423.76   12.50
  -3  -9   3  428.16   11.80
  -3  -9   3  418.86   11.90
   3  -9  -3  424.36   12.00
   3   9  -3  383.16   12.30
  -3   9   3  417.76   10.90
  -3   9   3  399.86   11.30
  -3   9   3  418.46   11.40
  -3   9   3  417.86   11.50
   3   9  -3  421.56   11.50
  -3   9   3  430.26   11.50
   3   9  -3  428.86   12.40
   3   9  -3  417.06   11.80
   3   9  -3  426.96   12.70
   3   9  -3  412.26   12.70
  -1  -9   3   79.29    2.90
  -1  -9   3   80.19    3.70
   1  -9  -3   77.79    2.90
   1  -9  -3   79.49    3.30
  -1  -9   3   74.69    4.00
   1  -9  -3   87.19    3.90
  -1  -9   3   72.49    4.30
  -1   9   3   80.79    3.10
  -1   9   3   80.79    2.80
  -1   9   3   82.39    3.10
   1   9  -3   80.29    4.20
   1   9  -3   80.59    3.20
   1   9  -3   76.59    3.80
   1   9  -3   85.79    4.20
  -1   9   3   79.19    3.50
   1   9  -3   80.99    3.30
  -1   9   3   74.29    2.90
  -1   9   3   83.49    3.10
   1   9  -3   76.59    3.40
   1   9  -3   82.49    4.20
  -1   9   3   79.19    2.50
   1  -9   3  188.78    7.10
   1  -9   3  193.48    6.30
   1  -9   3  200.78    6.30
  -1  -9  -3  186.58    5.90
   1  -9   3  192.58    7.00
  -1  -9  -3  198.48    6.20
   1   9   3  199.58    5.90
   1   9   3  186.48    5.70
  -1   9  -3  206.18    7.20
  -1   9  -3  186.68    6.40
  -1   9  -3  198.18    6.00
   1   9   3  187.38    5.90
  -1   9  -3  182.68    6.90
   1   9   3  193.08    5.80
  -1   9  -3  190.38    6.80
   1   9   3  193.28    5.60
   1   9   3  194.58    6.50
   1   9   3  192.98    5.70
  -1   9  -3  195.68    7.20
  -1   9  -3  191.48    6.00
   3  -9   3  256.67    8.70
  -3  -9  -3  250.87    7.60
   3  -9   3  265.17    7.90
  -3  -9  -3  250.17    7.70
  -3  -9  -3  256.77    8.20
   3  -9   3  264.27    7.90
  -3   9  -3  257.07    7.60
   3   9   3  261.47    7.80
   3   9   3  249.97    7.70
   3   9   3  249.97    7.30
  -3   9  -3  256.47    8.90
  -3   9  -3  262.47    7.60
   3   9   3  251.97    8.30
   3   9   3  266.27    7.70
   3   9   3  249.38    7.50
  -3   9  -3  248.58    8.50
  -3   9  -3  275.57    8.10
  -3   9  -3  249.88    8.70
  -5  -9  -3  118.79    4.80
   5  -9   3  127.39    5.80
  -5  -9  -3  116.49    5.40
   5  -9   3  120.29    4.80
  -5  -9  -3  116.79    4.70
   5  -9   3  120.29    4.60
   5  -9   3  120.09    5.70
   5  -9   3  120.99    4.60
   5   9   3  116.69    5.00
   5   9   3  110.09    4.10
  -5   9  -3  115.49    4.30
  -5   9  -3  117.29    5.70
   5   9   3  118.59    4.60
  -5   9  -3  115.39    4.30
   5   9   3  114.59    5.20
   5   9   3  117.69    4.70
  -5   9  -3  126.19    5.50
   5   9   3  113.59    4.50
  -5   9  -3  119.69    5.50
  -7  -9  -3  192.88    6.90
   7  -9   3  191.28    6.70
   7  -9   3  190.08    7.80
  -7  -9  -3  187.58    7.50
   7  -9   3  187.98    6.40
  -7  -9  -3  185.28    5.50
   7  -9   3  194.58    6.50
   7  -9   3  185.28    7.80
  -7   9  -3  188.98    7.70
   7   9   3  174.38    6.80
   7   9   3  181.28    6.60
  -7   9  -3  186.48    6.20
   7   9   3  187.68    6.70
   7   9   3  183.18    7.40
   7   9   3  186.48    6.10
  -7   9  -3  183.58    6.20
  -7   9  -3  180.68    7.90
   9  -9   3    9.40    2.80
   9  -9   3    9.20    2.10
  -9  -9  -3   11.80    1.50
  -9  -9  -3    8.50    2.70
  -9  -9  -3    9.60    2.60
   9  -9   3    9.60    1.90
  -9  -9  -3    8.00    2.50
   9  -9   3   12.80    2.00
   9  -9   3   11.10    2.90
   9   9   3    8.00    2.20
  -9   9  -3   13.30    2.80
   9   9   3    5.70    1.70
  -9   9  -3   13.00    1.80
  -9   9  -3   12.70    3.20
   9   9   3   11.30    1.70
   9   9   3   10.20    2.10
   9   9   3   10.40    2.20
  11  -9   3    5.70    3.00
  11  -9   3    6.10    3.00
 -11  -9  -3   11.60    3.40
 -11  -9  -3    7.00    4.10
  11  -9   3    7.20    2.50
  11  -9   3    5.70    3.50
 -11  -9  -3   12.00    2.10
 -11   9  -3    6.50    1.70
  11   9   3   12.60    2.10
  11   9   3    8.70    2.10
 -11   9  -3   14.70    3.80
  11   9   3    7.20    2.70
  11   9   3    7.40    2.50
 -11   9  -3    6.50    2.70
  10 -10  -3    3.80    1.70
  10 -10  -3    3.70    2.20
 -10 -10   3    3.20    2.10
 -10 -10   3    5.10    2.90
 -10 -10   3   -0.70    1.50
  10 -10  -3    2.20    1.30
  10 -10  -3    3.80    2.50
 -10 -10   3    3.60    2.50
  10  10  -3    4.30    1.90
  10  10  -3   -0.20    2.20
 -10  10   3    2.00    1.00
  10  10  -3    0.50    1.60
  10  10  -3   -1.80    2.30
 -10  10   3    0.80    1.80
  10  10  -3    1.20    2.70
 -10  10   3    5.00    1.90
 -10  10   3    4.00    1.30
   8 -10  -3   12.30    1.30
  -8 -10   3    8.90    2.70
  -8 -10   3   16.80    2.40
   8 -10  -3   10.30    2.20
  -8 -10   3    9.40    1.70
  -8 -10   3    8.50    2.30
   8 -10  -3   13.90    2.00
   8 -10  -3   13.50    2.40
  -8  10   3   12.20    1.50
  -8  10   3    9.70    1.90
   8  10  -3   10.10    1.90
   8  10  -3    9.80    2.80
   8  10  -3   13.70    2.70
  -8  10   3   10.20    2.00
   8  10  -3   15.90    2.60
   8  10  -3   13.30    2.00
  -8  10   3   12.30    1.80
   6 -10  -3   51.29    3.40
   6 -10  -3   59.19    3.60
  -6 -10   3   46.60    6.40
   6 -10  -3   58.89    3.50
  -6 -10   3   53.69    4.50
  -6 -10   3   54.99    3.20
  -6 -10   3   57.49    3.40
  -6  10   3   57.39    3.20
   6  10  -3   54.19    3.40
  -6  10   3   56.09    2.60
   6  10  -3   53.09    4.30
   6  10  -3   57.09    4.10
  -6  10   3   57.29    3.30
  -6  10   3   52.29    2.80
   6  10  -3   59.19    3.90
   6  10  -3   52.69    3.30
   6  10  -3   55.59    3.20
   4 -10  -3   20.40    2.10
  -4 -10   3   16.20    2.10
  -4 -10   3   17.80    2.00
  -4 -10   3   12.20    1.60
   4 -10  -3   15.10    2.40
  -4 -10   3   16.60    2.30
   4  10  -3   18.00    2.00
   4  10  -3   17.60    2.50
   4  10  -3   13.10    2.20
   4  10  -3   15.50    2.50
   4  10  -3   13.70    1.80
   4  10  -3   19.70    2.60
  -4  10   3   13.50    1.80
  -4  10   3   12.00    1.60
  -4  10   3   14.60    1.80
   4  10  -3   15.70    2.00
  -4  10   3   15.20    1.90
  -4  10   3   15.80    1.30
  -2 -10   3  161.78    6.20
  -2 -10   3  151.98    5.70
  -2 -10   3  144.39    6.60
  -2 -10   3  171.28    5.60
   2 -10  -3  152.28    5.40
  -2 -10   3  163.48    5.00
   2  10  -3  151.68    5.50
  -2  10   3  157.38    5.30
  -2  10   3  159.38    5.40
   2  10  -3  153.98    6.30
  -2  10   3  157.38    5.10
   2  10  -3  171.48    6.20
   2  10  -3  158.58    5.30
   2  10  -3  155.38    5.60
  -2  10   3  156.78    5.00
   2  10  -3  143.29    6.20
  -2  10   3  156.98    4.70
   2  10  -3  150.98    6.20
  -2  10   3  151.18    5.20
   0 -10   3  304.47    8.30
   0 -10   3  298.57   10.10
   0 -10  -3  292.57    9.70
   0 -10  -3  292.17    8.60
   0 -10   3  316.07    9.30
   0  10   3  299.67    8.50
   0  10   3  306.27    8.60
   0  10  -3  303.37   10.00
   0  10  -3  308.87    9.90
   0  10   3  291.77    9.10
   0  10   3  304.47    8.40
   0  10  -3  300.67    9.90
   0  10  -3  304.77    8.70
   0  10  -3  306.97    9.70
   0  10   3  292.27    8.60
   0  10   3  306.97    8.10
   0  10  -3  298.77    8.80
   0  10  -3  308.47    9.10
   0  10   3  300.17    8.70
   0  10   3  300.87    8.40
  -2 -10  -3  208.98    6.90
   2 -10   3  228.18    7.20
   2 -10   3  212.28    7.00
   2 -10   3  213.28    7.90
  -2 -10  -3  207.78    6.60
   2 -10   3  219.28    7.90
  -2  10  -3  194.28    6.70
  -2  10  -3  173.58    7.00
   2  10   3  220.68    6.60
   2  10   3  177.08    8.10
  -2  10  -3  214.28    7.00
   2  10   3  214.58    6.40
  -2  10  -3  215.68    7.90
   2  10   3  219.38    6.60
   2  10   3  200.18    6.70
  -2  10  -3  215.58    7.60
   2  10   3  213.08    6.20
  -2  10  -3  206.28    8.50
   2  10   3  219.78    6.30
  -4 -10  -3   13.90    2.10
   4 -10   3   15.90    2.00
  -4 -10  -3   14.50    1.90
   4 -10   3   15.50    2.10
  -4 -10  -3   14.50    1.80
   4 -10   3   13.90    2.40
  -4  10  -3   14.60    1.80
  -4  10  -3   12.20    2.20
  -4  10  -3   15.10    2.50
   4  10   3   17.30    1.90
   4  10   3   16.30    1.90
   4  10   3   13.50    1.80
  -4  10  -3   14.40    2.20
   4  10   3   15.30    2.00
  -4  10  -3   18.60    2.40
   4  10   3   17.30    1.70
   6 -10   3  110.09    4.70
  -6 -10  -3  114.09    5.50
   6 -10   3  105.19    4.60
   6 -10   3  103.59    5.50
  -6 -10  -3  104.19    5.80
  -6 -10  -3  103.79    4.80
   6 -10   3  106.49    4.50
   6 -10   3  108.09    5.80
  -6  10  -3  103.49    5.50
  -6  10  -3  104.39    4.20
   6  10   3  101.99    5.20
   6  10   3  103.79    4.50
  -6  10  -3  102.29    5.40
  -6  10  -3  108.49    4.30
   6  10   3  100.49    4.90
   6  10   3  104.79    4.50
   6  10   3  108.49    4.20
   6  10   3   94.99    6.70
  -6  10  -3   94.49    7.10
  -8 -10  -3    4.50    2.20
  -8 -10  -3    9.00    2.50
   8 -10   3    5.70    2.30
  -8 -10  -3    9.20    1.40
  -8 -10  -3    7.00    2.50
   8 -10   3    4.10    2.50
   8 -10   3    5.80    2.00
   8 -10   3    8.40    1.90
   8 -10   3    6.50    1.70
  -8  10  -3    7.50    1.60
  -8  10  -3   12.70    2.80
   8  10   3    8.80    1.80
  -8  10  -3    4.10    2.40
   8  10   3    7.70    1.60
   8  10   3    8.00    1.90
   8  10   3    2.90    2.10
   8  10   3    6.10    2.00
   8  10   3    5.60    2.40
  10 -10   3    7.00    3.30
 -10 -10  -3   12.30    3.60
  10 -10   3    8.50    2.20
 -10 -10  -3    7.30    3.20
  10 -10   3   10.40    3.00
 -10 -10  -3    9.80    3.20
  10 -10   3    9.60    2.30
  10 -10   3    6.80    2.30
 -10 -10  -3   12.40    1.90
 -10  10  -3    8.30    2.00
 -10  10  -3   14.40    3.90
  10  10   3   10.90    2.60
  10  10   3    8.70    2.70
  10  10   3   10.50    2.50
  10  10   3   12.10    2.00
 -10  10  -3   13.80    3.10
  10  10   3    6.80    1.70
  11 -11  -3   17.30    2.80
 -11 -11   3   19.60    3.80
 -11 -11   3   14.70    2.60
  11 -11  -3   22.20    3.60
 -11 -11   3   22.80    5.00
 -11  11   3   16.50    2.90
  11  11  -3   19.80    3.60
  11  11  -3   19.10    3.00
 -11  11   3   12.90    2.80
 -11  11   3   18.50    2.20
  11  11  -3   22.50    4.10
  11  11  -3   21.10    3.50
  -9 -11   3    9.50    3.40
  -9 -11   3    9.90    2.10
  -9 -11   3   11.40    2.80
   9 -11  -3   10.30    2.50
   9 -11  -3   12.60    2.60
   9 -11  -3   13.40    2.30
   9 -11  -3   11.90    1.60
  -9 -11   3   10.10    2.40
   9  11  -3   14.30    2.80
  -9  11   3   11.60    2.20
   9  11  -3   16.40    3.30
  -9  11   3   12.10    1.70
   9  11  -3   12.80    2.20
  -9  11   3   10.30    2.20
  -9  11   3   13.30    1.70
   9  11  -3   11.10    2.10
   9  11  -3   11.30    2.00
   7 -11  -3   23.20    3.10
  -7 -11   3   25.10    3.30
  -7 -11   3   23.60    2.80
  -7 -11   3   20.90    2.50
   7 -11  -3   26.00    3.10
  -7 -11   3   26.50    3.80
   7 -11  -3   26.00    3.30
  -7  11   3   22.70    2.90
   7  11  -3   25.50    2.70
   7  11  -3   25.40    3.40
  -7  11   3   24.60    2.20
   7  11  -3   21.00    3.20
  -7  11   3   19.50    2.60
  -7  11   3   22.40    2.70
   7  11  -3   24.80    2.90
   7  11  -3   24.20    3.30
  -7  11   3   22.30    2.00
   7  11  -3   20.90    2.90
  -5 -11   3  165.18    6.50
  -5 -11   3  180.08    6.10
   5 -11  -3  176.68    6.50
  -5 -11   3  163.88    6.10
  -5 -11   3  169.88    7.60
   5 -11  -3  167.18    6.10
   5 -11  -3  172.28    6.30
  -5  11   3  159.78    6.00
   5  11  -3  154.08    7.20
   5  11  -3  160.98    7.10
  -5  11   3  168.98    5.30
  -5  11   3  170.88    6.00
  -5  11   3  160.38    5.80
   5  11  -3  175.98    7.10
   5  11  -3  170.88    6.10
  -5  11   3  165.78    5.60
   5  11  -3  157.98    6.10
   5  11  -3  162.68    6.70
   5  11  -3  167.68    6.10
  -3 -11   3   25.80    2.20
   3 -11  -3   26.40    2.60
  -3 -11   3   21.10    2.40
   3 -11  -3   27.00    2.90
  -3 -11   3   28.00    2.90
  -3 -11   3   23.20    3.10
  -3  11   3   25.60    2.20
  -3  11   3   23.90    2.40
   3  11  -3   21.10    3.10
   3  11  -3   20.00    2.30
  -3  11   3   21.30    1.90
   3  11  -3   15.00    2.30
  -3  11   3   22.90    2.10
   3  11  -3   17.30    2.10
   3  11  -3   22.50    3.10
   3  11  -3   20.80    2.70
  -3  11   3   20.60    1.60
  -3  11   3   19.10    2.40
  -1 -11   3  355.56   11.90
  -1 -11   3  371.46   10.90
  -1 -11   3  349.57    9.80
  -1 -11   3  369.86   11.40
   1 -11  -3  360.76   11.10
   1 -11  -3  352.96    9.70
  -1  11   3  361.76   10.20
  -1  11   3  360.56    9.10
  -1  11   3  349.87   10.00
  -1  11   3  349.37   10.90
  -1  11   3  354.06   10.20
   1  11  -3  327.87   10.20
   1  11  -3  367.66   10.60
   1  11  -3  351.06   11.50
   1  11  -3  366.06   11.60
  -1  11   3  361.26   10.20
   1  11  -3  361.56   11.20
   1  11  -3  359.86   11.50
  -1  11   3  357.66    9.80
  -1  11   3  348.27    9.90
  -1 -11  -3  294.87    9.10
   1 -11   3  306.87    9.50
   1 -11   3  316.07    9.60
   1 -11   3  314.47   10.60
  -1 -11  -3  312.77    9.10
   1 -11   3  313.57    8.40
  -1  11  -3  310.27   10.30
   1  11   3  304.47    8.70
  -1  11  -3  305.57   10.40
   1  11   3  301.17    8.80
  -1  11  -3  305.47    9.00
  -1  11  -3  312.37    9.10
   1  11   3  311.27    9.10
   1  11   3  302.27    9.10
   1  11   3  298.77    9.00
  -1  11  -3  299.27    9.40
  -1  11  -3  304.67   10.20
   1  11   3  306.97    8.40
   1  11   3  309.07    9.60
  -1  11  -3  311.97   10.50
   1  11   3  310.47    8.70
  -3 -11  -3  149.39    5.50
   3 -11   3  156.28    5.80
   3 -11   3  152.48    6.80
   3 -11   3  153.88    5.70
   3 -11   3  155.08    6.80
  -3 -11  -3  158.48    6.00
   3  11   3  149.59    5.30
   3  11   3  163.48    5.20
  -3  11  -3  158.08    6.60
  -3  11  -3  152.48    5.40
   3  11   3  147.49    5.50
   3  11   3  155.58    6.10
  -3  11  -3  161.48    7.20
   3  11   3  150.88    5.60
  -3  11  -3  152.98    5.80
   3  11   3  158.08    5.10
   3  11   3  164.88    5.60
  -3  11  -3  146.89    6.60
  -3  11  -3  153.38    5.40
   5 -11   3  159.68    5.80
   5 -11   3  151.18    5.80
  -5 -11  -3  145.59    6.00
   5 -11   3  159.68    5.90
  -5 -11  -3  156.88    6.00
  -5 -11  -3  157.38    6.60
   5 -11   3  160.48    7.00
   5 -11   3  136.89    6.80
  -5  11  -3  163.08    6.10
   5  11   3  157.18    5.50
   5  11   3  151.08    6.00
   5  11   3  152.98    6.40
  -5  11  -3  153.58    5.50
  -5  11  -3  157.18    7.20
  -5  11  -3  151.48    5.40
   5  11   3  148.89    5.80
  -5  11  -3  160.68    6.90
  -5  11  -3  164.28    6.80
   5  11   3  145.09    5.60
   7 -11   3    6.40    2.50
  -7 -11  -3   10.90    2.70
  -7 -11  -3   10.20    2.40
   7 -11   3    8.50    2.60
   7 -11   3   10.50    2.10
   7 -11   3   12.40    2.00
   7 -11   3    9.90    1.80
  -7  11  -3    8.60    1.60
   7  11   3   10.20    2.20
   7  11   3   10.60    1.90
  -7  11  -3    6.20    2.30
  -7  11  -3    7.30    2.40
   7  11   3    8.80    2.30
   7  11   3   10.10    2.60
   7  11   3    7.10    1.50
  -7  11  -3    9.30    1.60
  -7  11  -3   12.70    3.30
   7  11   3    6.60    1.50
  -9 -11  -3   -0.40    2.60
  -9 -11  -3   -0.50    2.70
   9 -11   3   -1.40    2.90
   9 -11   3    0.10    2.00
  -9 -11  -3   -0.10    1.30
   9 -11   3    2.30    2.00
  -9 -11  -3    0.60    2.60
   9 -11   3   -1.10    1.70
   9 -11   3    0.00    2.70
   9  11   3    0.40    2.00
   9  11   3   -0.70    1.50
   9  11   3    2.10    2.00
   9  11   3   -2.70    2.30
   9  11   3    2.00    1.50
  -9  11  -3    1.80    2.50
  -9  11  -3   -2.30    2.80
   9  11   3    1.80    2.40
  -9  11  -3   -0.10    1.30
  10 -12  -3   17.10    2.10
  10 -12  -3   20.60    3.10
 -10 -12   3   26.80    4.00
 -10 -12   3   14.20    4.40
 -10 -12   3   17.20    2.60
  10  12  -3   21.90    3.80
  10  12  -3   14.20    2.50
  10  12  -3   17.40    3.80
  10  12  -3   24.80    3.80
 -10  12   3   15.80    2.00
 -10  12   3   13.00    2.60
 -10  12   3   19.80    2.60
  10  12  -3   19.20    2.90
 -10  12   3   16.90    2.70
  -8 -12   3   35.90    4.20
  -8 -12   3   32.70    3.50
  -8 -12   3   36.40    4.50
  -8 -12   3   40.70    5.70
   8 -12  -3   36.10    4.00
   8 -12  -3   29.30    3.90
   8 -12  -3   39.60    4.20
   8  12  -3   30.10    3.90
   8  12  -3   38.00    3.70
   8  12  -3   37.20    3.50
  -8  12   3   35.10    3.60
   8  12  -3   34.20    4.20
  -8  12   3   33.10    3.50
  -8  12   3   34.90    2.60
   8  12  -3   31.90    3.50
  -8  12   3   37.70    2.70
   8  12  -3   32.90    4.60
  -8  12   3   34.30    3.50
  -6 -12   3  101.69    4.80
  -6 -12   3   91.69    4.50
  -6 -12   3   88.39    5.40
   6 -12  -3   92.19    5.00
   6 -12  -3   85.09    4.70
   6 -12  -3   95.29    4.90
  -6 -12   3   93.49    6.40
   6  12  -3   83.39    4.40
   6  12  -3   90.99    5.70
  -6  12   3   94.39    4.00
   6  12  -3   92.79    5.20
   6  12  -3   91.19    5.70
  -6  12   3   89.69    4.30
   6  12  -3   85.09    4.50
  -6  12   3   85.39    4.50
   6  12  -3   97.79    5.50
   6  12  -3   98.29    4.50
  -6  12   3   87.09    3.70
  -6  12   3   92.19    4.40
  -4 -12   3   26.50    3.10
   4 -12  -3   25.40    3.00
  -4 -12   3   21.10    2.70
  -4 -12   3   28.70    3.70
   4 -12  -3   25.00    3.20
   4 -12  -3   24.70    2.70
  -4 -12   3   22.80    2.50
  -4  12   3   22.60    2.30
  -4  12   3   21.20    2.20
   4  12  -3   22.10    3.00
  -4  12   3   22.80    2.50
  -4  12   3   23.20    2.50
   4  12  -3   18.00    2.70
   4  12  -3   19.70    2.90
   4  12  -3   20.50    2.60
   4  12  -3   17.60    2.50
   4  12  -3   22.70    2.50
  -4  12   3   19.40    1.70
   4  12  -3   23.20    3.10
  -2 -12   3    4.70    2.30
   2 -12  -3    7.20    1.80
  -2 -12   3    5.00    1.80
  -2 -12   3    3.40    2.00
   2 -12  -3    4.10    1.70
  -2 -12   3    4.90    1.30
  -2  12   3    5.90    1.00
  -2  12   3    5.60    1.30
   2  12  -3    3.70    1.90
  -2  12   3    5.30    1.40
   2  12  -3    3.90    1.40
   2  12  -3    7.40    2.00
  -2  12   3    6.50    1.20
  -2  12   3    7.40    1.20
   2  12  -3    4.60    1.20
   2  12  -3    3.10    1.80
   2  12  -3    3.60    1.30
  -2  12   3    3.30    1.60
  -2  12   3    2.10    1.20
   2  12  -3    6.00    2.20
   0 -12  -3  152.78    6.40
   0 -12   3  148.19    6.90
   0 -12  -3  148.19    5.20
   0 -12   3  151.58    4.90
   0 -12   3  147.89    5.90
   0  12   3  150.98    5.80
   0  12   3  138.59    5.20
   0  12   3  148.39    5.30
   0  12   3  149.49    5.00
   0  12  -3  152.38    6.80
   0  12  -3  145.89    5.30
   0  12  -3  141.09    6.20
   0  12  -3  148.49    5.70
   0  12  -3  148.99    6.70
   0  12   3  143.29    5.10
   0  12   3  148.79    5.40
   0  12  -3  147.59    6.50
   0  12  -3  143.89    5.30
   0  12   3  150.68    4.40
   0  12   3  152.18    5.00
   2 -12   3   47.70    4.40
  -2 -12  -3   42.60    3.20
  -2 -12  -3   45.90    3.20
   2 -12   3   45.30    2.20
   2 -12   3   49.50    3.30
   2 -12   3   45.90    3.30
   2  12   3   40.10    2.90
  -2  12  -3   33.40    3.50
   2  12   3   44.60    2.90
  -2  12  -3   47.30    4.20
   2  12   3   43.00    2.60
   2  12   3   45.20    2.90
   2  12   3   44.60    2.50
   2  12   3   42.90    2.60
  -2  12  -3   44.30    2.80
  -2  12  -3   41.60    3.10
  -2  12  -3   39.40    2.60
  -2  12  -3   46.60    4.40
   2  12   3   46.10    2.30
   2  12   3   39.90    3.30
  -2  12  -3   47.90    3.80
  -4 -12  -3   66.29    3.90
   4 -12   3   58.59    4.90
   4 -12   3   61.39    4.80
   4 -12   3   56.69    3.80
  -4 -12  -3   69.89    4.40
   4 -12   3   65.89    3.80
  -4  12  -3   68.79    4.60
   4  12   3   59.29    3.30
   4  12   3   70.79    4.30
  -4  12  -3   70.19    4.70
  -4  12  -3   63.69    3.30
  -4  12  -3   65.29    5.10
  -4  12  -3   64.49    3.90
   4  12   3   67.39    3.50
  -4  12  -3   60.09    3.20
   4  12   3   68.49    3.80
   4  12   3   62.19    3.60
   4  12   3   65.19    3.40
   4  12   3   63.99    3.60
  -6 -12  -3   74.79    4.90
   6 -12   3   68.99    5.20
   6 -12   3   74.69    4.30
   6 -12   3   73.39    4.30
   6 -12   3   71.59    4.10
   6 -12   3   77.89    5.60
  -6 -12  -3   78.59    5.30
  -6 -12  -3   76.69    4.80
   6  12   3   71.69    4.80
  -6  12  -3   71.99    3.70
  -6  12  -3   77.39    5.40
  -6  12  -3   63.39    3.60
   6  12   3   75.09    4.40
   6  12   3   78.19    3.90
  -6  12  -3   74.19    5.00
   6  12   3   70.59    3.60
   6  12   3   74.79    4.50
   6  12   3   68.99    4.00
  -6  12  -3   73.99    4.50
  -6  12  -3   74.19    5.70
  -8 -12  -3   58.59    5.80
   8 -12   3   67.39    4.50
   8 -12   3   59.09    4.30
   8 -12   3   53.49    5.70
  -8 -12  -3   58.69    5.20
   8 -12   3   57.79    4.50
   8 -12   3   51.69    6.00
   8  12   3   56.39    3.70
  -8  12  -3   56.49    6.20
   8  12   3   58.59    4.30
   8  12   3   58.99    4.90
   8  12   3   48.10    4.60
  -8  12  -3   51.79    3.50
  -8  12  -3   47.00    5.30
  -8  12  -3   59.39    5.30
   8  12   3   59.79    3.90
   8  12   3   53.99    4.60
  -8  12  -3   61.79    3.60
  -9 -13   3    8.60    3.60
   9 -13  -3    8.50    2.70
  -9 -13   3    5.90    2.10
   9 -13  -3    7.80    5.40
  -9 -13   3    3.00    4.50
   9  13  -3    3.30    2.80
  -9  13   3    4.20    2.20
  -9  13   3    8.70    2.40
   9  13  -3    3.30    2.40
  -9  13   3    5.30    2.10
  -9  13   3    8.20    1.70
   9  13  -3    5.70    2.10
  -9  13   3    6.00    1.60
   9  13  -3    0.00    2.80
   9  13  -3    6.10    3.20
  -7 -13   3   27.30    3.60
  -7 -13   3   25.10    3.10
  -7 -13   3   35.50    4.70
  -7 -13   3   27.30    4.10
   7 -13  -3   28.30    3.30
   7 -13  -3   28.80    3.40
   7 -13  -3   32.20    4.20
  -7  13   3   27.10    2.70
   7  13  -3   33.90    4.10
   7  13  -3   30.70    4.20
  -7  13   3   31.60    3.30
   7  13  -3   22.10    2.70
   7  13  -3   23.70    3.80
  -7  13   3   31.50    2.60
   7  13  -3   23.30    3.20
  -7  13   3   30.20    3.40
  -7  13   3   30.80    3.60
   7  13  -3   30.20    4.10
   7  13  -3   26.60    3.50
  -5 -13   3    6.60    1.90
   5 -13  -3    7.70    2.30
  -5 -13   3    8.90    1.90
  -5 -13   3    9.70    2.60
   5 -13  -3    7.50    2.10
  -5 -13   3   10.10    2.30
   5 -13  -3    4.20    2.10
  -5  13   3    6.80    1.70
   5  13  -3    9.30    2.70
   5  13  -3    6.50    2.50
   5  13  -3   11.10    2.90
   5  13  -3    7.10    1.80
   5  13  -3   11.20    2.30
  -5  13   3    5.50    1.60
   5  13  -3    8.80    1.80
   5  13  -3    7.60    1.90
  -5  13   3    7.50    1.50
  -5  13   3    7.70    1.60
  -5  13   3    8.50    1.30
  -3 -13   3    9.10    2.10
   3 -13  -3    9.50    2.10
  -3 -13   3    7.60    1.60
  -3 -13   3    6.30    2.30
   3 -13  -3    8.50    2.30
   3  13  -3    8.40    2.20
  -3  13   3    6.50    1.70
   3  13  -3    7.50    1.60
   3  13  -3    8.50    1.60
  -3  13   3    7.90    1.60
   3  13  -3    1.70    2.20
   3  13  -3    9.10    1.70
  -3  13   3    6.20    1.50
  -3  13   3    5.00    1.50
   3  13  -3    9.00    2.50
   3  13  -3    8.90    2.20
  -3  13   3    5.60    1.30
  -3  13   3   10.80    1.30
   1 -13  -3   -0.20    1.70
  -1 -13   3   -1.10    1.50
  -1 -13   3    1.80    2.20
  -1 -13   3    2.10    1.20
   1 -13  -3    3.50    2.00
   1 -13  -3   -0.30    1.00
   1  13  -3    1.90    2.20
  -1  13   3    0.40    1.00
  -1  13   3   -0.30    1.20
  -1  13   3    0.40    1.30
   1  13  -3   -0.10    1.20
   1  13  -3   -1.30    1.00
  -1  13   3    1.40    1.20
   1  13  -3   -2.70    1.60
   1  13  -3    1.30    1.10
   1  13  -3    1.90    1.80
  -1  13   3    2.20    1.30
  -1  13   3    1.80    0.90
   1  13  -3   -2.20    1.80
  -1  13   3    1.10    1.20
   1 -13   3   24.30    3.20
   1 -13   3   29.30    3.70
   1 -13   3   23.90    2.00
  -1 -13  -3   30.10    2.90
   1  13   3   24.20    2.60
   1  13   3   26.70    2.70
   1  13   3   23.90    2.60
   1  13   3   23.10    1.70
  -1  13  -3   21.20    3.10
   1  13   3   23.80    2.60
  -1  13  -3   24.00    3.00
  -1  13  -3   19.50    2.90
  -1  13  -3   20.60    3.10
  -1  13  -3   21.50    2.40
   1  13   3   22.10    2.60
   1  13   3   24.20    2.30
  -1  13  -3   25.00    2.90
  -1  13  -3   23.60    2.40
   1  13   3   27.90    2.20
  -3 -13  -3   79.89    4.70
  -3 -13  -3   78.59    4.40
   3 -13   3   77.69    4.50
   3 -13   3   75.29    5.50
   3 -13   3   77.99    3.10
   3 -13   3   77.69    4.40
   3 -13   3   69.49    5.30
   3  13   3   69.49    4.10
  -3  13  -3   69.69    3.60
   3  13   3   77.89    4.10
  -3  13  -3   77.79    5.20
   3  13   3   78.49    4.60
   3  13   3   77.49    3.60
  -3  13  -3   75.99    3.80
   3  13   3   75.39    4.00
  -3  13  -3   73.69    5.00
  -3  13  -3   81.29    4.40
   3  13   3   77.69    4.20
   3  13   3   77.89    3.80
   3  13   3   77.39    3.40
  -3  13  -3   74.29    5.60
  -3  13  -3   88.29    5.60
   5 -13   3    7.40    1.90
   5 -13   3    8.10    2.00
   5 -13   3    7.20    2.00
  -5 -13  -3    9.20    2.40
  -5 -13  -3    6.20    2.30
   5 -13   3   11.50    2.90
   5 -13   3    3.00    2.60
   5  13   3    8.10    2.10
   5  13   3    4.90    2.10
  -5  13  -3   10.50    2.10
   5  13   3    7.00    1.90
   5  13   3    6.10    1.80
   5  13   3    8.20    1.50
  -5  13  -3    7.40    1.60
  -5  13  -3    4.60    2.50
   5  13   3   11.10    1.70
  -5  13  -3   16.50    2.90
   5  13   3    8.70    1.90
  -5  13  -3    6.70    3.10
  -5  13  -3    8.20    1.70
   7 -13   3   20.40    3.60
  -7 -13  -3   24.00    3.50
   7 -13   3   20.10    3.10
   7 -13   3   22.70    2.70
   7 -13   3   16.70    3.20
  -7 -13  -3   20.20    3.40
   7 -13   3   19.30    2.80
  -7 -13  -3   17.50    4.40
  -7  13  -3   16.30    3.70
   7  13   3   23.30    3.00
  -7  13  -3   16.50    3.20
   7  13   3   22.00    2.70
   7  13   3   20.00    2.40
  -7  13  -3   13.00    2.60
  -7  13  -3   21.00    3.50
   7  13   3   23.20    2.80
  -7  13  -3   29.10    2.90
   7  13   3   21.90    3.10
  -7  13  -3   17.00    2.20
   7  13   3   19.80    3.50
   6 -14  -3    9.80    2.70
  -6 -14   3   19.30    2.80
   6 -14  -3   19.40    3.20
  -6 -14   3   17.60    2.80
  -6 -14   3   18.40    3.60
   6 -14  -3   19.30    3.20
   6  14  -3   16.40    2.50
  -6  14   3   14.70    2.50
   6  14  -3   18.50    2.90
  -6  14   3   16.80    2.10
   6  14  -3   19.60    3.50
  -6  14   3   25.50    3.20
   6  14  -3   22.30    2.70
   6  14  -3   26.30    3.90
   6  14  -3   17.70    2.50
  -6  14   3   15.90    1.80
  -6  14   3   19.70    2.60
   6  14  -3   17.60    3.70
   4 -14  -3    8.60    2.60
  -4 -14   3    8.00    2.00
  -4 -14   3   10.80    2.50
   4 -14  -3    4.60    2.30
  -4 -14   3    2.50    2.60
   4  14  -3    7.90    2.60
  -4  14   3    6.30    1.60
   4  14  -3    8.70    1.80
  -4  14   3    6.20    2.10
  -4  14   3   10.00    1.90
  -4  14   3    6.40    1.80
   4  14  -3    8.40    1.90
   4  14  -3    6.10    2.70
   4  14  -3    9.70    2.60
  -4  14   3    7.60    1.40
  -4  14   3    7.10    1.60
   4  14  -3    9.10    3.00
   4  14  -3    7.10    2.00
  -2 -14   3    5.80    2.40
  -2 -14   3    2.90    2.30
  -2 -14   3    6.70    3.00
   2 -14  -3    7.70    2.30
   2 -14  -3    7.50    2.40
  -2 -14   3    7.70    1.70
  -2  14   3    7.50    1.90
   2  14  -3    6.00    2.40
   2  14  -3    8.70    1.70
  -2  14   3    5.40    1.60
  -2  14   3    5.70    1.50
  -2  14   3    6.20    1.40
   2  14  -3    7.10    2.30
  -2  14   3    8.70    1.80
   2  14  -3    6.20    1.80
   2  14  -3    6.00    1.50
   2  14  -3    7.20    2.40
   2  14  -3   11.60    2.40
  -2  14   3    8.70    1.80
  -2  14   3    7.60    1.40
   0 -14  -3    5.20    2.30
   0 -14  -3    5.50    1.60
   0 -14   3    7.00    2.20
   0 -14   3    4.50    2.90
   0 -14   3    3.70    1.40
   0  14  -3    8.90    2.10
   0  14  -3    5.80    2.30
   0  14  -3    5.70    2.60
   0  14   3    2.80    1.70
   0  14   3    2.80    1.30
   0  14   3    5.00    1.60
   0  14  -3    5.00    1.40
   0  14  -3    4.40    2.30
   0  14   3    5.90    1.50
   0  14   3    6.60    1.80
   0  14  -3    5.40    1.40
   0  14   3    7.40    1.50
   0  14  -3    4.70    2.00
   0  14   3    5.00    1.60
   2 -14   3   71.19    3.30
   2 -14   3   70.99    6.20
  -2 -14  -3   69.19    4.50
   2 -14   3   64.69    4.60
  -2 -14  -3   72.69    4.50
   2  14   3   65.99    4.00
   2  14   3   70.79    4.40
  -2  14  -3   62.59    3.60
   2  14   3   66.99    3.60
  -2  14  -3   67.89    5.70
  -2  14  -3   64.79    3.70
  -2  14  -3   69.09    5.10
  -2  14  -3   73.09    4.30
   2  14   3   73.39    4.10
  -2  14  -3   72.99    5.10
   2  14   3   74.49    3.60
  -2  14  -3   68.69    5.60
   2  14   3   67.39    4.10
   2  14   3   77.99    3.80
   2  14   3   68.39    2.90
   4 -14   3   49.90    5.70
  -4 -14  -3   44.90    4.70
   4 -14   3   39.10    5.10
   4 -14   3   49.80    4.20
  -4 -14  -3   42.40    4.40
   4 -14   3   45.20    4.20
   4 -14   3   44.30    2.50
   4  14   3   41.50    3.60
   4  14   3   36.50    3.30
  -4  14  -3   36.20    3.10
  -4  14  -3   35.90    5.30
  -4  14  -3   45.20    5.50
   4  14   3   46.80    3.90
   4  14   3   41.60    3.30
  -4  14  -3   52.79    5.00
  -4  14  -3   41.60    4.10
   4  14   3   40.10    3.00
   4  14   3   32.10    4.10
   4  14   3   40.50    3.40
  -4  14  -3   40.30    3.10
   4  14   3   39.70    2.80
  -4  14  -3   42.10    4.90
   6 -14   3   62.89    4.60
  -6 -14  -3   61.39    5.90
   6 -14   3   54.69    4.70
  -6 -14  -3   65.39    5.40
   6 -14   3   58.39    2.70
   6 -14   3   64.69    6.20
  -6  14  -3   55.39    3.70
  -6  14  -3   48.70    5.20
   6  14   3   48.70    3.60
   6  14   3   64.69    4.20
   6  14   3   59.89    4.50
   6  14   3   52.39    4.70
   6  14   3   53.19    4.30
   6  14   3   55.69    3.70
  -6  14  -3   60.09    3.80
  -6  14  -3   53.19    6.20
  -6  14  -3   64.39    5.70
   6  14   3   59.19    4.70
   5 -15  -3   31.10    3.80
  -5 -15   3   21.90    3.10
   5 -15  -3   37.70    5.20
  -5 -15   3   32.60    4.30
  -5  15   3   31.00    3.50
  -5  15   3   25.80    2.70
   5  15  -3   23.70    3.50
   5  15  -3   33.30    3.60
  -5  15   3   26.80    3.40
  -5  15   3   29.40    3.00
   5  15  -3   30.00    4.30
   5  15  -3   22.80    2.80
   5  15  -3   23.40    3.60
   5  15  -3   41.70    5.50
  -5  15   3   34.90    3.90
  -5  15   3   30.20    3.60
   3 -15  -3   19.30    3.10
  -3 -15   3   12.80    3.30
  -3 -15   3   18.30    2.40
   3 -15  -3   16.80    3.30
  -3 -15   3   14.90    3.00
   3  15  -3   19.80    3.10
  -3  15   3   15.50    2.30
   3  15  -3   12.10    3.50
  -3  15   3   14.10    2.40
   3  15  -3   15.00    2.40
   3  15  -3   19.90    2.50
  -3  15   3   17.50    2.40
  -3  15   3   12.60    2.00
  -3  15   3   17.30    2.10
   3  15  -3   20.50    3.30
   3  15  -3   17.90    2.50
  -3  15   3   16.30    2.20
   3  15  -3   21.60    3.50
  -3  15   3   16.90    2.30
  -1 -15   3   50.59    3.60
   1 -15  -3   54.69    5.30
  -1 -15   3   56.39    6.40
   1 -15  -3   50.69    3.00
  -1 -15   3   55.79    4.90
  -1  15   3   49.50    3.30
   1  15  -3   52.09    3.60
  -1  15   3   56.09    3.80
   1  15  -3   46.00    5.10
  -1  15   3   50.29    3.70
   1  15  -3   40.80    4.90
   1  15  -3   43.40    5.50
  -1  15   3   50.69    3.10
  -1  15   3   48.30    3.40
  -1  15   3   50.59    3.80
   1  15  -3   51.99    4.00
  -1  15   3   45.00    3.70
   1  15  -3   45.70    3.40
   1  15  -3   63.49    4.90
   1 -15   3   25.70    2.80
  -1 -15  -3   24.70    2.70
   1 -15   3   20.60    3.20
   1 -15   3   22.70    4.20
  -1  15  -3   25.40    3.90
   1  15   3   28.00    2.80
  -1  15  -3   27.60    3.60
   1  15   3   19.10    2.60
  -1  15  -3   24.20    2.80
  -1  15  -3   18.90    3.10
   1  15   3   25.60    2.80
   1  15   3   26.10    2.80
   1  15   3   19.90    2.50
   1  15   3   28.40    3.30
  -1  15  -3   31.50    4.00
  -1  15  -3   26.60    3.70
  -1  15  -3   17.60    2.20
   1  15   3   24.30    2.70
  -3 -15  -3    6.10    2.70
   3 -15   3    4.10    2.50
   3 -15   3   10.70    3.60
  -3 -15  -3    9.60    2.70
   3 -15   3    9.10    1.60
   3  15   3    7.90    2.30
   3  15   3    6.20    1.80
  -3  15  -3    6.40    1.60
  -3  15  -3   12.20    3.60
  -3  15  -3    5.30    2.70
   3  15   3    6.60    1.80
   3  15   3    9.20    1.80
  -3  15  -3    8.70    2.40
   3  15   3    8.10    2.10
  -3  15  -3    6.70    1.50
   3  15   3    8.20    2.10
  -3  15  -3    9.70    3.00
   3  15   3   10.30    2.10
  -3  15  -3    2.90    2.60
   3  15   3    9.20    1.30
   5 -15   3    6.30    2.50
  -5 -15  -3   10.00    3.20
   5  15   3    8.80    2.20
   5  15   3    4.00    2.50
   5  15   3    9.60    2.40
  -5  15  -3    9.70    3.30
   5  15   3    8.20    1.90
  -5  15  -3    6.10    1.60
  -5  15  -3    4.30    1.70
  -2 -16   3   10.20    3.50
   2 -16  -3   13.20    3.40
  -2 -16   3   13.00    2.50
   2  16  -3    9.70    3.00
  -2  16   3   21.50    3.00
   2  16  -3    8.20    3.00
  -2  16   3   11.80    2.30
  -2  16   3   12.60    2.50
  -2  16   3   12.60    2.40
   2  16  -3    7.60    3.10
  -2  16   3   10.90    2.10
   2  16  -3    8.90    1.80
  -2  16   3   12.50    2.10
  -2  16   3   12.00    1.80
   2  16  -3   16.80    3.80
   2  16  -3   10.30    2.30
   0 -16   3   19.10    2.40
   0 -16  -3   24.40    3.50
   0  16  -3   31.10    4.10
   0  16  -3   16.90    3.40
   0  16   3   19.90    2.70
   0  16  -3   21.80    3.80
   0  16   3   20.70    2.50
   0  16   3   17.90    2.10
   0  16   3   15.30    2.40
   0  16  -3   18.20    2.30
   0  16  -3   19.60    3.50
   0  16   3   18.80    2.70
   0  16   3   13.60    2.20
   0  16  -3   18.00    2.30
   0  16   3   17.80    2.70
   2  16   3    2.30    1.70
   2  16   3    5.60    2.10
  -2  16  -3    4.40    3.00
   2  16   3    5.80    1.80
   2  16   3    2.10    2.20
  -2  16  -3    6.80    1.80
  -2  16  -3    1.70    1.70
  -2  16  -3    3.50    3.10
 -14   0   4   72.19    6.00
 -14   0   4   80.49    5.20
  14   0  -4   82.19    6.00
  14   0  -4   86.79    3.70
  14   0  -4   84.49    6.50
 -14   0   4   71.49    4.30
  14   0  -4   72.09    4.20
 -14   0   4   77.79    5.40
  12   0  -4   17.30    2.90
 -12   0   4   18.90    2.40
 -12   0   4   14.40    2.40
  12   0  -4   18.90    2.90
 -12   0   4   17.60    2.30
 -12   0   4   20.30    3.00
  12   0  -4   18.70    2.20
  12   0  -4   18.90    1.70
 -10   0   4   29.20    2.50
  10   0  -4   26.60    2.10
  10   0  -4   26.90    1.50
 -10   0   4   23.70    2.70
  10   0  -4   27.90    3.20
 -10   0   4   29.50    2.30
 -10   0   4   28.60    3.00
  10   0  -4   29.00    2.90
   8   0  -4  514.65   13.90
   8   0  -4  520.25   15.00
  -8   0   4  554.84   15.00
   8   0  -4  509.65   13.30
  -8   0   4  553.84   14.20
   8   0  -4  548.65   14.90
  -8   0   4  540.25   14.20
  -8   0   4  537.85   14.80
   6   0  -4  201.18    6.40
  -6   0   4  201.48    5.70
   6   0  -4  192.78    5.10
  -6   0   4  200.78    6.20
   6   0  -4  194.78    5.60
  -6   0   4  207.38    5.90
  -6   0   4  207.28    6.40
   6   0  -4  202.48    6.30
   4   0  -4 2098.69   52.29
   4   0  -4 2110.19   51.59
  -4   0   4 2147.79   52.09
   4   0  -4 2098.59   52.09
   4   0  -4 2062.39   51.99
  -4   0   4 2245.18   52.39
  -4   0   4 2062.29   51.99
  -2   0   4  693.73   16.70
   2   0  -4  677.93   16.60
  -2   0   4  689.93   16.80
  -2   0   4  631.14   16.10
  -2   0   4  677.33   16.40
  -2   0   4  647.04   16.40
   2   0  -4  649.54   16.10
   2   0  -4  644.44   16.80
   2   0  -4  645.44   16.70
   2   0  -4  647.74   16.10
   0   0  -4  418.96   10.90
   0   0   4  434.86   10.70
   0   0  -4  409.56   10.30
   0   0   4  413.26   10.60
   0   0  -4  421.66   10.30
   0   0   4  417.66   10.90
   0   0  -4  439.46   10.90
   0   0  -4  425.86   11.00
   0   0   4  420.36   11.00
  -2   0  -4  261.37    6.80
   2   0   4  253.97    7.30
  -2   0  -4  272.97    6.70
   2   0   4  259.87    6.80
   2   0   4  270.57    7.90
  -2   0  -4  251.47    7.30
  -4   0  -4  260.47    7.70
  -4   0  -4  266.77    7.00
   4   0   4  266.37    7.10
  -4   0  -4  239.98    7.70
   4   0   4  266.47    7.80
   4   0   4  262.87    7.70
   4   0   4  266.97    8.10
   6   0   4  201.88    5.90
  -6   0  -4  199.48    6.60
   6   0   4  197.38    6.70
  -6   0  -4  187.88    6.70
  -6   0  -4  203.98    7.00
   6   0   4  200.98    6.70
   6   0   4  189.08    6.80
  -6   0  -4  204.68    5.80
   8   0   4  379.66   11.80
   8   0   4  376.46   10.70
  -8   0  -4  375.86   11.70
  -8   0  -4  381.56   10.60
  -8   0  -4  397.76   12.10
   8   0   4  372.06   11.70
  -8   0  -4  401.26   11.70
  10   0   4   26.10    2.30
  10   0   4   30.10    3.50
 -10   0  -4   31.20    2.50
 -10   0  -4   32.40    3.80
  10   0   4   36.80    3.90
 -10   0  -4   30.60    4.00
 -10   0  -4   28.70    3.90
  10   0   4   32.60    3.40
 -12   0  -4  160.88    6.00
  12   0   4  161.58    6.20
  12   0   4  147.19    7.10
 -12   0  -4  171.08    8.30
  12   0   4  144.19    7.50
 -12   0  -4  157.18    8.00
  12   0   4  146.19    7.50
  12   0   4  157.38    6.00
 -12   0  -4  169.88    7.80
  13  -1  -4   16.10    1.90
 -13  -1   4   13.80    2.70
 -13  -1   4   12.20    3.00
 -13  -1   4   14.30    2.40
 -13  -1   4   12.50    2.00
  13  -1  -4   15.00    2.90
  13  -1  -4   10.80    2.80
  13  -1  -4   16.20    2.00
  13   1  -4   14.80    1.60
 -13   1   4   17.40    2.70
  13   1  -4   12.40    2.60
 -13   1   4   13.90    2.30
  13   1  -4   17.30    3.00
  13   1  -4   13.80    2.00
 -13   1   4   20.70    2.70
 -13   1   4   16.10    3.10
  11  -1  -4  108.09    4.00
 -11  -1   4  102.09    4.70
 -11  -1   4   94.69    5.30
  11  -1  -4  102.79    5.40
  11  -1  -4   99.19    3.40
  11  -1  -4  106.89    5.30
 -11  -1   4  101.49    5.00
 -11  -1   4   96.59    4.30
  11   1  -4  105.59    5.20
 -11   1   4   96.29    5.20
 -11   1   4  108.49    4.40
 -11   1   4   96.69    5.30
 -11   1   4   97.99    4.90
  11   1  -4  102.09    3.40
  11   1  -4  111.59    4.20
  11   1  -4  101.79    5.40
   9  -1  -4   64.39    3.80
   9  -1  -4   64.09    2.30
  -9  -1   4   70.39    3.10
   9  -1  -4   69.89    3.70
  -9  -1   4   62.79    3.60
   9  -1  -4   65.59    2.70
  -9  -1   4   66.59    3.80
  -9  -1   4   66.99    3.20
   9   1  -4   66.89    2.30
  -9   1   4   66.19    3.70
  -9   1   4   69.19    3.10
   9   1  -4   67.19    2.90
  -9   1   4   71.29    3.00
   9   1  -4   54.79    4.30
   9   1  -4   68.89    3.70
  -9   1   4   68.69    3.60
  -7  -1   4  112.49    3.90
   7  -1  -4  115.19    3.60
  -7  -1   4  117.89    4.50
  -7  -1   4  112.69    4.50
  -7  -1   4  121.69    4.10
   7  -1  -4  121.89    4.50
   7  -1  -4  115.39    3.20
   7  -1  -4  121.59    4.40
   7   1  -4  116.99    3.80
  -7   1   4  116.39    4.30
   7   1  -4  119.19    4.60
  -7   1   4  119.19    4.50
  -7   1   4  121.99    3.90
   7   1  -4  114.79    4.50
  -7   1   4  113.19    4.30
   7   1  -4  113.99    3.20
   5  -1  -4  214.08    6.50
   5  -1  -4  215.58    6.40
  -5  -1   4  225.78    6.80
  -5  -1   4  224.68    6.30
  -5  -1   4  223.88    6.10
  -5  -1   4  217.68    6.60
   5  -1  -4  220.78    5.50
   5  -1  -4  215.88    5.80
  -5   1   4  228.68    6.00
   5   1  -4  224.48    6.60
  -5   1   4  218.28    6.40
   5   1  -4  211.98    6.00
  -5   1   4  224.28    6.10
  -5   1   4  221.38    6.60
   5   1  -4  227.28    6.70
   3  -1  -4 1158.98   28.60
  -3  -1   4 1191.18   29.50
   3  -1  -4 1183.68   29.20
   3  -1  -4 1172.08   29.30
  -3  -1   4 1178.38   29.20
  -3  -1   4 1216.18   29.70
   3   1  -4 1174.38   29.50
   3   1  -4 1176.08   29.10
  -3   1   4 1181.48   29.30
   3   1  -4 1240.38   29.90
   3   1  -4 1146.89   29.50
  -3   1   4 1186.18   29.00
   3   1  -4 1168.78   29.00
  -3   1   4 1193.28   29.20
  -1  -1   4  560.84   14.50
  -1  -1   4  571.24   14.20
  -1  -1   4  576.54   15.00
   1  -1  -4  572.04   14.40
  -1  -1   4  579.24   14.50
   1  -1  -4  575.14   14.40
   1  -1  -4  570.24   14.40
  -1  -1   4  599.34   14.80
  -1   1   4  573.44   14.20
   1   1  -4  581.24   14.30
   1   1  -4  608.14   14.90
   1   1  -4  579.34   14.90
   1   1  -4  578.34   14.30
   1   1  -4  579.84   14.80
  -1   1   4  564.24   14.20
   1  -1   4  112.89    3.30
   1  -1   4  110.19    3.70
  -1  -1  -4  108.39    3.50
   1  -1   4  114.99    3.80
  -1  -1  -4  112.99    3.50
   1   1   4  118.39    3.50
   1   1   4  113.39    4.10
  -1   1  -4  119.89    3.80
  -1   1  -4  113.79    3.70
  -1   1  -4  116.59    3.30
   1   1   4  120.49    3.50
  -1   1  -4  119.29    3.20
   1   1   4  121.79    3.10
   3  -1   4 1380.06   35.10
  -3  -1  -4 1387.16   34.80
   3  -1   4 1386.96   34.50
   3  -1   4 1446.26   35.20
  -3  -1  -4 1376.36   34.20
   3  -1   4 1474.95   35.60
  -3  -1  -4 1411.86   34.20
  -3  -1  -4 1352.56   34.90
   3   1   4 1280.97   35.30
  -3   1  -4 1457.35   35.20
  -3   1  -4 1447.96   34.40
   3   1   4 1475.35   35.60
   3   1   4 1340.07   34.30
  -3   1  -4 1421.56   35.10
   3   1   4 1420.76   34.90
  -3   1  -4 1361.66   34.50
  -5  -1  -4   13.50    1.60
   5  -1   4   16.60    1.80
  -5  -1  -4   17.00    1.10
  -5  -1  -4   14.50    1.80
   5  -1   4   13.90    1.70
   5  -1   4   15.00    1.20
  -5  -1  -4   12.00    1.70
   5  -1   4   14.70    1.80
   5   1   4   14.20    1.70
  -5   1  -4   13.40    1.80
  -5   1  -4   15.20    1.20
   5   1   4   18.50    2.10
  -5   1  -4   14.30    1.90
   5   1   4   15.00    1.70
   5   1   4   14.50    1.10
  -7  -1  -4  188.78    6.70
  -7  -1  -4  190.78    6.60
   7  -1   4  198.78    7.00
   7  -1   4  200.38    6.00
   7  -1   4  174.38    6.70
  -7  -1  -4  198.58    5.80
  -7  -1  -4  178.08    8.00
   7  -1   4  190.38    6.80
  -7   1  -4  201.38    5.90
   7   1   4  200.08    7.00
   7   1   4  194.58    6.80
   7   1   4  188.18    5.80
   7   1   4  192.38    6.70
  -7   1  -4  179.88    6.80
  -7   1  -4  190.98    6.80
  -7   1  -4  195.98    7.10
   9  -1   4  192.38    7.60
  -9  -1  -4  199.48    7.60
   9  -1   4  209.48    7.70
  -9  -1  -4  199.38    7.90
  -9  -1  -4  206.88    6.40
   9  -1   4  209.88    7.60
  -9  -1  -4  197.98    7.50
   9  -1   4  183.28    6.40
   9   1   4  208.18    6.50
  -9   1  -4  210.88    7.70
   9   1   4  197.78    7.60
   9   1   4  207.58    7.60
   9   1   4  199.68    7.50
  -9   1  -4  213.78    7.80
  -9   1  -4  200.38    6.40
  -9   1  -4  205.78    7.90
  11  -1   4   39.00    4.10
  11  -1   4   39.30    4.40
 -11  -1  -4   35.70    5.70
 -11  -1  -4   35.60    2.90
  11  -1   4   34.60    2.70
 -11  -1  -4   30.90    4.50
 -11  -1  -4   44.10    4.60
  11  -1   4   36.30    4.00
  11  -1   4   37.60    3.00
  11   1   4   36.10    4.20
  11   1   4   35.40    2.80
 -11   1  -4   43.50    4.90
 -11   1  -4   37.30    2.90
  11   1   4   41.00    4.10
  11   1   4   32.80    3.80
 -11   1  -4   36.10    4.20
 -11   1  -4   40.60    4.50
  13  -1   4   39.80    5.40
 -13  -1  -4   38.60    3.70
 -13  -1  -4   54.29    6.70
 -13  -1  -4   26.60    4.40
 -13  -1  -4   38.70    5.60
  13  -1   4   50.99    6.00
  13  -1   4   32.60    4.60
 -13   1  -4   44.90    3.80
  13   1   4   53.29    5.90
 -13   1  -4   47.40    5.80
  13   1   4   42.20    5.30
 -13   1  -4   39.70    4.80
 -13   1  -4   51.89    7.10
  13   1   4   39.00    4.60
  14  -2  -4   12.00    1.70
 -14  -2   4    6.70    2.50
  14  -2  -4   13.80    3.20
 -14  -2   4    9.10    2.60
 -14  -2   4    9.70    2.90
  14  -2  -4   12.30    2.00
 -14   2   4   12.10    2.70
 -14   2   4    9.10    1.80
  14   2  -4   13.30    3.50
 -14   2   4    9.50    2.40
  14   2  -4   11.00    3.50
 -14   2   4    7.60    2.90
  14   2  -4   13.30    2.10
  14   2  -4   13.00    1.70
 -12  -2   4   29.20    3.90
  12  -2  -4   24.70    2.40
 -12  -2   4   20.70    2.60
  12  -2  -4   31.20    3.80
 -12  -2   4   28.50    3.40
  12  -2  -4   27.00    1.90
 -12  -2   4   20.90    2.60
  12  -2  -4   27.00    3.80
  12   2  -4   26.30    2.60
  12   2  -4   30.10    2.00
 -12   2   4   25.70    2.90
  12   2  -4   32.20    4.10
 -12   2   4   32.70    3.70
 -12   2   4   25.00    3.30
 -12   2   4   27.10    2.60
  12   2  -4   26.60    3.80
  10  -2  -4    2.00    0.70
  10  -2  -4    1.30    1.50
 -10  -2   4    2.70    1.10
 -10  -2   4   -0.50    1.40
  10  -2  -4    2.70    1.60
  10  -2  -4    3.40    1.00
 -10  -2   4    3.90    1.30
  10   2  -4    3.70    1.70
  10   2  -4    1.30    1.00
 -10   2   4    3.50    1.10
 -10   2   4    2.00    1.40
 -10   2   4    0.80    0.90
 -10   2   4    2.40    1.50
  10   2  -4    2.60    1.70
   8  -2  -4   13.70    1.80
   8  -2  -4   12.80    1.20
  -8  -2   4   14.70    1.70
  -8  -2   4   14.00    1.90
   8  -2  -4   15.00    1.90
  -8  -2   4   10.90    1.70
   8  -2  -4   12.60    1.00
  -8  -2   4   16.30    1.70
   8   2  -4   12.80    1.40
   8   2  -4   13.00    1.50
  -8   2   4   14.50    1.80
  -8   2   4   14.80    1.40
  -8   2   4   12.40    1.40
   8   2  -4   10.20    2.40
  -8   2   4   12.70    1.90
   8   2  -4   11.60    1.70
  -6  -2   4  375.36   10.50
  -6  -2   4  357.36    9.80
   6  -2  -4  361.46   10.10
   6  -2  -4  344.87    9.10
  -6  -2   4  362.06   10.30
   6  -2  -4  366.66   10.10
   6  -2  -4  358.26    9.20
  -6  -2   4  360.06    9.70
  -6   2   4  360.36    9.60
   6   2  -4  362.26    9.60
  -6   2   4  370.46   10.00
   6   2  -4  338.97   10.30
  -6   2   4  360.76    9.40
  -6   2   4  359.06   10.10
   6   2  -4  361.86   10.30
   6   2  -4  353.96    9.20
   4  -2  -4  960.40   23.50
   4  -2  -4  920.71   23.00
  -4  -2   4  966.20   23.50
   4  -2  -4  915.51   23.50
   4  -2  -4  902.71   22.80
  -4  -2   4  989.70   24.10
   4  -2  -4  893.11   22.80
  -4  -2   4  971.20   23.90
   4   2  -4  967.70   24.40
  -4   2   4  934.01   23.50
  -4   2   4  960.40   23.40
  -4   2   4  946.91   23.10
   4   2  -4  987.30   23.60
   4   2  -4  891.61   23.90
  -4   2   4  909.91   22.80
   4   2  -4  945.11   23.90
   4   2  -4  919.91   23.40
   4   2  -4  912.31   22.80
  -2  -2   4  379.16   10.20
  -2  -2   4  379.76    9.90
  -2  -2   4  394.16   10.40
   2  -2  -4  375.26    9.50
  -2  -2   4  369.26    9.40
   2  -2  -4  363.56    9.50
  -2  -2   4  382.46    9.90
   2   2  -4  365.06    9.40
  -2   2   4  372.76    9.60
   2   2  -4  378.86   10.10
   2   2  -4  377.16    9.70
  -2   2   4  363.56    9.30
  -2   2   4  368.96    9.30
   2   2  -4  384.26   10.30
   2   2  -4  386.26    9.70
   2   2  -4  381.96   10.40
  -2   2   4  389.86    9.60
  -2   2   4  387.56    9.50
   0  -2   4  287.17    8.00
   0  -2   4  281.87    7.60
   0  -2   4  269.77    7.90
   0  -2  -4  279.67    7.20
   0  -2  -4  280.27    7.20
   0  -2   4  287.97    7.50
   0  -2  -4  284.37    7.20
   0  -2   4  281.67    7.30
   0  -2  -4  280.77    7.20
   0   2   4  286.57    7.20
   0   2   4  296.97    8.10
   0   2  -4  290.17    7.40
   0   2  -4  278.67    7.50
   0   2  -4  276.77    8.00
   0   2  -4  293.77    7.90
   0   2  -4  291.37    8.00
  -2  -2  -4  575.04   14.70
   2  -2   4  571.34   15.30
   2  -2   4  576.14   14.60
   2  -2   4  559.14   14.60
  -2  -2  -4  563.94   14.60
   2  -2   4  589.94   15.30
  -2   2  -4  577.04   14.70
   2   2   4  612.24   15.60
  -2   2  -4  593.84   15.30
  -2   2  -4  555.84   15.20
  -2   2  -4  568.24   14.50
   2   2   4  580.94   14.70
   2   2   4  597.74   14.70
   2   2   4  563.04   14.30
  -4  -2  -4  147.89    5.00
   4  -2   4  153.98    4.70
   4  -2   4  153.58    5.40
   4  -2   4  162.08    5.60
   4  -2   4  140.09    4.60
   4  -2   4  157.28    5.30
  -4  -2  -4  155.48    4.90
  -4  -2  -4  158.38    4.30
  -4  -2  -4  138.19    5.40
   4   2   4  160.88    5.00
   4   2   4  154.88    4.50
  -4   2  -4  162.08    5.40
   4   2   4  160.88    5.60
  -4   2  -4  155.48    5.30
  -4   2  -4  164.68    4.60
  -6  -2  -4   10.80    1.70
   6  -2   4    8.80    1.60
   6  -2   4    9.60    1.60
   6  -2   4    8.10    1.50
  -6  -2  -4    9.50    1.50
  -6  -2  -4    8.20    1.50
   6  -2   4   11.90    1.30
  -6  -2  -4   10.90    1.20
   6  -2   4    9.80    1.30
  -6   2  -4   11.30    1.80
   6   2   4   10.30    1.20
  -6   2  -4   10.30    1.30
   6   2   4   10.50    1.50
  -6   2  -4   13.20    1.90
   6   2   4   14.80    2.10
   6   2   4   13.20    1.80
  -8  -2  -4   88.69    4.80
   8  -2   4   77.89    4.40
   8  -2   4   84.29    3.50
   8  -2   4   77.39    4.40
  -8  -2  -4   78.59    3.20
   8  -2   4   83.29    4.40
  -8  -2  -4   86.79    4.40
   8  -2   4   80.39    3.40
  -8  -2  -4   79.99    4.10
  -8   2  -4   79.29    4.40
  -8   2  -4   78.49    4.60
   8   2   4   78.59    3.70
   8   2   4   81.79    4.30
  -8   2  -4   80.59    3.40
   8   2   4   82.09    4.30
   8   2   4   80.49    4.20
  -8   2  -4   77.69    4.40
  10  -2   4   46.70    2.90
  10  -2   4   45.70    4.10
 -10  -2  -4   42.40    2.70
  10  -2   4   44.30    3.90
 -10  -2  -4   51.39    4.50
  10  -2   4   45.70    2.80
  10  -2   4   41.20    4.20
 -10  -2  -4   42.40    4.10
 -10  -2  -4   42.70    4.30
 -10   2  -4   47.60    4.10
 -10   2  -4   44.60    2.90
  10   2   4   43.10    3.80
  10   2   4   44.20    2.80
 -10   2  -4   44.10    4.50
  10   2   4   41.60    3.90
  10   2   4   48.60    3.80
 -10   2  -4   38.10    4.90
  12  -2   4    9.70    2.80
 -12  -2  -4    6.70    1.80
 -12  -2  -4   10.30    3.30
 -12  -2  -4    5.80    2.90
  12  -2   4   16.30    3.20
  12  -2   4    8.50    2.40
  12  -2   4    6.10    1.90
  12  -2   4    8.70    2.10
 -12  -2  -4    7.90    3.00
 -12   2  -4    7.70    1.80
  12   2   4   11.70    2.70
 -12   2  -4    6.60    2.70
 -12   2  -4   11.90    3.70
  12   2   4   10.10    2.90
 -12   2  -4    7.60    2.90
  12   2   4    8.60    2.70
  12   2   4    9.30    1.80
 -13  -3   4   15.50    3.20
  13  -3  -4   10.10    2.60
  13  -3  -4    7.70    2.60
 -13  -3   4   13.90    2.50
  13  -3  -4   13.10    1.70
 -13  -3   4   13.90    2.10
  13  -3  -4   16.40    1.90
 -13  -3   4   13.40    2.90
  13   3  -4   16.20    2.20
 -13   3   4   13.40    1.80
 -13   3   4   15.70    3.10
  13   3  -4   11.70    2.70
 -13   3   4   16.30    2.30
 -13   3   4   18.30    2.80
  13   3  -4   18.90    3.30
  11  -3  -4   74.39    3.10
  11  -3  -4   68.69    2.80
  11  -3  -4   67.39    4.30
 -11  -3   4   70.09    3.60
 -11  -3   4   67.19    4.00
 -11  -3   4   63.19    4.80
 -11  -3   4   62.69    4.10
  11  -3  -4   69.29    4.30
  11   3  -4   72.39    3.50
 -11   3   4   65.79    3.40
  11   3  -4   71.59    3.50
  11   3  -4   68.19    4.40
 -11   3   4   68.59    4.30
 -11   3   4   68.59    4.00
 -11   3   4   70.29    3.60
  11   3  -4   66.29    4.80
   9  -3  -4   74.99    3.90
  -9  -3   4   70.29    3.90
   9  -3  -4   68.89    2.50
  -9  -3   4   66.69    3.70
  -9  -3   4   74.89    4.30
  -9  -3   4   70.69    3.50
   9  -3  -4   72.49    3.90
   9  -3  -4   69.29    2.70
   9   3  -4   67.39    3.90
  -9   3   4   58.89    4.20
  -9   3   4   71.39    3.10
   9   3  -4   67.39    3.10
  -9   3   4   73.39    3.00
   9   3  -4   70.19    3.00
  -7  -3   4  225.28    7.10
   7  -3  -4  208.58    6.80
  -7  -3   4  204.48    7.20
  -7  -3   4  216.08    6.60
   7  -3  -4  210.28    6.80
   7  -3  -4  209.98    5.80
  -7  -3   4  212.98    6.50
   7  -3  -4  209.28    5.80
   7   3  -4  206.98    7.00
  -7   3   4  217.78    6.20
   7   3  -4  215.68    6.00
  -7   3   4  214.68    6.80
   7   3  -4  220.08    6.40
  -7   3   4  213.98    6.00
  -7   3   4  223.28    6.70
   7   3  -4  221.28    7.30
   5  -3  -4  190.38    5.00
   5  -3  -4  192.88    5.30
  -5  -3   4  202.88    5.80
  -5  -3   4  200.08    6.40
   5  -3  -4  186.98    5.80
  -5  -3   4  191.78    6.20
   5  -3  -4  192.68    5.80
  -5  -3   4  190.88    5.60
  -5   3   4  191.18    5.30
   5   3  -4  195.08    5.20
  -5   3   4  197.08    5.20
  -5   3   4  193.98    5.70
  -5   3   4  197.08    5.80
   5   3  -4  193.38    6.20
   5   3  -4  190.48    5.60
   5   3  -4  190.58    5.80
  -5   3   4  195.68    5.10
   5   3  -4  194.08    6.30
  -3  -3   4  197.38    5.30
  -3  -3   4  197.78    5.70
  -3  -3   4  186.68    6.00
   3  -3  -4  197.68    5.40
   3  -3  -4  192.08    5.30
   3  -3  -4  191.38    5.30
  -3  -3   4  192.18    6.20
   3   3  -4  192.18    6.30
  -3   3   4  198.48    5.20
   3   3  -4  195.98    6.10
  -3   3   4  204.18    5.30
  -3   3   4  194.68    5.20
   3   3  -4  196.88    5.10
   3   3  -4  200.48    5.60
   3   3  -4  204.28    5.60
  -3   3   4  197.38    5.00
   3   3  -4  194.18    6.00
  -1  -3   4  671.73   17.60
  -1  -3   4  697.63   17.90
  -1  -3   4  701.33   17.30
  -1  -3   4  656.53   17.20
  -1  -3   4  665.33   16.90
  -1   3   4  708.53   17.50
   1   3  -4  656.13   17.70
   1   3  -4  666.23   17.10
  -1   3   4  686.83   17.20
   1   3  -4  662.63   16.80
   1   3  -4  679.33   17.80
   1   3  -4  689.13   17.10
   1   3  -4  687.33   17.60
   1   3  -4  696.63   17.80
   1  -3   4 1048.00   26.90
  -1  -3  -4 1045.50   25.80
   1  -3   4 1066.29   27.00
  -1  -3  -4 1013.20   25.80
   1  -3   4 1046.20   26.10
   1  -3   4 1023.00   26.30
  -1   3  -4 1101.09   27.00
  -1   3  -4 1052.09   26.30
  -1   3  -4 1099.99   27.00
   1   3   4 1057.79   26.90
   1   3   4 1059.29   25.70
   1   3   4 1095.09   25.90
  -1   3  -4 1047.50   26.80
  -1   3  -4 1046.90   26.10
   1   3   4 1058.89   25.80
   3  -3   4  912.31   22.70
   3  -3   4  830.22   22.50
  -3  -3  -4  834.12   21.80
   3  -3   4  855.41   21.80
  -3  -3  -4  897.81   22.70
  -3  -3  -4  850.61   21.80
   3  -3   4  786.32   21.80
   3  -3   4  879.71   22.60
  -3   3  -4  880.21   22.00
   3   3   4  880.71   21.90
   3   3   4  888.91   21.90
  -3   3  -4  879.81   21.70
   3   3   4  846.82   21.50
  -3   3  -4  887.41   22.70
  -3   3  -4  870.81   22.60
   3   3   4  910.61   22.70
   5  -3   4   14.00    2.00
  -5  -3  -4   15.80    1.00
   5  -3   4   10.30    1.50
   5  -3   4   14.50    1.90
  -5  -3  -4   14.20    1.60
   5  -3   4   15.80    1.40
   5  -3   4   14.50    1.30
  -5  -3  -4   15.60    2.20
  -5   3  -4   16.40    1.30
   5   3   4   14.10    1.70
  -5   3  -4   16.10    2.20
  -5   3  -4   14.00    2.00
   5   3   4   17.50    1.60
   5   3   4   18.40    1.20
   5   3   4   16.90    2.00
   7  -3   4  249.28    7.30
   7  -3   4  237.28    8.20
   7  -3   4  244.28    7.20
  -7  -3  -4  240.88    7.90
  -7  -3  -4  255.17    7.80
  -7  -3  -4  238.08    6.80
  -7  -3  -4  235.78    8.50
   7  -3   4  236.58    8.30
   7  -3   4  237.78    8.30
  -7   3  -4  245.18    8.30
  -7   3  -4  236.18    7.10
   7   3   4  235.88    7.80
   7   3   4  245.28    7.90
   7   3   4  250.07    7.10
   7   3   4  238.28    8.20
  -7   3  -4  241.78    8.40
   9  -3   4  740.23   19.80
   9  -3   4  762.72   21.40
  -9  -3  -4  750.52   20.80
   9  -3   4  720.43   21.50
  -9  -3  -4  749.33   21.40
  -9  -3  -4  756.02   19.50
   9  -3   4  740.83   20.80
   9  -3   4  754.62   19.90
  -9  -3  -4  781.82   20.70
   9   3   4  717.13   22.50
  -9   3  -4  757.52   19.80
  -9   3  -4  767.42   21.20
  -9   3  -4  750.92   21.30
   9   3   4  744.63   20.90
   9   3   4  748.43   20.80
   9   3   4  766.02   19.80
 -11  -3  -4  113.99    6.40
  11  -3   4  112.69    6.00
 -11  -3  -4  111.49    6.10
  11  -3   4  131.69    6.70
  11  -3   4  120.09    6.60
 -11  -3  -4  110.49    4.70
  11  -3   4  114.99    4.90
 -11  -3  -4  118.39    6.70
  11  -3   4  120.69    6.20
  11   3   4  115.49    5.80
 -11   3  -4  113.99    5.00
 -11   3  -4  118.59    6.50
 -11   3  -4  121.99    6.90
  11   3   4  107.19    5.10
  11   3   4  111.69    6.00
 -14  -4   4   31.50    4.60
 -14  -4   4   30.30    3.90
 -14  -4   4   27.20    3.80
  14  -4  -4   29.60    3.20
  14  -4  -4   26.30    4.30
 -14  -4   4   34.90    4.60
  14  -4  -4   37.20    3.20
  14   4  -4   31.50    4.40
  14   4  -4   27.80    3.10
 -14   4   4   35.30    4.90
 -14   4   4   25.70    3.50
  14   4  -4   36.60    5.10
 -14   4   4   28.50    3.20
 -14   4   4   30.70    3.90
 -12  -4   4   35.80    3.20
  12  -4  -4   42.20    2.70
  12  -4  -4   41.40    4.10
  12  -4  -4   37.80    2.50
 -12  -4   4   43.90    4.20
 -12  -4   4   43.80    4.00
  12  -4  -4   38.50    4.10
 -12  -4   4   43.30    4.70
 -12   4   4   39.30    3.00
 -12   4   4   33.30    3.90
 -12   4   4   36.30    3.60
  12   4  -4   39.10    4.20
 -12   4   4   41.60    3.20
  12   4  -4   37.60    3.40
  12   4  -4   35.00    4.30
  12   4  -4   35.30    3.00
  10  -4  -4   62.59    2.70
  10  -4  -4   68.79    4.10
  10  -4  -4   61.89    3.90
  10  -4  -4   62.29    2.70
 -10  -4   4   66.09    3.40
 -10  -4   4   64.79    3.70
 -10  -4   4   63.29    4.00
 -10   4   4   57.79    3.00
  10   4  -4   67.99    3.30
  10   4  -4   56.69    4.10
  10   4  -4   67.29    3.30
 -10   4   4   61.29    3.00
 -10   4   4   63.89    3.80
  10   4  -4   60.19    4.30
 -10   4   4   63.99    3.70
  -8  -4   4  631.14   17.10
   8  -4  -4  540.75   17.30
  -8  -4   4  607.74   17.30
  -8  -4   4  619.34   16.40
   8  -4  -4  610.44   15.50
   8  -4  -4  591.84   15.60
  -8  -4   4  608.64   16.40
   8  -4  -4  618.14   16.80
   8   4  -4  609.94   15.80
  -8   4   4  632.44   16.60
   8   4  -4  625.64   17.30
  -8   4   4  651.93   16.00
   8   4  -4  610.84   17.00
  -8   4   4  606.04   15.70
  -8   4   4  600.54   16.70
   6  -4  -4  492.55   13.50
   6  -4  -4  477.75   12.50
  -6  -4   4  520.65   14.10
   6  -4  -4  491.85   12.90
  -6  -4   4  517.55   13.50
  -6  -4   4  517.65   14.30
  -6  -4   4  517.05   13.40
   6  -4  -4  490.25   13.50
   6   4  -4  502.45   12.90
  -6   4   4  497.05   12.90
   6   4  -4  501.15   13.30
  -6   4   4  517.55   13.40
  -6   4   4  485.15   12.70
   6   4  -4  498.95   14.00
   6   4  -4  497.15   14.10
  -6   4   4  495.45   12.70
  -6   4   4  521.95   13.60
  -4  -4   4  262.77    7.30
  -4  -4   4  263.87    7.90
  -4  -4   4  273.77    7.60
  -4  -4   4  277.97    8.20
   4  -4  -4  256.07    7.20
  -4  -4   4  257.77    7.10
   4  -4  -4  254.97    7.20
   4  -4  -4  258.57    7.20
  -4   4   4  271.27    7.10
   4   4  -4  250.87    8.30
  -4   4   4  271.27    7.20
   4   4  -4  269.97    8.10
   4   4  -4  267.77    6.90
   4   4  -4  270.87    7.60
  -4   4   4  273.07    6.90
   4   4  -4  236.78    7.80
  -4   4   4  272.57    6.90
   4   4  -4  270.97    7.40
  -2  -4   4  299.27    8.50
   2  -4  -4  303.57    7.60
   2  -4  -4  301.37    7.70
  -2  -4   4  305.57    8.40
  -2  -4   4  316.67    8.50
  -2  -4   4  301.57    8.80
  -2  -4   4  312.67    9.20
   2   4  -4  312.07    9.00
   2   4  -4  309.57    8.30
   2   4  -4  295.17    8.70
   2   4  -4  303.27    8.90
   2   4  -4  305.77    7.90
   2   4  -4  307.67    8.30
  -2   4   4  323.67    8.40
  -2   4   4  311.87    8.20
   2   4  -4  298.17    8.90
   0  -4   4  328.77    8.80
   0  -4   4  316.67    9.00
   0  -4   4  335.77    9.70
   0  -4   4  340.57    9.20
   0  -4   4  339.27    9.60
   0   4  -4  337.67    8.70
   0   4  -4  334.17    8.90
   0   4  -4  345.87    9.70
   0   4   4  339.67    9.30
   0   4  -4  338.67    9.00
   0   4  -4  324.37    9.40
   0   4  -4  327.97    9.70
   0   4  -4  352.96    9.70
   0   4   4  331.37    9.20
  -2  -4  -4 1344.37   33.20
  -2  -4  -4 1289.67   32.20
   2  -4   4 1320.47   32.60
   2  -4   4 1314.47   33.30
   2  -4   4 1314.47   32.50
   2  -4   4 1342.27   33.40
   2   4   4 1161.58   32.50
  -2   4  -4 1219.38   33.10
  -2   4  -4 1317.97   33.30
  -2   4  -4 1347.97   33.40
  -2   4  -4 1297.77   32.40
   2   4   4 1405.76   33.30
   2   4   4 1358.56   32.30
   2   4   4 1316.77   32.00
  -2   4  -4 1316.87   32.70
   4  -4   4    7.60    1.40
   4  -4   4    8.20    1.40
  -4  -4  -4    7.70    1.00
   4  -4   4    9.80    1.10
   4  -4   4    7.90    1.40
   4  -4   4    8.10    1.10
  -4  -4  -4    7.30    1.40
  -4  -4  -4    8.50    1.10
   4   4   4    9.30    1.20
   4   4   4    7.50    1.00
  -4   4  -4    7.40    1.50
   4   4   4    6.30    1.20
   4   4   4    8.70    0.90
  -4   4  -4    8.10    1.40
  -4   4  -4    8.70    1.10
   6  -4   4   47.30    2.80
   6  -4   4   49.80    3.30
   6  -4   4   43.00    3.20
   6  -4   4   51.09    3.30
  -6  -4  -4   45.90    2.80
  -6  -4  -4   48.60    2.00
  -6   4  -4   49.80    3.50
  -6   4  -4   49.20    2.40
  -6   4  -4   50.29    3.30
   6   4   4   59.39    2.90
   6   4   4   46.30    3.10
   6   4   4   50.89    2.30
   6   4   4   40.30    2.70
  -8  -4  -4   55.09    3.50
   8  -4   4   52.69    4.20
   8  -4   4   57.59    3.00
  -8  -4  -4   57.49    3.80
   8  -4   4   54.69    3.90
  -8  -4  -4   55.09    4.20
   8  -4   4   55.39    2.90
   8  -4   4   51.69    3.90
  -8  -4  -4   55.29    2.60
  -8   4  -4   54.39    4.20
  -8   4  -4   52.89    3.90
   8   4   4   56.89    3.50
   8   4   4   55.89    2.90
   8   4   4   55.99    3.50
   8   4   4   59.39    3.80
  10  -4   4   11.60    2.60
  10  -4   4   15.20    2.90
 -10  -4  -4   11.10    2.40
 -10  -4  -4    7.90    2.50
  10  -4   4    7.90    1.40
  10  -4   4    9.10    2.30
 -10  -4  -4   11.40    1.60
 -10  -4  -4    9.80    2.30
  10  -4   4   11.40    1.80
  10   4   4   16.00    2.10
  10   4   4   10.40    2.00
 -10   4  -4   10.30    2.70
  10   4   4    9.00    2.20
 -10   4  -4    7.90    1.50
 -10   4  -4   13.10    3.10
  10   4   4   11.00    2.20
 -12  -4  -4   29.10    3.30
  12  -4   4   21.90    3.60
 -12  -4  -4   25.30    4.30
  12  -4   4   37.00    4.60
  12  -4   4   29.40    3.40
 -12  -4  -4   34.10    4.30
  12  -4   4   25.80    4.00
 -12  -4  -4   28.70    4.00
  12  -4   4   33.90    3.40
  12   4   4   24.80    3.60
 -12   4  -4   35.20    5.20
  12   4   4   33.50    4.40
  12   4   4   31.00    3.70
  12   4   4   32.60    3.30
 -12   4  -4   30.10    4.30
 -12   4  -4   28.90    3.40
  13  -5  -4    2.80    1.50
 -13  -5   4    2.50    2.40
 -13  -5   4    4.30    2.50
 -13  -5   4    3.00    1.70
 -13  -5   4    4.60    2.60
  13  -5  -4    3.50    1.50
  13  -5  -4    3.60    2.60
  13  -5  -4    5.20    2.70
 -13   5   4    2.70    1.80
  13   5  -4    7.00    2.90
  13   5  -4    1.70    2.50
 -13   5   4    6.00    2.20
 -13   5   4    4.90    1.50
  13   5  -4    0.60    1.60
 -13   5   4    0.70    2.20
  13   5  -4    1.00    2.00
 -11  -5   4   12.00    2.60
  11  -5  -4   12.80    1.50
 -11  -5   4   16.10    2.50
  11  -5  -4   10.70    2.30
  11  -5  -4   11.90    2.30
 -11  -5   4    9.00    2.10
 -11  -5   4   13.70    2.10
  11   5  -4   16.00    2.00
  11   5  -4    9.60    2.30
  11   5  -4   19.40    3.10
 -11   5   4    9.50    2.00
 -11   5   4   12.90    1.70
  11   5  -4   15.90    2.00
 -11   5   4   14.60    2.10
 -11   5   4   11.50    2.20
  -9  -5   4  114.09    5.60
   9  -5  -4  120.59    3.80
  -9  -5   4  120.09    4.90
   9  -5  -4  112.99    4.00
   9  -5  -4  120.99    5.20
  -9  -5   4  119.99    5.40
  -9  -5   4  109.09    4.60
   9  -5  -4  118.89    5.10
  -9   5   4  115.09    4.00
   9   5  -4  117.59    4.30
   9   5  -4  124.49    5.40
  -9   5   4  114.79    4.80
  -9   5   4  121.69    4.30
  -9   5   4  116.39    4.90
   9   5  -4  114.99    4.50
   7  -5  -4  153.08    6.20
   7  -5  -4  168.58    5.70
  -7  -5   4  165.98    6.20
  -7  -5   4  175.78    6.60
   7  -5  -4  163.18    5.00
   7  -5  -4  160.08    4.60
  -7  -5   4  164.58    5.60
   7   5  -4  167.78    5.50
   7   5  -4  169.38    5.10
  -7   5   4  165.58    5.50
  -7   5   4  167.18    5.70
   7   5  -4  169.38    6.90
  -7   5   4  165.58    4.80
   7   5  -4  173.58    6.40
  -7   5   4  172.28    5.10
  -7   5   4  172.78    4.80
   5  -5  -4   47.90    2.30
  -5  -5   4   51.89    2.50
  -5  -5   4   47.10    2.80
  -5  -5   4   52.89    2.30
  -5  -5   4   47.10    3.10
   5  -5  -4   48.90    2.30
   5  -5  -4   47.40    2.10
  -5   5   4   51.39    1.90
   5   5  -4   51.59    2.60
  -5   5   4   50.39    1.90
   5   5  -4   46.70    2.30
   5   5  -4   50.59    2.10
  -5   5   4   51.59    2.30
   5   5  -4   49.70    2.80
  -5   5   4   51.39    2.20
  -5   5   4   51.19    1.60
   5   5  -4   47.70    3.30
   5   5  -4   45.70    2.80
   3  -5  -4    6.90    0.90
  -3  -5   4    6.40    1.00
   3  -5  -4    7.00    0.90
  -3  -5   4    6.80    0.90
  -3  -5   4    7.60    1.00
   3  -5  -4    8.70    0.90
  -3  -5   4    6.90    1.30
   3   5  -4    7.10    0.80
   3   5  -4    9.00    1.40
  -3   5   4    6.00    0.70
   3   5  -4    7.20    1.20
  -3   5   4    7.20    0.90
   3   5  -4    7.80    1.10
  -3   5   4    6.10    0.50
  -3   5   4    8.70    0.80
   3   5  -4    7.60    1.00
  -3   5   4    6.80    0.90
   3   5  -4    4.90    1.20
  -1  -5   4  154.58    5.60
  -1  -5   4  152.38    4.90
  -1  -5   4  161.08    5.00
  -1  -5   4  153.38    5.30
  -1  -5   4  154.08    4.60
   1   5  -4  160.28    4.80
   1   5  -4  162.88    4.70
   1   5  -4  149.19    5.40
   1   5  -4  156.38    4.50
  -1   5   4  159.38    4.80
   1   5  -4  163.18    5.50
   1   5  -4  153.38    5.40
   1   5  -4  143.69    5.20
  -1   5   4  162.58    4.90
   1  -5   4  433.86   11.40
   1  -5   4  419.16   12.10
  -1  -5  -4  418.76   10.60
   1  -5   4  437.46   12.00
  -1  -5  -4  423.96   11.70
  -1  -5  -4  418.36   10.60
   1  -5   4  416.66   11.10
  -1   5  -4  411.36   12.00
   1   5   4  426.06   11.60
   1   5   4  434.66   10.60
   1   5   4  419.96   10.50
  -1   5  -4  434.76   11.40
  -1   5  -4  407.76   11.80
  -1   5  -4  424.16   11.10
   1   5   4  412.66   11.70
  -1   5  -4  440.46   11.20
  -1   5  -4  440.66   12.10
   3  -5   4   72.79    2.80
   3  -5   4   68.59    3.40
   3  -5   4   76.59    3.60
  -3  -5  -4   70.29    2.60
  -3  -5  -4   66.69    3.40
  -3  -5  -4   72.49    2.60
   3  -5   4   71.09    2.80
  -3   5  -4   69.79    3.60
   3   5   4   72.49    2.60
  -3   5  -4   75.49    2.70
   3   5   4   72.79    2.40
   3   5   4   69.59    3.30
  -3   5  -4   69.59    2.70
   3   5   4   70.79    2.70
  -3   5  -4   74.59    3.60
  -3   5  -4   84.59    3.10
   5  -5   4  284.17    9.10
  -5  -5  -4  273.57    7.10
  -5  -5  -4  283.87    9.10
   5  -5   4  258.67    8.90
   5  -5   4  276.17    8.70
  -5  -5  -4  273.77    8.10
   5  -5   4  280.77    8.00
  -5  -5  -4  263.77    8.10
   5  -5   4  281.17    8.00
   5   5   4  280.47    7.70
   5   5   4  274.87    8.10
   5   5   4  296.17    8.90
   5   5   4  274.27    8.20
  -5   5  -4  277.47    9.10
  -5   5  -4  296.27    8.00
  -5   5  -4  274.67    9.00
   7  -5   4   26.90    3.10
   7  -5   4   30.10    3.20
  -7  -5  -4   28.20    1.70
  -7  -5  -4   29.00    3.30
  -7  -5  -4   34.00    2.80
   7  -5   4   27.50    2.20
   7  -5   4   33.40    3.10
   7  -5   4   30.30    2.20
  -7  -5  -4   29.30    4.20
   7   5   4   29.50    2.00
   7   5   4   34.40    3.00
   7   5   4   25.60    2.60
  -7   5  -4   25.60    3.00
  -7   5  -4   29.10    2.10
   7   5   4   29.00    2.50
  -7   5  -4   27.50    3.50
   9  -5   4   73.49    4.90
   9  -5   4   70.49    4.90
  -9  -5  -4   78.29    4.60
   9  -5   4   72.79    3.60
  -9  -5  -4   72.39    5.00
  -9  -5  -4   71.19    4.30
   9  -5   4   71.69    4.50
  -9  -5  -4   67.49    3.10
   9  -5   4   71.19    3.50
   9   5   4   62.69    4.10
  -9   5  -4   66.89    3.40
   9   5   4   67.09    4.10
   9   5   4   64.49    4.10
  -9   5  -4   69.79    4.80
  -9   5  -4   76.49    5.20
   9   5   4   64.79    3.30
  11  -5   4   32.90    3.30
 -11  -5  -4   31.60    2.90
 -11  -5  -4   29.60    3.70
  11  -5   4   27.10    3.80
  11  -5   4   38.40    4.20
 -11  -5  -4   31.60    4.20
  11  -5   4   28.90    3.80
 -11  -5  -4   35.70    5.00
  11  -5   4   32.00    3.10
  11   5   4   27.90    3.40
 -11   5  -4   28.40    3.90
  11   5   4   25.80    2.90
 -11   5  -4   29.80    3.10
  11   5   4   22.70    2.80
 -11   5  -4   32.80    4.50
  11   5   4   32.00    3.90
  12  -6  -4   13.30    2.90
 -12  -6   4   13.10    2.20
  12  -6  -4   18.10    2.30
 -12  -6   4   11.40    2.40
 -12  -6   4   10.20    2.70
  12  -6  -4   16.10    1.90
  12  -6  -4   11.00    2.70
 -12  -6   4   10.60    3.10
 -12   6   4   11.60    1.70
 -12   6   4   13.10    1.90
  12   6  -4   16.10    2.20
 -12   6   4   11.60    2.20
  12   6  -4   16.60    2.90
  12   6  -4   19.30    3.40
  12   6  -4   14.70    2.40
 -12   6   4   12.30    2.40
  10  -6  -4  239.98    6.80
 -10  -6   4  225.48    8.60
  10  -6  -4  234.38    7.10
  10  -6  -4  231.68    8.40
  10  -6  -4  236.28    8.40
 -10  -6   4  231.58    7.80
 -10  -6   4  248.08    8.30
 -10  -6   4  229.18   10.90
 -10   6   4  243.18    8.10
 -10   6   4  235.48    7.40
 -10   6   4  226.08    6.90
 -10   6   4  228.28    8.10
  10   6  -4  235.48    8.90
  10   6  -4  240.88    7.70
  10   6  -4  233.98    8.60
  10   6  -4  237.08    7.50
   8  -6  -4  268.27    7.20
   8  -6  -4  264.57    8.50
  -8  -6   4  256.47    8.20
   8  -6  -4  261.17    7.70
  -8  -6   4  271.17    9.00
   8  -6  -4  262.37    8.60
  -8  -6   4  274.37    9.40
  -8  -6   4  280.97    8.40
  -8   6   4  268.87    8.40
   8   6  -4  265.77    9.90
   8   6  -4  274.37    7.90
  -8   6   4  272.67    7.40
  -8   6   4  252.47    8.40
   8   6  -4  261.37    8.90
  -8   6   4  258.87    7.20
   8   6  -4  273.87    9.20
  -8   6   4  274.77    7.70
   8   6  -4  274.47    8.20
  -6  -6   4  602.94   16.50
   6  -6  -4  580.24   15.50
  -6  -6   4  513.95   17.10
   6  -6  -4  558.34   15.60
  -6  -6   4  594.14   15.60
  -6  -6   4  580.34   16.20
   6  -6  -4  561.64   15.10
   6   6  -4  595.84   16.90
   6   6  -4  589.04   15.80
  -6   6   4  583.84   15.50
   6   6  -4  587.34   15.10
  -6   6   4  600.44   14.90
   6   6  -4  594.44   16.20
  -6   6   4  581.34   15.30
   6   6  -4  575.94   15.40
  -6   6   4  556.74   14.40
  -6   6   4  568.84   14.80
   6   6  -4  591.84   16.40
   4  -6  -4 1084.29   27.60
   4  -6  -4 1089.59   27.80
  -4  -6   4 1120.29   27.80
  -4  -6   4 1099.49   27.60
   4  -6  -4 1102.59   27.60
  -4  -6   4 1092.39   28.00
  -4  -6   4 1122.89   28.60
  -4  -6   4 1132.49   28.90
   4   6  -4 1109.39   29.00
  -4   6   4 1115.99   27.20
  -4   6   4 1113.59   27.50
   4   6  -4 1113.69   27.90
   4   6  -4 1071.09   28.60
  -4   6   4 1095.39   27.40
  -4   6   4 1111.19   27.40
  -4   6   4 1079.19   27.10
   4   6  -4 1115.89   28.00
   4   6  -4 1089.69   28.50
   4   6  -4 1094.99   27.40
  -2  -6   4  245.78    7.10
  -2  -6   4  245.38    7.70
   2  -6  -4  242.38    6.50
  -2  -6   4  254.97    7.40
  -2  -6   4  238.68    8.10
   2  -6  -4  251.47    7.30
  -2   6   4  246.98    6.30
  -2   6   4  250.97    6.40
   2   6  -4  249.78    7.20
   2   6  -4  247.78    7.90
   2   6  -4  251.77    6.80
   2   6  -4  253.77    8.00
   2   6  -4  254.07    7.20
  -2   6   4  241.78    7.10
   2   6  -4  248.88    7.70
  -2   6   4  252.97    6.50
   2   6  -4  255.07    7.90
  -2   6   4  242.38    6.80
   0  -6   4  264.97    7.50
   0  -6   4  265.37    8.50
   0  -6   4  267.57    7.80
   0   6   4  273.77    7.90
   0   6  -4  276.57    7.50
   0   6  -4  265.87    7.30
   0   6  -4  263.67    7.70
   0   6  -4  275.97    8.40
   0   6  -4  262.27    8.40
   0   6  -4  262.47    8.40
   0   6   4  267.27    7.70
   0   6  -4  267.07    8.20
   2  -6   4  472.45   13.80
   2  -6   4  484.95   12.90
  -2  -6  -4  483.55   13.40
  -2  -6  -4  474.05   12.40
   2  -6   4  485.65   12.80
   2  -6   4  481.65   13.70
  -2   6  -4  504.85   12.70
  -2   6  -4  461.15   13.50
   2   6   4  482.65   12.30
  -2   6  -4  493.65   13.80
   2   6   4  485.55   12.40
   2   6   4  499.45   13.50
  -2   6  -4  482.95   12.80
  -2   6  -4  478.25   13.00
   2   6   4  465.15   12.20
   2   6   4  491.35   12.40
  -2   6  -4  499.75   13.80
   2   6   4  484.45   13.20
   4  -6   4   97.39    4.60
  -4  -6  -4  106.09    4.50
   4  -6   4  103.39    4.30
   4  -6   4  103.39    3.80
   4  -6   4  103.49    3.70
  -4  -6  -4   96.59    3.60
  -4  -6  -4   99.49    3.60
   4  -6   4  101.49    4.60
  -4   6  -4  101.09    4.60
   4   6   4  100.89    3.30
  -4   6  -4   97.09    3.60
  -4   6  -4  104.69    4.80
   4   6   4  104.89    4.30
  -4   6  -4   98.99    4.00
  -4   6  -4  100.29    3.60
   4   6   4  102.29    3.70
   4   6   4  102.79    3.60
   6  -6   4   71.49    4.30
  -6  -6  -4   72.19    2.40
   6  -6   4   77.79    4.40
   6  -6   4   75.39    3.30
   6  -6   4   73.39    4.00
  -6  -6  -4   70.69    3.50
   6  -6   4   71.59    3.20
  -6  -6  -4   74.79    3.50
  -6  -6  -4   71.99    4.80
   6   6   4   68.89    3.30
  -6   6  -4   75.69    3.20
  -6   6  -4   76.29    4.60
   6   6   4   72.99    3.60
   6   6   4   75.69    3.00
   6   6   4   73.59    3.90
  -6   6  -4   69.89    4.20
   8  -6   4   28.00    3.50
  -8  -6  -4   30.30    2.00
  -8  -6  -4   28.40    3.50
  -8  -6  -4   29.80    3.10
   8  -6   4   37.50    3.80
   8  -6   4   32.60    2.50
   8  -6   4   28.90    3.40
  -8  -6  -4   33.30    3.70
   8  -6   4   29.10    2.40
   8   6   4   31.60    2.30
  -8   6  -4   25.00    3.50
   8   6   4   32.60    2.90
   8   6   4   28.30    2.90
  -8   6  -4   27.00    4.10
  -8   6  -4   30.40    2.40
   8   6   4   27.90    2.90
  10  -6   4   43.40    4.10
  10  -6   4   32.60    4.60
 -10  -6  -4   39.10    4.20
  10  -6   4   41.20    3.10
 -10  -6  -4   39.30    4.70
 -10  -6  -4   36.60    2.70
  10  -6   4   35.50    4.70
 -10  -6  -4   32.00    4.50
  10  -6   4   35.00    3.10
  10   6   4   41.90    3.80
 -10   6  -4   36.90    4.40
  10   6   4   44.10    2.90
 -10   6  -4   43.80    5.20
  10   6   4   36.00    3.60
 -10   6  -4   36.50    3.00
  10   6   4   41.60    3.90
  12  -6   4    8.60    3.00
  12  -6   4   11.50    2.90
 -12  -6  -4   11.50    4.00
 -12  -6  -4   10.60    3.40
 -12  -6  -4   11.50    2.20
  12  -6   4   10.70    3.70
 -12   6  -4    9.40    2.00
 -12   6  -4   12.50    3.50
  12   6   4    8.80    2.40
  12   6   4   13.30    2.20
  12   6   4   12.90    3.10
 -12   6  -4    8.50    4.00
  12   6   4    8.50    2.70
 -13  -7   4   -2.20    1.80
  13  -7  -4    3.80    1.90
 -13  -7   4   11.10    3.10
  13  -7  -4    5.60    1.60
 -13  -7   4    7.40    3.90
  13   7  -4    4.80    2.30
 -13   7   4    2.20    1.60
 -13   7   4    4.00    1.40
 -13   7   4    3.40    2.30
  13   7  -4    9.10    3.30
  13   7  -4    3.80    2.90
 -13   7   4    3.00    2.40
  11  -7  -4  141.39    6.50
 -11  -7   4  132.19    5.70
  11  -7  -4  125.09    6.40
 -11  -7   4  133.09    6.60
 -11  -7   4  137.69    7.30
  11  -7  -4  135.49    5.10
 -11  -7   4  141.99    7.80
  11  -7  -4  139.59    4.70
 -11   7   4  129.79    5.90
 -11   7   4  132.29    4.40
 -11   7   4  119.59    5.90
 -11   7   4  139.29    5.20
  11   7  -4  137.59    6.90
  11   7  -4  137.69    5.60
  11   7  -4  135.19    6.60
  11   7  -4  142.09    5.70
   9  -7  -4  128.69    4.10
   9  -7  -4  126.99    5.60
  -9  -7   4  135.19    5.60
   9  -7  -4  132.99    5.60
  -9  -7   4  137.39    6.00
   9  -7  -4  131.99    4.80
  -9  -7   4  135.39    5.30
  -9  -7   4  143.59    6.70
   9   7  -4  134.39    6.10
  -9   7   4  123.19    3.90
   9   7  -4  142.99    7.20
   9   7  -4  130.39    6.20
  -9   7   4  125.09    5.30
  -9   7   4  133.19    4.30
  -9   7   4  121.69    5.30
   9   7  -4  131.39    5.00
   9   7  -4  131.79    5.10
  -9   7   4  131.19    5.30
  -7  -7   4  239.08    7.30
  -7  -7   4  225.78    7.30
  -7  -7   4  216.38    9.30
   7  -7  -4  220.98    6.90
   7  -7  -4  216.58    7.30
   7  -7  -4  219.38    5.90
   7  -7  -4  224.48    7.30
  -7  -7   4  243.48    8.50
   7   7  -4  227.78    7.10
   7   7  -4  226.08    8.20
   7   7  -4  187.28    8.10
  -7   7   4  228.98    6.50
   7   7  -4  233.18    7.90
  -7   7   4  219.68    7.20
  -7   7   4  227.28    6.50
  -7   7   4  234.88    7.10
   7   7  -4  229.88    6.90
   7   7  -4  227.98    8.70
   5  -7  -4   55.69    2.70
  -5  -7   4   63.29    3.80
  -5  -7   4   60.39    3.40
  -5  -7   4   55.49    2.90
  -5  -7   4   56.39    2.80
   5  -7  -4   56.79    2.80
   5  -7  -4   54.59    2.70
  -5  -7   4   54.29    3.10
   5   7  -4   58.69    3.60
  -5   7   4   56.19    2.30
  -5   7   4   57.09    2.60
   5   7  -4   61.39    3.00
   5   7  -4   58.79    3.30
  -5   7   4   57.59    2.10
   5   7  -4   52.49    2.90
  -5   7   4   57.89    2.50
   5   7  -4   57.99    2.60
   5   7  -4   55.19    3.80
  -3  -7   4  338.67    9.30
   3  -7  -4  332.27    9.70
   3  -7  -4  329.57    9.10
   3  -7  -4  336.27    9.10
  -3  -7   4  330.57   10.20
  -3  -7   4  350.96    9.80
  -3  -7   4  339.47    9.60
  -3   7   4  339.97    9.00
   3   7  -4  342.87   10.40
   3   7  -4  348.07    9.20
  -3   7   4  342.47    9.30
   3   7  -4  346.97   10.50
  -3   7   4  341.07    8.80
   3   7  -4  347.57   10.20
   3   7  -4  350.06   10.60
  -3   7   4  336.17    8.70
  -3   7   4  340.87    8.90
   3   7  -4  342.17    9.70
  -3   7   4  347.67    8.90
   3   7  -4  351.46    9.70
  -1  -7   4   53.19    2.70
  -1  -7   4   54.49    2.70
  -1  -7   4   53.59    3.00
  -1  -7   4   53.69    2.50
  -1  -7   4   57.79    3.40
  -1   7   4   50.39    2.20
  -1   7   4   55.19    1.80
   1   7  -4   58.29    3.30
   1   7  -4   55.19    2.30
   1   7  -4   52.69    2.50
  -1   7   4   56.69    1.80
   1   7  -4   53.59    3.30
   1   7  -4   55.39    2.50
   1   7  -4   55.49    3.00
  -1   7   4   56.29    2.60
   1   7  -4   61.29    3.30
  -1   7   4   54.99    1.70
   1  -7   4  114.29    4.80
   1  -7   4  121.29    4.30
  -1  -7  -4  115.09    3.50
   1  -7   4  115.59    4.90
   1  -7   4  119.99    4.10
  -1  -7  -4  113.39    4.30
  -1   7  -4  116.39    4.20
  -1   7  -4  121.09    4.00
   1   7   4  117.89    4.20
  -1   7  -4  122.99    4.80
  -1   7  -4  115.19    4.90
   1   7   4  116.49    4.40
   1   7   4  119.99    3.50
   1   7   4  115.99    3.40
  -1   7  -4  118.79    3.90
   1   7   4  116.29    3.50
  -1   7  -4  116.19    4.90
   1   7   4  117.19    3.40
   1   7   4  118.49    3.40
   3  -7   4  360.86   10.30
  -3  -7  -4  365.86    9.90
   3  -7   4  358.76   11.30
  -3  -7  -4  363.96   10.00
   3  -7   4  363.86   10.20
  -3  -7  -4  375.76   10.90
   3  -7   4  351.76   11.20
  -3   7  -4  365.96   11.10
   3   7   4  379.76   10.70
   3   7   4  368.36   10.10
   3   7   4  376.86   10.00
  -3   7  -4  379.06   11.40
  -3   7  -4  383.46   10.20
  -3   7  -4  379.06   10.50
   3   7   4  374.56    9.70
   3   7   4  374.56   11.00
  -3   7  -4  356.46   11.20
   3   7   4  351.06    9.80
  -3   7  -4  379.96   10.20
   5  -7   4  301.37    8.60
   5  -7   4  291.57    9.10
   5  -7   4  288.27    9.70
  -5  -7  -4  275.97    8.50
   5  -7   4  282.77    9.60
  -5  -7  -4  289.27    8.40
   5  -7   4  274.37    8.50
   5   7   4  283.77    8.70
  -5   7  -4  287.17    8.30
  -5   7  -4  279.37    9.50
   5   7   4  283.37    9.50
   5   7   4  287.87    8.40
  -5   7  -4  294.77    9.80
   5   7   4  292.27    9.00
   5   7   4  287.17    8.00
   7  -7   4  533.45   14.10
   7  -7   4  503.05   15.40
  -7  -7  -4  471.55   15.20
   7  -7   4  521.85   15.50
  -7  -7  -4  497.05   12.90
   7  -7   4  514.25   14.70
  -7  -7  -4  509.45   14.30
   7  -7   4  521.35   14.00
   7   7   4  506.45   13.60
  -7   7  -4  499.45   13.80
  -7   7  -4  530.15   15.60
   7   7   4  506.65   14.30
   7   7   4  478.05   14.60
  -7   7  -4  492.05   15.30
  -9  -7  -4  155.58    6.50
  -9  -7  -4  154.08    5.00
   9  -7   4  120.59    8.40
   9  -7   4  151.88    7.30
   9  -7   4  136.39    5.60
  -9  -7  -4  154.48    6.60
   9  -7   4  153.28    5.70
  -9  -7  -4  155.38    7.30
   9  -7   4  147.49    6.60
   9   7   4  138.39    6.10
  -9   7  -4  164.28    7.80
   9   7   4  145.39    6.10
  -9   7  -4  152.58    5.60
   9   7   4  157.08    5.50
  -9   7  -4  152.28    7.10
   9   7   4  147.09    6.30
 -11  -7  -4   65.79    5.90
 -11  -7  -4   58.39    6.20
  11  -7   4   55.69    5.60
  11  -7   4   51.59    4.00
  11  -7   4   62.19    5.00
  11  -7   4   62.69    5.90
 -11  -7  -4   54.99    5.70
  11  -7   4   59.19    4.20
 -11  -7  -4   57.49    3.50
  11   7   4   61.49    5.00
  11   7   4   55.59    3.70
 -11   7  -4   57.29    3.80
  11   7   4   63.69    5.00
 -11   7  -4   52.89    6.70
  11   7   4   51.89    4.40
 -11   7  -4   64.19    5.60
  12  -8  -4   14.90    1.90
 -12  -8   4   13.80    2.30
 -12  -8   4   14.00    3.10
 -12  -8   4   15.90    4.10
 -12  -8   4    8.80    2.90
  12  -8  -4    9.70    2.00
  12  -8  -4   11.20    3.10
  12  -8  -4    9.60    2.80
  12   8  -4   15.50    2.40
 -12   8   4   15.20    2.70
 -12   8   4   13.10    2.50
 -12   8   4   13.70    2.00
  12   8  -4   15.20    3.30
  12   8  -4   16.60    3.30
  12   8  -4   20.90    4.20
  12   8  -4   12.10    2.60
 -12   8   4   14.00    1.50
  10  -8  -4   31.40    3.70
  10  -8  -4   37.40    4.00
  10  -8  -4   33.10    2.90
 -10  -8   4   28.70    3.60
 -10  -8   4   31.90    4.00
  10  -8  -4   34.20    2.10
 -10  -8   4   30.60    3.10
 -10  -8   4   37.70    5.00
 -10   8   4   36.00    3.20
  10   8  -4   31.80    4.30
  10   8  -4   33.00    4.30
 -10   8   4   30.40    3.40
  10   8  -4   30.20    3.20
  10   8  -4   34.70    3.00
  10   8  -4   28.40    3.90
 -10   8   4   32.80    2.50
   8  -8  -4   58.49    3.70
  -8  -8   4   54.79    4.60
   8  -8  -4   54.49    3.40
  -8  -8   4   52.39    3.90
  -8  -8   4   51.89    3.40
   8  -8  -4   50.89    2.00
  -8  -8   4   51.19    3.10
   8  -8  -4   51.99    3.50
  -8   8   4   53.79    2.50
   8   8  -4   52.99    4.70
   8   8  -4   56.49    3.10
   8   8  -4   55.79    3.90
  -8   8   4   52.89    3.20
  -8   8   4   55.79    2.70
   8   8  -4   51.89    3.50
  -8   8   4   51.39    3.30
   8   8  -4   56.69    3.20
   8   8  -4   58.59    4.40
   6  -8  -4   18.00    2.10
  -6  -8   4   15.70    2.50
  -6  -8   4   12.70    2.10
   6  -8  -4   18.30    2.10
   6  -8  -4   18.50    2.70
  -6  -8   4   20.10    2.10
  -6  -8   4   14.10    1.90
  -6   8   4   14.50    1.70
   6   8  -4   19.80    2.60
  -6   8   4   16.50    1.50
   6   8  -4   15.80    2.50
  -6   8   4   14.80    1.80
   6   8  -4   19.70    2.10
   6   8  -4   12.00    1.70
   6   8  -4   16.80    2.30
  -6   8   4   16.00    1.40
   6   8  -4   15.40    1.90
   4  -8  -4   87.69    3.30
  -4  -8   4   86.09    3.90
  -4  -8   4   92.89    4.80
  -4  -8   4   84.89    3.70
  -4  -8   4   88.99    3.70
   4  -8  -4   84.79    3.40
   4  -8  -4   90.49    3.80
  -4  -8   4   92.29    4.30
   4   8  -4   91.99    4.30
   4   8  -4   89.39    4.50
  -4   8   4   86.59    2.80
  -4   8   4   90.49    3.20
   4   8  -4   87.89    4.40
   4   8  -4   89.19    3.80
  -4   8   4   87.69    3.30
   4   8  -4   90.49    3.40
  -4   8   4   83.29    3.20
   4   8  -4   81.09    3.70
  -4   8   4   87.99    3.30
   4   8  -4   90.89    4.60
  -2  -8   4  114.49    4.20
   2  -8  -4  111.99    4.40
   2  -8  -4  111.29    3.70
  -2  -8   4  113.39    3.70
  -2  -8   4  103.89    5.20
  -2  -8   4  112.59    4.80
  -2  -8   4  113.89    4.30
   2   8  -4  111.79    4.70
  -2   8   4  116.69    3.50
   2   8  -4  112.89    4.90
  -2   8   4  111.29    3.40
   2   8  -4  116.69    3.80
  -2   8   4  113.39    3.30
   2   8  -4  108.99    4.10
  -2   8   4  114.59    3.50
   2   8  -4  103.99    4.00
  -2   8   4  112.89    3.40
   2   8  -4  117.59    5.10
   2   8  -4  106.99    5.00
  -2   8   4  112.79    3.40
  -2   8   4  115.29    4.10
   0  -8  -4  195.38    6.20
   0  -8   4  200.78    6.30
   0  -8   4  203.48    6.50
   0  -8   4  204.58    7.40
   0   8   4  201.08    5.60
   0   8  -4  205.58    7.30
   0   8  -4  211.38    7.10
   0   8  -4  201.68    6.00
   0   8  -4  206.08    7.30
   0   8   4  194.28    5.50
   0   8   4  199.58    6.00
   0   8  -4  204.68    6.40
   0   8  -4  202.18    6.20
   0   8   4  199.18    6.50
   0   8   4  202.88    5.60
   0   8  -4  208.88    7.30
   0   8   4  204.08    5.50
   0   8   4  200.68    5.40
   2  -8   4    1.40    1.30
  -2  -8  -4    3.40    0.90
   2  -8   4    2.40    0.90
  -2  -8  -4    3.30    1.20
   2  -8   4    3.40    1.50
   2   8   4    3.60    0.80
  -2   8  -4    3.20    0.90
  -2   8  -4    3.90    1.50
   2   8   4    4.10    1.10
   2   8   4    2.60    0.70
   2   8   4    3.30    0.60
   2   8   4    3.00    1.10
  -2   8  -4    3.00    1.60
   2   8   4    2.50    0.80
  -2   8  -4    3.40    1.50
   4  -8   4  187.58    7.10
  -4  -8  -4  181.58    5.80
  -4  -8  -4  188.58    6.80
   4  -8   4  181.88    6.00
  -4  -8  -4  179.58    5.90
   4  -8   4  177.58    6.00
  -4   8  -4  177.48    5.80
   4   8   4  182.98    5.40
  -4   8  -4  184.18    6.30
   4   8   4  184.78    6.00
  -4   8  -4  192.28    7.30
   4   8   4  179.58    5.90
   4   8   4  182.18    5.70
  -4   8  -4  185.08    7.10
  -4   8  -4  185.68    7.00
  -4   8  -4  175.58    5.90
   4   8   4  180.98    6.90
   4   8   4  185.48    6.30
   6  -8   4    2.60    1.70
   6  -8   4    5.70    2.10
  -6  -8  -4    7.10    1.70
  -6  -8  -4    6.70    1.50
   6  -8   4    4.60    1.20
   6  -8   4    6.10    1.70
   6  -8   4    5.20    1.30
  -6  -8  -4    5.10    1.80
   6   8   4    7.80    1.70
   6   8   4    6.00    1.10
  -6   8  -4    8.60    2.40
   6   8   4    4.80    1.40
   6   8   4    8.10    1.90
  -6   8  -4    7.20    1.30
   6   8   4    7.30    1.50
  -6   8  -4    4.80    1.80
  -8  -8  -4   95.69    3.40
   8  -8   4  102.39    5.20
   8  -8   4   95.99    4.40
   8  -8   4  101.79    4.40
  -8  -8  -4  101.29    5.00
   8  -8   4   98.49    5.80
  -8  -8  -4  101.39    5.80
   8  -8   4   88.89    5.70
   8   8   4   97.89    4.70
  -8   8  -4   91.39    4.10
   8   8   4   94.39    4.00
  -8   8  -4  103.49    6.30
  -8   8  -4   95.79    5.60
   8   8   4   91.59    4.80
   8   8   4   94.79    5.40
   8   8   4   83.79    4.70
 -10  -8  -4    2.10    2.70
  10  -8   4   -1.10    2.60
 -10  -8  -4    4.80    2.50
  10  -8   4   -1.10    2.50
 -10  -8  -4    2.90    1.40
  10  -8   4   -2.60    1.60
  10  -8   4   -0.20    1.70
 -10  -8  -4   -3.70    3.00
  10  -8   4    3.70    2.20
  10   8   4    2.10    1.70
  10   8   4    1.00    1.90
 -10   8  -4   -6.00    2.80
  10   8   4   -0.30    2.00
  10   8   4    0.60    1.40
 -10   8  -4    3.40    2.70
 -10   8  -4   -3.00    1.20
  11  -9  -4   61.69    4.10
  11  -9  -4   64.09    3.10
 -11  -9   4   59.29    5.20
 -11  -9   4   54.19    4.80
 -11  -9   4   63.39    6.40
  11  -9  -4   62.79    5.10
 -11  -9   4   58.09    4.20
  11  -9  -4   56.79    5.20
 -11   9   4   67.89    4.40
  11   9  -4   69.39    6.80
  11   9  -4   57.89    4.10
 -11   9   4   58.69    3.60
 -11   9   4   62.79    4.60
  11   9  -4   56.79    4.30
  11   9  -4   67.89    5.50
  11   9  -4   69.39    5.40
  -9  -9   4   85.69    8.00
  -9  -9   4   86.89    5.20
   9  -9  -4   87.09    4.90
   9  -9  -4   87.69    4.70
   9  -9  -4   88.39    4.30
  -9  -9   4   87.29    4.40
   9  -9  -4   86.99    3.00
  -9  -9   4   88.49    4.80
   9   9  -4   80.09    4.20
   9   9  -4   79.59    5.40
  -9   9   4   87.39    4.40
  -9   9   4   87.39    3.70
   9   9  -4   89.29    5.20
  -9   9   4   82.89    4.60
   9   9  -4   88.99    6.30
  -9   9   4   76.99    3.90
   9   9  -4   92.99    4.80
   9   9  -4   86.09    4.30
   7  -9  -4   32.60    2.80
  -7  -9   4   30.80    3.70
  -7  -9   4   28.20    3.40
   7  -9  -4   33.00    2.90
  -7  -9   4   26.70    2.80
   7  -9  -4   31.60    2.80
   7   9  -4   30.50    2.60
  -7   9   4   26.90    1.90
   7   9  -4   28.30    2.60
   7   9  -4   27.30    3.50
   7   9  -4   27.20    3.20
  -7   9   4   28.60    2.50
  -7   9   4   25.30    2.40
  -7   9   4   29.70    1.90
   7   9  -4   27.40    2.70
   7   9  -4   25.50    3.30
  -5  -9   4    2.90    1.90
  -5  -9   4    0.20    1.10
  -5  -9   4    3.30    1.70
  -5  -9   4    0.50    0.90
   5  -9  -4    0.70    1.20
   5  -9  -4    1.70    1.10
   5  -9  -4   -0.10    1.10
  -5  -9   4   -0.10    1.00
   5   9  -4    1.40    1.60
  -5   9   4    2.70    1.00
  -5   9   4    1.00    0.60
  -5   9   4    1.50    0.80
  -5   9   4    0.90    0.70
   5   9  -4    1.30    1.40
  -5   9   4    2.50    0.90
   5   9  -4    2.30    1.00
   5   9  -4    1.30    1.00
   5   9  -4    2.00    1.10
  -3  -9   4   97.89    4.70
   3  -9  -4   99.89    3.70
  -3  -9   4   98.99    4.10
  -3  -9   4   98.09    4.10
   3  -9  -4   99.39    4.30
  -3   9   4   96.19    3.50
   3   9  -4   90.59    3.90
   3   9  -4   99.59    3.70
  -3   9   4   96.29    2.60
   3   9  -4   90.89    4.80
  -3   9   4   92.39    3.50
  -3   9   4  102.89    3.60
   3   9  -4   99.79    4.90
  -3   9   4   96.39    3.70
   3   9  -4   94.49    4.00
  -3   9   4  101.89    3.40
  -3   9   4   95.79    3.10
   3   9  -4   87.49    5.10
   3   9  -4  100.59    4.80
  -1  -9   4  515.55   15.40
  -1  -9   4  537.45   14.90
  -1  -9   4  511.45   14.20
   1  -9  -4  511.65   13.60
   1  -9  -4  526.95   14.50
  -1  -9   4  523.55   14.40
  -1   9   4  502.85   13.30
   1   9  -4  521.65   14.20
   1   9  -4  519.35   14.80
  -1   9   4  505.95   14.10
   1   9  -4  511.45   15.00
   1   9  -4  516.25   15.10
  -1   9   4  505.85   13.20
  -1   9   4  507.95   13.30
  -1   9   4  514.05   13.10
   1   9  -4  503.65   13.90
  -1   9   4  515.65   13.30
   1   9  -4  496.15   15.00
   1   9  -4  514.05   13.70
  -1   9   4  527.45   13.20
   1  -9   4  221.18    7.10
   1  -9   4  233.68    7.30
  -1  -9  -4  218.08    7.10
   1  -9   4  228.08    8.40
   1   9   4  220.28    6.20
  -1   9  -4  215.68    8.00
  -1   9  -4  230.38    7.20
  -1   9  -4  226.28    6.80
   1   9   4  218.68    6.40
  -1   9  -4  211.98    8.00
   1   9   4  219.68    6.40
  -1   9  -4  221.98    8.00
   1   9   4  226.58    6.70
   1   9   4  224.18    7.40
  -1   9  -4  219.78    6.70
  -1   9  -4  224.58    7.80
   1   9   4  226.28    6.20
   1   9   4  229.68    6.40
  -3  -9  -4  433.76   12.30
   3  -9   4  468.35   13.90
   3  -9   4  462.15   14.00
   3  -9   4  469.85   12.80
  -3  -9  -4  463.85   13.20
  -3  -9  -4  435.56   12.20
   3  -9   4  450.95   12.70
  -3   9  -4  432.76   13.70
  -3   9  -4  462.55   13.60
   3   9   4  452.65   12.30
  -3   9  -4  461.25   12.90
  -3   9  -4  439.46   12.60
  -3   9  -4  470.35   14.00
   3   9   4  455.55   12.00
   3   9   4  426.56   12.10
   3   9   4  466.15   12.70
   3   9   4  467.55   12.30
   5  -9   4   59.99    4.30
  -5  -9  -4   59.69    3.30
  -5  -9  -4   56.49    3.20
   5  -9   4   58.69    4.30
   5  -9   4   62.19    3.20
  -5  -9  -4   59.69    4.10
   5  -9   4   57.29    3.20
   5  -9   4   58.19    4.10
  -5   9  -4   57.79    3.00
   5   9   4   61.19    3.40
   5   9   4   54.19    2.90
   5   9   4   54.59    3.90
  -5   9  -4   59.39    4.60
  -5   9  -4   64.89    3.60
  -5   9  -4   53.09    2.90
   5   9   4   54.19    3.10
  -5   9  -4   66.89    4.40
  -5   9  -4   52.49    3.90
   5   9   4   58.49    2.70
   7  -9   4  137.99    6.00
  -7  -9  -4  135.89    5.80
   7  -9   4  145.49    5.50
   7  -9   4  130.79    6.70
   7  -9   4  139.09    5.40
   7  -9   4  139.99    6.80
  -7  -9  -4  139.49    5.70
  -7  -9  -4  141.09    6.70
  -7   9  -4  132.99    5.10
  -7   9  -4  144.99    7.10
   7   9   4  138.59    4.90
   7   9   4  140.19    5.70
   7   9   4  133.49    5.70
   7   9   4  138.39    6.50
  -7   9  -4  142.79    6.70
   7   9   4  134.79    5.50
  -9  -9  -4   49.99    5.50
   9  -9   4   51.99    3.70
   9  -9   4   45.90    5.20
   9  -9   4   53.69    3.80
   9  -9   4   55.89    5.20
   9  -9   4   51.99    4.60
  -9  -9  -4   49.60    2.60
  -9  -9  -4   55.89    4.80
  -9  -9  -4   49.99    5.70
  -9   9  -4   45.90    3.40
   9   9   4   55.29    4.10
  -9   9  -4   54.59    6.00
   9   9   4   50.49    4.70
  -9   9  -4   39.80    4.90
   9   9   4   49.70    4.20
   9   9   4   54.49    3.30
   9   9   4   45.80    3.80
 -10 -10   4   48.20    5.00
 -10 -10   4   62.59    5.00
  10 -10  -4   53.89    4.70
 -10 -10   4   56.79    6.30
  10 -10  -4   46.40    4.00
  10 -10  -4   51.49    2.60
  10 -10  -4   53.99    4.70
 -10 -10   4   53.59    3.90
  10  10  -4   56.19    5.20
  10  10  -4   56.79    4.10
  10  10  -4   44.50    4.20
 -10  10   4   55.39    4.10
  10  10  -4   61.69    4.20
  10  10  -4   49.60    4.80
 -10  10   4   49.80    3.00
 -10  10   4   55.89    3.20
  10  10  -4   42.10    5.70
 -10  10   4   59.39    4.20
  -8 -10   4   95.69    5.70
   8 -10  -4  102.09    5.00
   8 -10  -4   92.09    4.90
  -8 -10   4  104.49    5.10
   8 -10  -4  100.59    4.70
  -8 -10   4   90.09    6.20
   8  10  -4   99.29    4.90
  -8  10   4   97.49    3.90
   8  10  -4  107.79    5.50
  -8  10   4   94.59    3.80
   8  10  -4   97.89    4.70
   8  10  -4   96.89    5.90
   8  10  -4   88.19    6.10
  -8  10   4   94.69    4.60
  -8  10   4   97.39    4.50
  -6 -10   4  140.79    5.70
   6 -10  -4  148.39    5.60
   6 -10  -4  157.78    5.80
  -6 -10   4  153.88    7.20
   6 -10  -4  158.08    6.00
  -6 -10   4  154.18    5.80
  -6 -10   4  155.48    6.70
  -6  10   4  156.38    5.20
   6  10  -4  160.28    6.50
   6  10  -4  158.18    5.50
   6  10  -4  158.08    6.80
  -6  10   4  146.89    5.50
   6  10  -4  145.79    5.80
  -6  10   4  155.98    4.90
   6  10  -4  149.49    5.70
  -6  10   4  151.18    5.30
   6  10  -4  146.49    6.90
   4 -10  -4  198.78    6.30
  -4 -10   4  198.48    7.10
  -4 -10   4  206.28    6.80
   4 -10  -4  181.68    7.60
  -4 -10   4  197.28    6.40
   4 -10  -4  198.58    6.60
  -4  10   4  187.38    6.00
   4  10  -4  204.08    6.40
   4  10  -4  195.18    7.80
  -4  10   4  204.48    5.80
   4  10  -4  202.58    6.70
   4  10  -4  199.88    7.40
   4  10  -4  206.08    7.90
   4  10  -4  201.18    7.60
   4  10  -4  190.18    6.60
  -4  10   4  200.88    6.10
  -4  10   4  198.98    6.30
  -4  10   4  203.08    6.30
  -2 -10   4   73.89    3.70
  -2 -10   4   71.29    4.40
  -2 -10   4   83.69    5.10
   2 -10  -4   74.69    3.30
  -2 -10   4   82.79    4.50
   2 -10  -4   79.29    4.40
  -2 -10   4   61.39    4.10
   2  10  -4   73.69    3.40
  -2  10   4   77.79    2.40
  -2  10   4   73.99    2.70
  -2  10   4   77.89    3.50
  -2  10   4   76.89    3.00
  -2  10   4   75.49    3.00
   2  10  -4   76.29    4.50
   2  10  -4   79.89    3.30
   2  10  -4   75.59    4.70
   2  10  -4   76.39    4.20
  -2  10   4   79.29    2.90
   0 -10  -4  391.76   11.10
   0 -10   4  387.26   12.70
   0 -10   4  399.86   11.50
   0 -10   4  410.76   11.70
   0  10  -4  402.06   12.50
   0  10   4  377.46   10.50
   0  10  -4  409.56   12.30
   0  10   4  403.16   10.60
   0  10   4  394.96   10.70
   0  10  -4  373.66   13.60
   0  10   4  393.96   10.60
   0  10   4  401.56   10.70
   0  10   4  400.06   10.60
   0  10  -4  384.76   11.20
   0  10  -4  402.66   11.10
   0  10  -4  418.16   12.60
   0  10  -4  415.56   11.60
   0  10   4  393.36   10.50
   0  10   4  383.46   11.50
   2 -10   4  649.24   18.90
  -2 -10  -4  659.73   17.90
   2 -10   4  662.23   17.80
  -2 -10  -4  639.74   17.10
   2 -10   4  629.34   18.90
   2 -10   4  674.03   17.90
  -2  10  -4  663.33   17.90
   2  10   4  660.13   17.10
   2  10   4  644.84   16.90
   2  10   4  632.44   16.90
  -2  10  -4  699.83   19.10
  -2  10  -4  662.43   17.40
   2  10   4  628.94   17.30
   2  10   4  665.53   18.30
  -2  10  -4  635.94   17.50
   2  10   4  664.13   17.20
   2  10   4  678.03   17.40
  -2  10  -4  670.33   19.00
  -2  10  -4  688.03   18.70
  -4 -10  -4  104.59    4.40
  -4 -10  -4  109.19    4.30
   4 -10   4  106.79    5.60
   4 -10   4  110.39    4.60
   4 -10   4  109.99    4.50
  -4 -10  -4  109.59    5.30
   4 -10   4  100.79    5.80
  -4  10  -4  100.39    5.20
   4  10   4  111.39    5.00
   4  10   4  100.49    3.80
  -4  10  -4   98.79    4.10
   4  10   4  105.19    4.40
   4  10   4  103.89    4.20
   4  10   4  100.19    4.00
  -4  10  -4  103.59    4.70
  -4  10  -4  111.79    6.00
  -4  10  -4  100.29    5.40
  -4  10  -4  108.79    4.20
   4  10   4   97.69    4.30
   6 -10   4    7.30    1.50
  -6 -10  -4   10.20    2.00
   6 -10   4   10.20    2.70
   6 -10   4   10.20    1.80
  -6 -10  -4   13.40    2.50
   6 -10   4    9.90    2.10
  -6 -10  -4   10.30    2.10
   6 -10   4   10.50    2.70
  -6  10  -4    9.50    1.50
   6  10   4   10.90    2.40
   6  10   4   11.50    1.80
  -6  10  -4    9.50    1.50
   6  10   4    8.60    1.90
   6  10   4   10.10    1.70
  -6  10  -4   10.90    1.90
  -6  10  -4   10.40    2.50
   6  10   4   11.90    1.90
  -6  10  -4   10.90    2.20
   6  10   4    8.40    1.70
   8 -10   4   13.60    2.10
  -8 -10  -4   11.20    2.90
   8 -10   4   16.10    3.30
   8 -10   4   11.40    2.50
  -8 -10  -4   11.80    2.70
  -8 -10  -4   11.70    2.70
   8 -10   4   17.50    3.30
   8 -10   4   15.10    2.30
   8  10   4   11.50    2.30
   8  10   4   17.10    2.70
   8  10   4   17.00    2.70
   8  10   4   14.70    1.90
  -8  10  -4   14.00    2.00
  -8  10  -4   11.70    3.00
   8  10   4   10.10    2.10
   8  10   4   18.30    2.60
  -8  10  -4    9.90    2.70
  10 -10   4    4.30    2.70
 -10 -10  -4    8.90    1.70
  10 -10   4    5.30    3.40
 -10 -10  -4    6.80    3.20
  10 -10   4    8.70    3.20
 -10  10  -4    3.50    3.80
  10  10   4    2.30    1.70
 -10  10  -4    5.90    1.80
  10  10   4    1.30    2.40
  10  10   4   11.80    2.90
 -10  10  -4    5.70    3.10
  10  10   4    6.50    2.40
  10  10   4    4.60    2.10
  -9 -11   4   31.30    3.50
  -9 -11   4   31.60    4.20
  -9 -11   4   38.10    4.20
   9 -11  -4   26.70    3.90
   9 -11  -4   32.40    3.60
  -9 -11   4   27.50    4.20
   9 -11  -4   35.00    3.90
   9  11  -4   28.30    3.70
  -9  11   4   25.10    3.40
  -9  11   4   33.20    2.50
  -9  11   4   27.30    2.50
   9  11  -4   33.30    4.40
   9  11  -4   29.50    3.50
   9  11  -4   28.10    3.60
   9  11  -4   28.80    3.50
   9  11  -4   31.40    4.30
  -9  11   4   28.80    3.50
   7 -11  -4    6.20    2.00
   7 -11  -4    7.00    1.80
   7 -11  -4    7.70    2.00
  -7 -11   4    4.40    1.50
  -7 -11   4    2.50    2.60
  -7 -11   4    3.60    2.20
  -7 -11   4    6.40    1.70
  -7  11   4    5.30    1.60
   7  11  -4    5.60    1.50
  -7  11   4    5.40    1.20
   7  11  -4    5.70    2.00
  -7  11   4    7.70    1.80
  -7  11   4    7.50    1.60
   7  11  -4    4.40    2.20
   7  11  -4    6.40    1.70
   7  11  -4    4.20    1.70
  -7  11   4    9.80    1.30
   5 -11  -4   33.40    3.30
  -5 -11   4   37.70    2.80
   5 -11  -4   28.00    2.90
   5 -11  -4   30.30    2.70
  -5 -11   4   28.40    2.80
  -5 -11   4   30.20    3.10
  -5 -11   4   30.40    3.70
   5  11  -4   30.70    2.80
  -5  11   4   31.30    2.30
   5  11  -4   30.00    3.20
   5  11  -4   37.20    4.10
  -5  11   4   31.80    1.90
   5  11  -4   30.00    3.40
  -5  11   4   30.10    2.30
   5  11  -4   22.90    3.20
   5  11  -4   26.50    2.70
  -5  11   4   26.50    2.50
   3 -11  -4   28.30    3.10
  -3 -11   4   30.90    2.30
   3 -11  -4   28.30    2.60
  -3 -11   4   24.50    2.60
  -3 -11   4   32.80    3.50
  -3 -11   4   25.90    3.00
  -3  11   4   26.40    2.20
   3  11  -4   30.00    3.30
   3  11  -4   33.60    4.00
  -3  11   4   27.50    2.10
  -3  11   4   30.80    1.70
   3  11  -4   30.50    3.60
  -3  11   4   24.50    2.00
   3  11  -4   31.40    3.50
   3  11  -4   28.80    2.70
  -3  11   4   27.50    2.20
  -3  11   4   26.50    2.30
   3  11  -4   29.00    2.50
  -1 -11   4   34.50    2.20
  -1 -11   4   35.00    4.00
  -1 -11   4   33.50    2.90
   1 -11  -4   34.80    3.20
   1  11  -4   31.30    2.60
   1  11  -4   32.20    2.40
  -1  11   4   33.90    1.90
  -1  11   4   32.30    1.60
   1  11  -4   28.90    3.30
  -1  11   4   25.60    2.50
   1  11  -4   27.50    3.50
  -1  11   4   26.10    2.80
  -1  11   4   27.70    2.00
  -1  11   4   30.80    2.00
  -1  11   4   34.00    2.00
   1  11  -4   30.30    2.30
   1  11  -4   32.70    3.60
   1  11  -4   28.50    3.80
  -1  11   4   33.90    1.90
   1 -11   4  141.59    5.60
  -1 -11  -4  139.79    5.30
   1 -11   4  139.29    6.60
   1 -11   4  131.99    5.40
  -1  11  -4  149.69    6.30
  -1  11  -4  149.59    6.80
   1  11   4  146.79    4.80
  -1  11  -4  140.29    6.40
  -1  11  -4  144.09    6.60
   1  11   4  137.19    4.60
  -1  11  -4  140.39    5.50
   1  11   4  141.09    4.80
   1  11   4  138.19    4.60
   1  11   4  142.89    4.80
   1  11   4  145.59    4.70
  -1  11  -4  147.59    5.10
  -1  11  -4  134.99    5.10
   1  11   4  134.89    5.60
  -3 -11  -4   49.90    3.80
   3 -11   4   50.89    3.20
   3 -11   4   47.70    4.40
   3 -11   4   47.40    3.30
  -3 -11  -4   49.20    3.00
   3 -11   4   49.30    4.20
   3  11   4   44.10    2.70
   3  11   4   50.29    2.80
  -3  11  -4   49.60    4.10
  -3  11  -4   44.50    2.80
   3  11   4   43.80    2.50
  -3  11  -4   52.49    2.80
  -3  11  -4   45.40    4.20
  -3  11  -4   48.00    3.40
  -3  11  -4   50.49    4.60
   3  11   4   52.39    2.80
   3  11   4   48.10    3.60
   3  11   4   46.90    2.40
   3  11   4   47.90    2.80
  -5 -11  -4   16.00    2.10
  -5 -11  -4   17.00    2.70
   5 -11   4   14.20    2.30
   5 -11   4   14.20    2.70
   5 -11   4   14.20    2.20
   5 -11   4   12.80    2.50
   5 -11   4   13.50    1.90
  -5 -11  -4   15.50    2.20
   5  11   4   14.90    2.00
  -5  11  -4   16.10    3.20
  -5  11  -4   15.30    2.10
  -5  11  -4    8.50    2.50
  -5  11  -4    8.60    1.80
  -5  11  -4   15.90    1.90
   5  11   4   15.40    2.10
   5  11   4   12.30    2.20
   5  11   4   14.90    2.00
  -5  11  -4   14.10    2.70
   5  11   4   13.50    1.70
   5  11   4    9.90    1.60
   7 -11   4   30.00    3.30
   7 -11   4   34.60    5.70
  -7 -11  -4   37.30    5.00
   7 -11   4   26.80    3.70
   7 -11   4   23.90    3.20
  -7 -11  -4   29.90    3.80
  -7 -11  -4   30.40    3.90
   7 -11   4   28.80    4.10
  -7  11  -4   27.70    2.70
   7  11   4   30.00    2.70
   7  11   4   32.60    4.00
  -7  11  -4   28.90    3.50
  -7  11  -4   34.50    4.30
  -7  11  -4   26.00    2.70
   7  11   4   28.00    3.40
   7  11   4   35.50    3.20
  -7  11  -4   28.70    3.90
   7  11   4   29.70    3.60
   7  11   4   34.30    3.20
  -7  11  -4   34.10    4.40
  -9 -11  -4   15.40    3.70
  -9 -11  -4   21.80    3.70
   9 -11   4   21.90    3.20
   9 -11   4   17.90    3.50
   9 -11   4   20.40    4.00
   9  11   4   15.50    2.30
   9  11   4   14.70    2.80
  -9  11  -4   13.40    3.00
  -9  11  -4   19.60    4.30
  -9  11  -4   16.20    2.10
   9  11   4   21.00    2.80
   9  11   4   17.70    3.10
   9  11   4   20.40    2.30
   8 -12  -4   32.10    4.00
  -8 -12   4   29.30    4.00
   8 -12  -4   37.00    4.20
  -8 -12   4   33.10    4.80
   8 -12  -4   33.90    4.20
  -8 -12   4   22.60    4.60
  -8 -12   4   30.30    3.50
   8  12  -4   27.20    2.90
   8  12  -4   33.90    4.40
   8  12  -4   33.80    4.30
  -8  12   4   36.60    3.40
  -8  12   4   34.20    2.60
   8  12  -4   30.80    3.50
   8  12  -4   33.50    5.00
  -8  12   4   27.80    3.20
  -8  12   4   36.50    2.60
   8  12  -4   37.50    3.60
  -8  12   4   41.60    3.50
   6 -12  -4   29.80    3.50
  -6 -12   4   21.90    3.10
   6 -12  -4   28.50    3.20
   6 -12  -4   28.30    3.80
  -6 -12   4   26.00    3.40
  -6 -12   4   28.30    3.20
  -6  12   4   27.70    2.50
   6  12  -4   28.30    4.80
   6  12  -4   24.70    3.70
   6  12  -4   32.20    3.00
   6  12  -4   21.80    2.90
  -6  12   4   27.80    2.80
   6  12  -4   33.60    4.60
  -6  12   4   30.80    2.10
   6  12  -4   28.40    3.80
  -6  12   4   25.90    2.70
  -6  12   4   26.90    2.60
   6  12  -4   32.10    3.10
  -4 -12   4   55.99    3.40
   4 -12  -4   52.29    3.50
  -4 -12   4   56.89    3.60
  -4 -12   4   47.20    3.70
   4 -12  -4   56.09    4.10
  -4 -12   4   49.70    4.30
  -4  12   4   49.10    2.40
  -4  12   4   61.89    3.40
  -4  12   4   52.49    2.80
  -4  12   4   47.90    3.00
   4  12  -4   60.29    5.00
  -4  12   4   54.89    3.10
   4  12  -4   52.69    4.20
   4  12  -4   59.99    4.60
  -4  12   4   53.29    3.00
   4  12  -4   56.19    3.30
   4  12  -4   49.30    4.60
   4  12  -4   49.90    3.40
   4  12  -4   48.90    3.50
  -2 -12   4   19.00    2.90
  -2 -12   4   22.80    3.30
  -2 -12   4   19.70    2.20
   2 -12  -4   24.10    2.80
  -2 -12   4   27.20    3.20
   2 -12  -4   27.30    3.50
   2  12  -4   24.40    3.30
   2  12  -4   24.30    3.50
   2  12  -4   19.90    2.30
   2  12  -4   20.30    2.30
  -2  12   4   17.60    1.90
  -2  12   4   17.90    2.30
   2  12  -4   17.60    3.00
   2  12  -4   19.50    2.90
  -2  12   4   19.90    2.00
  -2  12   4   21.20    2.10
  -2  12   4   18.80    2.00
  -2  12   4   21.70    1.90
  -2  12   4   19.10    1.70
   2  12  -4   23.50    2.50
   0 -12  -4   25.20    2.40
   0 -12   4   33.50    3.90
   0 -12   4   29.70    2.10
   0  12  -4   27.10    3.50
   0  12  -4   24.60    2.40
   0  12  -4   28.20    3.50
   0  12  -4   22.00    3.10
   0  12  -4   31.40    3.50
   0  12   4   25.70    2.00
   0  12   4   29.70    2.20
   0  12   4   27.50    2.20
   0  12   4   26.20    2.70
   0  12   4   25.60    2.00
   0  12   4   29.10    2.00
   0  12   4   29.70    2.20
   0  12  -4   29.20    2.40
   0  12  -4   27.70    2.80
   0  12   4   29.20    1.70
   2 -12   4   30.90    3.10
  -2 -12  -4   34.00    3.40
   2 -12   4   34.00    3.20
  -2 -12  -4   30.50    2.80
   2 -12   4   32.00    4.30
   2  12   4   30.80    2.50
   2  12   4   29.10    2.10
   2  12   4   27.20    2.50
   2  12   4   30.10    2.20
  -2  12  -4   31.30    3.90
  -2  12  -4   32.50    2.50
  -2  12  -4   32.50    4.20
  -2  12  -4   30.60    4.30
   2  12   4   30.50    3.20
   2  12   4   31.30    2.40
  -2  12  -4   29.60    2.40
  -2  12  -4   34.30    3.10
  -2  12  -4   36.20    3.80
   2  12   4   29.50    2.10
   4 -12   4   64.99    5.10
   4 -12   4   63.79    5.10
   4 -12   4   58.59    3.80
  -4 -12  -4   68.39    4.70
  -4 -12  -4   69.79    3.80
   4 -12   4   57.99    3.90
   4  12   4   60.39    3.40
  -4  12  -4   58.69    4.70
   4  12   4   57.69    3.30
  -4  12  -4   60.89    3.40
   4  12   4   53.89    4.10
  -4  12  -4   55.89    4.60
  -4  12  -4   60.79    3.40
   4  12   4   57.59    3.40
  -4  12  -4   64.99    5.50
   4  12   4   56.99    3.20
   4  12   4   59.39    3.50
   4  12   4   57.89    3.50
  -4  12  -4   63.69    4.10
   6 -12   4    4.10    1.70
   6 -12   4    8.10    2.00
  -6 -12  -4    4.90    2.20
   6 -12   4    3.00    2.50
   6 -12   4    7.60    2.40
  -6 -12  -4    4.60    2.60
  -6 -12  -4    1.70    2.20
   6 -12   4   -0.30    2.50
  -6  12  -4    5.30    2.60
  -6  12  -4    4.10    2.30
  -6  12  -4    5.30    1.50
  -6  12  -4    4.40    1.60
  -6  12  -4    2.50    3.10
   6  12   4    4.80    1.40
   6  12   4    4.90    1.60
   6  12   4    5.30    1.70
   6  12   4    2.60    2.20
   6  12   4    4.30    1.80
   6  12   4    5.10    1.90
  -6  12  -4    3.50    2.00
   8 -12   4   25.40    4.80
  -8 -12  -4   21.20    4.00
  -8 -12  -4   29.10    3.70
   8 -12   4   30.30    4.40
  -8 -12  -4   23.40    3.50
   8 -12   4   26.10    4.30
   8 -12   4   23.80    3.30
   8  12   4   28.00    3.70
  -8  12  -4   22.30    3.90
   8  12   4   22.10    2.70
  -8  12  -4   24.20    3.00
   8  12   4   26.50    3.30
   8  12   4   23.20    2.90
   8  12   4   24.20    2.80
  -8  12  -4   18.20    3.70
  -8  12  -4   13.20    3.70
   7 -13  -4    4.70    2.60
   7 -13  -4    9.20    2.40
  -7 -13   4    7.60    2.40
  -7 -13   4    5.80    2.20
  -7 -13   4    3.50    3.00
   7 -13  -4    6.00    2.50
  -7  13   4   10.70    1.90
   7  13  -4    9.10    2.20
  -7  13   4    6.60    1.40
   7  13  -4    3.80    2.80
   7  13  -4    6.70    1.90
  -7  13   4    8.00    1.90
   7  13  -4    7.20    3.00
   7  13  -4   11.50    2.90
  -7  13   4    7.80    1.90
   7  13  -4    6.60    1.90
   7  13  -4    1.60    3.20
  -7  13   4    4.50    1.40
   5 -13  -4   17.00    2.30
  -5 -13   4   17.50    2.50
   5 -13  -4   11.50    2.60
  -5 -13   4   19.90    2.80
   5 -13  -4   17.70    2.50
  -5 -13   4   20.20    3.30
  -5 -13   4   20.20    2.50
  -5  13   4   15.10    2.00
   5  13  -4   14.60    4.30
   5  13  -4   12.20    2.90
   5  13  -4   21.80    2.90
  -5  13   4   16.40    2.20
   5  13  -4   17.90    2.50
  -5  13   4   17.50    2.40
   5  13  -4   17.90    2.20
   5  13  -4   23.40    3.80
  -5  13   4   18.40    2.50
  -5  13   4   16.70    2.00
  -5  13   4   15.60    2.40
   5  13  -4   15.80    2.70
   3 -13  -4   32.90    3.40
  -3 -13   4   28.90    3.50
  -3 -13   4   32.30    3.00
   3 -13  -4   34.80    4.10
  -3 -13   4   29.10    3.60
  -3  13   4   32.20    2.20
   3  13  -4   34.50    3.90
   3  13  -4   28.80    4.30
  -3  13   4   28.80    2.40
   3  13  -4   34.20    3.30
   3  13  -4   28.80    4.20
  -3  13   4   38.70    2.90
  -3  13   4   33.30    2.60
  -3  13   4   30.80    2.70
   3  13  -4   26.70    2.90
   3  13  -4   26.70    3.50
  -3  13   4   32.90    2.80
   3  13  -4   35.60    2.90
  -1 -13   4    3.20    2.70
  -1 -13   4    3.70    1.30
   1 -13  -4    2.80    2.10
  -1 -13   4    4.20    1.70
  -1  13   4    4.00    0.70
  -1  13   4    3.40    1.20
  -1  13   4    5.40    1.30
   1  13  -4    1.30    1.30
   1  13  -4    6.30    1.50
  -1  13   4    5.10    1.10
  -1  13   4    2.70    1.30
   1  13  -4    2.40    1.90
   1  13  -4    4.00    2.30
  -1  13   4    4.60    1.30
   1  13  -4    8.60    2.70
   1  13  -4    1.70    1.90
  -1  13   4    5.50    1.30
   1  13  -4    4.30    1.30
  -1  13   4    3.90    1.40
   1 -13   4   31.50    2.30
   1 -13   4   23.00    3.70
   1 -13   4   27.70    3.30
  -1 -13  -4   34.30    3.30
  -1  13  -4   27.30    2.70
   1  13   4   34.90    2.60
  -1  13  -4   27.80    4.00
  -1  13  -4   31.10    4.50
   1  13   4   29.30    2.40
  -1  13  -4   24.10    3.30
   1  13   4   31.30    2.00
  -1  13  -4   26.70    2.60
  -1  13  -4   25.00    3.20
   1  13   4   27.60    2.50
   1  13   4   30.60    2.60
   1  13   4   28.90    3.40
   1  13   4   32.30    2.40
   1  13   4   35.30    2.40
  -1  13  -4   28.60    4.30
   3 -13   4  103.49    6.60
   3 -13   4  105.79    5.30
   3 -13   4  105.59    5.20
  -3 -13  -4  105.59    5.60
   3 -13   4  105.79    6.30
  -3 -13  -4  101.39    4.90
   3  13   4  100.49    4.50
  -3  13  -4   99.49    6.50
   3  13   4  101.39    4.20
  -3  13  -4   97.79    4.40
   3  13   4  107.99    4.50
  -3  13  -4  110.69    6.70
  -3  13  -4  106.29    5.20
  -3  13  -4  104.29    4.50
   3  13   4  100.09    4.10
  -3  13  -4   93.99    5.90
   3  13   4  100.19    5.40
   3  13   4  104.19    4.60
  -3  13  -4  105.89    5.90
   3  13   4   88.69    4.50
   5 -13   4   56.39    4.30
   5 -13   4   59.09    4.60
   5 -13   4   56.89    4.30
  -5 -13  -4   53.49    4.40
   5 -13   4   50.69    5.70
   5 -13   4   59.19    5.70
  -5 -13  -4   59.29    5.40
  -5  13  -4   48.10    4.80
  -5  13  -4   47.00    3.40
  -5  13  -4   48.10    3.40
  -5  13  -4   51.99    5.90
   5  13   4   54.69    4.60
   5  13   4   52.29    3.40
  -5  13  -4   54.19    4.40
   5  13   4   57.49    3.20
  -5  13  -4   58.59    5.60
   5  13   4   62.49    4.00
   5  13   4   53.09    3.50
   5  13   4   52.19    3.70
   5  13   4   52.99    4.00
  -7 -13  -4   51.09    6.20
   7 -13   4   53.69    5.90
   7 -13   4   52.79    5.10
   7 -13   4   61.69    7.50
  -7 -13  -4   51.99    7.10
  -7 -13  -4   40.30    5.90
  -7  13  -4   47.20    3.50
   7  13   4   46.30    3.40
   7  13   4   54.49    4.40
  -7  13  -4   38.60    4.90
  -7  13  -4   40.00    3.50
  -7  13  -4   46.10    5.50
   7  13   4   50.29    3.90
   7  13   4   52.49    4.50
   7  13   4   46.40    3.70
   7  13   4   50.89    5.00
  -7  13  -4   37.30    5.50
  -6 -14   4   10.10    3.20
   6 -14  -4    2.90    2.50
   6 -14  -4    3.70    2.20
  -6 -14   4    3.20    2.00
   6 -14  -4   -1.70    2.40
  -6 -14   4    1.70    2.20
  -6  14   4    3.20    1.20
  -6  14   4    0.70    1.70
   6  14  -4   -1.20    1.80
   6  14  -4    5.30    2.80
  -6  14   4    2.20    1.50
   6  14  -4    6.80    3.00
   6  14  -4    5.40    2.90
  -6  14   4    2.70    1.60
   6  14  -4    3.20    1.90
  -6  14   4    0.00    1.70
   6  14  -4    2.40    3.20
  -4 -14   4   49.00    4.50
   4 -14  -4   45.40    5.00
   4 -14  -4   57.59    4.40
  -4 -14   4   54.49    5.40
  -4 -14   4   46.90    3.90
  -4  14   4   43.00    3.30
   4  14  -4   50.69    5.80
  -4  14   4   40.70    3.30
   4  14  -4   47.80    4.10
  -4  14   4   51.39    3.40
   4  14  -4   44.60    3.70
   4  14  -4   52.39    3.70
   4  14  -4   53.29    4.80
  -4  14   4   44.00    2.70
   4  14  -4   51.79    5.10
  -4  14   4   44.50    3.00
  -4  14   4   53.59    3.70
   2 -14  -4   26.60    3.50
  -2 -14   4   20.60    2.90
   2 -14  -4   31.10    4.20
  -2 -14   4   20.80    3.70
  -2 -14   4   24.50    3.10
  -2  14   4   22.40    3.00
   2  14  -4   21.20    3.30
   2  14  -4   24.10    2.80
  -2  14   4   24.10    2.60
  -2  14   4   26.50    2.50
   2  14  -4   23.20    3.30
  -2  14   4   29.00    2.80
   2  14  -4   28.00    3.20
   2  14  -4   28.10    4.00
  -2  14   4   25.40    2.40
   2  14  -4   29.90    2.90
   2  14  -4   26.50    3.40
  -2  14   4   24.50    2.80
   0 -14   4   44.00    3.10
   0 -14  -4   49.99    3.40
   0 -14   4   54.49    5.70
   0 -14   4   44.50    4.20
   0  14   4   41.90    3.70
   0  14  -4   42.80    3.30
   0  14  -4   56.79    5.00
   0  14   4   49.50    2.10
   0  14   4   50.29    2.90
   0  14   4   44.20    3.20
   0  14   4   48.00    3.20
   0  14  -4   43.00    3.70
   0  14   4   48.60    3.90
   0  14  -4   47.60    5.50
   0  14  -4   49.70    4.90
   0  14  -4   50.19    3.40
   0  14   4   50.59    3.30
   0  14  -4   56.09    4.80
   0  14   4   47.60    3.80
   2 -14   4   27.90    3.10
   2 -14   4   22.50    3.80
   2 -14   4   29.70    3.80
   2 -14   4   22.20    2.40
   2  14   4   25.10    2.80
   2  14   4   22.30    2.50
   2  14   4   22.80    2.80
   2  14   4   21.40    2.10
   2  14   4   19.40    2.80
  -2  14  -4   22.40    2.80
  -2  14  -4   21.10    2.70
  -2  14  -4   24.00    3.30
  -2  14  -4   17.40    2.60
  -2  14  -4   27.00    4.00
   2  14   4   21.40    2.40
   2  14   4   26.30    2.60
   2  14   4   28.90    2.90
  -2  14  -4   20.30    3.40
  -4 -14  -4   27.50    3.70
   4 -14   4   33.30    4.30
   4 -14   4   21.40    2.90
   4 -14   4   31.20    2.50
   4 -14   4   20.80    2.90
  -4 -14  -4   30.30    3.20
   4 -14   4   26.50    4.20
  -4  14  -4   27.80    3.90
   4  14   4   25.00    2.80
   4  14   4   31.60    2.80
  -4  14  -4   29.10    4.10
  -4  14  -4   26.60    2.90
  -4  14  -4   26.40    2.90
  -4  14  -4   34.90    4.80
   4  14   4   25.60    3.30
   4  14   4   33.00    4.00
   4  14   4   30.50    2.80
   4  14   4   27.60    3.10
   4  14   4   33.20    3.20
  -4  14  -4   27.10    4.20
  -4  14  -4   27.70    3.30
   5 -15  -4    3.90    2.70
  -5 -15   4    6.90    3.10
   5 -15  -4    1.40    3.00
  -5 -15   4    6.90    2.40
  -5 -15   4   -1.40    2.80
   5  15  -4    7.70    3.00
  -5  15   4    7.70    2.00
   5  15  -4    4.90    2.00
  -5  15   4    4.40    1.60
  -5  15   4    6.10    2.00
  -5  15   4    3.60    1.90
   5  15  -4    4.40    1.90
   5  15  -4    5.00    3.20
  -5  15   4    8.00    1.50
   5  15  -4   10.80    3.80
   5  15  -4    7.50    3.50
  -5  15   4    7.50    2.20
  -3 -15   4   19.10    2.70
   3 -15  -4   15.80    3.40
  -3 -15   4   20.90    3.30
   3 -15  -4   33.30    4.50
  -3 -15   4   18.30    3.60
   3  15  -4   22.90    4.10
   3  15  -4   21.40    2.50
  -3  15   4   22.30    2.30
  -3  15   4   18.90    2.70
   3  15  -4   13.30    2.20
   3  15  -4   23.50    3.70
  -3  15   4   29.90    2.90
   3  15  -4   27.30    3.80
   3  15  -4   22.50    3.60
  -3  15   4   19.90    2.40
  -3  15   4   16.40    2.20
  -3  15   4   17.60    2.40
   3  15  -4   26.50    4.20
  -3  15   4   22.40    3.10
   1 -15  -4   13.60    3.40
  -1 -15   4   14.00    4.00
  -1 -15   4   11.70    2.10
  -1 -15   4   15.60    2.90
   1  15  -4   12.70    1.90
  -1  15   4   14.10    2.00
  -1  15   4   11.30    1.80
  -1  15   4   18.60    2.30
  -1  15   4   11.80    2.10
  -1  15   4    9.70    1.90
   1  15  -4   17.70    3.90
   1  15  -4   16.80    3.40
   1  15  -4   17.60    3.20
   1  15  -4   12.70    2.00
  -1  15   4   15.60    2.00
   1  15  -4   11.90    5.70
   1  15  -4   10.10    2.50
  -1  15   4   13.70    2.10
   1 -15   4    7.70    1.70
   1 -15   4    6.80    2.60
   1 -15   4   10.90    3.50
  -1 -15  -4    8.90    2.50
   1  15   4   12.60    2.00
  -1  15  -4    9.10    3.00
  -1  15  -4   10.50    2.80
   1  15   4    3.50    2.00
   1  15   4   11.70    2.00
  -1  15  -4    9.00    3.30
  -1  15  -4    9.30    2.90
  -1  15  -4   11.60    3.00
   1  15   4    8.80    1.80
   1  15   4   11.90    1.80
   1  15   4   12.70    1.70
  -1  15  -4   10.60    1.90
   1  15   4    7.30    1.70
  -1  15  -4    8.30    1.90
   1  15   4   11.40    1.90
   3 -15   4   14.50    1.80
  -3 -15  -4   12.30    3.20
  -3 -15  -4   16.10    3.00
   3 -15   4    7.30    2.80
   3  15   4   16.90    2.30
   3  15   4   15.20    2.40
   3  15   4   14.40    2.80
   3  15   4   20.00    2.70
   3  15   4   15.60    2.30
  -3  15  -4   14.10    4.10
   3  15   4   15.40    2.00
   3  15   4   16.00    1.80
  -3  15  -4   11.50    3.30
  -3  15  -4   16.90    4.00
  -3  15  -4   12.50    2.00
  -3  15  -4   17.60    3.40
   3  15   4   22.60    2.90
 -14   0   5    1.50    2.50
  14   0  -5   -1.00    1.10
  14   0  -5    0.50    1.60
 -14   0   5    1.00    2.00
 -14   0   5   -3.30    2.20
 -14   0   5   -0.60    1.60
  14   0  -5    0.20    3.00
 -12   0   5    0.30    1.50
 -12   0   5   -0.90    1.80
 -12   0   5    2.30    1.30
  12   0  -5    0.80    1.90
  12   0  -5   -1.20    0.70
 -12   0   5   -1.00    1.60
  12   0  -5   -0.50    1.10
  12   0  -5   -0.90    2.10
 -10   0   5    0.90    1.10
  10   0  -5    0.20    0.50
  10   0  -5    2.20    1.60
 -10   0   5    0.00    0.90
 -10   0   5   -2.70    1.20
  10   0  -5   -0.20    1.00
 -10   0   5    1.40    1.30
  -8   0   5   -0.20    1.00
   8   0  -5    1.40    1.10
  -8   0   5    0.50    0.70
  -8   0   5    0.70    1.00
   8   0  -5    1.10    1.20
   8   0  -5   -0.90    0.60
  -8   0   5   -1.40    0.60
   6   0  -5   -0.20    0.60
   6   0  -5    1.00    0.80
   6   0  -5   -1.20    0.80
  -6   0   5   -0.50    0.70
  -6   0   5    0.50    0.50
  -6   0   5   -1.10    0.50
  -6   0   5    0.40    0.80
   6   0  -5   -0.70    0.40
   4   0  -5    1.10    1.00
  -4   0   5    0.40    0.70
   4   0  -5    0.00    0.30
   4   0  -5    0.10    0.60
   4   0  -5   -0.40    0.40
  -4   0   5    0.00    0.40
   4   0  -5    0.10    0.60
  -4   0   5    0.10    0.60
   2   0  -5    0.90    0.60
  -2   0   5    0.50    0.30
   2   0  -5   -0.50    0.70
  -2   0   5    1.70    0.60
  -2   0   5    0.30    0.20
   2   0  -5    0.70    0.60
   2   0  -5   -0.10    0.50
  -2   0   5   -0.10    0.40
   0   0  -5    1.60    0.60
   0   0  -5    1.90    0.70
   0   0   5    0.90    0.50
   0   0  -5    1.50    0.60
   0   0   5    0.70    0.30
   0   0  -5    1.10    0.60
   0   0   5    1.70    0.40
  -2   0  -5    0.40    0.60
   2   0   5    1.10    0.60
   2   0   5    0.40    0.40
  -2   0  -5   -0.40    0.60
   2   0   5    0.10    0.60
  -2   0  -5    0.30    0.30
   2   0   5    0.40    0.90
  -2   0  -5    0.00    0.30
   4   0   5    0.00    0.40
  -4   0  -5    0.40    0.80
   4   0   5    0.50    0.80
  -4   0  -5    0.50    0.50
   4   0   5   -0.10    0.90
   4   0   5   -1.30    0.70
  -4   0  -5    0.40    0.50
  -6   0  -5   -0.30    0.60
   6   0   5    0.70    1.10
  -6   0  -5    1.80    1.20
   6   0   5    0.10    1.30
   6   0   5    0.30    1.00
   6   0   5    0.30    0.60
  -6   0  -5    1.30    1.30
   8   0   5   -0.30    1.40
  -8   0  -5   -0.10    1.50
   8   0   5    1.20    1.50
   8   0   5    0.10    0.80
  -8   0  -5   -1.80    1.50
  -8   0  -5    1.20    1.60
   8   0   5   -1.80    1.40
  -8   0  -5   -0.50    0.80
 -10   0  -5    2.90    2.30
 -10   0  -5   -0.60    2.10
  10   0   5   -2.30    1.70
 -10   0  -5    0.90    1.20
 -10   0  -5    3.70    2.10
  10   0   5    3.00    2.10
  10   0   5    0.80    1.90
  10   0   5   -0.10    1.00
 -12   0  -5    0.20    2.60
  12   0   5    3.00    2.70
 -12   0  -5    3.20    3.20
 -12   0  -5   -1.80    1.50
  12   0   5   -2.40    2.20
  12   0   5   -2.60    2.40
 -12   0  -5    4.80    3.00
  12   0   5   -0.20    1.50
 -13  -1   5   13.40    2.00
  13  -1  -5   23.40    3.50
  13  -1  -5   23.60    2.60
  13  -1  -5   15.80    3.10
 -13  -1   5   20.40    2.70
 -13  -1   5   17.70    2.90
 -13  -1   5   18.40    3.20
  13  -1  -5   20.10    1.90
  13   1  -5   21.90    1.90
  13   1  -5   24.00    2.80
 -13   1   5   22.50    2.40
 -13   1   5   20.70    2.50
  13   1  -5   18.20    3.30
 -13   1   5   12.00    2.80
  13   1  -5   17.10    3.10
 -13   1   5   17.10    2.80
 -11  -1   5   43.10    3.00
  11  -1  -5   54.09    4.00
  11  -1  -5   49.40    3.80
 -11  -1   5   46.40    3.30
 -11  -1   5   44.40    3.80
 -11  -1   5   43.70    3.50
  11  -1  -5   49.70    2.70
  11  -1  -5   44.00    2.10
  11   1  -5   44.10    1.90
  11   1  -5   48.00    4.00
 -11   1   5   45.90    3.10
 -11   1   5   43.40    3.50
  11   1  -5   49.30    2.80
 -11   1   5   46.90    3.70
  11   1  -5   51.89    4.10
 -11   1   5   44.80    2.90
   9  -1  -5  255.17    8.40
  -9  -1   5  244.08    8.70
  -9  -1   5  256.17    8.30
  -9  -1   5  233.58    8.70
   9  -1  -5  245.48    6.60
   9  -1  -5  269.67    8.40
   9  -1  -5  250.97    7.10
   9   1  -5  261.87    7.40
  -9   1   5  249.88    8.40
  -9   1   5  243.58    8.10
   9   1  -5  246.68    6.50
   9   1  -5  253.47    6.80
   9   1  -5  242.68    8.30
   9   1  -5  253.67    8.60
  -9   1   5  253.97    7.60
  -9   1   5  264.27    7.60
  -7  -1   5 1164.68   28.80
   7  -1  -5 1146.69   29.30
   7  -1  -5 1173.88   29.50
  -7  -1   5 1149.78   28.90
  -7  -1   5 1166.28   29.50
  -7  -1   5 1157.98   29.70
   7  -1  -5 1123.19   28.30
  -7   1   5 1185.28   28.80
   7   1  -5 1126.09   29.60
  -7   1   5 1157.68   29.30
   7   1  -5 1094.79   28.50
   7   1  -5 1118.29   29.40
  -7   1   5 1134.09   28.60
  -7   1   5 1145.69   29.40
  -5  -1   5  614.94   16.10
   5  -1  -5  586.34   15.10
  -5  -1   5  609.64   15.70
  -5  -1   5  616.54   16.30
   5  -1  -5  614.74   15.90
   5  -1  -5  602.74   15.20
   5  -1  -5  605.64   16.00
  -5   1   5  627.94   15.90
   5   1  -5  624.14   15.60
   5   1  -5  611.14   15.40
  -5   1   5  607.34   16.00
   5   1  -5  603.34   16.10
   5   1  -5  612.54   16.20
  -5   1   5  594.14   15.50
  -3  -1   5  986.40   24.90
   3  -1  -5  958.50   24.40
   3  -1  -5  967.50   24.40
  -3  -1   5  977.80   24.70
   3  -1  -5  962.70   24.60
  -3  -1   5  966.90   24.40
  -3   1   5  995.10   24.10
   3   1  -5  984.60   24.70
  -3   1   5 1025.80   24.40
   3   1  -5  968.80   24.10
  -3   1   5  990.90   24.50
   3   1  -5  968.60   24.10
   3   1  -5 1017.30   25.10
  -3   1   5  957.00   23.80
   3   1  -5  958.20   24.80
  -1  -1   5  996.00   25.00
   1  -1  -5 1038.40   25.00
   1  -1  -5 1019.20   25.00
   1  -1  -5 1023.70   25.00
  -1  -1   5 1032.30   25.60
  -1  -1   5 1035.40   25.10
  -1  -1   5 1000.90   24.80
   1   1  -5 1030.10   25.40
   1   1  -5 1014.70   24.70
   1   1  -5  872.11   25.30
   1   1  -5 1028.60   25.50
  -1   1   5 1029.20   24.80
  -1   1   5  970.30   24.70
   1   1  -5 1033.20   25.50
   1   1  -5 1032.70   24.80
   1  -1   5  752.52   18.20
   1  -1   5  668.23   19.10
  -1  -1  -5  730.23   18.30
   1  -1   5  730.33   18.70
  -1  -1  -5  723.53   18.30
   1  -1   5  730.33   18.10
  -1   1  -5  728.43   18.70
  -1   1  -5  736.33   18.60
   1   1   5  682.53   17.90
  -1   1  -5  706.63   18.00
   1   1   5  738.83   18.30
   1   1   5  777.22   19.30
  -1   1  -5  716.33   17.90
   1   1   5  726.63   18.30
   3  -1   5  194.18    6.60
   3  -1   5  200.98    6.30
  -3  -1  -5  195.38    5.90
   3  -1   5  194.88    5.50
   3  -1   5  192.08    6.10
  -3  -1  -5  194.38    5.00
  -3  -1  -5  193.28    5.90
  -3  -1  -5  192.48    5.00
   3   1   5  195.88    5.90
   3   1   5  192.18    5.40
  -3   1  -5  198.78    6.20
  -3   1  -5  186.48    5.30
   3   1   5  200.08    6.00
  -3   1  -5  191.28    5.50
   3   1   5  199.28    6.70
  -3   1  -5  182.48    6.30
   5  -1   5  188.58    6.50
  -5  -1  -5  193.78    6.30
   5  -1   5  187.58    6.90
   5  -1   5  197.78    6.50
  -5  -1  -5  197.28    5.40
   5  -1   5  193.48    5.70
  -5   1  -5  188.88    6.50
   5   1   5  184.08    6.20
  -5   1  -5  200.58    6.50
   5   1   5  188.38    6.90
   5   1   5  196.98    5.60
   5   1   5  180.68    6.30
  -5   1  -5  197.48    5.60
   7  -1   5   75.39    4.10
  -7  -1  -5   82.99    4.10
  -7  -1  -5   77.89    4.20
   7  -1   5   81.69    3.30
  -7  -1  -5   81.69    3.10
  -7  -1  -5   89.19    4.70
   7  -1   5   77.59    4.20
   7   1   5   81.29    4.40
  -7   1  -5   78.79    4.30
   7   1   5   80.29    4.10
  -7   1  -5   77.79    3.20
  -7   1  -5   83.99    4.30
   7   1   5   80.89    3.20
   7   1   5   76.69    4.00
   9  -1   5   44.80    3.90
  -9  -1  -5   48.60    4.00
  -9  -1  -5   42.00    4.00
   9  -1   5   46.20    3.90
   9  -1   5   48.20    4.00
   9  -1   5   49.20    2.80
  -9  -1  -5   44.70    2.60
  -9  -1  -5   44.00    4.20
   9  -1   5   46.20    2.90
  -9   1  -5   47.20    3.90
   9   1   5   47.80    3.80
  -9   1  -5   48.00    4.30
   9   1   5   41.50    3.90
   9   1   5   45.60    3.60
  -9   1  -5   45.80    2.80
   9   1   5   46.60    2.70
 -11  -1  -5   78.59    6.00
 -11  -1  -5   83.19    6.00
  11  -1   5   76.39    4.20
  11  -1   5   81.29    4.10
  11  -1   5   78.19    5.50
  11  -1   5   77.59    5.50
 -11  -1  -5   67.39    6.80
  11  -1   5   77.99    5.60
 -11  -1  -5   76.49    3.90
 -11   1  -5   76.29    3.90
  11   1   5   85.49    5.40
 -11   1  -5   71.99    5.80
 -11   1  -5   83.59    6.00
  11   1   5   77.59    4.00
  11   1   5   79.19    5.60
  11   1   5   79.89    5.30
 -14  -2   5   57.69    5.80
  14  -2  -5   64.09    3.20
 -14  -2   5   47.20    5.00
  14  -2  -5   67.99    7.20
 -14  -2   5   65.59    4.20
 -14  -2   5   59.59    5.20
  14  -2  -5   66.69    3.90
  14   2  -5   62.89    3.00
 -14   2   5   58.69    4.00
 -14   2   5   58.59    4.60
 -14   2   5   70.19    5.70
  14   2  -5   72.89    6.20
  14   2  -5   58.79    4.30
  14   2  -5   54.79    4.00
 -14   2   5   60.29    4.90
 -12  -2   5   83.29    5.00
  12  -2  -5   77.09    5.10
 -12  -2   5   74.99    4.50
  12  -2  -5   76.09    3.00
 -12  -2   5   77.59    5.30
 -12  -2   5   78.99    4.10
  12  -2  -5   85.39    3.60
  12  -2  -5   79.69    5.20
  12   2  -5   79.49    2.90
 -12   2   5   88.59    4.30
 -12   2   5   78.99    5.10
  12   2  -5   82.79    3.90
 -12   2   5   76.09    4.60
  12   2  -5   77.89    5.00
  12   2  -5   87.19    5.40
  12   2  -5   82.59    3.70
 -12   2   5   69.89    3.80
  10  -2  -5  102.09    5.00
  10  -2  -5  102.69    3.70
 -10  -2   5  101.19    5.30
  10  -2  -5  102.59    3.30
 -10  -2   5  109.49    5.00
  10  -2  -5  110.39    5.20
 -10  -2   5  102.29    4.40
 -10  -2   5  108.99    4.60
 -10   2   5  109.69    5.00
 -10   2   5  104.59    4.10
  10   2  -5  105.19    5.30
  10   2  -5  108.99    4.10
 -10   2   5  113.59    4.80
 -10   2   5  106.29    4.20
  10   2  -5  103.29    3.20
  10   2  -5  103.89    5.10
  10   2  -5  101.19    3.70
   8  -2  -5   48.10    1.80
   8  -2  -5   49.40    3.00
  -8  -2   5   47.50    3.10
   8  -2  -5   51.59    3.10
  -8  -2   5   53.79    2.70
   8  -2  -5   49.30    2.00
  -8  -2   5   50.19    2.70
  -8  -2   5   47.20    3.30
   8   2  -5   49.80    3.20
   8   2  -5   52.09    1.90
   8   2  -5   49.90    3.40
  -8   2   5   47.70    2.30
  -8   2   5   52.69    2.50
   8   2  -5   50.39    2.50
   8   2  -5   49.60    1.60
  -8   2   5   53.09    3.00
  -8   2   5   53.09    2.90
  -6  -2   5  339.07    9.90
   6  -2  -5  314.67    8.30
   6  -2  -5  326.67    8.50
   6  -2  -5  337.37    9.40
  -6  -2   5  333.87    9.00
  -6  -2   5  324.27    9.60
   6  -2  -5  324.57    8.20
  -6  -2   5  325.07    9.20
   6  -2  -5  324.07    9.30
   6   2  -5  325.27    8.90
  -6   2   5  327.07    9.30
   6   2  -5  322.97    9.80
   6   2  -5  329.17    9.60
  -6   2   5  326.07    9.20
   6   2  -5  333.27    9.10
  -6   2   5  331.67    8.70
  -6   2   5  333.37    8.80
  -4  -2   5  397.66   10.70
   4  -2  -5  381.56   10.20
   4  -2  -5  378.86   10.20
  -4  -2   5  388.56   10.30
  -4  -2   5  403.26   10.90
   4   2  -5  374.56   11.10
  -4   2   5  390.16   10.20
   4   2  -5  372.06   10.00
   4   2  -5  365.96   10.70
  -4   2   5  386.16    9.90
  -4   2   5  375.26    9.50
   4   2  -5  389.96   10.10
  -4   2   5  402.86   10.20
   4   2  -5  385.96   10.70
  -2  -2   5  754.42   19.00
   2  -2  -5  733.63   18.70
   2  -2  -5  740.33   18.60
   2  -2  -5  741.73   18.60
   2  -2  -5  748.43   18.60
  -2  -2   5  740.63   18.50
  -2  -2   5  791.92   19.40
  -2  -2   5  784.22   19.00
   2   2  -5  736.73   19.40
   2   2  -5  766.82   19.50
  -2   2   5  766.52   18.50
  -2   2   5  738.83   18.40
   2   2  -5  734.13   18.70
  -2   2   5  726.03   18.40
   2   2  -5  710.23   19.50
   2   2  -5  765.42   19.30
   2   2  -5  766.22   18.70
  -2   2   5  767.42   18.70
   0  -2  -5   34.90    1.40
   0  -2  -5   37.30    1.40
   0  -2  -5   35.50    1.40
   0  -2  -5   37.40    1.40
   0  -2   5   36.20    1.70
   0  -2   5   36.30    1.60
   0  -2   5   39.70    1.50
   0  -2   5   35.80    2.10
   0   2   5   38.50    1.20
   0   2   5   36.60    1.20
   0   2  -5   37.20    2.10
   0   2   5   37.70    2.30
   0   2  -5   36.20    2.00
   0   2   5   37.50    1.40
   0   2  -5   39.00    1.50
   0   2  -5   35.60    1.50
   0   2  -5   37.10    2.10
   2  -2   5  142.19    4.90
   2  -2   5  137.49    4.90
  -2  -2  -5  142.29    4.40
   2  -2   5  141.89    4.30
   2  -2   5  149.79    4.40
  -2  -2  -5  145.79    4.40
   2   2   5  149.09    4.40
  -2   2  -5  146.99    5.10
   2   2   5  152.68    4.00
  -2   2  -5  141.39    5.00
  -2   2  -5  147.79    4.20
   2   2   5  154.08    4.40
   2   2   5  139.89    5.20
  -2   2  -5  148.89    4.30
   4  -2   5  509.85   13.90
  -4  -2  -5  483.55   12.30
  -4  -2  -5  484.25   13.30
  -4  -2  -5  499.05   13.20
   4  -2   5  482.15   14.10
   4  -2   5  513.25   13.00
   4  -2   5  506.05   13.00
   4  -2   5  487.55   13.80
  -4  -2  -5  496.35   12.30
   4   2   5  496.05   12.70
  -4   2  -5  490.25   13.80
  -4   2  -5  506.25   12.80
   4   2   5  504.55   14.20
   4   2   5  501.85   13.30
   4   2   5  478.75   13.80
  -4   2  -5  492.35   13.80
  -4   2  -5  479.85   13.00
   6  -2   5  284.17    8.10
   6  -2   5  289.37    9.40
  -6  -2  -5  295.37    9.50
   6  -2   5  274.57    9.00
  -6  -2  -5  286.57    7.60
  -6  -2  -5  285.67    8.70
   6  -2   5  282.27    8.20
   6  -2   5  282.47    9.10
   6   2   5  290.27    8.00
  -6   2  -5  290.07    9.20
  -6   2  -5  279.77    7.90
   6   2   5  264.87    9.20
  -6   2  -5  282.67    9.00
   6   2   5  262.27    8.70
   6   2   5  282.17    8.70
  -8  -2  -5  109.09    5.70
  -8  -2  -5  110.49    5.10
  -8  -2  -5  107.09    3.80
  -8  -2  -5  108.29    5.00
   8  -2   5   97.29    5.20
   8  -2   5  104.19    5.30
   8  -2   5  105.69    4.10
   8  -2   5  103.49    5.30
   8   2   5  104.89    5.00
   8   2   5  101.19    5.20
  -8   2  -5  112.49    5.60
   8   2   5  109.99    4.10
  -8   2  -5  104.99    5.40
   8   2   5  108.39    5.00
  -8   2  -5  107.99    4.10
 -10  -2  -5  165.48    7.10
  10  -2   5  149.19    7.20
  10  -2   5  162.68    5.90
  10  -2   5  160.88    7.30
  10  -2   5  153.78    5.70
 -10  -2  -5  157.08    7.10
 -10  -2  -5  158.48    5.50
  10  -2   5  145.99    7.00
 -10  -2  -5  161.88    7.60
 -10   2  -5  164.98    7.60
  10   2   5  158.28    7.00
  10   2   5  167.08    7.10
  10   2   5  153.58    5.60
 -10   2  -5  166.28    7.30
 -10   2  -5  156.28    5.70
  10   2   5  157.78    7.00
 -12  -2  -5   55.79    6.40
  12  -2   5   52.99    5.20
  12  -2   5   49.40    4.90
 -12  -2  -5   45.80    3.60
  12  -2   5   46.60    5.50
 -12  -2  -5   52.49    7.50
 -12  -2  -5   50.29    5.90
  12  -2   5   43.50    5.90
 -12   2  -5   46.60    6.40
 -12   2  -5   48.60    3.80
  12   2   5   46.20    5.30
  12   2   5   45.00    3.70
  12   2   5   48.10    5.10
  12   2   5   44.80    4.70
 -12   2  -5   40.40    6.00
 -13  -3   5    6.30    1.80
  13  -3  -5    6.30    1.50
 -13  -3   5    4.80    2.80
  13  -3  -5    4.50    2.50
  13  -3  -5    5.40    2.50
 -13  -3   5    2.70    2.10
 -13  -3   5    7.60    2.50
  13  -3  -5    4.50    1.30
  13   3  -5    7.00    1.90
  13   3  -5    5.70    1.20
  13   3  -5    1.40    2.50
  13   3  -5    5.40    1.90
  13   3  -5    8.20    2.60
 -13   3   5    6.10    1.90
 -13   3   5    6.40    2.20
 -13   3   5    4.40    2.30
 -13   3   5    5.60    1.70
 -11  -3   5   42.00    3.40
 -11  -3   5   42.90    3.10
  11  -3  -5   41.50    2.40
 -11  -3   5   40.50    4.10
  11  -3  -5   43.20    2.20
 -11  -3   5   49.70    3.80
  11  -3  -5   49.80    3.90
  11  -3  -5   39.50    3.80
 -11   3   5   38.20    2.70
  11   3  -5   44.20    2.70
  11   3  -5   47.80    2.90
  11   3  -5   50.79    4.10
 -11   3   5   43.30    2.90
 -11   3   5   45.50    3.60
 -11   3   5   39.80    3.60
  11   3  -5   40.10    4.10
  -9  -3   5   49.50    3.40
   9  -3  -5   43.00    1.90
   9  -3  -5   51.69    3.30
  -9  -3   5   45.50    2.80
   9  -3  -5   45.30    3.20
  -9  -3   5   48.00    4.20
  -9  -3   5   48.40    3.00
   9  -3  -5   46.10    2.10
   9   3  -5   48.00    3.40
   9   3  -5   46.60    2.70
  -9   3   5   49.10    3.10
  -9   3   5   49.40    2.60
   9   3  -5   45.70    2.20
  -9   3   5   46.60    3.10
   9   3  -5   48.10    3.70
  -9   3   5   49.60    2.50
  -7  -3   5  103.59    3.90
  -7  -3   5  108.69    4.70
  -7  -3   5  102.59    3.80
   7  -3  -5   97.99    3.00
   7  -3  -5  100.69    4.10
  -7  -3   5  108.79    4.50
   7  -3  -5  100.59    3.10
   7   3  -5  102.39    3.00
  -7   3   5  102.89    3.40
   7   3  -5   98.29    4.50
  -7   3   5  100.39    3.60
  -7   3   5   99.99    4.00
   7   3  -5  106.09    4.10
   7   3  -5  105.39    3.70
  -7   3   5  104.09    4.00
   7   3  -5  101.29    5.80
  -5  -3   5  142.69    5.10
  -5  -3   5  146.89    5.30
  -5  -3   5  143.79    4.40
   5  -3  -5  145.49    4.50
  -5  -3   5  142.19    4.60
   5  -3  -5  140.49    4.00
   5  -3  -5  148.09    4.60
   5   3  -5  140.49    4.60
  -5   3   5  142.99    3.80
   5   3  -5  141.19    3.70
   5   3  -5  138.19    5.10
   5   3  -5  136.39    4.40
   5   3  -5  140.59    5.60
  -5   3   5  145.29    4.50
  -5   3   5  141.49    4.10
  -5   3   5  139.39    4.40
   5   3  -5  143.39    5.00
  -3  -3   5  669.43   17.70
  -3  -3   5  671.03   17.30
  -3  -3   5  653.13   16.70
   3  -3  -5  674.33   16.80
   3  -3  -5  669.63   16.80
  -3  -3   5  677.43   18.00
   3   3  -5  648.24   17.70
  -3   3   5  685.43   16.70
  -3   3   5  660.53   16.50
   3   3  -5  670.43   17.60
  -3   3   5  687.63   16.80
   3   3  -5  699.33   18.10
   3   3  -5  668.83   17.10
  -3   3   5  681.63   16.80
   3   3  -5  692.63   17.10
   3   3  -5  657.83   16.50
  -1  -3   5  222.38    6.90
  -1  -3   5  222.78    5.90
  -1  -3   5  213.68    6.30
  -1  -3   5  229.18    6.40
  -1  -3   5  228.68    6.70
   1   3  -5  196.88    6.60
   1   3  -5  219.58    6.10
  -1   3   5  228.28    6.80
   1   3  -5  211.98    6.60
  -1   3   5  218.18    6.20
   1   3  -5  221.28    6.80
   1   3  -5  217.38    6.80
   1   3  -5  215.98    6.00
   1  -3   5  289.37    7.60
   1  -3   5  274.97    7.70
   1  -3   5  273.17    8.40
  -1  -3  -5  286.07    7.30
   1  -3   5  281.87    8.50
  -1  -3  -5  280.57    7.30
   1   3   5  280.47    7.10
   1   3   5  287.37    7.20
  -1   3  -5  283.87    8.50
  -1   3  -5  290.87    7.60
  -1   3  -5  284.47    7.80
   1   3   5  282.17    8.50
   1   3   5  294.07    7.30
  -1   3  -5  282.77    8.40
  -1   3  -5  287.97    8.30
   3  -3   5  135.89    5.00
  -3  -3  -5  129.79    4.20
   3  -3   5  131.29    4.20
   3  -3   5  129.79    4.90
  -3  -3  -5  130.49    4.20
   3  -3   5  138.79    5.20
   3  -3   5  132.39    4.20
  -3   3  -5  131.49    4.10
   3   3   5  130.49    4.20
   3   3   5  138.69    4.20
   3   3   5  135.39    5.10
  -3   3  -5  132.89    5.00
  -3   3  -5  125.59    4.20
  -3   3  -5  138.09    5.10
   3   3   5  130.79    3.80
  -5  -3  -5   37.70    2.40
   5  -3   5   38.70    2.10
  -5  -3  -5   37.80    1.50
   5  -3   5   39.30    2.80
  -5  -3  -5   40.90    3.30
   5  -3   5   39.40    2.10
   5  -3   5   32.80    2.80
  -5  -3  -5   37.60    1.40
   5  -3   5   38.60    3.10
  -5  -3  -5   38.50    2.40
   5   3   5   39.20    2.50
  -5   3  -5   42.20    2.10
  -5   3  -5   38.10    3.10
   5   3   5   39.90    3.00
   5   3   5   38.90    1.80
   5   3   5   36.70    2.30
  -5   3  -5   36.90    3.00
   7  -3   5   36.60    2.40
   7  -3   5   38.70    2.40
   7  -3   5   34.60    3.30
  -7  -3  -5   41.70    3.80
  -7  -3  -5   39.60    3.00
  -7  -3  -5   35.90    3.40
  -7  -3  -5   33.20    2.30
   7  -3   5   31.70    3.20
  -7   3  -5   43.20    3.50
  -7   3  -5   36.10    3.60
   7   3   5   36.00    2.80
   7   3   5   31.30    2.80
   7   3   5   36.50    2.70
  -7   3  -5   34.10    2.30
   7   3   5   30.40    3.10
   9  -3   5    6.50    1.40
   9  -3   5    3.80    1.90
  -9  -3  -5    4.90    2.00
  -9  -3  -5    1.50    1.90
   9  -3   5    1.70    1.80
   9  -3   5    4.60    2.10
  -9  -3  -5    6.10    1.20
   9  -3   5    2.80    1.10
  -9  -3  -5    5.80    2.10
   9   3   5    4.90    1.90
   9   3   5    1.10    1.60
  -9   3  -5    5.10    2.30
   9   3   5    3.20    1.20
  -9   3  -5    2.70    1.20
   9   3   5    7.50    1.80
  -9   3  -5    5.40    2.30
  11  -3   5   27.00    3.80
 -11  -3  -5   25.90    3.80
 -11  -3  -5   32.40    3.60
  11  -3   5   27.20    3.00
  11  -3   5   29.70    3.10
 -11  -3  -5   26.20    3.90
 -11  -3  -5   27.90    3.70
  11  -3   5   26.20    3.50
  11  -3   5   34.00    4.10
  11   3   5   24.70    2.80
  11   3   5   27.60    4.00
  11   3   5   24.20    3.00
 -11   3  -5   28.20    3.80
  11   3   5   27.40    3.70
 -11   3  -5   28.50    4.20
 -11   3  -5   27.80    3.10
  12  -4  -5   30.00    2.30
  12  -4  -5   24.70    3.20
 -12  -4   5   29.10    3.70
  12  -4  -5   30.50    2.40
 -12  -4   5   26.50    3.10
 -12  -4   5   21.00    2.90
 -12  -4   5   29.80    4.40
  12  -4  -5   28.70    4.00
  12   4  -5   30.50    4.30
 -12   4   5   31.70    3.70
 -12   4   5   32.30    3.50
 -12   4   5   25.90    2.80
 -12   4   5   28.40    2.70
  12   4  -5   30.60    2.90
  12   4  -5   32.20    3.00
  12   4  -5   29.40    3.70
  10  -4  -5  167.48    5.10
 -10  -4   5  167.68    6.70
  10  -4  -5  169.98    6.60
  10  -4  -5  167.18    5.10
 -10  -4   5  159.88    6.00
 -10  -4   5  177.48    6.40
  10  -4  -5  165.98    6.60
 -10  -4   5  159.88    7.10
 -10   4   5  181.08    5.70
  10   4  -5  176.88    7.00
 -10   4   5  176.78    6.60
  10   4  -5  169.38    5.80
  10   4  -5  177.68    7.10
  10   4  -5  172.88    5.40
 -10   4   5  164.58    6.30
 -10   4   5  168.68    5.70
   8  -4  -5   53.19    3.20
  -8  -4   5   55.99    3.00
   8  -4  -5   52.49    1.90
   8  -4  -5   49.99    2.20
  -8  -4   5   47.50    3.40
  -8  -4   5   50.29    3.80
   8  -4  -5   51.69    3.10
  -8  -4   5   47.10    3.20
   8   4  -5   48.90    3.60
   8   4  -5   50.09    2.70
  -8   4   5   51.39    2.30
  -8   4   5   49.70    2.90
   8   4  -5   52.49    2.20
  -8   4   5   53.09    2.50
  -8   4   5   53.39    2.90
   8   4  -5   44.40    3.30
  -6  -4   5  212.28    7.30
  -6  -4   5  215.98    7.10
   6  -4  -5  213.18    6.50
  -6  -4   5  204.98    6.30
  -6  -4   5  211.88    6.50
   6  -4  -5  210.08    6.50
   6  -4  -5  204.38    5.90
   6   4  -5  208.68    6.50
  -6   4   5  213.48    6.30
   6   4  -5  208.48    7.20
  -6   4   5  211.28    5.60
   6   4  -5  212.88    5.60
  -6   4   5  211.38    5.90
  -6   4   5  206.38    6.40
   6   4  -5  221.68    7.80
   6   4  -5  207.78    7.00
   6   4  -5  209.88    6.30
  -6   4   5  204.08    5.70
  -4  -4   5   22.40    1.70
  -4  -4   5   19.30    1.20
  -4  -4   5   21.70    2.00
   4  -4  -5   20.10    1.30
   4  -4  -5   17.80    1.30
  -4  -4   5   21.00    2.10
   4   4  -5   19.00    1.00
  -4   4   5   20.90    1.30
  -4   4   5   20.30    1.10
   4   4  -5   19.20    2.20
   4   4  -5   18.80    2.10
   4   4  -5   18.90    1.50
   4   4  -5   20.80    1.60
  -4   4   5   21.40    1.20
   4   4  -5   18.30    1.90
  -4   4   5   18.50    1.00
  -2  -4   5  123.29    4.80
  -2  -4   5  122.39    4.40
  -2  -4   5  122.09    4.10
  -2  -4   5  121.59    3.60
  -2  -4   5  115.49    4.00
   2   4  -5  122.09    4.50
   2   4  -5  118.89    3.80
   2   4  -5  121.69    3.50
   2   4  -5  116.69    4.40
   2   4  -5  117.79    4.60
   2   4  -5  119.39    4.70
  -2   4   5  121.69    3.80
  -2   4   5  125.49    4.20
   2   4  -5  119.89    3.90
   0  -4   5  578.94   15.10
   0  -4   5  571.44   15.00
   0  -4   5  564.94   15.70
   0  -4   5  570.14   14.60
   0   4  -5  553.44   15.40
   0   4  -5  573.74   15.70
   0   4  -5  576.84   14.60
   0   4  -5  579.34   14.90
   0   4   5  593.04   15.50
   0   4  -5  568.84   15.60
   0   4   5  592.34   15.20
   0   4  -5  583.04   15.70
   0   4  -5  572.44   14.70
   2  -4   5  131.69    4.20
   2  -4   5  129.09    4.00
   2  -4   5  131.19    4.90
  -2  -4  -5  125.29    3.70
  -2  -4  -5  123.99    3.70
   2  -4   5  121.99    4.70
  -2   4  -5  126.59    3.90
  -2   4  -5  124.09    4.70
   2   4   5  128.69    4.80
  -2   4  -5  124.29    4.10
   2   4   5  131.39    3.70
  -2   4  -5  122.39    4.90
   2   4   5  124.59    3.50
   2   4   5  124.89    3.60
  -2   4  -5  124.29    4.80
  -4  -4  -5  433.56   12.80
  -4  -4  -5  424.76   11.70
   4  -4   5  419.16   12.70
   4  -4   5  435.06   11.80
   4  -4   5  432.96   11.70
   4  -4   5  436.16   12.70
   4  -4   5  454.15   12.80
  -4  -4  -5  432.66   11.70
  -4   4  -5  449.16   11.60
  -4   4  -5  439.06   12.70
  -4   4  -5  424.76   11.90
  -4   4  -5  441.46   12.80
   4   4   5  436.26   11.70
   4   4   5  444.76   11.80
   4   4   5  441.86   12.70
   4   4   5  430.06   11.30
   6  -4   5  639.94   18.20
   6  -4   5  644.14   17.00
  -6  -4  -5  629.04   16.00
   6  -4   5  662.53   18.20
   6  -4   5  666.03   17.00
  -6  -4  -5  620.34   17.20
  -6  -4  -5  648.74   18.40
   6  -4   5  650.73   18.20
  -6  -4  -5  646.24   17.20
  -6   4  -5  630.24   18.10
  -6   4  -5  639.44   16.80
   6   4   5  651.43   17.40
   6   4   5  626.84   17.30
  -6   4  -5  638.54   18.20
   6   4   5  649.24   16.70
  -8  -4  -5   40.70    2.10
   8  -4   5   36.60    2.60
  -8  -4  -5   37.60    3.90
   8  -4   5   40.20    2.70
   8  -4   5   40.30    3.70
  -8  -4  -5   41.80    3.30
  -8  -4  -5   38.30    3.60
   8  -4   5   38.90    3.80
  -8   4  -5   37.40    2.60
  -8   4  -5   37.70    4.20
   8   4   5   39.60    3.10
   8   4   5   40.50    2.40
  -8   4  -5   38.90    3.80
   8   4   5   32.50    3.40
   8   4   5   34.70    3.10
 -10  -4  -5   84.19    5.30
  10  -4   5   81.49    5.30
  10  -4   5   81.99    4.10
  10  -4   5   87.89    5.70
 -10  -4  -5   80.59    5.50
  10  -4   5   82.49    5.60
 -10  -4  -5   80.29    3.60
 -10  -4  -5   85.99    5.90
  10  -4   5   79.59    4.10
  10   4   5   83.39    5.20
  10   4   5   71.59    5.00
 -10   4  -5   88.59    5.70
  10   4   5   88.39    4.00
 -10   4  -5   81.09    6.20
  10   4   5   69.69    4.90
 -10   4  -5   80.19    4.00
 -12  -4  -5   25.00    4.50
  12  -4   5   12.90    3.20
 -12  -4  -5   19.70    2.40
  12  -4   5   16.40    3.80
 -12  -4  -5   19.70    3.90
  12  -4   5   23.80    4.00
 -12   4  -5   17.20    2.50
  12   4   5   12.80    2.90
  12   4   5   24.80    3.30
 -12   4  -5   24.70    4.20
  12   4   5   12.80    2.80
  12   4   5   23.50    3.70
 -12   4  -5   17.10    4.40
 -13  -5   5   51.69    4.10
  13  -5  -5   62.39    5.70
  13  -5  -5   59.69    6.00
 -13  -5   5   49.30    5.00
 -13  -5   5   59.49    5.00
  13  -5  -5   63.99    3.40
  13  -5  -5   57.19    3.40
 -13  -5   5   61.29    5.80
 -13   5   5   58.89    3.90
  13   5  -5   57.79    4.10
  13   5  -5   62.79    5.60
 -13   5   5   54.19    4.70
 -13   5   5   58.79    4.50
 -13   5   5   56.99    3.70
  13   5  -5   60.39    4.10
  13   5  -5   66.89    6.10
 -11  -5   5  104.39    5.20
  11  -5  -5   99.79    5.30
  11  -5  -5  100.69    5.40
  11  -5  -5  107.19    3.70
  11  -5  -5   98.09    3.80
 -11  -5   5   98.29    6.00
 -11  -5   5  101.29    5.60
 -11  -5   5   98.49    4.70
 -11   5   5   93.09    4.80
  11   5  -5  103.79    4.20
 -11   5   5  102.89    5.20
 -11   5   5  102.09    4.30
  11   5  -5  100.89    5.90
  11   5  -5   96.99    4.40
  11   5  -5   96.49    5.50
 -11   5   5  101.39    4.10
  -9  -5   5  395.76   12.90
   9  -5  -5  394.96   12.10
  -9  -5   5  405.86   11.80
  -9  -5   5  419.66   11.90
   9  -5  -5  396.26   10.90
  -9  -5   5  403.76   12.50
   9  -5  -5  420.16   12.20
   9  -5  -5  404.06   10.50
  -9   5   5  398.06   11.20
   9   5  -5  410.66   10.90
   9   5  -5  415.56   12.60
   9   5  -5  431.16   11.60
  -9   5   5  400.66   11.80
  -9   5   5  401.86   12.00
   9   5  -5  406.36   12.80
  -9   5   5  403.96   10.90
   7  -5  -5  373.66   10.10
  -7  -5   5  333.37   12.70
  -7  -5   5  389.26   11.80
  -7  -5   5  372.66   11.00
   7  -5  -5  366.46   10.70
  -7  -5   5  373.46   10.60
   7  -5  -5  375.76   10.80
  -7   5   5  385.26    9.80
   7   5  -5  380.76    9.90
  -7   5   5  374.26    9.80
   7   5  -5  372.36   12.20
  -7   5   5  378.66   10.80
  -7   5   5  382.46   10.60
  -7   5   5  383.66   10.10
   7   5  -5  401.66   11.00
   7   5  -5  366.66   11.70
   7   5  -5  376.36   11.40
  -5  -5   5  597.34   15.80
   5  -5  -5  588.74   15.70
   5  -5  -5  594.94   15.70
  -5  -5   5  619.54   17.00
   5  -5  -5  596.64   15.80
  -5  -5   5  606.34   16.70
  -5  -5   5  622.94   16.20
  -5   5   5  596.64   15.30
  -5   5   5  616.14   15.70
   5   5  -5  621.14   16.90
  -5   5   5  608.94   15.60
   5   5  -5  602.44   15.30
   5   5  -5  602.24   16.10
  -5   5   5  606.14   15.30
   5   5  -5  635.34   17.30
   5   5  -5  615.04   16.00
   5   5  -5  609.94   16.70
   3  -5  -5  928.51   23.50
   3  -5  -5  945.41   23.60
  -3  -5   5  932.91   24.00
  -3  -5   5 1001.10   24.60
  -3  -5   5  986.30   25.10
   3   5  -5  962.40   25.20
   3   5  -5  946.91   25.00
  -3   5   5  987.00   24.10
   3   5  -5  939.31   24.30
  -3   5   5  923.51   23.40
   3   5  -5  989.70   25.30
   3   5  -5  977.20   24.40
   3   5  -5  978.40   25.40
  -3   5   5  966.90   24.30
  -3   5   5  964.10   23.50
   3   5  -5  955.20   23.80
  -1  -5   5  782.62   20.20
  -1  -5   5  804.02   21.00
  -1  -5   5  801.92   20.70
  -1  -5   5  785.92   20.20
  -1  -5   5  779.02   19.70
   1   5  -5  765.42   20.50
   1   5  -5  776.02   20.00
   1   5  -5  766.92   19.80
   1   5  -5  757.42   20.70
  -1   5   5  783.92   20.00
   1   5  -5  778.92   19.50
   1   5  -5  777.02   20.80
  -1   5   5  815.32   20.30
   1   5  -5  756.52   20.70
   1  -5   5  300.97    8.30
   1  -5   5  307.57    8.60
   1  -5   5  309.27    9.30
   1  -5   5  307.57    9.40
  -1   5  -5  318.37    9.50
  -1   5  -5  290.77    9.10
   1   5   5  303.97    9.10
  -1   5  -5  300.67    8.20
  -1   5  -5  305.97    9.40
   1   5   5  312.87    9.00
  -1   5  -5  306.17    8.40
  -1   5  -5  298.27    8.60
   3  -5   5  148.29    5.60
  -3  -5  -5  141.29    4.40
   3  -5   5  147.39    5.60
   3  -5   5  152.18    4.70
   3  -5   5  143.49    4.80
  -3  -5  -5  154.48    5.60
   3   5   5  147.59    4.50
  -3   5  -5  153.98    5.80
   3   5   5  141.49    5.40
  -3   5  -5  151.18    4.70
  -3   5  -5  149.19    4.90
  -3   5  -5  145.99    5.70
   3   5   5  140.49    4.10
  -3   5  -5  143.39    5.50
  -5  -5  -5  125.39    5.70
   5  -5   5  134.59    4.60
   5  -5   5  120.09    5.40
  -5  -5  -5  128.99    4.60
   5  -5   5  129.79    5.50
   5  -5   5  126.29    4.50
  -5  -5  -5  128.59    4.60
   5  -5   5  134.19    5.70
   5   5   5  124.99    4.60
  -5   5  -5  135.09    4.80
  -5   5  -5  134.19    5.70
   5   5   5  126.99    4.50
   5   5   5  128.09    4.10
  -5   5  -5  127.29    4.40
   5   5   5  125.49    5.30
  -5   5  -5  123.39    5.50
  -7  -5  -5   44.80    3.20
   7  -5   5   46.40    2.80
  -7  -5  -5   44.30    1.90
   7  -5   5   37.90    3.80
  -7  -5  -5   42.30    3.20
   7  -5   5   42.80    3.60
  -7  -5  -5   41.20    3.80
   7  -5   5   43.60    2.70
   7   5   5   39.80    2.30
   7   5   5   41.40    3.10
  -7   5  -5   44.60    4.00
   7   5   5   39.80    3.40
   7   5   5   42.50    2.90
  -7   5  -5   43.00    2.70
  -7   5  -5   58.59    4.40
   9  -5   5    2.90    1.30
  -9  -5  -5    0.00    1.90
  -9  -5  -5    0.00    1.70
   9  -5   5    0.50    1.20
   9  -5   5    0.00    1.90
  -9  -5  -5   -0.20    2.20
  -9  -5  -5    0.90    1.00
   9  -5   5    2.10    2.30
   9  -5   5   -1.20    2.00
  -9   5  -5    1.10    1.20
   9   5   5   -1.10    1.40
   9   5   5   -0.60    1.50
  -9   5  -5   -0.70    2.20
   9   5   5    1.90    1.70
   9   5   5    0.60    1.10
  -9   5  -5   -1.50    2.10
 -11  -5  -5   79.79    4.00
  11  -5   5   79.59    4.70
 -11  -5  -5   83.59    6.50
  11  -5   5   86.79    6.30
  11  -5   5   80.39    4.60
  11  -5   5   87.29    6.00
 -11  -5  -5   69.29    6.60
 -11  -5  -5   82.29    5.90
  11   5   5   72.49    5.20
  11   5   5   80.79    5.30
  11   5   5   77.49    4.20
  11   5   5   87.19    5.90
 -11   5  -5   84.89    4.50
 -11   5  -5   87.39    6.50
 -11   5  -5   74.99    7.30
  12  -6  -5   10.60    1.50
 -12  -6   5   11.80    2.10
  12  -6  -5   12.60    2.70
 -12  -6   5   11.20    2.60
  12  -6  -5    5.10    2.60
  12  -6  -5    9.60    1.70
 -12  -6   5   13.60    2.60
 -12  -6   5    5.60    2.80
 -12   6   5   12.90    2.30
 -12   6   5    9.40    1.60
  12   6  -5    9.30    3.00
 -12   6   5    8.60    1.80
  12   6  -5    5.20    2.60
  12   6  -5   10.80    2.10
  12   6  -5    7.50    1.80
 -12   6   5    8.70    2.30
  10  -6  -5    4.30    1.20
 -10  -6   5    6.10    1.90
  10  -6  -5    3.40    1.80
 -10  -6   5    2.70    2.50
  10  -6  -5    5.00    1.80
 -10  -6   5    6.20    2.10
  10  -6  -5    5.50    0.90
 -10  -6   5    2.50    1.40
 -10   6   5    4.30    1.20
 -10   6   5    4.00    1.50
  10   6  -5    7.80    2.10
  10   6  -5    3.20    1.30
 -10   6   5    4.40    1.50
  10   6  -5   -0.70    2.50
  10   6  -5    5.30    2.20
  10   6  -5    4.20    1.40
 -10   6   5    3.90    1.00
  -8  -6   5   21.90    2.30
   8  -6  -5   24.10    2.00
   8  -6  -5   23.00    2.60
   8  -6  -5   21.10    2.60
  -8  -6   5   26.30    3.50
  -8  -6   5   20.10    2.80
  -8  -6   5   21.40    2.50
   8   6  -5   27.50    3.30
  -8   6   5   21.10    2.30
   8   6  -5   29.70    3.90
   8   6  -5   22.00    2.30
  -8   6   5   23.40    1.80
   8   6  -5   21.10    2.60
   8   6  -5   25.90    1.90
   8   6  -5   21.30    2.90
  -8   6   5   24.10    1.50
  -8   6   5   21.70    1.40
  -8   6   5   21.90    2.70
  -6  -6   5  105.99    5.10
  -6  -6   5  105.49    4.00
   6  -6  -5  100.99    4.00
  -6  -6   5   97.69    4.60
   6  -6  -5  105.89    3.80
   6  -6  -5  107.09    4.00
  -6  -6   5  107.99    4.20
   6   6  -5   97.19    4.40
  -6   6   5  102.49    3.00
  -6   6   5  103.69    3.40
   6   6  -5  106.29    4.30
   6   6  -5  106.39    3.50
   6   6  -5  106.69    5.40
  -6   6   5  105.79    3.70
   6   6  -5  111.39    5.00
  -6   6   5  105.79    3.90
  -6   6   5  103.79    3.30
   6   6  -5  104.89    4.90
   4  -6  -5    4.40    0.80
  -4  -6   5    3.50    1.50
  -4  -6   5    3.80    0.90
   4  -6  -5    5.30    0.90
  -4  -6   5    4.30    0.90
   4  -6  -5    4.70    1.00
  -4  -6   5    4.70    0.90
  -4  -6   5    4.00    1.30
   4   6  -5    4.70    0.70
  -4   6   5    4.50    0.80
   4   6  -5    4.40    1.50
  -4   6   5    3.90    0.70
  -4   6   5    4.60    0.80
   4   6  -5    5.50    1.50
  -4   6   5    4.80    0.70
  -4   6   5    5.50    0.70
   4   6  -5    5.40    1.40
   4   6  -5    5.40    1.10
   4   6  -5    3.70    1.00
  -2  -6   5   72.79    4.00
  -2  -6   5   76.69    3.60
  -2  -6   5   72.49    2.80
  -2  -6   5   75.39    3.20
  -2  -6   5   74.29    3.30
   2   6  -5   75.59    3.60
  -2   6   5   71.39    3.00
  -2   6   5   72.49    2.90
   2   6  -5   74.39    2.60
   2   6  -5   76.49    3.80
   2   6  -5   75.39    3.90
   2   6  -5   71.59    2.90
   2   6  -5   79.09    3.10
   2   6  -5   75.09    3.80
   0  -6   5   35.40    2.80
   0  -6   5   34.60    2.10
   0  -6   5   39.50    2.00
   0   6   5   38.10    2.30
   0   6  -5   36.60    2.90
   0   6  -5   37.60    2.90
   0   6   5   39.20    2.30
   0   6  -5   37.40    1.80
   0   6  -5   36.70    2.10
   0   6  -5   36.90    2.60
   0   6  -5   38.70    2.00
   0   6  -5   36.90    2.80
   2  -6   5   18.20    1.70
   2  -6   5   19.50    2.30
  -2  -6  -5   19.00    1.20
  -2  -6  -5   18.80    1.20
   2  -6   5   19.20    2.30
   2  -6   5   17.30    1.60
  -2  -6  -5   16.80    2.20
   2   6   5   18.80    2.10
  -2   6  -5   16.80    1.50
   2   6   5   19.00    1.00
  -2   6  -5   21.40    1.80
  -2   6  -5   19.80    2.40
  -2   6  -5   17.90    2.10
   2   6   5   15.20    2.00
   2   6   5   18.70    1.00
  -2   6  -5   19.10    2.70
   2   6   5   19.70    1.00
  -2   6  -5   19.40    1.50
   2   6   5   18.70    1.10
   4  -6   5    9.20    1.30
   4  -6   5   12.70    2.10
   4  -6   5    6.90    1.70
   4  -6   5   11.40    1.90
  -4  -6  -5   11.10    1.60
  -4  -6  -5   10.30    1.80
  -4  -6  -5    9.60    1.20
  -4   6  -5    9.10    1.80
   4   6   5   10.30    1.40
   4   6   5    9.70    1.60
  -4   6  -5   11.10    1.80
  -4   6  -5   11.80    2.30
   4   6   5    9.80    1.50
  -4   6  -5    9.00    1.20
   4   6   5   12.50    1.10
  -4   6  -5    7.80    1.50
   6  -6   5   66.29    4.30
   6  -6   5   67.09    4.20
   6  -6   5   68.69    3.20
  -6  -6  -5   63.29    3.40
  -6  -6  -5   65.29    3.40
  -6  -6  -5   75.19    4.60
   6  -6   5   61.69    3.10
   6  -6   5   64.49    4.40
  -6   6  -5   72.99    4.70
  -6   6  -5   64.49    4.40
  -6   6  -5   58.79    3.60
   6   6   5   65.29    2.80
   6   6   5   70.29    4.10
   6   6   5   71.19    3.30
   6   6   5   67.79    3.40
   8  -6   5  127.19    5.10
  -8  -6  -5  134.19    5.60
   8  -6   5  136.39    5.10
   8  -6   5  134.99    6.50
   8  -6   5  137.99    6.30
   8  -6   5  130.99    6.50
  -8  -6  -5  134.59    6.70
  -8  -6  -5  123.69    3.90
   8   6   5  124.89    5.90
  -8   6  -5  131.19    5.00
   8   6   5  126.69    4.70
   8   6   5  128.09    5.50
  -8   6  -5  138.69    7.00
  -8   6  -5  125.99    6.50
  10  -6   5   41.60    5.30
 -10  -6  -5   46.50    4.70
 -10  -6  -5   45.90    5.00
 -10  -6  -5   43.50    5.60
  10  -6   5   47.80    3.60
  10  -6   5   59.79    7.70
 -10  -6  -5   48.60    2.80
  10  -6   5   41.90    4.60
  10  -6   5   42.40    3.40
  10   6   5   51.19    3.30
  10   6   5   43.70    4.10
 -10   6  -5   45.60    3.40
 -10   6  -5   51.49    6.10
  10   6   5   40.10    4.20
  10   6   5   52.49    4.30
 -10   6  -5   42.00    5.00
 -11  -7   5   47.20    3.60
  11  -7  -5   45.90    3.20
 -11  -7   5   42.30    4.40
 -11  -7   5   49.30    5.50
  11  -7  -5   47.00    2.40
  11  -7  -5   47.20    4.30
  11  -7  -5   51.79    4.60
 -11  -7   5   53.49    4.30
  11   7  -5   46.60    3.60
 -11   7   5   46.00    3.80
 -11   7   5   55.79    3.20
 -11   7   5   46.60    3.70
  11   7  -5   45.80    4.80
  11   7  -5   48.20    4.70
  11   7  -5   47.10    6.10
 -11   7   5   45.70    2.50
  11   7  -5   45.10    3.30
  -9  -7   5   64.59    3.80
   9  -7  -5   64.59    4.00
  -9  -7   5   64.39    4.50
   9  -7  -5   65.99    4.00
  -9  -7   5   67.09    5.10
  -9  -7   5   72.39    4.00
   9  -7  -5   67.69    2.20
   9  -7  -5   69.99    3.40
   9   7  -5   58.39    3.90
  -9   7   5   69.99    3.80
   9   7  -5   68.59    4.40
   9   7  -5   71.09    3.30
  -9   7   5   65.99    2.60
  -9   7   5   64.99    3.60
   9   7  -5   59.59    5.40
  -9   7   5   70.99    2.80
   9   7  -5   68.39    3.60
   9   7  -5   64.59    4.70
   7  -7  -5  165.58    5.90
  -7  -7   5  163.98    6.60
  -7  -7   5  161.88    5.90
  -7  -7   5  168.78    7.10
   7  -7  -5  169.98    5.60
  -7  -7   5  173.18    5.90
   7  -7  -5  159.48    5.70
  -7   7   5  160.68    4.50
   7   7  -5  163.28    6.10
  -7   7   5  173.98    5.10
   7   7  -5  159.48    6.50
  -7   7   5  163.88    5.70
   7   7  -5  181.68    7.20
   7   7  -5  167.88    5.80
  -7   7   5  166.78    5.00
   7   7  -5  173.98    5.30
   7   7  -5  167.48    7.40
  -7   7   5  171.58    5.50
  -5  -7   5   33.50    3.30
  -5  -7   5   34.80    2.20
   5  -7  -5   34.10    2.40
  -5  -7   5   36.00    2.50
  -5  -7   5   38.30    3.10
   5  -7  -5   30.50    2.30
   5  -7  -5   36.00    2.20
  -5  -7   5   34.30    2.20
   5   7  -5   37.20    2.00
   5   7  -5   35.60    2.40
   5   7  -5   32.70    2.90
  -5   7   5   36.60    2.00
  -5   7   5   34.80    1.20
   5   7  -5   35.80    3.50
  -5   7   5   35.20    1.60
  -5   7   5   36.40    1.90
  -5   7   5   35.70    1.80
   5   7  -5   35.00    2.40
  -5   7   5   32.90    1.60
   5   7  -5   37.70    3.20
   3  -7  -5  127.59    3.60
  -3  -7   5  130.29    4.70
   3  -7  -5  128.49    3.80
  -3  -7   5  125.89    4.40
  -3  -7   5  129.99    5.20
   3  -7  -5  130.19    4.70
   3   7  -5  134.19    4.60
  -3   7   5  129.09    3.60
  -3   7   5  130.09    3.60
   3   7  -5  132.79    5.50
   3   7  -5  127.59    4.50
   3   7  -5  125.89    5.60
  -3   7   5  132.69    4.10
   3   7  -5  121.09    5.20
   3   7  -5  127.89    5.40
  -3   7   5  130.39    4.30
   3   7  -5  129.99    4.10
  -3   7   5  131.19    3.60
  -1  -7   5  208.58    6.70
  -1  -7   5  212.18    6.70
  -1  -7   5  212.58    6.30
  -1  -7   5  207.28    7.10
  -1  -7   5  200.38    7.50
  -1   7   5  207.38    6.30
   1   7  -5  205.38    7.30
   1   7  -5  209.08    6.00
   1   7  -5  210.38    6.30
   1   7  -5  206.88    7.40
   1   7  -5  207.18    7.10
  -1   7   5  215.48    6.60
   1   7  -5  203.68    7.40
   1   7  -5  211.88    6.50
   1  -7   5  208.98    6.30
   1  -7   5  212.58    7.40
   1  -7   5  202.68    6.70
  -1  -7  -5  205.28    5.50
   1  -7   5  209.58    7.50
  -1   7  -5  203.78    7.20
   1   7   5  212.98    6.70
  -1   7  -5  200.58    6.50
  -1   7  -5  218.88    6.30
   1   7   5  205.38    6.80
   1   7   5  204.68    5.50
  -1   7  -5  211.28    7.50
  -1   7  -5  205.48    6.10
  -1   7  -5  210.78    7.40
   3  -7   5    5.40    1.60
   3  -7   5    3.00    1.10
   3  -7   5    3.00    1.40
  -3  -7  -5    5.10    1.50
  -3  -7  -5    4.10    0.90
  -3   7  -5    2.60    0.80
  -3   7  -5    3.70    1.00
   3   7   5    3.70    0.70
  -3   7  -5    5.40    1.90
  -3   7  -5    2.90    1.60
   3   7   5    4.20    0.80
   3   7   5    3.40    1.40
  -3   7  -5    4.10    1.50
   3   7   5    4.40    1.30
   3   7   5    3.70    0.90
   3   7   5    2.70    0.60
  -3   7  -5    5.40    1.30
   5  -7   5   77.99    4.40
   5  -7   5   80.19    4.70
  -5  -7  -5   82.79    4.70
   5  -7   5   88.49    3.70
  -5  -7  -5   85.49    3.60
   5  -7   5   83.79    3.60
  -5  -7  -5   79.99    3.60
   5   7   5   85.99    3.10
  -5   7  -5   83.79    3.60
  -5   7  -5   86.49    5.10
  -5   7  -5   73.29    3.80
   5   7   5   80.99    3.40
   5   7   5   85.39    3.60
   5   7   5   81.49    4.50
  -5   7  -5   92.39    5.00
   7  -7   5   72.39    5.00
  -7  -7  -5   75.79    4.10
   7  -7   5   68.99    4.80
  -7  -7  -5   70.99    3.90
   7  -7   5   70.69    4.80
   7  -7   5   68.29    3.60
   7  -7   5   70.19    3.50
  -7  -7  -5   71.89    5.00
   7   7   5   74.29    4.00
   7   7   5   71.59    3.90
   7   7   5   73.39    4.40
  -7   7  -5   72.79    3.50
  -7   7  -5   84.69    5.20
  -7   7  -5   75.49    5.30
   7   7   5   74.99    4.90
  -9  -7  -5   45.80    4.20
   9  -7   5   42.80    3.30
   9  -7   5   39.40    4.50
  -9  -7  -5   35.10    5.10
  -9  -7  -5   42.60    2.20
   9  -7   5   43.50    4.90
   9  -7   5   51.09    3.40
  -9   7  -5   51.49    5.00
  -9   7  -5   49.40    5.80
   9   7   5   37.10    4.00
   9   7   5   46.00    3.80
   9   7   5   49.70    4.10
  -9   7  -5   46.80    3.30
   9   7   5   48.00    3.00
 -11  -7  -5    8.20    1.80
  11  -7   5    4.30    3.00
  11  -7   5    2.90    3.60
 -11  -7  -5    5.90    3.20
 -11   7  -5   11.20    2.10
  11   7   5   10.50    2.10
  11   7   5    4.10    2.20
  12  -8  -5   14.40    3.50
 -12  -8   5   10.20    3.70
 -12  -8   5   11.30    2.20
  12  -8  -5   14.70    2.30
 -12  -8   5   12.20    3.00
  12  -8  -5   14.20    1.60
  12   8  -5   12.30    2.70
  12   8  -5   17.00    3.70
 -12   8   5   10.90    2.50
  12   8  -5   14.90    4.00
  12   8  -5   14.10    3.50
 -12   8   5   16.70    2.10
  12   8  -5   15.00    3.50
 -12   8   5   14.60    2.60
  10  -8  -5  105.29    5.40
  10  -8  -5   92.09    5.30
 -10  -8   5  100.99    6.50
  10  -8  -5   96.29    5.20
 -10  -8   5  101.19    5.30
 -10  -8   5   90.09    5.60
  10  -8  -5  102.59    3.10
 -10  -8   5   99.29    4.90
 -10   8   5  102.99    5.00
  10   8  -5  107.39    6.20
 -10   8   5   98.59    4.20
  10   8  -5   90.89    5.20
  10   8  -5  106.89    4.50
  10   8  -5  109.09    7.00
 -10   8   5   98.59    4.80
  10   8  -5  103.69    5.80
  10   8  -5  104.49    4.80
   8  -8  -5   76.69    4.00
  -8  -8   5   75.69    4.10
  -8  -8   5   69.69    5.30
  -8  -8   5   84.09    4.00
  -8  -8   5   77.89    4.70
   8  -8  -5   81.99    4.20
   8  -8  -5   83.09    3.90
  -8   8   5   73.09    3.80
   8   8  -5   74.09    4.10
   8   8  -5   78.89    3.50
  -8   8   5   79.59    3.10
  -8   8   5   76.19    3.20
   8   8  -5   73.49    3.90
   8   8  -5   81.79    5.80
   8   8  -5   87.89    5.20
  -8   8   5   80.89    3.70
  -6  -8   5    7.30    2.00
   6  -8  -5    6.20    1.40
   6  -8  -5   10.80    1.80
  -6  -8   5    7.40    1.90
  -6  -8   5    7.20    1.30
  -6  -8   5   10.20    1.60
   6  -8  -5   10.00    1.40
  -6   8   5    9.10    1.30
   6   8  -5    9.50    1.50
   6   8  -5    8.10    1.20
   6   8  -5    9.60    2.40
   6   8  -5    7.20    1.50
  -6   8   5    8.70    1.20
  -6   8   5    8.60    1.30
  -6   8   5    7.70    1.00
   6   8  -5    7.50    1.80
   4  -8  -5   91.29    3.40
  -4  -8   5   80.09    4.40
  -4  -8   5   84.19    4.80
  -4  -8   5   92.29    3.60
  -4  -8   5   88.29    3.80
   4  -8  -5   98.79    4.10
   4   8  -5   99.19    5.00
   4   8  -5   93.19    5.00
  -4   8   5   91.99    3.40
  -4   8   5   94.99    2.90
   4   8  -5   94.19    4.00
   4   8  -5   92.49    3.40
   4   8  -5   99.29    3.90
   4   8  -5   93.49    4.80
  -4   8   5   92.79    2.90
  -4   8   5   94.39    3.10
  -4   8   5   93.69    3.20
  -4   8   5   92.59    3.00
   4   8  -5   92.59    4.50
  -2  -8   5  137.09    5.10
  -2  -8   5  136.59    4.90
  -2  -8   5  139.39    6.90
   2  -8  -5  137.59    4.10
  -2  -8   5  142.59    5.70
  -2   8   5  143.39    4.90
   2   8  -5  139.89    5.70
  -2   8   5  141.39    3.90
   2   8  -5  140.69    4.90
   2   8  -5  142.69    4.50
  -2   8   5  140.79    4.50
   2   8  -5  145.39    6.10
   2   8  -5  142.09    5.90
   2   8  -5  145.49    6.00
   2   8  -5  145.69    5.10
   0  -8   5  746.43   20.20
   0  -8   5  787.12   21.90
   0  -8   5  761.32   19.90
   0   8   5  773.52   20.30
   0   8   5  733.93   18.90
   0   8  -5  765.92   21.10
   0   8  -5  786.42   21.20
   0   8  -5  731.23   19.80
   0   8  -5  801.62   21.20
   0   8   5  790.02   19.90
   0   8  -5  757.92   19.60
   0   8  -5  742.63   20.20
   0   8  -5  762.02   21.00
   2  -8   5   43.00    3.40
  -2  -8  -5   40.70    1.90
   2  -8   5   41.20    3.30
   2  -8   5   42.90    2.70
  -2  -8  -5   39.60    3.00
   2   8   5   41.30    1.70
  -2   8  -5   42.20    2.40
  -2   8  -5   38.80    3.20
   2   8   5   38.00    1.70
   2   8   5   39.30    1.60
  -2   8  -5   41.90    3.40
   2   8   5   39.10    1.80
  -2   8  -5   38.30    2.30
   2   8   5   43.40    2.70
   2   8   5   42.50    2.90
  -2   8  -5   37.90    2.70
  -2   8  -5   44.70    3.80
   2   8   5   39.80    1.80
  -4  -8  -5  438.46   13.20
   4  -8   5  444.96   13.60
  -4  -8  -5  435.76   11.80
   4  -8   5  433.66   12.40
   4  -8   5  432.16   13.60
  -4  -8  -5  425.66   11.90
   4  -8   5  445.16   12.30
  -4   8  -5  438.26   12.10
   4   8   5  425.46   11.70
  -4   8  -5  438.26   12.50
  -4   8  -5  425.56   12.00
  -4   8  -5  424.46   13.30
  -4   8  -5  430.06   13.50
   4   8   5  441.86   13.20
   4   8   5  451.25   12.80
   4   8   5  440.26   11.90
   4   8   5  437.26   11.50
  -4   8  -5  442.06   13.70
   4   8   5  454.35   12.00
  -6  -8  -5  314.67    9.70
   6  -8   5  343.57   11.40
  -6  -8  -5  331.77   11.10
   6  -8   5  331.27    9.80
   6  -8   5  334.07   10.80
   6  -8   5  334.77    9.90
  -6  -8  -5  323.97    9.80
   6  -8   5  336.47   11.40
  -6   8  -5  321.87   10.20
   6   8   5  338.47    9.30
   6   8   5  324.87    9.90
   6   8   5  311.97    9.80
   6   8   5  326.57   10.50
  -6   8  -5  337.87   11.60
   6   8   5  329.47   10.90
  -6   8  -5  325.57   11.30
  -6   8  -5  321.27    9.60
   8  -8   5  141.69    7.30
   8  -8   5  150.38    5.80
   8  -8   5  148.69    5.80
   8  -8   5  142.89    6.80
  -8  -8  -5  141.69    6.10
  -8  -8  -5  152.98    7.50
   8  -8   5  133.59   10.00
  -8  -8  -5  143.89    6.20
   8   8   5  146.09    6.40
   8   8   5  155.08    6.30
   8   8   5  148.79    7.00
  -8   8  -5  137.69    7.20
   8   8   5  146.59    5.90
   8   8   5  146.99    5.30
  -8   8  -5  149.88    5.60
  -8   8  -5  162.58    8.10
  10  -8   5   92.69    6.20
 -10  -8  -5   90.49    6.20
  10  -8   5   79.79    6.60
 -10  -8  -5   84.39    3.40
  10  -8   5   87.09    6.60
 -10  -8  -5   97.99   11.30
 -10   8  -5   94.59    7.90
 -10   8  -5   92.29    6.60
  10   8   5   94.89    5.30
  10   8   5   73.99    5.20
  10   8   5   88.89    4.40
 -10   8  -5   88.49    4.60
  10   8   5   79.19    5.50
  11  -9  -5   25.10    2.80
 -11  -9   5   29.90    4.60
  11  -9  -5   28.70    1.80
 -11  -9   5   28.70    3.70
  11  -9  -5   34.50    4.60
 -11  -9   5   34.10    5.40
 -11  -9   5   31.70    3.50
  11   9  -5   18.30    2.70
 -11   9   5   23.10    2.80
  11   9  -5   19.60    4.20
  11   9  -5   27.60    3.70
  11   9  -5   21.70    3.80
  11   9  -5   27.90    4.30
 -11   9   5   31.00    3.60
  11   9  -5   33.70    4.30
 -11   9   5   17.80    2.70
  -9  -9   5   57.39    4.80
   9  -9  -5   58.69    4.30
  -9  -9   5   59.49    4.10
  -9  -9   5   60.09    5.30
   9  -9  -5   59.59    4.00
  -9  -9   5   56.49    3.70
   9  -9  -5   55.89    3.80
   9   9  -5   59.79    4.70
  -9   9   5   57.69    3.70
  -9   9   5   61.19    3.60
   9   9  -5   61.69    3.60
   9   9  -5   60.49    3.80
  -9   9   5   62.29    3.00
   9   9  -5   64.49    5.90
   9   9  -5   59.49    4.20
   9   9  -5   69.59    5.10
  -9   9   5   58.29    2.80
  -7  -9   5  111.09    4.80
  -7  -9   5  116.09    4.90
  -7  -9   5  102.59    7.70
   7  -9  -5  117.09    4.90
  -7  -9   5  113.29    5.70
   7  -9  -5  113.79    4.70
   7  -9  -5  124.99    5.00
  -7   9   5   98.19    4.80
  -7   9   5  114.99    4.00
   7   9  -5  119.39    4.40
   7   9  -5  119.39    4.80
   7   9  -5  115.49    6.40
   7   9  -5  112.99    5.00
  -7   9   5  119.29    4.10
  -7   9   5  110.69    4.60
   7   9  -5  118.99    5.70
   7   9  -5  115.69    6.00
  -5  -9   5   80.99    5.40
  -5  -9   5   83.69    3.70
  -5  -9   5   82.59    3.90
  -5  -9   5   78.89    3.90
  -5  -9   5   87.79    4.70
   5  -9  -5   84.99    3.40
   5  -9  -5   85.29    4.10
   5  -9  -5   85.59    3.70
  -5   9   5   86.09    3.20
   5   9  -5   87.99    4.00
   5   9  -5   84.89    3.90
   5   9  -5   91.29    3.50
  -5   9   5   84.89    3.30
  -5   9   5   86.39    3.30
  -5   9   5   86.59    3.00
   5   9  -5   81.89    5.20
   5   9  -5   80.19    5.20
   5   9  -5   90.19    5.20
   5   9  -5   89.99    4.60
  -3  -9   5   90.89    4.00
  -3  -9   5   92.89    4.00
  -3  -9   5   91.79    4.80
  -3  -9   5   84.99    3.50
   3  -9  -5   89.79    4.20
   3  -9  -5   91.49    3.30
   3   9  -5   90.59    4.50
  -3   9   5   90.89    2.80
   3   9  -5   93.49    4.00
   3   9  -5   86.89    3.80
  -3   9   5   90.99    2.80
   3   9  -5   93.39    5.10
  -3   9   5   92.59    2.90
  -3   9   5   86.59    2.90
  -3   9   5   88.39    3.60
   3   9  -5   90.79    4.90
   3   9  -5  104.39    5.30
  -3   9   5   90.09    3.00
   3   9  -5   94.29    3.50
  -3   9   5   90.39    3.00
  -1  -9   5   60.49    3.50
  -1  -9   5   67.19    3.20
   1   9  -5   58.59    3.70
   1   9  -5   63.49    2.80
  -1   9   5   59.59    2.70
   1   9  -5   64.09    4.30
  -1   9   5   60.39    2.20
   1   9  -5   60.59    4.00
  -1   9   5   64.29    3.20
   1   9  -5   64.79    3.20
   1   9  -5   57.99    4.10
  -1  -9  -5   99.89    4.40
   1  -9   5   95.69    5.20
   1  -9   5   99.59    4.30
   1  -9   5  105.59    4.10
  -1   9  -5  104.89    5.30
  -1   9  -5  102.69    5.30
   1   9   5  104.39    4.00
   1   9   5  103.49    3.10
   1   9   5  100.59    3.10
  -1   9  -5   99.99    3.80
   1   9   5   98.79    3.20
  -1   9  -5   99.99    3.90
   1   9   5   90.79    4.30
  -1   9  -5  105.29    4.40
  -1   9  -5   93.89    4.80
  -1   9  -5  100.59    5.40
   3  -9   5  106.99    4.50
  -3  -9  -5  110.39    5.10
   3  -9   5  111.09    4.40
   3  -9   5  115.69    5.60
   3  -9   5  106.49    5.60
  -3  -9  -5  107.19    3.90
   3   9   5  104.49    4.90
  -3   9  -5  107.69    5.80
   3   9   5  108.49    3.70
   3   9   5  109.19    4.60
  -3   9  -5  111.19    4.20
   3   9   5  107.09    3.60
  -3   9  -5  110.99    4.70
  -3   9  -5  106.79    5.30
   3   9   5  107.19    3.60
  -3   9  -5  113.19    8.10
   3   9   5  110.59    3.80
  -3   9  -5  103.19    4.10
   5  -9   5   50.49    4.70
  -5  -9  -5   53.59    3.10
   5  -9   5   50.89    3.20
  -5  -9  -5   50.09    3.10
   5  -9   5   51.79    4.00
   5  -9   5   49.00    3.10
  -5  -9  -5   47.10    4.20
   5  -9   5   57.19    4.40
  -5   9  -5   46.50    3.40
   5   9   5   53.39    3.00
  -5   9  -5   47.30    4.30
   5   9   5   54.49    4.10
  -5   9  -5   48.90    2.90
  -5   9  -5   53.59    3.00
  -5   9  -5   47.20    4.80
   5   9   5   46.50    2.70
   5   9   5   53.19    3.50
  -5   9  -5   56.89    4.10
   5   9   5   51.89    2.50
   5   9   5   52.49    3.20
   7  -9   5    6.30    1.70
   7  -9   5    6.80    2.20
  -7  -9  -5    7.40    2.00
  -7  -9  -5    4.90    1.90
   7  -9   5    8.90    2.60
  -7  -9  -5    8.80    2.60
   7  -9   5    5.60    2.40
   7  -9   5    9.40    1.80
  -7   9  -5    7.90    1.70
  -7   9  -5   11.30    2.10
   7   9   5    6.50    1.60
  -7   9  -5    7.80    3.10
   7   9   5    7.40    2.00
   7   9   5    6.50    1.30
   7   9   5    8.90    1.90
   7   9   5   11.30    2.50
  -7   9  -5    4.30    2.40
   9  -9   5    4.30    2.70
   9  -9   5    8.90    3.30
   9  -9   5    5.90    2.10
  -9  -9  -5   10.10    3.60
  -9  -9  -5    5.70    2.60
   9  -9   5    9.20    3.00
   9  -9   5    5.10    2.00
  -9  -9  -5    9.90    2.90
   9   9   5   12.90    2.70
   9   9   5   10.60    2.30
   9   9   5    7.50    2.30
  -9   9  -5   12.20    4.10
  -9   9  -5   11.10    3.20
   9   9   5    9.10    1.80
  -9   9  -5    4.70    1.70
   9   9   5    7.80    2.10
 -10 -10   5   21.70    3.90
  10 -10  -5   21.70    3.20
  10 -10  -5   14.40    2.70
  10 -10  -5   17.50    2.50
 -10 -10   5   15.50    2.80
 -10 -10   5   19.50    3.50
 -10  10   5   19.60    2.40
  10  10  -5   16.20    2.40
 -10  10   5   15.90    2.30
  10  10  -5   25.00    4.40
  10  10  -5   16.10    2.70
  10  10  -5   17.50    2.60
  10  10  -5    9.60    2.80
 -10  10   5   14.40    2.10
 -10  10   5   15.10    2.40
  10  10  -5   15.80    3.30
   8 -10  -5   21.00    3.10
   8 -10  -5   22.40    2.60
  -8 -10   5   13.10    1.90
  -8 -10   5   17.60    2.40
  -8 -10   5   16.30    2.80
   8 -10  -5   22.50    2.70
  -8 -10   5   21.80    3.50
   8  10  -5   18.10    2.90
   8  10  -5   16.60    2.30
   8  10  -5   18.20    3.40
  -8  10   5   23.20    2.50
   8  10  -5   22.00    3.20
   8  10  -5   20.00    2.70
   8  10  -5   17.90    2.50
  -8  10   5   19.40    2.00
  -8  10   5   20.90    2.80
   6 -10  -5   13.30    1.70
  -6 -10   5   14.10    2.00
  -6 -10   5   14.10    2.50
   6 -10  -5   15.00    2.20
  -6 -10   5   16.80    3.10
   6 -10  -5   13.20    1.90
  -6 -10   5   19.80    2.50
   6  10  -5   15.80    2.20
  -6  10   5   13.90    1.90
   6  10  -5   15.10    2.60
  -6  10   5   15.70    1.80
   6  10  -5   13.30    2.80
   6  10  -5   10.40    1.90
  -6  10   5   13.50    1.50
   6  10  -5   13.20    1.90
   6  10  -5   17.70    2.90
  -6  10   5   14.50    1.80
   6  10  -5   11.10    2.90
  -6  10   5   14.30    1.90
  -4 -10   5   29.10    2.80
   4 -10  -5   28.60    3.10
  -4 -10   5   33.00    2.40
  -4 -10   5   25.90    3.30
  -4 -10   5   28.50    2.70
   4 -10  -5   29.90    2.40
   4  10  -5   33.40    2.60
  -4  10   5   27.50    2.20
  -4  10   5   30.70    1.60
  -4  10   5   29.40    1.80
  -4  10   5   28.20    1.90
   4  10  -5   32.20    2.30
  -4  10   5   28.90    2.10
  -4  10   5   28.10    1.70
   4  10  -5   32.80    3.90
   4  10  -5   24.10    2.60
   4  10  -5   33.80    3.90
   4  10  -5   27.30    3.10
   4  10  -5   31.90    3.90
   2 -10  -5   53.19    3.70
  -2 -10   5   57.89    2.70
  -2 -10   5   67.29    4.90
  -2 -10   5   53.99    3.80
  -2 -10   5   53.89    3.80
  -2 -10   5   55.09    3.30
  -2  10   5   49.99    3.00
  -2  10   5   54.79    2.10
   2  10  -5   58.79    4.50
   2  10  -5   52.59    3.20
   2  10  -5   52.49    2.80
   2  10  -5   52.49    3.00
   2  10  -5   57.89    4.30
  -2  10   5   53.29    2.10
  -2  10   5   51.29    2.20
  -2  10   5   50.09    2.10
   2  10  -5   54.59    3.80
   2  10  -5   53.89    4.10
   0 -10   5   30.10    2.60
   0 -10   5   29.90    2.80
   0 -10   5   31.40    3.80
   0  10  -5   27.90    2.60
   0  10  -5   32.40    3.90
   0  10  -5   28.30    3.60
   0  10  -5   25.70    2.50
   0  10  -5   28.30    3.10
   0  10  -5   29.90    2.30
   0  10   5   28.40    1.50
   0  10   5   29.30    2.00
   0  10   5   26.30    1.50
   0  10   5   28.50    1.50
   0  10  -5   36.30    3.80
   2 -10   5    9.90    2.40
   2 -10   5   11.70    1.70
   2 -10   5   11.50    1.90
   2 -10   5   16.60    2.70
  -2 -10  -5   13.50    2.10
  -2 -10  -5   12.80    1.70
   2  10   5   11.40    1.40
  -2  10  -5   16.80    2.90
   2  10   5   11.40    1.30
  -2  10  -5   11.80    2.50
  -2  10  -5   10.50    3.20
  -2  10  -5   14.70    2.40
   2  10   5   12.50    1.30
   2  10   5   13.00    2.00
   2  10   5   12.10    1.30
  -2  10  -5   12.70    1.60
  -2  10  -5   18.40    2.00
  -2  10  -5   11.40    1.70
   2  10   5   12.00    1.60
   2  10   5   13.40    1.50
   4 -10   5  141.09    7.00
  -4 -10  -5  150.88    5.40
   4 -10   5  150.18    5.70
  -4 -10  -5  159.18    6.60
  -4 -10  -5  146.49    5.30
   4 -10   5  152.78    7.10
   4 -10   5  150.78    5.90
  -4  10  -5  146.19    5.30
  -4  10  -5  154.58    6.00
   4  10   5  148.19    5.10
   4  10   5  156.58    5.30
   4  10   5  154.68    4.90
  -4  10  -5  153.98    7.30
   4  10   5  156.68    6.00
  -4  10  -5  158.68    7.00
   4  10   5  154.08    5.20
  -4  10  -5  157.78    6.70
   4  10   5  143.39    6.40
  -4  10  -5  154.88    5.50
   6 -10   5    2.90    1.50
   6 -10   5    2.40    2.00
   6 -10   5    5.10    1.60
  -6 -10  -5    1.50    2.30
  -6 -10  -5    2.50    1.80
  -6 -10  -5    0.90    1.70
   6 -10   5    2.40    2.30
   6 -10   5   -1.50    2.10
   6  10   5    0.70    1.90
   6  10   5    2.30    1.50
   6  10   5   -0.10    1.20
  -6  10  -5    5.50    1.30
  -6  10  -5    1.80    2.10
  -6  10  -5    0.30    1.60
   6  10   5    4.10    1.60
   6  10   5    1.50    1.60
  -6  10  -5    1.50    1.90
   6  10   5    2.80    1.30
   8 -10   5   -0.10    2.50
  -8 -10  -5    3.90    2.40
  -8 -10  -5   -2.40    2.80
   8 -10   5    0.90    2.70
   8 -10   5   -0.90    1.80
  -8 -10  -5    0.00    2.10
   8 -10   5    1.40    1.80
   8  10   5    0.70    1.60
  -8  10  -5   -1.20    3.10
   8  10   5    2.90    1.90
  -8  10  -5    0.40    1.90
   8  10   5    0.80    2.20
   8  10   5    5.20    2.30
  -8  10  -5    2.80    2.70
   8  10   5   -2.00    1.80
   8  10   5    3.90    1.20
  -8  10  -5    5.70    2.90
  -8  10  -5    0.60    1.50
  -9 -11   5   41.20    3.80
  -9 -11   5   37.80    4.50
   9 -11  -5   38.40    4.50
   9 -11  -5   29.60    4.20
   9 -11  -5   41.00    4.30
  -9 -11   5   44.00    5.90
  -9 -11   5   45.70    5.00
   9  11  -5   39.60    5.30
  -9  11   5   35.40    3.30
  -9  11   5   38.10    2.70
   9  11  -5   46.70    5.00
  -9  11   5   43.20    2.90
   9  11  -5   44.00    3.70
   9  11  -5   41.40    4.10
   9  11  -5   37.70    3.90
   9  11  -5   44.80    5.70
  -9  11   5   41.30    3.60
  -7 -11   5  169.18    6.70
   7 -11  -5  176.08    6.70
   7 -11  -5  177.38    6.90
  -7 -11   5  179.18    8.60
  -7 -11   5  161.28    6.60
  -7 -11   5  177.08    7.70
   7 -11  -5  168.68    6.30
   7  11  -5  178.08    6.20
   7  11  -5  168.08    6.50
   7  11  -5  166.68    8.20
   7  11  -5  178.68    7.60
   7  11  -5  170.08    6.70
  -7  11   5  173.78    6.00
  -7  11   5  161.18    6.10
  -7  11   5  163.08    5.90
   7  11  -5  171.28    8.00
  -7  11   5  176.08    5.80
   5 -11  -5   42.50    3.80
   5 -11  -5   40.70    2.80
  -5 -11   5   45.40    3.40
   5 -11  -5   45.00    3.20
  -5 -11   5   45.40    3.50
  -5 -11   5   49.30    4.20
  -5 -11   5   45.40    3.20
  -5  11   5   41.90    2.40
  -5  11   5   41.40    2.70
  -5  11   5   42.20    2.60
   5  11  -5   44.40    4.60
  -5  11   5   43.90    2.20
   5  11  -5   37.70    4.90
   5  11  -5   51.49    4.10
   5  11  -5   42.60    3.30
   5  11  -5   41.80    3.30
   5  11  -5   36.00    4.30
   3 -11  -5  278.97    9.30
  -3 -11   5  286.07    9.90
   3 -11  -5  277.87    8.20
  -3 -11   5  275.97    8.90
  -3 -11   5  271.37    8.90
  -3 -11   5  280.17    8.30
  -3  11   5  280.77    7.60
   3  11  -5  287.47   10.30
  -3  11   5  281.87    7.60
   3  11  -5  283.57    9.70
  -3  11   5  272.37    7.50
   3  11  -5  277.47    8.80
  -3  11   5  257.87    7.70
   3  11  -5  274.67    8.60
  -3  11   5  268.87    8.50
   3  11  -5  265.37   10.00
  -3  11   5  281.97    7.80
   3  11  -5  252.57    8.80
  -1 -11   5  181.58    8.10
  -1 -11   5  191.08    6.80
  -1 -11   5  201.78    6.00
   1  11  -5  186.98    6.70
   1  11  -5  198.48    8.40
   1  11  -5  194.58    6.20
   1  11  -5  180.88    6.40
  -1  11   5  196.68    5.30
  -1  11   5  188.18    5.50
  -1  11   5  188.68    5.50
   1  11  -5  193.58    7.90
  -1  11   5  188.88    6.70
   1  11  -5  189.68    7.40
  -1  11   5  184.48    5.60
   1  11  -5  192.88    8.20
  -1  11   5  188.88    5.60
  -1  11   5  188.48    5.60
  -1  11   5  184.38    5.20
   1 -11   5   56.29    3.50
   1 -11   5   54.29    3.70
  -1 -11  -5   60.49    3.70
   1 -11   5   57.19    4.70
  -1  11  -5   57.29    3.00
  -1  11  -5   57.09    4.90
  -1  11  -5   51.99    3.10
   1  11   5   56.29    2.50
  -1  11  -5   54.29    4.50
   1  11   5   57.79    2.50
   1  11   5   52.89    2.20
   1  11   5   53.29    2.30
   1  11   5   56.19    2.80
  -1  11  -5   55.69    3.60
   1  11   5   59.19    3.70
   1  11   5   52.49    2.40
  -1  11  -5   59.79    4.20
  -3 -11  -5   27.90    3.60
   3 -11   5   33.70    4.30
   3 -11   5   26.80    4.00
   3 -11   5   28.50    2.80
   3 -11   5   30.80    3.10
  -3  11  -5   28.60    4.00
  -3  11  -5   33.90    3.80
   3  11   5   31.50    2.10
   3  11   5   26.80    2.10
   3  11   5   30.00    2.30
  -3  11  -5   30.10    2.50
  -3  11  -5   27.50    2.40
  -3  11  -5   32.90    4.50
   3  11   5   27.10    3.20
   3  11   5   29.30    1.90
   3  11   5   29.70    2.10
  -3  11  -5   27.40    3.10
   3  11   5   25.10    2.50
   5 -11   5   36.90    4.60
   5 -11   5   27.20    3.00
   5 -11   5   33.30    4.50
  -5 -11  -5   34.20    3.20
   5 -11   5   32.70    3.30
  -5 -11  -5   34.90    3.20
  -5 -11  -5   32.80    4.30
   5 -11   5   32.60    4.00
   5  11   5   31.70    2.80
  -5  11  -5   24.00    3.50
   5  11   5   29.60    2.60
   5  11   5   32.90    2.80
  -5  11  -5   37.50    5.30
   5  11   5   28.70    3.00
  -5  11  -5   33.60    3.50
   5  11   5   30.80    3.80
  -5  11  -5   32.00    2.80
  -5  11  -5   30.60    3.80
  -5  11  -5   31.20    2.70
   5  11   5   31.00    2.30
   7 -11   5   -1.50    2.00
  -7 -11  -5   -1.70    2.10
   7 -11   5    6.10    2.80
   7 -11   5    1.70    1.90
  -7 -11  -5    3.90    2.30
   7 -11   5    1.20    2.50
   7 -11   5    5.80    3.00
  -7 -11  -5    1.70    2.80
   7  11   5    5.30    2.40
  -7  11  -5    8.00    2.90
   7  11   5   -0.20    1.20
   7  11   5    0.90    1.70
   7  11   5    3.70    1.70
  -7  11  -5    5.00    3.40
   7  11   5    4.40    2.00
  -7  11  -5    0.70    1.50
  -7  11  -5    2.30    2.70
  -7  11  -5    4.20    2.10
   7  11   5    2.00    1.80
   8 -12  -5   19.20    2.70
  -8 -12   5   21.50    2.80
  -8 -12   5   18.40    3.40
  -8 -12   5   18.20    2.70
  -8 -12   5   22.80    4.20
   8 -12  -5   18.50    2.90
   8 -12  -5   15.80    2.90
  -8  12   5   19.90    2.70
   8  12  -5   24.80    3.30
   8  12  -5   28.00    3.50
  -8  12   5   16.90    2.00
   8  12  -5   22.50    3.60
   8  12  -5   14.00    2.30
  -8  12   5   25.40    3.10
   8  12  -5   21.30    3.80
  -8  12   5   20.70    2.70
  -8  12   5   18.90    2.40
   8  12  -5   15.00    3.40
   6 -12  -5   34.90    3.20
  -6 -12   5   30.10    4.30
  -6 -12   5   33.40    3.50
  -6 -12   5   37.00    3.50
   6 -12  -5   31.80    3.50
   6 -12  -5   35.40    4.10
   6  12  -5   26.10    3.30
   6  12  -5   37.70    5.30
   6  12  -5   29.70    3.30
  -6  12   5   33.80    2.60
   6  12  -5   44.70    4.80
   6  12  -5   37.00    3.10
  -6  12   5   30.30    2.50
   6  12  -5   38.30    4.90
  -6  12   5   22.40    2.60
  -6  12   5   32.30    2.50
  -6  12   5   26.40    2.70
   6  12  -5   37.10    4.30
  -4 -12   5   10.80    1.90
  -4 -12   5   17.90    2.90
   4 -12  -5   14.50    2.10
  -4 -12   5   11.30    1.80
  -4 -12   5   15.10    2.30
   4 -12  -5   13.80    2.50
   4  12  -5   13.60    2.10
  -4  12   5   10.90    1.50
  -4  12   5   13.10    1.90
   4  12  -5   13.70    2.80
   4  12  -5   17.60    2.30
  -4  12   5   13.20    1.80
   4  12  -5   10.90    1.70
  -4  12   5   12.60    1.70
   4  12  -5   14.70    3.00
   4  12  -5   16.40    2.80
  -4  12   5   14.90    2.00
  -4  12   5   13.40    1.90
   4  12  -5   17.40    3.40
  -2 -12   5   62.69    4.10
  -2 -12   5   57.79    5.40
  -2 -12   5   58.79    4.60
  -2 -12   5   64.09    3.30
   2 -12  -5   62.19    4.50
   2  12  -5   61.89    4.90
   2  12  -5   63.39    3.80
  -2  12   5   62.49    2.60
   2  12  -5   60.69    5.30
  -2  12   5   62.99    2.10
  -2  12   5   65.39    2.80
   2  12  -5   66.69    5.10
  -2  12   5   62.79    3.50
   2  12  -5   66.89    3.40
  -2  12   5   62.69    2.60
  -2  12   5   60.59    2.80
  -2  12   5   63.59    2.80
  -2  12   5   62.39    2.50
   2  12  -5   58.79    4.50
   2  12  -5   58.39    3.40
   0 -12   5    8.30    2.60
   0 -12   5   15.10    1.90
   0 -12   5    9.70    1.90
   0  12   5   10.30    1.40
   0  12   5   12.10    1.50
   0  12   5    7.20    1.80
   0  12  -5    9.80    1.90
   0  12   5   10.30    1.30
   0  12   5   14.10    1.60
   0  12  -5   11.30    2.70
   0  12  -5    8.20    2.40
   0  12  -5    8.30    1.50
   0  12  -5   10.10    1.60
   0  12   5   10.80    1.60
   0  12  -5    7.80    2.70
   0  12   5   11.10    1.60
   0  12  -5   13.00    2.50
   0  12   5   11.50    1.50
   2 -12   5   35.10    3.40
  -2 -12  -5   37.60    3.70
   2 -12   5   38.80    3.60
   2 -12   5   40.00    4.70
   2  12   5   40.70    2.40
  -2  12  -5   48.30    3.60
   2  12   5   37.10    3.50
  -2  12  -5   28.60    4.30
  -2  12  -5   35.10    4.00
   2  12   5   39.10    2.40
  -2  12  -5   43.70    4.70
   2  12   5   39.20    2.20
  -2  12  -5   37.70    2.90
   2  12   5   39.40    2.30
   2  12   5   39.30    2.70
   2  12   5   38.20    2.30
  -2  12  -5   40.50    5.10
  -2  12  -5   39.20    2.80
  -4 -12  -5   40.10    4.50
  -4 -12  -5   30.50    3.30
   4 -12   5   27.10    3.70
   4 -12   5   37.70    3.40
   4 -12   5   44.80    3.80
   4 -12   5   29.50    3.70
  -4  12  -5   33.10    2.80
   4  12   5   32.80    2.90
  -4  12  -5   34.60    4.70
   4  12   5   34.90    3.00
   4  12   5   39.40    2.90
  -4  12  -5   44.30    4.70
   4  12   5   39.00    2.90
  -4  12  -5   33.50    3.60
  -4  12  -5   35.00    2.90
   4  12   5   26.50    2.60
  -4  12  -5   37.20    4.60
   4  12   5   26.00    3.70
   4  12   5   40.50    2.50
   6 -12   5   60.29    5.40
   6 -12   5   59.89    4.50
  -6 -12  -5   62.49    4.70
  -6 -12  -5   71.59    4.80
   6 -12   5   57.19    4.40
   6 -12   5   61.19    5.70
  -6 -12  -5   68.79    6.00
   6 -12   5   59.49    5.90
  -6  12  -5   59.39    6.70
   6  12   5   63.69    3.60
   6  12   5   63.59    4.00
  -6  12  -5   57.79    5.40
  -6  12  -5   59.49    3.60
   6  12   5   56.89    4.00
  -6  12  -5   57.29    4.80
  -6  12  -5   69.59    5.80
  -6  12  -5   56.49    3.70
   6  12   5   55.19    4.70
   6  12   5   59.29    4.00
   6  12   5   63.49    3.40
   7 -13  -5   55.89    5.30
  -7 -13   5   34.20    4.10
   7 -13  -5   61.29    4.70
   7 -13  -5   48.70    4.20
  -7 -13   5   39.80    5.30
  -7 -13   5   49.50    4.60
  -7  13   5   54.39    3.40
  -7  13   5   49.50    3.50
   7  13  -5   48.90    4.10
  -7  13   5   48.90    3.30
   7  13  -5   53.09    6.70
  -7  13   5   51.19    3.00
   7  13  -5   54.19    4.10
   7  13  -5   44.60    5.80
  -7  13   5   44.90    3.50
   7  13  -5   45.70    5.20
   7  13  -5   50.69    5.80
   5 -13  -5   17.90    2.50
  -5 -13   5   12.90    2.40
  -5 -13   5   12.90    3.10
  -5 -13   5   12.80    2.20
   5 -13  -5   12.80    2.70
  -5 -13   5   17.40    2.60
   5  13  -5   13.90    2.90
   5  13  -5   12.80    3.20
   5  13  -5   12.20    3.50
   5  13  -5   11.00    1.90
   5  13  -5   16.90    3.40
  -5  13   5   15.90    2.00
  -5  13   5   10.50    1.80
   5  13  -5   17.30    2.20
   5  13  -5   10.60    2.30
  -5  13   5    9.60    1.70
  -5  13   5   13.90    1.80
  -3 -13   5   17.30    2.60
  -3 -13   5   16.90    3.10
   3 -13  -5   19.90    2.40
  -3 -13   5   23.00    2.80
   3 -13  -5   17.90    2.90
   3  13  -5   19.40    3.30
  -3  13   5   21.90    1.80
  -3  13   5   21.20    2.20
   3  13  -5   20.70    3.60
   3  13  -5   13.90    1.90
  -3  13   5   23.50    2.10
   3  13  -5   20.60    3.20
   3  13  -5   17.90    2.60
  -3  13   5   21.20    2.00
  -3  13   5   20.40    2.60
  -3  13   5   22.50    2.20
   3  13  -5   24.00    3.40
  -1 -13   5   14.50    2.30
  -1 -13   5   12.50    1.60
  -1 -13   5   13.70    3.50
   1  13  -5   10.40    2.20
  -1  13   5   13.00    1.80
   1  13  -5   14.60    3.20
   1  13  -5   16.70    3.40
  -1  13   5   12.20    1.30
  -1  13   5   13.30    2.10
  -1  13   5   13.10    1.70
  -1  13   5   12.00    1.50
  -1  13   5   12.70    1.80
   1  13  -5   11.10    1.80
   1  13  -5   15.90    3.00
   1  13  -5   10.30    1.80
  -1  13   5   11.30    1.30
  -1  13   5   14.10    1.60
   1  13  -5   10.00    2.60
   1 -13   5   25.60    2.40
   1 -13   5   33.90    3.80
   1 -13   5   38.40    5.10
  -1 -13  -5   30.30    3.50
   1 -13   5   25.60    3.50
   1  13   5   31.30    2.30
  -1  13  -5   29.90    2.80
   1  13   5   29.30    2.30
  -1  13  -5   27.90    3.40
  -1  13  -5   27.40    3.80
   1  13   5   29.20    3.40
   1  13   5   28.90    2.20
  -1  13  -5   28.90    2.80
   1  13   5   29.40    2.20
   1  13   5   27.40    2.20
   1  13   5   29.70    2.30
  -1  13  -5   30.50    4.40
  -1  13  -5   34.60    4.40
   1  13   5   32.80    2.10
  -1  13  -5   28.60    4.20
  -3 -13  -5    4.90    2.50
   3 -13   5    3.70    2.00
   3 -13   5    4.80    3.10
  -3 -13  -5    5.20    2.00
   3 -13   5    4.20    2.00
  -3  13  -5    4.60    2.10
   3  13   5    7.80    1.70
  -3  13  -5    5.20    2.70
  -3  13  -5    6.40    3.20
   3  13   5    5.90    1.50
   3  13   5    9.80    1.60
   3  13   5    8.30    1.50
   3  13   5    8.90    2.30
  -3  13  -5    6.90    1.50
   3  13   5    4.60    1.40
  -3  13  -5   10.30    2.80
   3  13   5    8.30    1.50
  -3  13  -5    5.10    2.60
  -3  13  -5    9.50    1.70
   5 -13   5   32.70    4.40
  -5 -13  -5   23.00    3.70
   5 -13   5   17.10    2.80
   5 -13   5   20.70    3.80
  -5 -13  -5   27.00    4.00
   5 -13   5   18.90    3.10
   5 -13   5   15.90    2.70
  -5  13  -5   21.10    3.50
   5  13   5   22.30    3.00
   5  13   5   22.10    2.50
   5  13   5   26.80    3.10
  -5  13  -5   21.70    2.80
   5  13   5   13.80    2.70
  -5  13  -5   21.60    3.80
  -5  13  -5   20.20    2.70
   5  13   5   20.20    2.70
  -5  13  -5   21.00    4.10
   5  13   5   23.00    2.70
   5  13   5   21.20    3.00
   6 -14  -5    8.30    3.00
  -6 -14   5   14.70    3.40
   6 -14  -5    8.70    2.80
  -6 -14   5    5.90    2.50
  -6 -14   5    8.30    2.40
   6  14  -5    9.10    2.20
   6  14  -5    7.50    3.80
   6  14  -5    8.50    3.50
  -6  14   5    8.20    2.10
  -6  14   5    8.20    1.90
  -6  14   5   12.70    2.20
  -6  14   5    8.30    1.50
   6  14  -5    4.50    3.20
   6  14  -5    9.70    2.20
  -6  14   5    6.50    1.80
   6  14  -5   15.70    3.50
  -6  14   5    7.80    1.70
   4 -14  -5    0.10    2.50
  -4 -14   5    3.80    3.00
  -4 -14   5   -0.40    2.20
  -4 -14   5   -2.10    1.70
   4 -14  -5    2.20    2.30
  -4  14   5    0.80    1.00
  -4  14   5    0.40    1.40
   4  14  -5    0.40    3.30
   4  14  -5    1.60    2.80
   4  14  -5    1.30    1.50
   4  14  -5    1.70    2.60
  -4  14   5    0.50    1.30
  -4  14   5    3.20    1.60
   4  14  -5   -2.90    2.90
   4  14  -5    1.70    1.60
  -4  14   5    3.10    1.40
  -4  14   5    0.90    1.30
   4  14  -5    1.20    2.00
  -2 -14   5    7.70    3.60
  -2 -14   5    4.60    1.70
  -2 -14   5    2.30    2.30
  -2  14   5    6.10    1.40
  -2  14   5    2.80    1.20
   2  14  -5    0.80    1.50
   2  14  -5   -1.50    1.90
  -2  14   5    1.20    1.50
  -2  14   5    3.00    1.40
  -2  14   5    3.80    1.20
  -2  14   5    4.50    1.30
   2  14  -5    2.30    1.40
   2  14  -5    1.60    3.20
  -2  14   5    3.80    1.30
   2  14  -5    1.60    2.60
   2  14  -5    6.20    2.70
   2  14  -5   -1.50    2.50
   0 -14   5   30.00    4.60
   0 -14   5   24.00    3.10
   0 -14   5   21.90    2.70
   0  14  -5   19.30    3.70
   0  14   5   23.40    2.40
   0  14  -5   23.00    3.90
   0  14  -5   29.30    3.70
   0  14   5   22.70    2.10
   0  14   5   22.50    2.40
   0  14  -5   33.00    4.70
   0  14   5   27.70    2.60
   0  14  -5   28.10    3.60
   0  14  -5   26.90    2.90
   0  14   5   26.90    2.50
   0  14   5   24.50    2.90
   0  14   5   28.40    1.90
   0  14   5   22.70    2.40
   0  14  -5   25.50    2.90
   2 -14   5   34.70    4.50
   2 -14   5   36.10    2.80
   2 -14   5   31.50    4.50
  -2 -14  -5   34.90    4.60
   2 -14   5   31.10    4.20
  -2  14  -5   42.60    3.30
   2  14   5   35.70    2.50
  -2  14  -5   35.30    3.00
   2  14   5   30.80    2.70
  -2  14  -5   50.39    6.30
   2  14   5   34.70    2.60
   2  14   5   38.00    2.90
   2  14   5   37.10    3.70
  -2  14  -5   25.40    3.60
   2  14   5   38.40    2.70
  -2  14  -5   38.10    5.60
  -2  14  -5   36.50    5.00
   2  14   5   34.10    2.80
  -2  14  -5   33.60    4.20
   2  14   5   23.60    3.00
   4 -14   5   50.49    7.30
  -4 -14  -5   41.60    4.40
   4 -14   5   49.90    6.20
  -4 -14  -5   51.49    5.70
   4  14   5   52.89    3.60
  -4  14  -5   41.80    3.50
  -4  14  -5   51.89    6.20
   4  14   5   40.50    3.40
  -4  14  -5   38.30    5.70
  -4  14  -5   43.20    5.20
   4  14   5   45.50    3.30
  -4  14  -5   38.20    3.40
   4  14   5   49.10    3.40
  -4  14  -5   49.00    5.80
   4  14   5   44.40    3.40
   4  14   5   42.60    4.70
  -3 -15   5   51.59    5.30
  -3 -15   5   40.20    4.00
   3 -15  -5   45.60    6.00
   3  15  -5   57.39    5.60
   3  15  -5   40.70    5.30
   3  15  -5   46.20    6.10
   3  15  -5   43.20    3.60
  -3  15   5   41.10    2.80
  -3  15   5   45.70    3.10
  -3  15   5   39.60    2.90
   3  15  -5   35.80    4.50
  -3  15   5   48.30    3.30
  -3  15   5   40.70    3.20
  -3  15   5   34.70    3.50
  -3  15   5   46.10    3.10
  -1 -15   5   22.70    3.50
  -1 -15   5   34.60    3.60
  -1  15   5   35.20    2.50
   1  15  -5   47.00    5.30
  -1  15   5   34.20    2.70
  -1  15   5   30.40    3.60
   1  15  -5   28.90    3.40
   1  15  -5   43.40    3.60
  -1  15   5   39.40    2.80
   1  15  -5   46.20    6.50
   1  15  -5   30.10    4.50
  -1  15   5   28.80    2.70
  -1  15   5   33.30    2.80
  -1  15   5   34.70    3.00
   1  15  -5   35.20    4.60
   1 -15   5    8.90    1.90
   1 -15   5    9.20    2.80
   1  15   5    8.20    1.30
  -1  15  -5    7.90    2.00
  -1  15  -5    5.60    3.10
   1  15   5   12.60    1.60
   1  15   5   11.50    1.80
  -1  15  -5   12.00    3.50
   1  15   5    8.50    1.70
   1  15   5    6.60    2.30
  -1  15  -5    7.30    3.50
   1  15   5    9.70    1.70
   1  15   5   11.40    1.70
  -1  15  -5    6.40    1.70
   1  15   5   13.80    1.90
  -1  15  -5    9.60    3.80
  12   0  -6   18.00    3.00
 -12   0   6   16.40    2.80
 -12   0   6   16.40    2.70
  12   0  -6   20.90    2.30
  12   0  -6   17.10    1.40
  12   0  -6   17.40    1.90
 -12   0   6   24.10    3.00
  12   0  -6   21.50    3.10
 -12   0   6   15.30    2.00
 -10   0   6  121.99    5.60
  10   0  -6  127.99    5.80
 -10   0   6  127.09    4.80
 -10   0   6  122.79    4.80
  10   0  -6  117.09    5.50
  10   0  -6  120.89    4.20
 -10   0   6  113.79    5.30
  -8   0   6   20.80    1.80
   8   0  -6   20.60    2.40
   8   0  -6   18.90    1.40
  -8   0   6   23.10    2.40
  -8   0   6   16.80    1.80
   8   0  -6   18.80    2.40
   8   0  -6   18.30    1.80
  -6   0   6 2397.26   58.19
  -6   0   6 2395.66   57.59
   6   0  -6 2371.86   57.99
   6   0  -6 2184.58   58.69
  -6   0   6 2403.66   57.99
   6   0  -6 2296.77   56.99
   6   0  -6 2338.47   57.09
   4   0  -6 1083.19   27.30
  -4   0   6 1141.89   27.90
   4   0  -6 1130.69   28.60
   4   0  -6 1028.60   27.20
  -4   0   6 1163.28   28.40
  -4   0   6 1132.09   28.20
   4   0  -6 1124.19   28.20
   4   0  -6 1155.18   28.30
   2   0  -6  803.32   20.50
   2   0  -6  829.02   20.50
  -2   0   6  809.42   20.20
  -2   0   6  790.32   20.20
   2   0  -6  834.32   20.70
  -2   0   6  792.32   19.80
   2   0  -6  787.02   20.50
  -2   0   6  811.92   20.50
   0   0  -6   24.60    1.60
   0   0   6   24.30    1.30
   0   0  -6   26.20    1.70
   0   0   6   23.40    1.20
   0   0  -6   25.70    1.70
   0   0  -6   26.80    1.70
   0   0   6   25.10    1.70
   2   0   6  432.16   11.10
   2   0   6  450.75   12.70
  -2   0  -6  406.66   11.70
  -2   0  -6  426.56   11.70
   2   0   6  428.86   11.80
   2   0   6  434.46   11.70
  -2   0  -6  422.36   10.60
  -2   0  -6  432.86   10.60
   4   0   6  193.68    6.90
   4   0   6  180.98    5.30
   4   0   6  171.88    6.40
  -4   0  -6  181.28    5.00
  -4   0  -6  180.88    6.10
  -4   0  -6  181.08    5.10
   4   0   6  173.08    6.00
   6   0   6  189.98    5.80
  -6   0  -6  198.38    6.80
   6   0   6  184.58    6.60
  -6   0  -6  183.48    5.50
   6   0   6  182.68    6.70
   6   0   6  178.68    7.20
  -6   0  -6  183.58    5.60
  -6   0  -6  183.28    6.70
   8   0   6   22.30    3.00
   8   0   6   22.00    3.00
   8   0   6   22.70    3.00
  -8   0  -6   24.90    3.50
  -8   0  -6   21.90    2.80
  -8   0  -6   23.40    2.00
   8   0   6   22.00    2.00
  10   0   6   32.50    4.10
 -10   0  -6   22.40    3.40
  10   0   6   34.50    4.20
  10   0   6   31.80    2.70
 -10   0  -6   34.60    5.00
  10   0   6   22.40    3.00
  13  -1  -6    7.30    1.70
 -13  -1   6    6.70    2.30
 -13  -1   6    9.30    2.40
 -13  -1   6    8.10    1.80
  13  -1  -6   12.30    2.90
  13  -1  -6    2.80    2.70
  13  -1  -6    9.10    1.20
 -13  -1   6    6.40    2.20
  13   1  -6    6.80    1.50
 -13   1   6    6.90    2.00
 -13   1   6    8.40    2.50
 -13   1   6    8.80    1.80
 -13   1   6    9.20    2.30
  13   1  -6    6.20    1.60
  13   1  -6    3.80    2.70
  13   1  -6    4.10    3.00
  13   1  -6    7.80    1.00
  11  -1  -6    3.60    0.70
 -11  -1   6    2.40    1.80
  11  -1  -6    4.00    2.00
  11  -1  -6    3.90    2.10
 -11  -1   6    2.00    1.40
 -11  -1   6    3.50    1.30
 -11  -1   6    3.40    1.80
  11   1  -6    2.50    0.80
  11   1  -6    1.60    1.90
 -11   1   6    2.90    1.40
 -11   1   6    2.40    1.30
 -11   1   6   -1.10    1.40
  11   1  -6    2.30    0.50
 -11   1   6    4.30    1.70
  11   1  -6    4.30    2.10
  11   1  -6    3.00    1.20
  -9  -1   6    4.60    1.20
  -9  -1   6    3.50    1.20
   9  -1  -6    4.70    0.90
   9  -1  -6    3.50    1.10
  -9  -1   6    4.00    1.40
   9  -1  -6    3.20    1.50
  -9  -1   6    4.00    1.40
   9  -1  -6    5.20    1.70
  -9   1   6    2.10    1.00
  -9   1   6    5.80    1.40
   9   1  -6    4.50    1.70
   9   1  -6    4.80    1.00
   9   1  -6    4.00    1.50
  -9   1   6    2.10    1.20
  -9   1   6    3.10    1.00
   9   1  -6    3.00    1.20
   7  -1  -6  191.78    6.40
  -7  -1   6  188.18    6.40
  -7  -1   6  183.98    6.50
  -7  -1   6  195.38    5.90
  -7  -1   6  191.78    5.80
   7  -1  -6  186.48    5.30
   7  -1  -6  180.08    5.10
   7   1  -6  188.18    6.50
  -7   1   6  191.38    5.60
   7   1  -6  187.38    6.40
  -7   1   6  187.48    5.80
  -7   1   6  186.28    6.20
   7   1  -6  180.38    5.40
   7   1  -6  193.98    5.70
  -7   1   6  190.58    6.30
  -5  -1   6  262.17    8.00
   5  -1  -6  264.67    7.60
  -5  -1   6  274.57    7.90
  -5  -1   6  262.07    7.50
   5  -1  -6  263.17    7.70
   5   1  -6  262.07    8.40
   5   1  -6  262.77    8.00
   5   1  -6  257.77    7.10
  -5   1   6  266.07    7.60
   5   1  -6  260.37    7.80
   5   1  -6  256.47    7.00
  -5   1   6  255.97    7.20
  -5   1   6  269.47    7.70
   3  -1  -6   72.99    3.00
  -3  -1   6   74.19    2.10
   3  -1  -6   76.79    2.70
  -3  -1   6   75.39    2.70
  -3  -1   6   76.99    3.00
  -3  -1   6   74.79    2.80
   3  -1  -6   74.89    2.80
   3   1  -6   75.89    3.00
  -3   1   6   76.99    2.50
   3   1  -6   71.59    3.10
   3   1  -6   75.59    2.30
   3   1  -6   73.19    2.30
  -3   1   6   74.09    2.70
  -3   1   6   73.79    2.20
  -3   1   6   75.39    2.60
   3   1  -6   76.39    3.30
   3   1  -6   74.89    3.10
   1  -1  -6  220.48    6.10
  -1  -1   6  217.68    6.70
  -1  -1   6  219.18    5.80
   1  -1  -6  221.08    6.10
  -1  -1   6  222.48    6.10
  -1  -1   6  219.08    6.10
   1  -1  -6  215.18    6.00
  -1   1   6  216.18    5.80
   1   1  -6  220.78    6.60
   1   1  -6  214.98    5.60
  -1   1   6  210.88    5.70
   1   1  -6  219.08    5.60
   1   1  -6  210.18    6.50
   1   1  -6  213.08    6.40
   1   1  -6  215.18    6.50
   1  -1   6  166.78    5.50
  -1  -1  -6  170.88    5.20
   1  -1   6  175.98    5.00
   1  -1   6  174.48    5.60
   1  -1   6  176.88    5.00
  -1  -1  -6  177.28    5.30
  -1  -1  -6  177.38    5.20
  -1   1  -6  168.68    4.70
  -1   1  -6  177.68    4.70
  -1   1  -6  176.98    5.50
  -1   1  -6  174.98    5.70
   1   1   6  179.68    5.20
  -1   1  -6  167.28    5.60
   1   1   6  177.78    4.80
   1   1   6  179.88    6.20
   1   1   6  172.98    5.20
   3  -1   6   84.69    4.30
   3  -1   6   91.79    3.80
   3  -1   6   87.39    3.80
  -3  -1  -6   87.89    3.50
   3  -1   6   92.99    3.10
  -3  -1  -6   93.09    3.50
   3   1   6   86.29    3.40
  -3   1  -6   90.69    3.90
  -3   1  -6   91.09    2.80
  -3   1  -6   88.69    2.90
   3   1   6   91.69    3.00
   3   1   6   87.09    3.40
   3   1   6   88.59    4.30
  -5  -1  -6  329.17    9.70
   5  -1   6  311.17   10.50
   5  -1   6  327.77    9.90
   5  -1   6  320.47    9.90
  -5  -1  -6  329.27    8.40
  -5  -1  -6  305.97   10.40
   5  -1   6  331.67    9.00
  -5  -1  -6  320.77    8.50
   5   1   6  305.17   10.80
   5   1   6  326.07    8.90
   5   1   6  321.27    9.60
  -5   1  -6  324.07    9.90
  -5   1  -6  325.07    8.90
  -5   1  -6  337.07    8.80
  -5   1  -6  329.87    9.90
   7  -1   6  176.68    5.60
  -7  -1  -6  178.08    6.50
  -7  -1  -6  167.98    5.10
   7  -1   6  162.98    6.50
   7  -1   6  165.88    5.70
   7  -1   6  156.18    6.90
  -7  -1  -6  168.78    6.50
   7  -1   6  160.88    6.50
  -7   1  -6  170.88    5.30
  -7   1  -6  172.88    6.80
   7   1   6  158.08    6.80
   7   1   6  159.08    6.30
   7   1   6  171.48    6.40
   7   1   6  168.58    5.50
  -7   1  -6  172.58    6.60
  -9  -1  -6    6.90    2.20
  -9  -1  -6    6.70    1.30
   9  -1   6    5.20    1.40
   9  -1   6    7.60    2.50
  -9  -1  -6    3.80    2.20
   9  -1   6    7.00    2.20
   9  -1   6    4.10    1.40
   9  -1   6    2.90    2.10
   9   1   6    4.10    1.90
   9   1   6    2.70    1.80
   9   1   6    4.30    2.20
   9   1   6    3.40    1.20
  -9   1  -6    3.70    2.40
  -9   1  -6    6.20    1.40
  -9   1  -6    4.20    2.40
 -11  -1  -6   40.20    3.30
  11  -1   6   38.80    4.90
  11  -1   6   36.50    3.40
  11  -1   6   42.90    5.00
 -11  -1  -6   51.89    6.00
 -11  -1  -6   40.40    5.20
  11  -1   6   40.10    4.70
  11   1   6   44.70    4.80
 -11   1  -6   38.30    5.80
  11   1   6   35.50    3.20
 -11   1  -6   39.60    3.30
 -11   1  -6   50.69    6.20
  11   1   6   42.80    5.10
  11   1   6   33.70    4.50
 -12  -2   6   13.60    2.50
  12  -2  -6   18.00    3.30
  12  -2  -6   14.40    2.90
 -12  -2   6   20.10    3.10
 -12  -2   6   15.80    2.40
 -12  -2   6   13.30    2.00
  12  -2  -6   16.70    2.20
  12  -2  -6   14.10    1.60
  12   2  -6   14.60    2.00
  12   2  -6   15.60    1.90
 -12   2   6   17.00    2.10
  12   2  -6   15.80    1.20
  12   2  -6   17.30    3.30
 -12   2   6   15.30    2.00
  12   2  -6   15.60    2.90
 -12   2   6   13.90    2.50
 -12   2   6   15.20    2.40
 -10  -2   6   15.20    2.20
  10  -2  -6   13.30    2.20
 -10  -2   6   16.80    2.40
  10  -2  -6   12.80    1.10
  10  -2  -6   15.00    2.30
  10  -2  -6   13.00    1.60
 -10  -2   6   13.50    2.40
 -10  -2   6   11.70    1.70
  10   2  -6   14.20    2.50
  10   2  -6   14.80    2.00
 -10   2   6   14.70    1.70
 -10   2   6   19.70    2.60
 -10   2   6   13.70    1.80
 -10   2   6   16.20    2.30
  10   2  -6   15.70    2.30
  -8  -2   6   21.10    2.80
   8  -2  -6   22.90    2.40
  -8  -2   6   25.80    2.10
   8  -2  -6   24.10    1.60
  -8  -2   6   22.80    2.40
   8  -2  -6   23.20    1.30
  -8  -2   6   22.10    2.00
   8   2  -6   25.10    2.90
  -8   2   6   17.00    2.10
   8   2  -6   20.60    2.20
  -8   2   6   23.90    1.80
  -8   2   6   22.40    1.80
   8   2  -6   23.40    2.60
   8   2  -6   22.70    1.80
  -8   2   6   23.10    2.20
  -6  -2   6  264.77    7.70
  -6  -2   6  271.07    8.50
   6  -2  -6  263.07    7.80
  -6  -2   6  267.87    8.20
  -6  -2   6  264.67    7.50
   6   2  -6  272.87    8.90
  -6   2   6  289.07    7.50
   6   2  -6  265.27    7.30
   6   2  -6  226.58    8.70
  -6   2   6  259.17    8.40
   6   2  -6  270.77    7.50
  -6   2   6  255.57    7.80
  -4  -2   6  155.98    5.20
  -4  -2   6  151.08    5.40
   4  -2  -6  150.68    5.00
  -4  -2   6  157.18    4.90
   4  -2  -6  149.09    4.70
   4  -2  -6  153.48    4.60
  -4   2   6  152.88    4.60
  -4   2   6  153.38    3.90
   4   2  -6  152.48    5.60
   4   2  -6  148.59    5.20
  -4   2   6  156.48    4.40
  -4   2   6  156.18    4.70
   4   2  -6  149.69    4.40
   4   2  -6  156.78    4.50
   4   2  -6  152.98    5.20
   2  -2  -6    6.00    0.80
  -2  -2   6    5.40    0.80
  -2  -2   6    5.50    0.70
   2  -2  -6    6.40    0.70
  -2  -2   6    7.60    1.10
   2  -2  -6    5.70    0.70
   2  -2  -6    7.30    1.00
  -2  -2   6    6.70    1.10
   2   2  -6    5.90    1.10
   2   2  -6    7.30    0.80
   2   2  -6    6.30    1.10
  -2   2   6    6.20    0.80
  -2   2   6    7.20    0.60
   2   2  -6    6.00    0.70
   2   2  -6    5.70    1.20
  -2   2   6    6.10    0.60
   0  -2  -6   39.90    1.70
   0  -2   6   44.30    1.70
   0  -2  -6   42.70    1.70
   0  -2  -6   43.50    1.70
   0  -2  -6   41.70    1.70
   0  -2   6   43.30    2.00
   0  -2   6   41.90    2.50
   0  -2   6   44.50    1.90
   0   2  -6   45.70    1.70
   0   2   6   44.10    1.40
   0   2  -6   44.20    2.50
   0   2  -6   42.20    1.70
   0   2   6   47.00    2.80
   0   2  -6   42.40    2.30
   0   2  -6   44.90    2.60
   0   2   6   42.10    1.50
   2  -2   6  154.48    4.70
   2  -2   6  160.88    5.40
  -2  -2  -6  144.09    4.80
   2  -2   6  151.58    5.30
  -2  -2  -6  152.58    4.70
   2  -2   6  150.28    4.70
   2   2   6  159.98    5.90
   2   2   6  152.08    4.70
   2   2   6  153.98    4.30
  -2   2  -6  150.88    5.30
   2   2   6  155.08    4.70
  -2   2  -6  153.08    4.50
  -2   2  -6  159.88    4.40
  -2   2  -6  156.88    5.40
  -2   2  -6  148.69    5.50
  -4  -2  -6   85.69    3.60
   4  -2   6   94.69    3.30
   4  -2   6   87.39    4.40
   4  -2   6   86.99    4.00
   4  -2   6   88.79    4.00
   4  -2   6   92.29    3.60
  -4  -2  -6   92.99    3.70
   4   2   6   87.69    3.00
  -4   2  -6   88.49    4.20
   4   2   6   85.59    3.50
  -4   2  -6   86.99    3.20
   4   2   6   86.19    3.60
  -4   2  -6   89.59    3.10
   4   2   6   88.89    4.50
  -4   2  -6   87.89    4.10
  -6  -2  -6   35.60    2.90
   6  -2   6   37.80    3.60
  -6  -2  -6   32.80    1.70
   6  -2   6   35.50    2.30
  -6  -2  -6   34.40    1.60
  -6  -2  -6   33.00    3.30
   6  -2   6   33.10    3.00
   6  -2   6   38.40    2.20
   6  -2   6   35.70    3.00
  -6   2  -6   37.60    3.40
  -6   2  -6   37.30    2.40
  -6   2  -6   38.10    2.10
  -6   2  -6   39.00    3.30
   6   2   6   29.70    3.10
   6   2   6   34.20    2.80
   6   2   6   37.30    2.10
  -8  -2  -6   77.09    4.60
  -8  -2  -6   72.69    4.50
   8  -2   6   69.79    4.50
   8  -2   6   71.49    3.50
  -8  -2  -6   72.99    3.00
   8  -2   6   78.59    4.90
   8  -2   6   73.29    4.70
   8  -2   6   72.09    3.50
  -8  -2  -6   83.19    5.20
  -8   2  -6   67.89    4.90
   8   2   6   77.49    3.40
  -8   2  -6   78.09    3.40
  -8   2  -6   80.79    4.90
   8   2   6   73.79    4.30
   8   2   6   63.29    4.60
   8   2   6   72.69    4.30
 -10  -2  -6   -1.60    2.40
  10  -2   6    5.70    2.50
 -10  -2  -6    0.70    2.50
  10  -2   6    1.10    2.30
  10  -2   6    3.40    2.60
 -10  -2  -6   -1.60    2.40
  10  -2   6    1.40    1.40
 -10  -2  -6    4.60    1.40
  10  -2   6    2.60    1.70
 -10   2  -6    2.00    2.80
 -10   2  -6    5.60    3.00
 -10   2  -6    2.60    1.50
  10   2   6    2.40    2.10
  10   2   6   -0.10    2.00
  10   2   6    3.20    1.40
  10   2   6    1.50    2.10
 -13  -3   6   13.80    2.50
 -13  -3   6   11.60    3.20
  13  -3  -6   10.00    1.70
 -13  -3   6   13.00    2.20
  13  -3  -6   10.80    1.40
  13  -3  -6    6.70    3.20
 -13  -3   6   13.00    2.70
  13  -3  -6    5.30    3.10
 -13   3   6   10.30    2.20
 -13   3   6   10.20    2.00
  13   3  -6    4.70    3.00
  13   3  -6   11.00    2.10
  13   3  -6   12.40    1.50
 -13   3   6    8.20    2.40
 -13   3   6   12.30    2.70
  13   3  -6   12.30    1.70
 -11  -3   6    8.10    1.70
  11  -3  -6    7.60    1.20
 -11  -3   6    8.50    2.50
  11  -3  -6    6.20    2.10
 -11  -3   6    4.20    2.00
 -11  -3   6    6.40    1.70
  11  -3  -6    6.00    2.10
  11  -3  -6    5.10    1.00
  11   3  -6    5.60    2.10
 -11   3   6    4.40    1.70
 -11   3   6    7.10    1.90
 -11   3   6    5.80    1.40
  11   3  -6    6.10    0.70
 -11   3   6    6.50    1.50
  11   3  -6    8.90    2.50
  11   3  -6    6.80    1.60
  11   3  -6    7.10    1.00
  -9  -3   6   28.60    3.00
   9  -3  -6   31.80    2.90
  -9  -3   6   31.30    2.50
  -9  -3   6   32.60    3.40
   9  -3  -6   29.80    2.90
   9  -3  -6   30.40    1.60
  -9  -3   6   32.80    2.50
   9  -3  -6   29.60    1.50
   9  -3  -6   28.40    1.90
  -9   3   6   32.20    2.20
  -9   3   6   27.60    2.50
   9   3  -6   33.00    2.40
   9   3  -6   33.90    3.30
  -9   3   6   36.40    2.20
  -9   3   6   27.50    2.70
   9   3  -6   31.50    3.10
   9   3  -6   31.50    2.80
   7  -3  -6  225.48    7.10
  -7  -3   6  234.68    6.90
   7  -3  -6  214.88    7.10
  -7  -3   6  224.18    7.10
  -7  -3   6  230.48    8.20
  -7   3   6  236.98    6.60
  -7   3   6  227.98    6.90
   7   3  -6  216.68    8.40
   7   3  -6  224.28    6.70
  -7   3   6  225.18    6.40
   7   3  -6  221.28    7.60
   7   3  -6  225.68    6.90
   7   3  -6  229.28    7.80
   5  -3  -6   27.80    1.80
  -5  -3   6   31.70    2.00
  -5  -3   6   28.20    2.30
   5  -3  -6   28.00    1.80
  -5  -3   6   28.80    2.50
   5   3  -6   29.60    2.30
  -5   3   6   29.00    1.80
  -5   3   6   28.20    1.40
   5   3  -6   25.30    2.40
   5   3  -6   27.50    1.70
   5   3  -6   29.70    2.90
   5   3  -6   28.00    1.80
  -5   3   6   28.10    1.00
  -5   3   6   31.10    1.70
   3  -3  -6  273.57    7.40
  -3  -3   6  283.97    8.40
  -3  -3   6  277.07    7.30
  -3  -3   6  288.77    8.20
   3  -3  -6  282.47    7.40
   3  -3  -6  269.17    7.50
  -3  -3   6  277.07    8.00
  -3   3   6  275.67    7.20
   3   3  -6  287.77    8.60
   3   3  -6  286.27    8.50
   3   3  -6  288.97    7.60
   3   3  -6  275.37    7.70
  -3   3   6  287.07    7.20
   3   3  -6  287.77    8.40
  -3   3   6  285.17    7.40
   3   3  -6  278.67    8.70
  -1  -3   6   33.60    2.50
  -1  -3   6   34.20    1.50
  -1  -3   6   33.30    1.90
  -1  -3   6   32.50    1.80
   1   3  -6   32.30    2.20
  -1   3   6   33.40    2.40
  -1   3   6   34.50    1.80
   1   3  -6   30.70    2.40
  -1   3   6   33.30    1.00
   1   3  -6   32.60    2.50
   1   3  -6   34.20    1.60
   1   3  -6   35.50    2.30
   1   3  -6   33.40    1.50
  -1  -3  -6  272.37    7.20
   1  -3   6  273.07    8.40
  -1  -3  -6  273.67    7.20
   1  -3   6  274.27    7.70
   1  -3   6  281.87    8.40
  -1  -3  -6  273.87    7.20
   1  -3   6  274.47    7.50
   1   3   6  268.77    7.00
   1   3   6  273.57    8.60
  -1   3  -6  269.97    7.50
  -1   3  -6  271.37    8.40
  -1   3  -6  281.57    8.30
   1   3   6  282.97    7.20
  -1   3  -6  267.17    8.40
   1   3   6  273.57    7.10
  -1   3  -6  277.07    7.40
   3  -3   6  116.09    3.90
  -3  -3  -6  118.39    4.00
   3  -3   6  113.79    3.90
   3  -3   6  111.59    5.00
   3  -3   6  113.89    4.70
  -3  -3  -6  114.79    3.90
   3  -3   6  115.29    4.70
   3   3   6  121.09    4.00
  -3   3  -6  113.29    3.90
   3   3   6  116.59    3.50
  -3   3  -6  116.19    4.80
   3   3   6  117.99    3.90
  -3   3  -6  118.79    4.70
  -3   3  -6  120.69    3.80
  -3   3  -6  120.09    4.90
   3   3   6  109.39    5.00
   5  -3   6  383.86   11.80
  -5  -3  -6  386.46   11.00
  -5  -3  -6  378.06   11.00
   5  -3   6  396.26   11.90
   5  -3   6  355.06   12.90
   5  -3   6  409.66   10.90
   5  -3   6  398.96   12.50
   5   3   6  395.36   11.10
   5   3   6  402.96   11.20
  -5   3  -6  400.96   10.60
  -5   3  -6  394.26   12.00
   5   3   6  388.36   14.50
   5   3   6  370.26   10.40
  -5   3  -6  396.86   10.90
  -5   3  -6  398.56   11.90
   7  -3   6  582.74   17.40
   7  -3   6  609.74   17.50
  -7  -3  -6  620.44   16.70
  -7  -3  -6  565.94   15.20
   7  -3   6  602.14   16.20
  -7  -3  -6  587.24   17.70
  -7  -3  -6  601.74   15.20
   7  -3   6  610.24   16.20
   7  -3   6  596.14   17.60
   7   3   6  585.64   17.50
  -7   3  -6  613.34   15.90
  -7   3  -6  633.14   17.50
   7   3   6  592.54   16.70
  -7   3  -6  601.74   17.50
  -9  -3  -6   13.80    1.90
   9  -3   6   12.30    1.80
   9  -3   6   16.90    2.90
  -9  -3  -6   12.30    2.60
  -9  -3  -6   13.80    2.70
   9  -3   6   12.10    2.50
   9  -3   6   11.90    2.60
  -9  -3  -6   11.90    2.80
   9  -3   6   10.60    1.50
   9   3   6    7.30    2.10
  -9   3  -6   15.10    3.00
  -9   3  -6   12.40    1.70
   9   3   6   14.40    2.40
   9   3   6   11.50    2.50
   9   3   6   13.00    1.70
  11  -3   6   90.09    5.40
  11  -3   6   94.19    6.60
 -11  -3  -6   84.19    8.60
  11  -3   6   85.39    6.30
 -11  -3  -6   86.09    4.20
  11  -3   6   84.89    6.40
 -11  -3  -6   91.69    6.60
 -11   3  -6   87.59    4.60
  11   3   6   82.29    6.00
  11   3   6   95.69    6.40
 -11   3  -6  103.49    7.60
  11   3   6   83.69    5.60
 -11   3  -6   77.19    6.70
  11   3   6   90.29    4.50
  12  -4  -6    9.10    2.40
  12  -4  -6    6.40    1.30
 -12  -4   6    0.90    2.60
 -12  -4   6    6.30    2.30
  12  -4  -6    5.40    1.20
  12  -4  -6    6.00    2.40
 -12  -4   6    9.90    1.90
 -12  -4   6    5.30    2.00
  12   4  -6    5.00    1.70
 -12   4   6   11.60    1.80
  12   4  -6    7.30    1.00
  12   4  -6    7.10    1.40
  12   4  -6    8.20    2.60
 -12   4   6    2.90    2.80
 -12   4   6    5.20    2.00
  12   4  -6    5.10    2.60
 -12   4   6    3.10    1.90
 -10  -4   6   95.99    4.40
 -10  -4   6   88.19    4.90
  10  -4  -6   91.59    4.80
 -10  -4   6   97.99    5.50
  10  -4  -6   92.69    4.80
  10  -4  -6   93.69    3.10
 -10  -4   6   99.59    4.50
  10  -4  -6   98.69    3.30
 -10   4   6   89.79    3.90
 -10   4   6   92.79    4.40
 -10   4   6   95.39    3.80
  10   4  -6   99.99    4.70
  10   4  -6   97.59    4.10
  10   4  -6   92.09    5.30
  10   4  -6   93.89    3.10
  10   4  -6   92.69    5.10
 -10   4   6   83.99    4.60
  -8  -4   6  530.75   15.30
  -8  -4   6  547.55   15.70
  -8  -4   6  526.75   14.60
   8  -4  -6  509.55   13.50
  -8  -4   6  529.45   14.40
   8  -4  -6  536.35   14.70
   8  -4  -6  520.85   14.70
   8   4  -6  544.65   14.60
   8   4  -6  512.25   15.20
  -8   4   6  522.45   13.70
  -8   4   6  536.15   14.50
  -8   4   6  517.15   14.00
   8   4  -6  537.45   14.20
  -8   4   6  499.35   14.50
   8   4  -6  558.44   15.60
   8   4  -6  525.95   16.30
   8   4  -6  526.95   13.10
  -6  -4   6  815.62   20.50
  -6  -4   6  774.22   20.10
  -6  -4   6  777.22   21.30
   6  -4  -6  762.42   20.10
   6  -4  -6  790.72   20.10
  -6  -4   6  777.32   21.00
  -6   4   6  767.72   20.10
   6   4  -6  771.22   21.00
   6   4  -6  773.02   21.10
  -6   4   6  792.02   20.00
   6   4  -6  800.92   20.30
   6   4  -6  811.22   20.10
   6   4  -6  759.12   19.10
   6   4  -6  773.02   21.70
  -6   4   6  776.62   19.20
  -6   4   6  769.52   19.70
  -4  -4   6  466.85   12.70
  -4  -4   6  472.55   13.50
   4  -4  -6  454.95   11.90
  -4  -4   6  467.25   13.10
   4  -4  -6  454.25   11.90
  -4  -4   6  451.85   11.90
  -4   4   6  463.35   11.70
   4   4  -6  467.05   13.50
   4   4  -6  454.95   11.60
  -4   4   6  469.35   11.90
   4   4  -6  473.05   12.30
   4   4  -6  456.65   13.00
   4   4  -6  480.95   13.30
   4   4  -6  474.05   12.30
  -4   4   6  467.55   11.80
  -4   4   6  465.05   11.70
  -2  -4   6  265.87    7.90
  -2  -4   6  276.27    8.40
  -2  -4   6  277.17    7.30
  -2  -4   6  277.77    7.90
  -2  -4   6  274.27    8.80
   2   4  -6  268.37    7.50
   2   4  -6  269.17    8.50
   2   4  -6  268.67    8.30
   2   4  -6  266.47    8.60
  -2   4   6  279.97    8.30
  -2   4   6  277.87    7.60
   2   4  -6  271.87    8.50
   2   4  -6  269.77    7.60
   0  -4   6  808.22   20.70
   0  -4   6  784.02   20.20
   0  -4   6  799.02   20.80
   0  -4   6  827.92   21.60
   0   4  -6  801.92   21.50
   0   4   6  817.82   20.90
   0   4  -6  791.72   20.40
   0   4  -6  796.12   20.30
   0   4  -6  809.92   21.20
   0   4  -6  772.62   21.30
   0   4   6  837.12   21.40
   0   4  -6  808.62   21.40
   2  -4   6   78.59    3.90
  -2  -4  -6   79.59    2.60
  -2  -4  -6   78.79    2.70
   2  -4   6   82.79    3.20
   2  -4   6   81.39    3.00
   2  -4   6   77.19    3.70
   2   4   6   81.99    2.40
  -2   4  -6   81.79    2.90
   2   4   6   82.89    4.00
  -2   4  -6   74.29    3.70
   2   4   6   81.69    2.60
  -2   4  -6   80.79    4.10
   2   4   6   78.19    2.50
  -2   4  -6   80.29    3.10
  -2   4  -6   82.89    4.00
  -4  -4  -6   30.10    2.00
   4  -4   6   27.20    3.00
  -4  -4  -6   30.80    2.10
   4  -4   6   27.80    2.90
   4  -4   6   25.70    3.20
   4  -4   6   30.40    2.70
   4  -4   6   30.70    2.40
  -4   4  -6   30.70    3.10
  -4   4  -6   30.80    2.90
   4   4   6   29.40    2.00
   4   4   6   30.40    1.60
   4   4   6   29.20    2.90
  -4   4  -6   29.90    1.90
  -4   4  -6   30.60    2.20
   4   4   6   30.80    2.00
   6  -4   6   24.80    2.90
  -6  -4  -6   28.10    2.50
   6  -4   6   28.50    2.20
   6  -4   6   27.20    3.10
  -6  -4  -6   27.60    3.40
   6  -4   6   28.80    3.40
   6  -4   6   26.60    2.20
  -6  -4  -6   27.90    2.60
   6   4   6   26.60    3.00
   6   4   6   27.70    1.80
  -6   4  -6   26.50    2.10
   6   4   6   28.70    2.40
   6   4   6   28.80    2.50
  -6   4  -6   26.40    2.40
  -6   4  -6   25.40    3.30
  -6   4  -6   24.30    2.90
  -8  -4  -6    4.40    0.90
   8  -4   6    4.80    1.20
   8  -4   6    3.30    2.10
  -8  -4  -6    1.50    2.40
  -8  -4  -6    4.00    1.90
   8  -4   6    7.50    1.40
   8  -4   6    4.90    1.90
   8  -4   6    7.60    2.30
  -8   4  -6    2.20    1.20
   8   4   6    4.20    1.60
   8   4   6    4.10    2.10
   8   4   6    3.20    1.00
  -8   4  -6    5.10    2.50
  -8   4  -6    4.40    2.40
  10  -4   6   21.60    3.10
  10  -4   6   25.20    3.20
  10  -4   6   29.80    3.90
 -10  -4  -6   27.40    2.50
  10  -4   6   28.50    3.80
 -10  -4  -6   24.00    4.00
  10  -4   6   24.70    3.50
 -10  -4  -6   27.60    3.50
 -10  -4  -6   41.40    4.70
  10   4   6   35.10    4.10
 -10   4  -6   23.80    3.90
 -10   4  -6   37.60    4.70
 -10   4  -6   24.90    2.90
  10   4   6   26.20    3.30
  10   4   6   26.60    2.80
  10   4   6   26.70    3.30
 -13  -5   6   -0.20    1.90
 -13  -5   6   -2.00    3.50
 -13  -5   6    3.20    2.60
  13  -5  -6    0.30    1.50
 -13  -5   6    3.10    3.30
 -13   5   6   -0.70    2.80
  13   5  -6    0.40    3.20
 -13   5   6   -2.40    2.30
 -13   5   6    1.30    2.10
  13   5  -6    1.50    1.90
 -13   5   6   -2.10    1.50
  13   5  -6    0.80    1.60
 -11  -5   6    3.60    1.70
 -11  -5   6    1.90    1.90
 -11  -5   6    3.80    1.50
 -11  -5   6   -1.90    2.20
  11  -5  -6    0.10    2.00
  11  -5  -6    4.70    1.20
  11  -5  -6    2.60    0.90
  11  -5  -6    4.50    2.10
  11   5  -6    2.90    1.10
  11   5  -6    6.10    2.40
 -11   5   6    2.40    1.20
  11   5  -6    1.80    1.80
 -11   5   6    2.20    1.20
  11   5  -6    2.40    1.50
  11   5  -6   -1.50    1.90
 -11   5   6    3.30    1.70
 -11   5   6    4.80    1.80
  -9  -5   6   16.60    2.60
   9  -5  -6   14.50    2.20
  -9  -5   6   15.10    2.50
  -9  -5   6   12.80    1.80
   9  -5  -6   12.50    1.40
  -9  -5   6   12.90    1.80
   9  -5  -6   14.80    2.10
  -9   5   6   15.10    1.80
  -9   5   6   12.00    1.80
   9   5  -6   10.40    2.20
  -9   5   6   15.00    1.50
   9   5  -6   17.40    2.20
   9   5  -6   15.80    3.30
   9   5  -6   14.00    1.40
   9   5  -6   14.40    1.80
   9   5  -6   14.40    2.40
  -9   5   6   16.40    2.00
  -7  -5   6    2.50    1.90
  -7  -5   6    3.60    1.50
   7  -5  -6    5.30    0.90
   7  -5  -6    2.90    1.20
  -7  -5   6    1.50    1.00
  -7  -5   6    2.00    1.00
  -7   5   6    3.20    1.00
  -7   5   6    3.00    0.70
   7   5  -6    3.50    1.80
   7   5  -6    3.40    1.40
  -7   5   6    3.50    1.00
   7   5  -6    4.00    0.70
   7   5  -6    5.30    2.40
   7   5  -6    2.10    1.20
   7   5  -6    3.10    1.20
  -7   5   6    4.30    0.80
  -7   5   6    2.40    0.60
  -5  -5   6  154.18    5.00
  -5  -5   6  161.58    5.90
  -5  -5   6  150.68    4.60
   5  -5  -6  153.08    4.80
   5  -5  -6  150.58    4.70
  -5  -5   6  151.28    5.30
  -5  -5   6  157.68    6.20
   5   5  -6  150.58    6.30
  -5   5   6  154.08    4.60
   5   5  -6  152.38    4.30
  -5   5   6  158.28    4.50
  -5   5   6  156.98    4.40
   5   5  -6  158.98    5.10
   5   5  -6  134.59    8.20
   5   5  -6  157.58    5.20
  -5   5   6  151.28    4.40
   5   5  -6  156.08    5.80
  -3  -5   6  692.73   17.70
  -3  -5   6  711.13   18.40
  -3  -5   6  689.83   18.90
   3   5  -6  681.03   17.40
   3   5  -6  679.23   19.20
   3   5  -6  690.23   19.00
   3   5  -6  700.73   18.10
   3   5  -6  691.53   19.00
  -3   5   6  716.13   18.40
  -3   5   6  724.93   17.80
  -3   5   6  663.93   17.10
   3   5  -6  711.43   18.00
   3   5  -6  717.43   19.00
  -1  -5   6  250.47    7.40
  -1  -5   6  238.98    6.80
  -1  -5   6  238.28    8.20
  -1  -5   6  241.68    7.30
   1   5  -6  242.38    8.10
  -1   5   6  247.08    7.20
   1   5  -6  247.48    8.00
   1   5  -6  244.78    6.90
   1   5  -6  244.28    6.70
  -1   5   6  250.17    7.60
   1   5  -6  241.08    7.10
   1   5  -6  244.78    8.00
   1   5  -6  236.78    7.70
   1  -5   6   45.80    3.20
   1  -5   6   51.39    3.20
   1  -5   6   50.29    2.30
   1  -5   6   52.69    2.60
   1   5   6   51.99    2.90
   1   5   6   49.40    1.50
  -1   5  -6   50.59    3.40
   1   5   6   51.89    3.10
  -1   5  -6   53.89    3.50
  -1   5  -6   55.99    3.40
  -1   5  -6   49.60    2.50
  -1   5  -6   52.09    2.30
   3  -5   6    1.30    0.80
   3  -5   6    3.50    1.30
  -3  -5  -6    2.00    0.70
   3  -5   6    2.20    1.30
  -3  -5  -6    1.70    0.80
   3   5   6    1.30    0.60
  -3   5  -6    0.80    1.50
   3   5   6    2.40    0.70
  -3   5  -6    2.60    1.40
  -3   5  -6    2.10    1.40
  -3   5  -6    1.40    0.80
   3   5   6    2.30    0.60
  -3   5  -6    0.80    0.90
   3   5   6    2.10    1.30
   5  -5   6   48.80    4.20
   5  -5   6   50.99    2.70
  -5  -5  -6   44.50    2.70
   5  -5   6   44.80    3.60
   5  -5   6   48.80    2.70
   5  -5   6   46.90    3.70
  -5  -5  -6   45.30    2.70
  -5  -5  -6   52.59    3.90
   5   5   6   44.90    2.20
  -5   5  -6   43.30    3.70
  -5   5  -6   47.00    2.50
   5   5   6   49.20    2.60
  -5   5  -6   52.79    4.00
   5   5   6   51.29    2.80
  -5   5  -6   48.30    2.90
   5   5   6   46.00    3.50
   7  -5   6   33.60    2.60
   7  -5   6   32.60    3.90
   7  -5   6   36.60    3.60
  -7  -5  -6   26.20    2.90
   7  -5   6   24.80    3.80
  -7  -5  -6   29.00    4.10
   7  -5   6   29.10    2.40
  -7  -5  -6   31.60    3.10
   7   5   6   28.80    3.10
   7   5   6   31.30    3.30
  -7   5  -6   30.70    2.40
  -7   5  -6   38.30    4.30
  -7   5  -6   38.50    2.90
   7   5   6   37.10    3.70
   7   5   6   30.90    2.90
  -7   5  -6   38.00    4.00
   9  -5   6    8.70    1.80
   9  -5   6    7.80    1.70
   9  -5   6   10.00    2.70
   9  -5   6    9.10    2.70
  -9  -5  -6   10.00    3.00
  -9  -5  -6    9.30    1.20
   9  -5   6   12.00    3.00
  -9  -5  -6   10.00    2.50
   9   5   6    8.70    2.30
   9   5   6   11.90    2.50
   9   5   6   11.60    2.50
  -9   5  -6    7.30    3.30
  -9   5  -6    9.00    1.70
  -9   5  -6    9.60    3.00
   9   5   6    8.60    1.60
  12  -6  -6   30.30    3.00
 -12  -6   6   41.90    5.80
  12  -6  -6   29.10    5.40
 -12  -6   6   25.90    3.50
 -12  -6   6   26.70    3.30
  12  -6  -6   30.00    2.10
 -12  -6   6   19.20    3.10
  12  -6  -6   31.30    3.80
  12   6  -6   32.60    2.80
  12   6  -6   28.60    3.90
 -12   6   6   29.20    3.80
  12   6  -6   31.50    4.10
 -12   6   6   28.20    3.00
 -12   6   6   27.50    2.70
 -12   6   6   31.40    3.50
  12   6  -6   29.50    3.50
  12   6  -6   17.90    3.30
  12   6  -6   31.70    4.70
  10  -6  -6   18.00    2.50
 -10  -6   6   23.20    2.90
 -10  -6   6   18.80    2.50
 -10  -6   6   19.20    3.20
  10  -6  -6   20.00    2.20
  10  -6  -6   20.10    2.60
 -10  -6   6   24.80    3.20
  10   6  -6   20.10    3.20
 -10   6   6   20.20    2.40
  10   6  -6   18.40    2.30
 -10   6   6   19.10    1.90
  10   6  -6   23.60    2.00
  10   6  -6   21.00    3.70
  10   6  -6   20.70    3.00
 -10   6   6   16.80    2.30
  10   6  -6   24.70    2.70
 -10   6   6   20.60    2.20
  -8  -6   6   96.99    4.90
  -8  -6   6   99.79    4.30
   8  -6  -6   97.59    4.30
  -8  -6   6   93.99    4.20
  -8  -6   6   94.99    5.40
   8  -6  -6   90.59    4.20
   8  -6  -6   89.09    3.60
   8   6  -6   97.69    4.10
  -8   6   6   86.39    4.00
   8   6  -6   98.79    5.20
  -8   6   6   90.19    3.20
   8   6  -6   92.49    4.40
   8   6  -6   93.69    3.20
   8   6  -6   93.69    5.90
   8   6  -6   97.29    5.00
  -8   6   6   95.49    3.10
  -8   6   6   93.69    3.60
  -6  -6   6  511.45   15.00
   6  -6  -6  516.85   13.80
  -6  -6   6  503.65   14.40
   6  -6  -6  521.85   13.90
  -6  -6   6  509.75   16.20
  -6  -6   6  536.95   14.10
   6  -6  -6  483.05   13.70
   6   6  -6  520.65   14.20
  -6   6   6  517.65   13.40
  -6   6   6  525.55   13.30
   6   6  -6  523.05   13.20
  -6   6   6  523.85   13.10
   6   6  -6  506.85   15.20
   6   6  -6  531.15   15.00
   6   6  -6  518.25   14.10
  -6   6   6  527.65   13.50
   6   6  -6  539.65   15.80
   4  -6  -6  645.14   16.80
   4  -6  -6  654.83   16.70
  -4  -6   6  665.23   18.60
  -4  -6   6  686.63   18.00
  -4  -6   6  668.23   17.30
   4   6  -6  694.63   19.10
   4   6  -6  683.23   18.80
   4   6  -6  682.63   17.00
  -4   6   6  685.33   17.20
  -4   6   6  658.53   16.70
  -4   6   6  679.03   17.60
   4   6  -6  657.43   18.40
  -4   6   6  675.33   16.60
   4   6  -6  675.53   17.70
   4   6  -6  687.33   17.70
  -2  -6   6  128.29    4.70
  -2  -6   6  127.39    5.70
  -2  -6   6  136.39    5.30
  -2  -6   6  128.39    4.30
  -2  -6   6  129.79    4.90
   2   6  -6  134.19    4.40
   2   6  -6  132.89    5.60
   2   6  -6  133.49    4.00
   2   6  -6  134.09    4.60
   2   6  -6  130.59    5.20
  -2   6   6  132.29    4.50
   2   6  -6  131.69    5.40
  -2   6   6  128.39    4.70
   2   6  -6  138.29    5.70
   0  -6   6  312.37    9.30
   0  -6   6  324.67    8.90
   0  -6   6  310.97   10.20
   0   6  -6  317.27    8.70
   0   6   6  320.77    9.40
   0   6  -6  322.27   10.20
   0   6  -6  307.67    9.80
   0   6  -6  315.57   10.10
   0   6  -6  330.17    9.20
   0   6   6  325.77    9.60
   0   6  -6  324.27    8.90
   0   6  -6  328.07   10.20
   2  -6   6  163.18    6.40
  -2  -6  -6  167.58    4.60
   2  -6   6  175.28    5.40
   2  -6   6  170.28    6.60
   2  -6   6  173.88    5.70
  -2  -6  -6  161.88    4.50
   2   6   6  169.68    4.60
   2   6   6  179.18    6.30
  -2   6  -6  170.98    6.70
  -2   6  -6  173.68    5.70
  -2   6  -6  171.58    6.30
   2   6   6  168.58    6.10
  -2   6  -6  174.08    6.70
  -2   6  -6  167.38    5.30
   4  -6   6   49.10    4.30
   4  -6   6   56.59    3.00
   4  -6   6   56.79    3.90
  -4  -6  -6   51.99    2.50
   4  -6   6   51.29    2.70
  -4  -6  -6   48.50    3.90
   4  -6   6   50.49    3.70
  -4   6  -6   59.69    4.30
   4   6   6   52.89    2.20
   4   6   6   49.90    2.50
   4   6   6   47.80    2.50
  -4   6  -6   53.49    3.70
  -4   6  -6   59.19    4.00
  -4   6  -6   51.59    2.70
  -4   6  -6   56.49    3.10
   4   6   6   43.10    3.70
  -6  -6  -6   21.30    2.50
   6  -6   6   22.00    2.30
   6  -6   6   19.20    2.90
  -6  -6  -6   23.30    2.60
   6  -6   6   22.70    3.30
  -6  -6  -6   24.10    3.20
   6  -6   6   20.70    2.90
   6  -6   6   21.80    2.10
  -6   6  -6   19.60    2.90
  -6   6  -6   31.40    4.10
  -6   6  -6   25.60    2.20
   6   6   6   23.10    2.30
   6   6   6   23.60    3.00
   6   6   6   18.50    2.40
   6   6   6   20.40    1.80
  -6   6  -6   21.60    2.60
   8  -6   6   98.39    5.90
  -8  -6  -6   86.99    4.70
  -8  -6  -6   89.59    6.10
   8  -6   6   98.79    5.70
   8  -6   6   87.79    5.80
   8  -6   6   88.39    4.20
  -8  -6  -6   87.19    4.80
   8  -6   6   90.49    4.30
  -8   6  -6   84.89    4.10
   8   6   6   83.39    4.70
   8   6   6  101.79    4.70
  -8   6  -6   87.69    6.40
   8   6   6   88.69    3.90
  -8   6  -6   92.39    4.70
   8   6   6   92.29    5.40
  -8   6  -6   90.79    5.90
  10  -6   6   38.60    5.30
  10  -6   6   39.50    4.60
 -10  -6  -6   37.40    4.90
  10  -6   6   39.70    5.30
 -10  -6  -6   42.10    2.30
 -10   6  -6   37.20    4.90
  10   6   6   38.40    4.50
  10   6   6   41.10    3.20
  10   6   6   37.40    4.20
 -10   6  -6   38.80    5.50
 -10   6  -6   35.00    3.40
  10   6   6   33.80    4.50
  11  -7  -6   25.80    3.00
 -11  -7   6   21.70    3.70
 -11  -7   6   30.30    3.30
  11  -7  -6   20.30    3.00
 -11  -7   6   25.00    3.10
 -11  -7   6   20.20    3.10
  11  -7  -6   19.60    2.80
  11   7  -6   24.00    2.60
  11   7  -6   15.10    4.20
 -11   7   6   18.20    2.50
 -11   7   6   22.00    2.10
  11   7  -6   21.00    3.30
 -11   7   6   23.20    2.70
 -11   7   6   16.10    2.60
  11   7  -6   22.40    2.90
  11   7  -6   18.70    2.40
  11   7  -6   20.60    3.20
  -9  -7   6  119.09    5.30
   9  -7  -6  126.49    5.40
  -9  -7   6  120.39    6.00
  -9  -7   6  122.19    6.70
   9  -7  -6  128.79    5.50
  -9  -7   6  126.19    5.40
   9  -7  -6  118.19    4.70
   9   7  -6  121.69    5.40
   9   7  -6  124.19    6.10
   9   7  -6  126.09    6.40
  -9   7   6  120.89    3.90
  -9   7   6  121.09    4.90
   9   7  -6  125.09    4.20
   9   7  -6  131.19    5.10
  -9   7   6  122.79    5.10
   9   7  -6  134.39    7.30
  -9   7   6  123.19    4.00
  -7  -7   6   30.70    3.20
  -7  -7   6   29.10    3.80
   7  -7  -6   26.20    2.30
  -7  -7   6   23.80    2.50
   7  -7  -6   24.90    2.30
   7  -7  -6   31.10    2.60
  -7  -7   6   27.50    2.50
   7   7  -6   30.00    2.70
  -7   7   6   32.50    2.30
  -7   7   6   28.60    1.70
  -7   7   6   30.00    1.80
   7   7  -6   30.70    1.90
   7   7  -6   32.40    3.60
  -7   7   6   32.10    2.10
  -7   7   6   29.20    1.40
   7   7  -6   30.70    2.60
   7   7  -6   29.60    4.10
   7   7  -6   26.40    3.20
   5  -7  -6  210.18    6.20
  -5  -7   6  215.08    6.60
  -5  -7   6  200.98    6.40
  -5  -7   6  206.48    7.00
  -5  -7   6  218.28    7.60
   5  -7  -6  201.38    6.70
   5  -7  -6  205.58    6.10
  -5  -7   6  212.28    8.20
  -5   7   6  208.78    5.80
   5   7  -6  217.48    7.60
   5   7  -6  220.58    8.30
   5   7  -6  224.58    8.00
   5   7  -6  216.48    6.90
   5   7  -6  227.58    7.50
   5   7  -6  215.38    6.00
   5   7  -6  212.48    8.00
  -5   7   6  208.88    6.30
  -5   7   6  216.28    6.20
  -5   7   6  209.38    6.00
  -5   7   6  219.78    5.80
  -3  -7   6  176.98    5.60
   3   7  -6  157.98    6.20
   3   7  -6  179.78    6.60
  -3   7   6  184.78    5.80
   3   7  -6  175.78    7.00
   3   7  -6  187.88    5.80
   3   7  -6  177.88    7.00
  -3   7   6  178.68    4.70
  -3   7   6  183.78    5.60
   3   7  -6  188.98    5.30
  -1  -7   6   29.80    2.50
  -1  -7   6   28.50    1.90
  -1  -7   6   25.70    2.30
  -1  -7   6   27.60    3.20
   1   7  -6   28.60    3.10
  -1   7   6   29.90    2.20
   1   7  -6   30.60    2.00
  -1   7   6   29.10    2.30
   1   7  -6   32.10    1.80
   1   7  -6   26.50    3.20
   1   7  -6   32.10    3.10
   1   7  -6   29.30    2.70
   1   7  -6   29.80    2.20
   1  -7   6  314.37   10.00
   1  -7   6  311.07   10.30
   1  -7   6  311.17    8.80
   1  -7   6  299.57    9.10
  -1   7  -6  330.67   10.30
   1   7   6  320.87    9.50
   1   7   6  321.57    9.50
  -1   7  -6  313.77    8.60
  -1   7  -6  305.97    8.80
  -1   7  -6  278.47    9.60
   1   7   6  303.77    7.80
  -1   7  -6  299.57    9.70
  -1   7  -6  293.97   10.00
   3  -7   6  185.98    5.90
  -3  -7  -6  173.78    5.20
   3  -7   6  185.78    7.10
   3  -7   6  177.48    6.10
   3  -7   6  182.48    7.20
  -3  -7  -6  176.28    5.20
  -3  -7  -6  169.78    7.20
  -3   7  -6  192.48    7.40
   3   7   6  174.18    7.50
  -3   7  -6  184.48    7.00
   3   7   6  183.18    6.70
  -3   7  -6  181.58    6.20
  -3   7  -6  186.08    5.80
   3   7   6  178.78    5.10
  -3   7  -6  181.98    7.30
   3   7   6  182.78    5.20
   3   7   6  182.28    5.00
   3   7   6  171.88    5.00
  -5  -7  -6  479.85   14.30
   5  -7   6  459.35   14.40
  -5  -7  -6  453.15   12.60
  -5  -7  -6  458.75   12.60
   5  -7   6  460.95   13.00
   5  -7   6  447.36   14.10
   5  -7   6  478.75   13.00
   5  -7   6  453.65   14.30
  -5   7  -6  467.45   12.80
   5   7   6  471.35   12.70
  -5   7  -6  459.15   14.40
   5   7   6  453.15   14.00
   5   7   6  468.45   12.30
  -5   7  -6  459.25   14.50
   5   7   6  461.05   12.60
   5   7   6  440.56   13.80
  -5   7  -6  467.35   14.10
  -5   7  -6  467.05   13.20
   7  -7   6  183.08    6.60
   7  -7   6  184.28    8.00
  -7  -7  -6  189.18    6.80
  -7  -7  -6  187.18    8.30
  -7  -7  -6  190.18    6.70
   7  -7   6  195.28    7.90
   7  -7   6  185.58    8.20
   7  -7   6  187.68    6.60
   7   7   6  179.68    6.00
  -7   7  -6  180.68    6.90
   7   7   6  191.28    6.80
  -7   7  -6  188.68    6.40
   7   7   6  182.48    7.60
  -7   7  -6  185.88    8.50
  -7   7  -6  193.48    8.20
   7   7   6  194.18    6.70
  -9  -7  -6   25.80    3.30
   9  -7   6   22.30    3.70
   9  -7   6   26.20    3.90
   9  -7   6   23.10    3.20
  -9  -7  -6   23.60    4.10
   9  -7   6   23.80    3.20
  -9  -7  -6   30.80    3.40
   9  -7   6   24.20    3.60
  -9   7  -6   20.20    3.60
  -9   7  -6   23.80    3.00
   9   7   6   22.50    2.90
   9   7   6   21.30    2.60
  -9   7  -6   38.20    5.00
   9   7   6   26.80    3.60
   9   7   6   23.90    3.40
 -10  -8   6    8.20    1.90
  10  -8  -6    5.50    2.10
 -10  -8   6    7.10    2.20
  10  -8  -6    8.90    2.50
 -10  -8   6    2.90    2.30
 -10  -8   6    8.20    3.30
  10  -8  -6    9.80    2.00
  10   8  -6    6.50    2.70
  10   8  -6    9.40    3.50
  10   8  -6    7.10    1.80
 -10   8   6    9.60    1.50
 -10   8   6    8.90    1.90
 -10   8   6    8.30    1.90
  10   8  -6    7.50    2.20
  10   8  -6    7.10    2.50
  10   8  -6    8.50    1.60
  -8  -8   6   14.80    3.10
  -8  -8   6   11.80    2.50
   8  -8  -6   13.70    2.10
  -8  -8   6   14.60    2.20
   8  -8  -6   13.90    1.90
   8  -8  -6   17.70    2.60
  -8  -8   6   11.40    1.80
  -8   8   6   16.70    2.10
  -8   8   6   14.30    1.70
  -8   8   6   13.30    1.80
  -8   8   6   14.60    1.50
   8   8  -6   12.10    2.40
   8   8  -6   12.50    2.00
   8   8  -6   16.60    2.00
   8   8  -6   15.30    2.00
   8   8  -6   16.00    3.20
   8   8  -6   14.80    2.80
   6  -8  -6  167.88    5.80
  -6  -8   6  169.78    5.70
   6  -8  -6  163.38    5.30
  -6  -8   6  151.48    5.90
  -6  -8   6  156.88    6.60
  -6  -8   6  147.79    7.10
   6  -8  -6  154.58    5.50
  -6   8   6  161.98    4.70
   6   8  -6  172.88    7.10
  -6   8   6  156.28    5.00
  -6   8   6  160.38    4.30
  -6   8   6  160.48    5.10
  -6   8   6  169.08    4.90
   6   8  -6  165.88   10.40
   6   8  -6  164.28    5.80
   6   8  -6  161.68    5.90
   6   8  -6  169.98    5.10
   6   8  -6  155.68    6.60
  -6   8   6  164.48    4.90
   4  -8  -6   10.60    1.30
  -4  -8   6   11.10    1.90
  -4  -8   6   10.40    1.40
  -4  -8   6   10.70    1.50
  -4  -8   6    8.20    1.50
   4   8  -6   12.40    2.50
   4   8  -6    4.60    1.90
   4   8  -6    9.70    1.90
   4   8  -6   10.10    1.20
  -4   8   6   12.70    1.00
   4   8  -6   11.60    2.30
   4   8  -6   10.10    1.50
  -4   8   6    9.80    1.20
  -4   8   6    9.40    1.20
   4   8  -6    8.80    1.40
  -2  -8   6   11.30    2.00
  -2  -8   6   13.60    1.80
  -2  -8   6   18.90    2.70
  -2  -8   6   17.30    2.30
  -2  -8   6   15.50    2.10
   2   8  -6   17.40    2.30
   2   8  -6   15.40    1.50
   2   8  -6   17.00    2.00
   2   8  -6   19.40    1.90
   2   8  -6   17.70    2.70
   2   8  -6   12.60    2.00
   2   8  -6   14.50    2.50
  -2   8   6   16.00    1.80
  -2   8   6   17.20    1.90
  -2   8   6   17.70    0.90
   0  -8   6   10.10    1.50
   0  -8   6   10.00    1.30
   0  -8   6   12.40    2.30
   0   8  -6    9.80    1.30
   0   8   6    8.90    0.70
   0   8   6    9.20    1.50
   0   8  -6   11.80    2.50
   0   8   6   11.50    1.60
   0   8  -6    8.40    1.80
   0   8  -6   10.60    1.40
   0   8  -6    9.80    2.20
   0   8  -6    7.30    1.30
   0   8  -6   11.00    2.30
   2  -8   6   54.09    3.10
   2  -8   6   55.79    4.70
   2  -8   6   56.79    4.10
  -2  -8  -6   56.29    2.00
   2  -8   6   55.29    2.90
  -2   8  -6   62.29    4.50
  -2   8  -6   57.29    2.80
  -2   8  -6   58.69    3.20
   2   8   6   56.19    3.30
   2   8   6   52.59    2.40
   2   8   6   60.39    5.20
  -2   8  -6   53.19    4.10
  -2   8  -6   56.19    3.00
  -2   8  -6   51.39    3.70
   4  -8   6   21.10    2.40
   4  -8   6   15.40    2.40
  -4  -8  -6   20.30    1.90
   4  -8   6   22.50    3.10
   4  -8   6   16.70    2.60
   4  -8   6   21.50    2.30
  -4  -8  -6   19.00    2.50
   4   8   6   23.10    1.70
  -4   8  -6   23.20    2.60
  -4   8  -6   18.50    3.00
   4   8   6   24.00    1.50
  -4   8  -6   18.70    2.60
   4   8   6   23.40    1.90
  -4   8  -6   18.90    2.20
   4   8   6   28.50    2.90
   4   8   6   23.30    2.80
   4   8   6   21.30    1.80
   6  -8   6   65.39    3.50
  -6  -8  -6   65.89    3.60
   6  -8   6   60.89    4.90
  -6  -8  -6   66.79    3.60
   6  -8   6   74.39    5.10
   6  -8   6   59.99    3.70
  -6  -8  -6   62.49    5.00
   6  -8   6   57.09    4.80
   6   8   6   61.29    4.30
  -6   8  -6   63.79    4.00
  -6   8  -6   63.59    3.40
   6   8   6   62.89    3.30
  -6   8  -6   56.19    5.50
   6   8   6   63.19    3.40
  -6   8  -6   68.09    4.70
   6   8   6   69.79    3.00
   6   8   6   59.79    4.70
  -6   8  -6   61.09    5.00
   8  -8   6   30.80    3.30
  -8  -8  -6   42.40    4.20
  -8  -8  -6   37.50    3.90
  -8  -8  -6   37.60    5.40
   8  -8   6   41.20    3.60
   8  -8   6   40.20    5.20
   8  -8   6   35.80    4.80
   8   8   6   33.70    2.70
  -8   8  -6   30.80    3.80
  -8   8  -6   33.90    3.20
   8   8   6   37.90    4.60
   8   8   6   31.80    4.10
   8   8   6   43.90    3.50
  -8   8  -6   38.60    4.50
   8   8   6   36.50    3.60
  -8   8  -6   40.50    5.00
 -11  -9   6    4.10    3.80
  11  -9  -6    9.00    2.40
 -11  -9   6    2.30    3.00
  11  -9  -6    6.00    2.90
 -11  -9   6    3.40    1.80
  11   9  -6    1.40    2.20
  11   9  -6    9.50    4.10
 -11   9   6    7.80    2.10
 -11   9   6    4.20    1.90
  11   9  -6    4.80    3.10
  11   9  -6    4.70    1.90
 -11   9   6   10.30    1.80
   9  -9  -6   13.90    2.20
   9  -9  -6   11.70    2.70
  -9  -9   6   16.10    2.80
  -9  -9   6   17.60    3.70
   9  -9  -6   14.80    2.60
  -9  -9   6   11.70    2.00
   9   9  -6    9.60    2.80
  -9   9   6   13.40    2.00
  -9   9   6   11.80    1.40
   9   9  -6   15.30    1.80
   9   9  -6   13.40    2.90
   9   9  -6   13.50    2.50
  -9   9   6   14.40    2.00
   9   9  -6   12.40    2.20
  -9   9   6   15.90    1.80
   9   9  -6   15.80    3.50
  -7  -9   6    5.00    2.20
   7  -9  -6    4.60    1.40
   7  -9  -6    3.90    1.60
  -7  -9   6    2.30    1.60
  -7  -9   6    2.90    1.60
  -7  -9   6    5.20    2.50
   7  -9  -6    4.20    1.60
  -7   9   6    4.50    1.00
  -7   9   6    4.00    1.00
   7   9  -6    2.80    2.00
   7   9  -6    5.70    1.60
   7   9  -6    2.10    1.40
   7   9  -6    4.20    2.60
   7   9  -6    2.00    2.10
   7   9  -6    3.80    1.20
  -7   9   6    4.60    1.20
  -7   9   6    3.90    1.20
  -5  -9   6   75.59    3.50
  -5  -9   6   76.79    3.70
   5  -9  -6   86.79    4.20
  -5  -9   6   78.39    4.70
   5  -9  -6   73.79    3.00
  -5  -9   6   73.59    3.80
   5  -9  -6   75.29    3.20
  -5   9   6   81.49    3.20
  -5   9   6   76.49    2.60
   5   9  -6   69.39    3.70
  -5   9   6   72.69    2.20
   5   9  -6   79.39    5.30
   5   9  -6   75.99    3.80
   5   9  -6   77.59    5.30
  -5   9   6   76.39    2.70
  -5   9   6   75.49    2.80
  -5   9   6   75.49    2.50
  -5   9   6   73.19    2.50
   5   9  -6   78.89    3.20
   5   9  -6   74.29    5.00
  -3  -9   6  153.88    5.90
  -3  -9   6  164.48    5.70
  -3  -9   6  162.58    6.70
  -3  -9   6  159.08    5.30
  -3   9   6  152.68    4.40
   3   9  -6  167.08    7.10
   3   9  -6  163.18    6.60
  -3   9   6  163.78    5.40
   3   9  -6  138.29   10.10
   3   9  -6  164.88    5.30
   3   9  -6  155.08    6.80
   3   9  -6  161.78    5.60
  -3   9   6  157.38    5.00
   3   9  -6  159.98    5.80
  -1  -9   6   19.70    2.90
  -1  -9   6   21.00    2.60
  -1  -9   6   18.20    2.20
   1   9  -6   19.50    2.80
   1   9  -6   22.20    3.00
   1   9  -6   20.00    2.90
  -1   9   6   19.50    1.20
   1   9  -6   20.30    2.10
   1   9  -6   22.40    2.90
   1   9  -6   23.10    2.00
   1   9  -6   20.80    2.20
  -1   9   6   21.50    2.00
  -1   9   6   24.40    2.40
   1  -9   6  120.09    5.00
   1  -9   6  117.99    4.60
   1  -9   6  128.39    6.30
  -1   9  -6  109.09    8.20
   1   9   6  124.99    4.80
  -1   9  -6  113.69    5.50
  -1   9  -6  116.39    4.80
  -1   9  -6  119.69    4.50
  -1   9  -6  120.19    6.10
  -1   9  -6  119.19    6.00
  -1   9  -6   93.49    5.70
   1   9   6  119.29    3.50
   1   9   6  114.89    5.40
   3  -9   6   64.69    3.60
  -3  -9  -6   67.69    2.80
   3  -9   6   64.09    4.80
   3  -9   6   70.19    3.50
  -3  -9  -6   66.99    4.40
   3  -9   6   60.69    4.70
   3   9   6   58.29    4.00
   3   9   6   72.99    2.60
   3   9   6   61.09    3.90
   3   9   6   65.99    2.60
  -3   9  -6   69.09    3.70
  -3   9  -6   66.39    4.40
  -3   9  -6   69.59    3.30
  -3   9  -6   62.79    4.80
  -3   9  -6   69.09    5.20
   3   9   6   65.29    2.50
  -3   9  -6   69.89    3.30
   5  -9   6  160.88    7.00
  -5  -9  -6  161.68    5.60
   5  -9   6  167.78    6.00
  -5  -9  -6  163.08    5.60
  -5  -9  -6  166.18    7.30
   5  -9   6  157.48    6.10
   5  -9   6  167.68    7.50
   5  -9   6  160.18    7.50
   5   9   6  149.88    7.00
   5   9   6  157.78    5.10
   5   9   6  158.48    6.50
   5   9   6  164.98    5.50
  -5   9  -6  152.68    7.00
  -5   9  -6  153.78    5.70
  -5   9  -6  163.48    7.50
   5   9   6  167.58    5.50
  -5   9  -6  157.88    6.30
   5   9   6  138.09    5.60
  -5   9  -6  170.08    8.00
   7  -9   6   32.20    4.70
   7  -9   6   37.20    4.60
  -7  -9  -6   36.20    3.60
   7  -9   6   31.10    3.40
  -7  -9  -6   34.40    4.20
   7  -9   6   36.20    5.10
  -7  -9  -6   30.70    3.60
   7  -9   6   34.10    3.40
   7   9   6   32.80    3.90
  -7   9  -6   35.80    5.00
   7   9   6   32.20    3.10
   7   9   6   33.00    2.90
   7   9   6   35.50    3.40
  -7   9  -6   29.20    3.70
   7   9   6   34.40    4.20
  -7   9  -6   35.00    4.70
  -7   9  -6   31.40    3.00
   7   9   6   35.40    2.50
  -7   9  -6   29.90    3.20
 -10 -10   6   51.99    5.70
  10 -10  -6   56.29    4.70
 -10 -10   6   53.69    5.30
  10 -10  -6   48.80    4.80
 -10  10   6   51.99    2.90
  10  10  -6   51.39    6.00
 -10  10   6   39.60    3.70
 -10  10   6   52.59    3.30
  10  10  -6   54.59    4.50
  10  10  -6   56.69    6.70
  10  10  -6   49.40    6.10
  10  10  -6   44.90    4.40
 -10  10   6   52.99    3.80
  -8 -10   6   61.49    6.00
  -8 -10   6   69.09    4.30
  -8 -10   6   74.39    4.50
  -8 -10   6   65.49    5.10
   8 -10  -6   78.89    4.50
   8 -10  -6   74.89    4.60
   8 -10  -6   73.49    4.10
   8  10  -6   71.49    4.40
  -8  10   6   72.99    3.30
   8  10  -6   72.29    4.30
   8  10  -6   79.69    3.80
  -8  10   6   72.59    3.70
  -8  10   6   72.39    3.60
   8  10  -6   74.19    6.50
  -8  10   6   78.99    3.50
   8  10  -6   69.99    5.20
   8  10  -6   73.29    5.80
  -6 -10   6  205.68    7.20
  -6 -10   6  196.48    7.50
   6 -10  -6  210.28    6.60
   6 -10  -6  219.28    7.70
   6 -10  -6  217.48    6.90
  -6 -10   6  212.88    8.50
  -6  10   6  218.38    6.30
   6  10  -6  224.08    9.30
   6  10  -6  225.28    9.30
  -6  10   6  218.28    6.30
  -6  10   6  210.58    6.30
   6  10  -6  203.58    7.40
  -6  10   6  201.38    6.50
   6  10  -6  215.08    7.50
   6  10  -6  216.18    6.70
   6  10  -6  222.78    8.80
   6  10  -6  224.08    8.50
  -6  10   6  226.38    6.70
   4 -10  -6   95.79    3.60
  -4 -10   6   93.59    5.30
  -4 -10   6   98.49    4.60
   4 -10  -6   96.09    4.80
  -4 -10   6   98.79    4.10
   4  10  -6   96.49    5.60
  -4  10   6   96.69    3.00
  -4  10   6  102.89    3.20
   4  10  -6   98.89    4.30
   4  10  -6  101.99    3.90
   4  10  -6   94.79    5.30
   4  10  -6   98.59    6.00
  -4  10   6   93.79    3.00
  -4  10   6   97.09    3.00
   4  10  -6   94.19    6.00
  -4  10   6   96.09    4.00
   4  10  -6  100.89    4.40
  -2 -10   6   78.89    4.70
  -2 -10   6   76.89    3.80
  -2 -10   6   75.99    5.50
  -2 -10   6   70.89    4.00
   2  10  -6   76.79    5.00
   2  10  -6   72.39    4.40
  -2  10   6   77.49    2.50
   2  10  -6   74.59    5.20
   2  10  -6   74.89    5.30
  -2  10   6   77.09    3.10
   2  10  -6   74.39    3.60
   2  10  -6   71.89    3.90
  -2  10   6   73.49    4.30
   2  10  -6   75.39    3.30
   0 -10   6  186.08    8.10
   0 -10   6  189.48    6.50
   0 -10   6  180.88    6.80
   0  10  -6  191.18    7.80
   0  10  -6  183.68    6.00
   0  10   6  188.28    6.70
   0  10  -6  179.28    7.80
   0  10  -6  187.08    7.30
   0  10   6  181.68    5.20
   0  10  -6  185.58    8.00
   0  10  -6  173.98    6.50
   0  10  -6  174.28    6.10
   0  10   6  185.68    6.10
   2 -10   6   49.80    3.10
   2 -10   6   49.90    4.60
   2 -10   6   50.09    3.50
  -2  10  -6   51.49    3.00
  -2  10  -6   51.09    3.50
  -2  10  -6   49.30    5.00
   2  10   6   52.49    3.30
  -2  10  -6   57.79    4.70
  -2  10  -6   48.20    4.60
  -2  10  -6   52.29    3.00
   2  10   6   50.99    3.80
   2  10   6   51.99    2.20
  -2  10  -6   59.49    4.30
   4 -10   6   18.70    3.20
  -4 -10  -6   13.00    2.60
   4 -10   6   11.20    1.70
  -4 -10  -6   11.20    1.60
   4 -10   6   11.00    2.00
   4 -10   6   15.20    3.00
  -4 -10  -6   13.10    1.80
   4  10   6   11.90    1.60
   4  10   6   15.60    1.80
  -4  10  -6   13.70    1.80
   4  10   6   11.60    1.30
   4  10   6   12.90    2.20
  -4  10  -6   11.10    2.80
  -4  10  -6    9.60    2.50
   4  10   6    5.40    1.90
   4  10   6   15.50    1.80
  -4  10  -6   12.40    1.80
   4  10   6   11.10    1.30
  -4  10  -6   15.00    3.40
  -4  10  -6   11.90    2.00
   6 -10   6   13.40    2.80
  -6 -10  -6   14.60    2.30
  -6 -10  -6   17.10    2.40
   6 -10   6   11.90    3.00
  -6 -10  -6   10.90    3.00
   6 -10   6   11.80    2.00
   6 -10   6   12.90    3.00
   6 -10   6   11.60    1.90
   6  10   6   13.30    1.90
   6  10   6    9.10    2.50
  -6  10  -6   15.70    3.10
  -6  10  -6   15.90    2.50
   6  10   6   11.80    2.00
   6  10   6   14.70    2.00
  -6  10  -6   10.30    3.00
  -6  10  -6   15.10    2.10
   6  10   6   11.60    2.30
   6  10   6   18.00    2.20
  -8 -10  -6   15.10    3.00
   8 -10   6    7.60    2.90
   8 -10   6   14.70    3.80
  -8 -10  -6    4.30    3.50
  -8 -10  -6    9.10    2.70
   8 -10   6    7.80    3.30
   8  10   6   11.80    2.40
  -8  10  -6   12.70    2.10
  -8  10  -6    4.40    3.60
   8  10   6    9.90    2.70
   8  10   6    6.80    2.80
  -8  10  -6   14.90    3.50
   8  10   6    7.60    2.30
   8  10   6    8.70    2.00
   8  10   6   11.70    1.80
  -9 -11   6    2.60    3.40
   9 -11  -6    4.70    2.40
  -9 -11   6   -0.40    2.70
  -9 -11   6   -1.10    1.80
   9 -11  -6    4.30    2.40
  -9  11   6    2.20    1.70
   9  11  -6    1.00    3.20
   9  11  -6    2.60    1.80
   9  11  -6    0.10    2.80
  -9  11   6    2.50    1.30
   9  11  -6    3.60    1.90
  -9  11   6    1.50    1.30
  -9  11   6    2.60    1.70
   9  11  -6    1.90    3.40
  -7 -11   6   15.60    2.90
  -7 -11   6   23.70    3.40
  -7 -11   6   19.60    2.50
   7 -11  -6   15.70    2.60
   7 -11  -6   14.50    2.00
   7 -11  -6   15.50    2.40
   7  11  -6   13.60    3.60
  -7  11   6   15.50    2.20
  -7  11   6   13.30    1.80
   7  11  -6   15.30    2.40
   7  11  -6   16.30    2.50
  -7  11   6   14.40    1.80
   7  11  -6   15.60    3.00
   7  11  -6   14.90    3.20
   7  11  -6   15.10    3.80
   7  11  -6   20.40    2.80
  -7  11   6   14.80    1.90
  -5 -11   6   15.30    2.80
  -5 -11   6   16.70    2.40
   5 -11  -6   19.60    2.60
  -5 -11   6   11.50    1.70
   5 -11  -6   15.00    2.50
  -5 -11   6   14.50    2.10
  -5  11   6   11.80    1.70
  -5  11   6   16.70    1.90
  -5  11   6   15.10    1.40
   5  11  -6   19.60    3.50
   5  11  -6   14.70    3.40
  -5  11   6   18.00    1.50
  -5  11   6   16.50    1.70
   5  11  -6   15.00    2.90
   5  11  -6   12.50    2.10
   5  11  -6   10.50    2.40
  -5  11   6   16.60    1.40
   5  11  -6   14.60    2.10
  -3 -11   6    6.30    1.30
  -3 -11   6    9.40    2.30
  -3 -11   6    7.90    1.80
  -3 -11   6    3.00    1.50
   3  11  -6    6.30    1.50
  -3  11   6    7.50    0.90
   3  11  -6    2.20    2.10
   3  11  -6    5.50    2.70
   3  11  -6   11.20    2.90
   3  11  -6    6.10    2.30
   3  11  -6    9.40    1.90
  -3  11   6    7.50    1.50
   3  11  -6    8.60    1.50
  -3  11   6    6.60    0.90
  -1 -11   6  126.29    6.80
  -1 -11   6  109.89    5.00
  -1  11   6  109.09    4.00
   1  11  -6  110.59    4.90
   1  11  -6  115.09    4.70
   1  11  -6  120.99    6.70
   1  11  -6  107.39    6.00
   1  11  -6  103.89    5.70
  -1  11   6  113.89    4.90
   1  11  -6  110.29    6.20
  -1  11   6  113.29    3.60
  -1  11   6  106.29    3.60
   1  11  -6  108.69    4.40
   1 -11   6   68.09    5.40
   1 -11   6   56.79    4.00
   1 -11   6   55.19    3.60
   1  11   6   62.29    3.30
  -1  11  -6   59.09    5.50
  -1  11  -6   60.79    3.90
  -1  11  -6   65.39    3.30
   1  11   6   58.39    3.90
  -1  11  -6   64.19    5.00
  -1  11  -6   61.69    4.50
  -1  11  -6   61.99    5.30
   1  11   6   60.59    2.50
  -1  11  -6   59.49    3.40
  -3 -11  -6   23.70    2.90
  -3 -11  -6   26.00    2.20
   3 -11   6   23.50    3.40
   3 -11   6   22.40    3.40
   3 -11   6   19.10    2.50
   3 -11   6   21.70    2.80
  -3  11  -6   21.10    2.50
   3  11   6   17.60    2.50
   3  11   6   22.90    1.80
  -3  11  -6   23.20    2.70
  -3  11  -6   23.30    2.50
   3  11   6   23.40    2.80
   3  11   6   20.90    1.80
  -3  11  -6   28.40    4.30
  -3  11  -6   26.80    3.30
  -3  11  -6   20.10    3.20
   3  11   6   24.60    1.80
  -5 -11  -6    9.00    3.30
  -5 -11  -6    8.10    2.80
   5 -11   6    9.90    2.30
   5 -11   6   10.90    3.10
  -5 -11  -6    7.40    1.90
   5 -11   6    8.30    2.00
   5 -11   6    4.90    2.50
   5 -11   6    8.90    2.90
  -5  11  -6   11.00    1.80
  -5  11  -6    5.90    3.70
   5  11   6    7.20    1.60
   5  11   6   10.60    2.10
  -5  11  -6    0.00    2.60
  -5  11  -6    5.90    2.90
   5  11   6    8.10    1.50
  -5  11  -6    5.70    2.00
   5  11   6    8.90    1.50
   5  11   6    9.80    1.70
   5  11   6    3.40    2.30
  -7 -11  -6   13.80    2.80
   7 -11   6   18.20    3.50
   7 -11   6   18.10    3.50
  -7 -11  -6   15.90    3.60
   7 -11   6   21.40    3.80
  -7 -11  -6   14.60    3.00
  -7  11  -6   13.10    4.30
   7  11   6   14.80    1.80
  -7  11  -6   15.50    2.40
   7  11   6   19.30    2.40
   7  11   6   18.20    2.60
   7  11   6   16.80    2.50
  -7  11  -6   13.80    4.20
   7  11   6   17.40    2.30
  -7  11  -6   20.30    3.90
   7  11   6   14.70    3.00
   8 -12  -6   33.60    4.30
   8 -12  -6   32.00    3.60
  -8 -12   6   30.60    3.80
  -8 -12   6   25.50    4.00
   8  12  -6   47.30    5.80
   8  12  -6   28.60    3.30
   8  12  -6   31.30    4.70
   8  12  -6   25.10    3.90
  -8  12   6   34.00    3.00
  -8  12   6   34.40    2.70
   8  12  -6   40.20    3.60
   8  12  -6   37.00    4.90
  -8  12   6   30.80    2.70
  -8  12   6   34.50    3.00
  -8  12   6   37.50    3.10
  -6 -12   6   82.19    4.70
  -6 -12   6   71.19    5.60
  -6 -12   6   75.29    4.80
   6 -12  -6   83.49    5.40
   6 -12  -6   71.49    4.30
  -6 -12   6   68.89    4.60
  -6  12   6   82.09    3.40
  -6  12   6   75.79    3.20
   6  12  -6   77.69    6.30
  -6  12   6   75.99    3.20
  -6  12   6   79.69    3.80
  -6  12   6   80.29    3.80
   6  12  -6   77.69    3.90
  -6  12   6   78.99    3.50
   6  12  -6   75.09    5.60
   6  12  -6   89.89    6.30
   6  12  -6   84.19    6.90
   6  12  -6   71.39    4.40
   6  12  -6   75.89    4.70
  -4 -12   6    3.80    1.80
  -4 -12   6    4.80    2.50
  -4 -12   6    7.90    1.90
   4 -12  -6    3.30    2.20
  -4 -12   6    1.50    1.50
   4 -12  -6    5.20    1.60
  -4  12   6    3.40    1.30
   4  12  -6   -0.90    2.60
   4  12  -6    2.70    2.30
  -4  12   6    3.60    0.90
   4  12  -6    5.60    2.60
   4  12  -6    2.70    1.40
   4  12  -6    2.40    3.10
  -4  12   6    0.90    0.90
   4  12  -6    4.40    1.90
   4  12  -6    3.10    1.30
  -4  12   6    2.70    0.90
  -2 -12   6   -0.90    1.50
  -2 -12   6   -2.30    2.80
  -2 -12   6    1.10    1.20
   2  12  -6    3.00    2.80
   2  12  -6    1.40    2.20
   2  12  -6    0.50    1.20
  -2  12   6    1.20    0.80
   2  12  -6    1.20    1.60
   2  12  -6    0.90    2.60
   2  12  -6   -0.50    1.90
  -2  12   6   -0.70    1.30
  -2  12   6    2.40    1.00
  -2  12   6    0.00    0.70
   2  12  -6    0.80    1.20
   0 -12   6   13.00    2.40
   0 -12   6   14.70    2.20
   0 -12   6    6.50    3.10
   0  12  -6   13.90    3.10
   0  12   6   10.40    2.00
   0  12  -6   15.10    3.20
   0  12  -6   15.30    1.90
   0  12  -6   13.70    1.90
   0  12   6   14.90    1.60
   0  12   6   17.20    2.10
   0  12  -6   15.60    3.80
   0  12  -6   15.30    2.40
   0  12  -6   17.10    3.00
   0  12   6   14.10    1.60
   2 -12   6   66.29    5.80
   2 -12   6   65.29    4.50
   2 -12   6   62.79    4.10
  -2  12  -6   69.99    5.70
  -2  12  -6   64.69    4.40
   2  12   6   65.49    2.90
  -2  12  -6   66.49    3.60
   2  12   6   70.49    4.60
   2  12   6   59.09    2.40
  -2  12  -6   63.99    3.70
  -2  12  -6   73.39    6.30
  -2  12  -6   69.29    5.80
  -2  12  -6   76.89    5.20
   2  12   6   61.29    3.60
   2  12   6   66.49    2.50
   4 -12   6    1.30    1.80
   4 -12   6    5.20    3.20
  -4 -12  -6    1.80    1.70
   4 -12   6    4.00    2.00
   4 -12   6    1.00    2.80
  -4 -12  -6    1.00    2.60
  -4  12  -6    0.10    2.00
   4  12   6    3.70    2.20
  -4  12  -6    2.30    1.50
  -4  12  -6    1.60    1.40
   4  12   6    4.70    1.40
  -4  12  -6    6.20    2.90
   4  12   6    1.10    1.20
  -4  12  -6    2.40    3.30
  -4  12  -6    2.00    2.80
   4  12   6    3.50    1.70
   4  12   6    2.70    1.20
   4  12   6    3.00    1.10
   6 -12   6   14.20    3.90
  -6 -12  -6    9.40    3.30
   6 -12   6   13.40    3.20
   6 -12   6   15.30    3.60
  -6 -12  -6   11.60    2.50
  -6  12  -6   14.00    3.50
   6  12   6   13.00    2.10
   6  12   6    5.90    2.90
   6  12   6   11.10    2.20
   6  12   6   11.60    1.80
  -6  12  -6   14.30    4.30
  -6  12  -6   10.50    1.80
  -6  12  -6   12.40    3.90
  -5 -13   6   49.30    5.20
  -5 -13   6   37.00    4.10
  -5 -13   6   35.30    3.80
  -5 -13   6   34.10    3.80
   5 -13  -6   37.10    3.70
   5 -13  -6   37.70    5.10
  -5  13   6   38.80    2.60
   5  13  -6   38.50    3.50
   5  13  -6   30.90    3.20
  -5  13   6   38.30    3.10
  -5  13   6   34.30    2.50
  -5  13   6   35.60    2.10
  -5  13   6   38.20    2.50
   5  13  -6   47.10    6.40
   5  13  -6   37.60    4.70
   5  13  -6   32.60    4.10
  -5  13   6   42.90    2.40
   5  13  -6   34.50    4.10
   5  13  -6   38.00    4.80
  -3 -13   6    0.80    2.30
  -3 -13   6    0.30    1.50
  -3 -13   6    0.80    2.10
  -3  13   6    0.00    0.90
   3  13  -6   -0.30    1.40
   3  13  -6    0.80    2.60
  -3  13   6    2.10    1.40
   3  13  -6    3.40    1.90
   3  13  -6    1.20    2.90
  -3  13   6    1.90    0.80
  -3  13   6    0.40    1.00
   3  13  -6    0.70    1.40
   3  13  -6   -2.90    2.70
   3  13  -6    4.50    2.90
  -1 -13   6   10.60    3.50
  -1 -13   6    6.30    2.10
  -1 -13   6    6.60    1.50
   1  13  -6    7.60    1.70
   1  13  -6   10.10    3.20
   1  13  -6    8.90    2.70
  -1  13   6    6.60    1.90
   1  13  -6    9.30    3.20
  -1  13   6   12.70    1.70
   1  13  -6   11.60    1.90
   1  13  -6    3.50    2.60
  -1  13   6    6.60    1.10
   1  13  -6    6.40    1.80
   1 -13   6   42.30    4.00
   1 -13   6   35.70    4.60
   1 -13   6   38.90    4.60
  -1  13  -6   48.60    5.50
   1  13   6   39.70    2.70
  -1  13  -6   43.50    3.30
  -1  13  -6   39.90    3.20
   1  13   6   42.60    3.20
  -1  13  -6   39.20    4.70
  -1  13  -6   39.10    4.90
   1  13   6   38.50    4.00
   1  13   6   38.50    2.40
  -1  13  -6   45.40    5.30
  -1  13  -6   42.80    4.00
  -3 -13  -6   58.69    5.30
   3 -13   6   54.69    5.70
   3 -13   6   50.69    6.30
   3 -13   6   56.99    4.50
   3  13   6   57.89    4.60
  -3  13  -6   61.09    3.80
  -3  13  -6   54.49    6.90
  -3  13  -6   50.09    5.40
  -3  13  -6   56.29    5.90
   3  13   6   54.19    2.80
  -3  13  -6   53.19    4.90
  -3  13  -6   63.79    6.20
   3  13   6   58.19    3.10
  -3  13  -6   50.39    3.60
   3  13   6   59.39    2.90
   3  13   6   53.19    3.60
  -4 -14   6   16.80    2.70
  -4 -14   6   13.90    3.40
  -4 -14   6   11.30    2.70
   4  14  -6   18.00    4.60
  -4  14   6   22.50    3.10
   4  14  -6   15.80    3.60
  -4  14   6   18.70    2.60
   4  14  -6   18.10    3.50
  -4  14   6   20.20    2.10
   4  14  -6   18.00    2.40
   4  14  -6   17.50    2.50
   4  14  -6   13.20    4.00
  -2 -14   6   38.90    4.60
  -2 -14   6   33.60    5.50
  -2 -14   6   27.80    3.30
   2  14  -6   30.40    4.20
  -2  14   6   38.80    1.50
  -2  14   6   41.10    3.50
   2  14  -6   34.00    4.40
   2  14  -6   36.10    5.10
  -2  14   6   35.20    2.90
   2  14  -6   34.10    3.40
  -2  14   6   41.50    2.40
   2  14  -6   28.80    3.30
   2  14  -6   37.90    4.90
   0 -14   6    7.10    1.80
   0 -14   6    9.80    2.50
   0 -14   6   10.60    4.10
   0  14  -6    7.40    3.20
   0  14   6    6.30    1.40
   0  14  -6    6.90    3.50
   0  14  -6    6.50    1.90
   0  14   6    8.90    1.80
   0  14  -6    5.90    1.80
   0  14   6    7.20    2.20
   0  14   6    7.10    1.30
   0  14  -6   15.50    3.30
   0  14  -6    5.50    3.00
   2 -14   6   13.30    4.40
   2 -14   6   15.70    2.90
  -2  14  -6   18.80    3.80
  -2  14  -6   23.30    4.10
  -2  14  -6   14.70    2.20
   2  14   6   17.70    2.00
   2  14   6   18.70    2.50
  -2  14  -6   16.00    2.20
   2  14   6   18.00    3.00
  -2  14  -6   15.90    3.70
   2  14   6   17.10    2.00
  -2  14  -6   22.90    4.80
   2  14   6   18.70    2.90
  12   0  -7    0.10    2.30
 -12   0   7    2.10    2.00
 -12   0   7   -1.00    1.40
 -12   0   7    0.90    1.90
  12   0  -7   -1.80    1.70
 -12   0   7   -1.00    1.50
  12   0  -7    0.50    1.30
  12   0  -7    2.00    2.50
 -10   0   7   -0.90    1.50
  10   0  -7   -0.60    0.90
  10   0  -7    0.70    1.80
  10   0  -7   -1.30    1.70
  10   0  -7    0.40    1.20
 -10   0   7    0.40    1.10
 -10   0   7    1.80    1.60
 -10   0   7    1.00    1.10
  -8   0   7    1.40    1.30
  -8   0   7   -1.50    0.90
  -8   0   7   -0.20    1.10
  -8   0   7   -0.10    0.80
   8   0  -7   -1.60    1.20
   8   0  -7   -0.70    0.70
   8   0  -7    0.60    0.60
   8   0  -7    0.30    1.20
   6   0  -7    0.10    1.50
   6   0  -7    0.40    1.00
   6   0  -7    0.00    0.40
   6   0  -7   -0.10    1.10
  -6   0   7    1.00    0.90
  -6   0   7   -0.80    1.00
  -6   0   7   -0.60    0.70
   6   0  -7   -0.40    0.50
  -4   0   7    0.00    0.60
  -4   0   7   -0.50    0.70
  -4   0   7   -0.10    0.90
   4   0  -7    0.40    1.10
   4   0  -7    0.90    0.80
   2   0  -7    0.90    0.80
   2   0  -7   -0.70    0.70
   2   0  -7    0.90    0.80
   2   0  -7    0.20    0.90
  -2   0   7    0.00    0.30
  -2   0   7   -0.70    0.40
  -2   0   7   -0.30    0.50
   0   0  -7   -0.50    0.70
   0   0  -7    1.30    0.90
   0   0  -7    0.40    0.80
   0   0   7    0.00    0.50
   0   0   7    1.30    0.60
   0   0  -7    0.30    0.80
   0   0   7    0.40    0.90
  -2   0  -7   -0.70    1.00
   2   0   7    2.10    1.50
   2   0   7   -0.20    0.90
  -2   0  -7    0.70    0.90
  -2   0  -7   -0.10    0.90
   2   0   7    0.10    0.80
   2   0   7    0.50    0.60
   4   0   7    0.50    0.60
  -4   0  -7    0.70    0.50
   4   0   7    1.40    1.40
  -4   0  -7   -0.50    1.10
   4   0   7   -0.70    1.00
  -4   0  -7    0.30    0.50
   4   0   7   -0.20    1.00
  -4   0  -7    1.70    1.20
   6   0   7   -0.90    1.60
   6   0   7   -1.20    1.20
  -6   0  -7   -1.30    1.50
  -6   0  -7   -0.60    0.70
  -6   0  -7    0.40    0.80
   6   0   7    1.10    1.30
   6   0   7   -0.80    0.80
   8   0   7   -0.80    1.60
  -8   0  -7   -0.60    1.00
  -8   0  -7    1.20    1.10
   8   0   7   -1.80    0.90
  -8   0  -7    0.20    2.10
   8   0   7    0.70    1.80
   8   0   7   -3.30    1.90
  -8   0  -7   -0.80    2.00
  10   0   7    1.50    2.70
  10   0   7   -0.30    1.30
  10   0   7    1.10    1.70
 -10   0  -7   -1.90    3.10
 -10   0  -7   -0.60    1.30
  10   0   7    1.90    2.70
  10   0   7    3.30    2.50
 -10   0  -7   -1.10    3.00
 -13  -1   7   19.00    3.10
 -13  -1   7   17.00    2.70
 -13  -1   7   13.20    2.30
  13  -1  -7   20.60    2.70
 -13  -1   7   11.30    2.70
  13   1  -7   16.40    2.10
 -13   1   7   11.30    2.80
  13   1  -7   14.00    2.60
 -13   1   7   23.90    3.00
 -13   1   7   18.00    2.60
 -13   1   7   16.90    2.90
 -11  -1   7   27.40    2.90
  11  -1  -7   21.40    3.00
  11  -1  -7   22.60    3.00
  11  -1  -7   27.60    2.70
  11  -1  -7   26.50    2.10
 -11  -1   7   23.60    2.90
 -11  -1   7   20.30    2.90
 -11  -1   7   21.80    2.80
  11   1  -7   29.20    3.00
 -11   1   7   24.10    3.30
 -11   1   7   28.10    2.70
 -11   1   7   23.70    2.60
  11   1  -7   23.10    3.10
  11   1  -7   24.30    2.30
  11   1  -7   27.10    3.80
 -11   1   7   25.60    3.30
   9  -1  -7  654.23   18.10
   9  -1  -7  654.13   16.70
  -9  -1   7  629.84   18.30
   9  -1  -7  646.04   16.40
  -9  -1   7  707.03   17.50
   9  -1  -7  646.94   18.00
  -9  -1   7  642.44   17.50
  -9  -1   7  652.73   18.20
   9   1  -7  621.44   18.30
   9   1  -7  656.33   18.30
   9   1  -7  677.23   17.10
  -9   1   7  642.54   17.90
  -9   1   7  670.33   17.20
  -9   1   7  655.43   17.40
  -9   1   7  605.14   17.90
   9   1  -7  642.24   16.80
  -7  -1   7   30.60    2.60
  -7  -1   7   31.50    2.00
  -7  -1   7   26.30    2.60
   7  -1  -7   28.40    1.20
   7  -1  -7   30.90    1.30
   7  -1  -7   30.40    2.50
  -7  -1   7   28.50    2.10
   7  -1  -7   30.20    2.50
  -7   1   7   29.60    2.00
   7   1  -7   31.40    3.50
   7   1  -7   29.60    2.60
  -7   1   7   28.00    2.40
   7   1  -7   29.70    1.60
  -7   1   7   30.50    2.30
  -7   1   7   30.00    1.90
   7   1  -7   31.60    1.80
   7   1  -7   28.80    2.70
   5  -1  -7  155.28    5.20
  -5  -1   7  155.48    5.40
   5  -1  -7  156.38    5.60
  -5  -1   7  162.08    5.10
  -5  -1   7  155.48    5.60
   5  -1  -7  159.68    5.20
  -5   1   7  161.28    5.10
   5   1  -7  153.88    4.40
   5   1  -7  170.08    5.70
   5   1  -7  160.78    5.90
  -5   1   7  155.18    5.30
   5   1  -7  164.28    5.60
  -5   1   7  162.18    4.90
   5   1  -7  158.98    4.40
   3  -1  -7   39.90    2.10
  -3  -1   7   41.20    2.30
   3  -1  -7   41.40    2.10
   3  -1  -7   44.40    2.40
  -3  -1   7   39.20    1.30
  -3  -1   7   38.70    2.10
  -3  -1   7   40.90    2.00
   3  -1  -7   40.80    2.00
  -3   1   7   40.50    1.50
   3   1  -7   41.10    1.40
  -3   1   7   43.80    1.30
   3   1  -7   40.90    2.70
   3   1  -7   36.60    2.40
   3   1  -7   37.40    1.30
   3   1  -7   39.00    2.30
  -3   1   7   40.30    1.90
   3   1  -7   36.30    2.40
  -3   1   7   41.70    2.00
  -3   1   7   42.10    1.80
   1  -1  -7  312.07    8.60
  -1  -1   7  304.17    9.20
  -1  -1   7  327.37    8.70
   1  -1  -7  317.27    8.50
   1  -1  -7  310.97    8.50
  -1  -1   7  308.47    8.50
  -1  -1   7  316.57    8.20
  -1   1   7  311.07    8.30
   1   1  -7  305.37    9.00
   1   1  -7  311.57    9.00
   1   1  -7  309.47    9.10
   1   1  -7  324.27    8.90
  -1   1   7  316.87    8.20
  -1  -1  -7  352.76    9.80
   1  -1   7  357.46   10.30
  -1  -1  -7  352.66    9.70
  -1  -1  -7  348.67    9.80
   1  -1   7  372.06   10.20
   1  -1   7  365.26    9.50
   1  -1   7  343.77    9.50
   1   1   7  358.56    9.80
  -1   1  -7  359.26   10.30
  -1   1  -7  355.96    8.90
  -1   1  -7  364.06   10.10
   1   1   7  357.96   11.10
   1   1   7  344.77    9.30
  -1   1  -7  347.27    9.00
  -1   1  -7  360.16   10.20
   1   1   7  366.46    9.80
   3  -1   7  187.28    6.40
  -3  -1  -7  191.88    6.20
   3  -1   7  196.18    5.80
   3  -1   7  198.38    5.80
  -3  -1  -7  191.88    6.20
  -3   1  -7  159.88    6.90
  -3   1  -7  192.08    5.30
  -3   1  -7  193.18    5.20
   3   1   7  196.78    6.20
   3   1   7  182.18    7.40
   3   1   7  194.68    5.50
   3   1   7  193.48    6.10
  -3   1  -7  203.88    6.60
   5  -1   7   59.49    3.60
  -5  -1  -7   57.69    3.50
  -5  -1  -7   55.09    3.30
   5  -1   7   54.39    3.00
   5  -1   7   58.79    3.50
   5  -1   7   58.79    2.90
  -5  -1  -7   55.99    1.80
  -5  -1  -7   55.09    1.90
   5  -1   7   60.59    4.10
   5   1   7   49.99    3.20
   5   1   7   54.39    4.10
  -5   1  -7   62.69    4.00
   5   1   7   56.09    3.20
   5   1   7   56.39    2.50
  -5   1  -7   56.89    2.30
  -5   1  -7   56.09    2.50
  -5   1  -7   57.29    3.60
  -7  -1  -7  106.39    3.40
  -7  -1  -7   96.59    3.40
   7  -1   7   94.79    5.00
   7  -1   7  101.09    5.10
   7  -1   7   93.69    5.70
   7  -1   7   98.59    4.00
  -7  -1  -7   98.49    5.10
   7   1   7   95.59    5.60
   7   1   7   94.29    4.90
  -7   1  -7  102.59    5.30
   7   1   7   98.59    4.80
  -7   1  -7  104.09    3.80
  -7   1  -7  106.59    5.40
  -7   1  -7  105.09    4.00
   7   1   7  103.19    3.90
   9  -1   7   32.00    4.40
   9  -1   7   28.50    2.90
  -9  -1  -7   32.30    2.30
   9  -1   7   25.00    2.70
   9  -1   7   30.60    4.30
  -9  -1  -7   22.10    3.30
   9  -1   7   29.20    3.90
  -9  -1  -7   28.90    3.50
  -9  -1  -7   31.40    2.70
  -9   1  -7   30.40    3.80
   9   1   7   26.30    3.20
   9   1   7   31.10    4.00
  -9   1  -7   25.80    3.60
   9   1   7   21.30    3.10
   9   1   7   28.30    2.60
  -9   1  -7   24.30    3.00
  -9   1  -7   30.60    2.70
 -12  -2   7   10.60    2.40
 -12  -2   7    9.20    2.10
  12  -2  -7    6.40    2.60
  12  -2  -7   11.60    1.90
 -12  -2   7    8.40    1.90
  12  -2  -7   10.10    1.50
 -12  -2   7    7.30    2.40
  12  -2  -7    4.50    2.60
  12   2  -7    3.90    2.70
 -12   2   7   10.20    1.90
 -12   2   7   14.10    2.40
 -12   2   7    9.90    1.70
  12   2  -7    8.30    1.70
  12   2  -7    8.20    2.80
 -12   2   7    7.30    2.00
  12   2  -7    9.50    2.20
  10  -2  -7   53.59    3.90
  10  -2  -7   45.90    2.10
  10  -2  -7   42.80    3.80
 -10  -2   7   43.90    4.00
 -10  -2   7   44.90    3.20
  10  -2  -7   48.80    2.50
 -10  -2   7   50.09    3.20
 -10  -2   7   46.40    3.80
 -10   2   7   47.90    2.80
 -10   2   7   48.40    3.40
  10   2  -7   54.89    3.30
 -10   2   7   45.10    3.50
  10   2  -7   52.09    2.80
  10   2  -7   46.90    3.90
 -10   2   7   47.50    2.90
  10   2  -7   47.80    4.00
   8  -2  -7   46.80    3.20
  -8  -2   7   41.90    3.30
  -8  -2   7   41.10    3.40
   8  -2  -7   52.09    3.10
  -8  -2   7   45.90    2.80
  -8  -2   7   50.89    2.70
   8   2  -7   46.70    3.40
  -8   2   7   48.70    2.90
   8   2  -7   49.10    4.50
  -8   2   7   45.50    2.40
  -8   2   7   48.80    3.00
   8   2  -7   44.00    2.30
  -8   2   7   42.90    2.50
   8   2  -7   47.90    2.60
   8   2  -7   48.20    3.50
  -6  -2   7   13.40    1.90
   6  -2  -7   13.40    1.80
  -6  -2   7   13.20    1.70
   6  -2  -7   14.00    1.90
  -6  -2   7   16.30    2.20
   6   2  -7   14.30    1.40
  -6   2   7    9.30    2.30
  -6   2   7   16.70    1.40
  -6   2   7   14.10    1.60
   6   2  -7   11.90    2.10
   6   2  -7   14.10    2.00
   6   2  -7   11.70    1.80
   6   2  -7   11.80    1.30
   4  -2  -7   13.00    1.40
  -4  -2   7   12.30    1.40
   4  -2  -7   13.00    1.40
  -4  -2   7   12.90    1.80
  -4   2   7   14.00    0.60
   4   2  -7   13.70    1.10
   4   2  -7   12.60    1.10
  -4   2   7   12.10    1.20
  -4   2   7   14.20    1.10
   4   2  -7   11.30    1.50
   4   2  -7   10.90    1.80
   4   2  -7   13.30    1.90
  -4   2   7   12.00    1.50
  -2  -2   7   33.80    2.00
  -2  -2   7   33.00    1.40
   2  -2  -7   35.10    1.60
   2  -2  -7   33.20    1.80
   2  -2  -7   34.00    1.70
  -2  -2   7   32.80    2.50
   2  -2  -7   33.90    1.60
   2   2  -7   34.60    1.50
   2   2  -7   32.20    2.60
   2   2  -7   34.40    1.50
  -2   2   7   34.70    1.50
   2   2  -7   32.20    2.70
   2   2  -7   40.10    2.30
  -2   2   7   31.40    1.70
  -2   2   7   37.00    1.50
   0  -2  -7  476.75   12.80
   0  -2  -7  498.15   12.80
   0  -2   7  528.65   13.90
   0  -2   7  489.15   12.80
   0  -2   7  496.35   13.10
   0  -2  -7  487.35   12.80
   0  -2   7  482.35   13.80
   0  -2  -7  498.15   12.80
   0   2  -7  488.15   12.50
   0   2  -7  516.35   13.90
   0   2   7  487.85   12.50
   0   2   7  513.45   14.40
   0   2  -7  502.65   13.60
   0   2   7  507.05   12.70
   0   2  -7  492.65   12.60
   2  -2   7 1665.53   41.20
   2  -2   7 1770.12   43.00
  -2  -2  -7 1531.25   41.60
  -2  -2  -7 1663.73   41.20
   2  -2   7 1653.53   41.20
  -2  -2  -7 1689.33   41.20
   2  -2   7 1604.94   42.00
   2  -2   7 1667.63   42.20
  -2   2  -7 1712.23   42.10
  -2   2  -7 1670.93   40.80
   2   2   7 1716.73   41.30
   2   2   7 1612.44   41.20
   2   2   7 1651.53   40.80
  -2   2  -7 1599.84   40.90
   2   2   7 1772.72   43.00
  -4  -2  -7  435.56   12.20
   4  -2   7  437.16   12.90
   4  -2   7  452.85   12.00
   4  -2   7  415.16   13.40
   4  -2   7  459.95   12.10
   4  -2   7  439.36   12.90
  -4  -2  -7  441.06   12.20
  -4   2  -7  436.06   12.90
   4   2   7  449.86   11.60
   4   2   7  419.26   13.40
  -4   2  -7  445.16   11.70
  -4   2  -7  453.45   11.60
   4   2   7  432.26   12.20
  -4   2  -7  450.35   14.00
   4   2   7  439.46   12.30
   6  -2   7   45.00    3.60
   6  -2   7   52.79    4.30
  -6  -2  -7   49.30    3.30
   6  -2   7   48.10    2.80
   6  -2   7   47.70    4.00
   6  -2   7   52.39    2.80
  -6  -2  -7   56.49    3.60
  -6   2  -7   47.50    3.90
   6   2   7   49.80    3.30
  -6   2  -7   50.89    4.00
   6   2   7   52.39    4.20
   6   2   7   53.19    2.60
  -6   2  -7   46.90    2.50
  -6   2  -7   53.79    2.80
   6   2   7   56.09    3.30
  -8  -2  -7   75.49    2.90
   8  -2   7   75.39    3.80
  -8  -2  -7   80.99    5.00
   8  -2   7   71.09    5.30
   8  -2   7   72.49    5.10
   8  -2   7   72.09    3.70
   8  -2   7   70.09    4.80
  -8  -2  -7   76.29    2.90
  -8   2  -7   78.39    5.40
   8   2   7   78.19    4.60
  -8   2  -7   72.49    5.40
   8   2   7   76.09    5.20
   8   2   7   81.19    4.70
  -8   2  -7   79.79    3.60
   8   2   7   80.39    3.60
  -8   2  -7   73.19    3.80
 -10  -2  -7   64.79    5.80
  10  -2   7   50.89    5.40
 -10  -2  -7   65.39    5.80
 -10  -2  -7   57.79    3.20
  10  -2   7   52.59    5.20
  10  -2   7   49.10    3.70
 -10  -2  -7   58.89    3.50
  10  -2   7   51.39    5.80
  10  -2   7   62.99    5.70
  10   2   7   54.09    5.30
 -10   2  -7   62.29    3.80
 -10   2  -7   58.59    6.30
  10   2   7   53.39    4.70
  10   2   7   55.59    5.00
 -10   2  -7   73.59    6.70
  10   2   7   50.49    3.50
 -11  -3   7   17.00    2.60
 -11  -3   7   20.10    2.80
  11  -3  -7   16.60    1.60
 -11  -3   7   17.00    2.20
 -11  -3   7   19.20    3.00
  11  -3  -7   17.30    2.70
  11  -3  -7   16.30    2.00
  11  -3  -7   15.80    2.50
  11   3  -7   15.50    2.70
 -11   3   7   21.20    3.10
  11   3  -7   13.40    2.60
 -11   3   7   20.30    2.50
 -11   3   7   26.60    3.20
 -11   3   7   21.00    2.40
  11   3  -7   18.60    2.50
  11   3  -7   17.90    2.40
  -9  -3   7  130.69    5.00
  -9  -3   7  130.79    6.00
  -9  -3   7  121.69    5.00
   9  -3  -7  120.29    5.20
   9  -3  -7  126.19    5.30
  -9  -3   7  120.19    5.60
  -9   3   7  110.49    5.40
  -9   3   7  117.39    4.90
   9   3  -7  137.39    7.10
   9   3  -7  128.89    4.50
   9   3  -7  119.49    5.70
  -9   3   7  119.29    4.40
   9   3  -7  124.89    5.70
  -9   3   7  113.19    5.10
   9   3  -7  131.49    4.90
  -7  -3   7   37.50    3.60
   7  -3  -7   42.90    2.80
   7  -3  -7   45.30    2.90
  -7  -3   7   49.60    3.30
  -7  -3   7   50.19    3.50
  -7  -3   7   47.50    2.60
   7   3  -7   48.50    2.60
   7   3  -7   43.80    4.20
  -7   3   7   42.50    2.60
   7   3  -7   42.70    3.40
  -7   3   7   46.70    2.30
   7   3  -7   46.20    2.40
  -7   3   7   46.00    2.60
  -7   3   7   45.80    2.20
   7   3  -7   40.80    3.10
  -5  -3   7  105.29    4.00
   5  -3  -7  104.09    3.70
   5  -3  -7  103.99    3.70
  -5  -3   7  102.49    4.40
  -5   3   7  110.09    3.50
  -5   3   7  106.59    3.40
   5   3  -7   98.99    4.40
   5   3  -7  107.99    4.60
   5   3  -7  114.99    5.10
   5   3  -7  102.19    3.50
  -5   3   7  101.39    3.70
   5   3  -7  105.29    3.60
  -3  -3   7  168.18    5.50
   3  -3  -7  165.48    4.60
   3  -3  -7  161.58    4.60
  -3  -3   7  172.18    5.80
  -3  -3   7  162.78    4.50
  -3  -3   7  168.18    5.30
   3  -3  -7  162.38    4.70
   3  -3  -7  163.48    4.60
   3   3  -7  151.48    6.10
  -3   3   7  166.18    4.50
   3   3  -7  164.38    5.80
  -3   3   7  161.58    4.60
   3   3  -7  162.38    4.80
   3   3  -7  160.38    6.00
  -3   3   7  165.48    4.70
   3   3  -7  157.78    5.90
   3   3  -7  164.48    4.80
  -1  -3   7   31.60    2.00
  -1  -3   7   31.30    2.70
   1  -3  -7   33.00    1.40
  -1  -3   7   32.30    2.10
  -1  -3   7   35.10    1.60
   1  -3  -7   33.10    1.30
   1   3  -7   33.40    1.70
  -1   3   7   26.20    2.80
   1   3  -7   34.30    2.50
   1   3  -7   32.00    2.80
  -1   3   7   32.80    1.20
   1   3  -7   30.50    2.70
   1   3  -7   30.40    3.00
  -1   3   7   31.80    2.00
   1   3  -7   29.70    1.60
  -1   3   7   33.00    1.30
  -1  -3  -7  240.38    6.50
  -1  -3  -7  244.78    6.40
   1  -3   7  233.58    7.80
  -1  -3  -7  234.88    6.40
   1  -3   7  234.08    7.00
   1  -3   7  238.18    6.70
  -1  -3  -7  239.28    6.40
   1  -3   7  224.48    7.60
  -1   3  -7  244.48    6.60
   1   3   7  234.48    6.20
  -1   3  -7  235.98    7.80
   1   3   7  244.78    8.20
  -1   3  -7  233.28    7.80
  -1   3  -7  231.18    6.70
   3  -3   7   59.29    2.70
   3  -3   7   61.29    3.60
  -3  -3  -7   59.19    3.00
   3  -3   7   60.69    2.80
  -3  -3  -7   53.79    3.60
   3  -3   7   58.49    3.40
   3  -3   7   57.59    3.90
  -3   3  -7   60.29    2.60
  -3   3  -7   58.99    2.50
   3   3   7   63.59    2.30
  -3   3  -7   57.29    3.70
   3   3   7   62.99    2.70
   3   3   7   55.09    4.60
  -3   3  -7   62.79    3.60
  -3   3  -7   55.79    3.70
   5  -3   7   92.29    4.80
  -5  -3  -7  101.89    4.30
  -5  -3  -7  102.69    4.30
   5  -3   7  108.29    4.10
   5  -3   7  106.29    5.50
   5  -3   7  110.59    4.10
   5  -3   7  100.39    5.00
  -5   3  -7  112.19    5.30
  -5   3  -7  102.59    3.70
   5   3   7   98.99    5.30
   5   3   7  109.79    4.40
   5   3   7  106.29    4.20
   5   3   7  102.29    3.60
  -5   3  -7  106.79    4.00
  -5   3  -7  101.89    5.20
  -7  -3  -7    3.70    1.70
   7  -3   7    1.20    1.10
  -7  -3  -7    5.40    1.90
   7  -3   7    4.40    1.30
   7  -3   7    3.90    1.80
   7  -3   7    1.00    2.00
   7  -3   7    2.30    2.00
  -7   3  -7    2.50    1.20
   7   3   7    2.80    1.00
   7   3   7    2.00    1.60
  -7   3  -7    4.40    1.40
   7   3   7    3.10    1.40
  -7   3  -7    2.30    2.20
  -7   3  -7    3.30    2.30
   7   3   7   -1.20    1.90
   9  -3   7   13.20    2.80
  -9  -3  -7    9.30    1.30
  -9  -3  -7   12.40    3.00
   9  -3   7    7.00    1.70
   9  -3   7   13.80    2.90
   9  -3   7   10.40    3.00
  -9  -3  -7   12.70    1.80
   9  -3   7   10.40    1.90
  -9   3  -7   14.50    3.40
   9   3   7    9.00    2.50
   9   3   7   12.10    2.40
  -9   3  -7   11.50    2.10
   9   3   7   11.60    1.70
  -9   3  -7    9.10    3.20
  -9   3  -7   11.30    1.80
   9   3   7   13.80    2.60
 -12  -4   7   10.60    2.40
  12  -4  -7   12.50    1.60
  12  -4  -7   16.60    1.80
 -12  -4   7   14.80    2.30
 -12  -4   7   10.70    2.70
 -12  -4   7   15.00    3.10
  12  -4  -7   16.60    3.20
 -12   4   7   14.10    2.40
 -12   4   7   12.80    2.00
 -12   4   7   12.40    2.00
  12   4  -7   13.10    4.10
  12   4  -7   12.80    2.10
  12   4  -7   15.30    2.50
 -12   4   7   12.50    2.40
  12   4  -7    8.80    3.00
 -10  -4   7   12.60    1.90
 -10  -4   7   12.70    2.50
  10  -4  -7   11.50    2.30
 -10  -4   7   12.50    2.40
 -10  -4   7   13.20    2.00
  10  -4  -7   14.00    2.30
 -10   4   7   17.50    2.20
 -10   4   7   11.30    1.90
 -10   4   7   13.20    1.60
  10   4  -7   14.70    2.20
  10   4  -7   11.30    2.40
  10   4  -7   13.60    2.40
  10   4  -7   11.60    4.30
 -10   4   7   15.20    1.90
  10   4  -7   15.40    1.90
   8  -4  -7   80.89    3.90
  -8  -4   7   86.19    3.80
   8  -4  -7   84.89    4.00
  -8  -4   7   85.89    3.90
  -8  -4   7   81.39    4.50
  -8  -4   7   83.49    4.90
  -8   4   7   77.09    4.10
   8   4  -7   80.89    4.60
   8   4  -7   97.59    5.70
   8   4  -7   91.79    3.70
  -8   4   7   85.69    3.20
   8   4  -7   86.89    3.90
  -8   4   7   85.49    3.90
   8   4  -7   85.29    4.70
  -8   4   7   86.19    3.40
   6  -4  -7  221.78    6.80
  -6  -4   7  230.98    7.80
  -6  -4   7  216.08    8.00
   6  -4  -7  231.68    6.90
  -6  -4   7  238.88    7.00
  -6   4   7  228.18    6.60
   6   4  -7  233.28    6.80
  -6   4   7  231.78    5.90
   6   4  -7  239.08    6.90
   6   4  -7  234.68    8.00
   6   4  -7  223.18    8.40
  -6   4   7  215.48    6.40
  -6   4   7  215.38    6.80
   6   4  -7  235.58    7.80
   4  -4  -7   28.90    1.60
  -4  -4   7   25.00    2.50
   4  -4  -7   25.60    1.40
  -4  -4   7   26.70    1.40
   4  -4  -7   27.70    1.70
  -4  -4   7   25.20    2.10
   4   4  -7   29.00    2.90
   4   4  -7   28.90    2.60
  -4   4   7   30.10    1.30
   4   4  -7   30.70    1.90
   4   4  -7   29.50    1.90
   4   4  -7   28.60    3.10
  -4   4   7   30.80    1.40
   4   4  -7   27.70    3.00
  -2  -4   7  245.38    7.30
  -2  -4   7  241.18    8.30
  -2  -4   7  245.98    7.40
  -2  -4   7  235.98    6.60
  -2  -4   7  243.38    7.80
   2   4  -7  240.88    6.70
   2   4  -7  234.28    7.90
   2   4  -7  244.98    7.70
  -2   4   7  232.58    6.10
   2   4  -7  244.08    8.10
  -2   4   7  236.28    6.90
   2   4  -7  238.48    8.00
  -2   4   7  245.68    7.80
   2   4  -7  234.98    6.80
   0  -4   7  128.49    5.30
   0  -4   7  126.19    4.50
   0  -4   7  122.79    4.60
   0  -4   7  129.59    4.00
   0   4   7  131.89    5.30
   0   4   7  124.59    3.40
   0   4   7  126.49    3.40
   0   4   7  126.79    4.60
   0   4  -7  134.39    5.40
   0   4  -7  127.29    5.20
   0   4  -7  119.09    5.20
   0   4  -7  127.69    4.20
   0   4  -7  126.39    4.00
   0   4  -7  124.89    5.00
   2  -4   7  205.98    7.50
   2  -4   7  228.68    6.80
  -2  -4  -7  219.08    6.10
   2  -4   7  226.68    6.60
   2  -4   7  228.68    7.80
  -2  -4  -7  218.88    6.00
  -2   4  -7  224.58    6.60
  -2   4  -7  207.28    7.40
  -2   4  -7  227.48    6.40
  -2   4  -7  224.98    7.80
   2   4   7  220.08    7.90
  -2   4  -7  225.88    7.80
   2   4   7  230.08    6.10
   2   4   7  225.18    6.00
   4  -4   7  256.37    9.20
   4  -4   7  254.37    7.70
   4  -4   7  247.88    8.70
   4  -4   7  266.37    7.70
  -4  -4  -7  254.97    7.50
  -4  -4  -7  253.37    7.50
   4  -4   7  252.47    8.70
   4   4   7  245.78    7.50
  -4   4  -7  245.78    7.60
  -4   4  -7  257.97    8.80
  -4   4  -7  263.57    7.40
   4   4   7  262.27    7.50
   4   4   7  250.37    9.00
  -4   4  -7  251.67    8.60
   4   4   7  260.37    7.10
  -4   4  -7  254.17    8.90
   6  -4   7   43.70    4.00
   6  -4   7   46.90    3.80
  -6  -4  -7   51.09    3.20
   6  -4   7   43.40    2.80
  -6  -4  -7   44.60    3.10
   6  -4   7   41.00    4.00
   6  -4   7   50.39    2.90
  -6   4  -7   43.30    3.00
  -6   4  -7   47.60    4.20
   6   4   7   44.10    3.10
   6   4   7   47.10    2.90
   6   4   7   43.70    4.00
  -6   4  -7   46.50    2.60
   6   4   7   49.10    2.40
  -6   4  -7   49.70    4.50
   8  -4   7   38.20    4.50
  -8  -4  -7   41.10    3.90
   8  -4   7   40.90    3.10
   8  -4   7   33.50    4.70
   8  -4   7   39.80    3.00
   8  -4   7   39.70    4.20
  -8  -4  -7   39.30    3.80
  -8   4  -7   42.90    3.40
   8   4   7   33.30    4.30
  -8   4  -7   37.10    5.20
   8   4   7   35.50    3.70
  -8   4  -7   41.40    2.90
   8   4   7   37.30    2.60
  -8   4  -7   40.50    5.10
   8   4   7   37.90    3.50
  10  -4   7   20.40    3.60
  10  -4   7   23.90    4.00
 -10  -4  -7   22.40    2.00
 -10  -4  -7   19.60    2.00
  10  -4   7   19.10    3.30
 -10  -4  -7   21.90    3.60
 -10   4  -7   23.50    4.40
  10   4   7   24.60    3.40
  10   4   7   19.00    3.40
  10   4   7   18.80    2.20
 -10   4  -7   17.60    2.80
 -10   4  -7   21.50    4.00
  10   4   7   23.00    3.10
 -10   4  -7   22.30    2.40
  11  -5  -7   72.99    4.90
 -11  -5   7   67.39    4.50
 -11  -5   7   76.29    5.20
 -11  -5   7   68.59    4.20
 -11  -5   7   75.19    5.80
  11  -5  -7   68.09    2.90
  11  -5  -7   76.89    4.90
  11   5  -7   66.99    6.80
  11   5  -7   71.29    5.50
 -11   5   7   63.99    4.30
 -11   5   7   73.09    3.70
  11   5  -7   69.79    5.20
 -11   5   7   73.19    3.50
  11   5  -7   75.69    4.50
 -11   5   7   64.09    4.20
  11   5  -7   68.09    4.00
  -9  -5   7  109.19    4.80
  -9  -5   7  103.69    5.90
   9  -5  -7  104.69    4.80
   9  -5  -7  105.19    3.60
  -9  -5   7  102.19    4.70
   9  -5  -7  115.49    5.00
  -9  -5   7  107.19    5.50
   9   5  -7  115.19    7.00
  -9   5   7  103.69    4.40
  -9   5   7  109.79    3.80
   9   5  -7  109.69    4.50
   9   5  -7  105.59    4.80
  -9   5   7  102.69    4.50
  -9   5   7  109.99    4.50
   9   5  -7  111.69    5.70
   9   5  -7  103.59    5.60
  -7  -5   7  176.08    6.20
  -7  -5   7  178.38    5.90
   7  -5  -7  183.68    6.00
  -7  -5   7  181.38    7.20
   7  -5  -7  169.88    5.80
  -7  -5   7  177.38    6.80
  -7   5   7  167.48    5.70
   7   5  -7  166.58    4.60
   7   5  -7  178.78    7.70
  -7   5   7  186.88    5.40
   7   5  -7  182.58    6.00
  -7   5   7  177.28    5.50
   7   5  -7  172.58    6.70
  -7   5   7  171.08    5.30
  -7   5   7  176.08    4.80
   7   5  -7  174.18    7.00
   7   5  -7  176.78    5.80
   5  -5  -7  369.46   10.00
  -5  -5   7  383.36   12.10
   5  -5  -7  389.36   10.20
  -5  -5   7  339.67   11.50
  -5  -5   7  389.36   11.60
  -5  -5   7  369.86   10.00
   5   5  -7  382.96   11.80
  -5   5   7  385.36    9.90
   5   5  -7  376.26    9.70
   5   5  -7  384.16   11.80
  -5   5   7  385.06   10.00
   5   5  -7  403.96   10.70
   5   5  -7  404.76   11.60
  -5   5   7  379.66    9.90
  -5   5   7  362.76    9.70
   5   5  -7  390.66   12.20
   5   5  -7  397.86   10.60
  -3  -5   7  578.34   15.30
  -3  -5   7  586.34   16.00
   3   5  -7  588.64   16.90
   3   5  -7  616.34   15.50
   3   5  -7  586.84   16.50
   3   5  -7  585.04   16.80
   3   5  -7  583.54   16.70
  -3   5   7  607.74   15.40
  -3   5   7  614.14   16.30
  -3   5   7  589.44   14.70
   3   5  -7  609.04   15.60
  -1  -5   7  178.68    6.80
  -1  -5   7  168.28    5.80
  -1  -5   7  181.18    6.00
  -1  -5   7  174.08    5.20
   1   5  -7  170.68    5.50
   1   5  -7  174.48    6.60
   1   5  -7  178.58    6.30
   1   5  -7  176.38    6.60
   1   5  -7  169.38    5.30
   1   5  -7  177.48    6.60
  -1   5   7  176.38    6.30
  -1   5   7  170.18    5.70
   1  -5   7  338.87   10.40
   1  -5   7  355.26    9.70
   1  -5   7  356.36   11.10
  -1   5  -7  365.26    9.60
   1   5   7  365.56   10.50
   1   5   7  356.76   10.90
  -1   5  -7  341.47   11.00
  -1   5  -7  344.17   10.70
  -1   5  -7  362.06   11.10
  -1   5  -7  339.57   10.90
  -1   5  -7  345.47    9.80
   1   5   7  344.17    8.80
   3  -5   7   13.90    2.10
   3  -5   7   11.20    1.40
   3  -5   7    8.60    1.80
  -3  -5  -7   11.50    1.40
   3  -5   7   14.70    1.70
  -3  -5  -7   10.60    1.40
   3  -5   7   13.00    2.20
   3   5   7   12.40    1.30
   3   5   7   10.80    1.10
   3   5   7   13.10    1.20
  -3   5  -7   13.20    2.30
  -3   5  -7    8.60    2.10
  -3   5  -7   12.70    1.40
  -3   5  -7   14.20    2.20
  -3   5  -7   12.80    1.60
   3   5   7    8.80    3.20
   5  -5   7   57.39    4.30
   5  -5   7   53.29    2.90
  -5  -5  -7   48.60    2.90
   5  -5   7   52.09    3.00
  -5  -5  -7   50.19    2.90
   5  -5   7   55.99    4.00
   5  -5   7   52.79    4.10
   5   5   7   50.69    4.00
  -5   5  -7   51.59    3.90
   5   5   7   49.90    2.90
   5   5   7   45.80    2.70
  -5   5  -7   50.69    2.80
  -5   5  -7   52.39    3.10
  -5   5  -7   51.09    4.50
   5   5   7   49.50    2.30
  -5   5  -7   58.69    4.20
   7  -5   7   19.30    2.90
   7  -5   7    9.70    1.60
  -7  -5  -7   11.80    2.20
   7  -5   7   10.60    2.60
   7  -5   7   14.70    2.70
  -7  -5  -7   14.10    2.30
   7  -5   7   11.90    1.70
  -7   5  -7   15.50    3.30
   7   5   7   11.80    1.40
  -7   5  -7   13.10    1.80
  -7   5  -7   12.10    2.00
   7   5   7   11.00    2.40
   7   5   7   15.30    2.10
   7   5   7   12.70    1.90
   9  -5   7   60.79    5.80
   9  -5   7   66.59    4.10
  -9  -5  -7   53.69    6.20
   9  -5   7   55.39    4.00
  -9  -5  -7   57.79    5.00
  -9  -5  -7   72.79    5.20
   9  -5   7   63.19    5.40
   9  -5   7   65.69    5.90
   9   5   7   60.69    3.50
   9   5   7   65.89    4.70
  -9   5  -7   69.19    4.60
   9   5   7   64.49    4.40
  -9   5  -7   65.49    3.80
  -9   5  -7   63.39    6.70
   9   5   7   60.39    5.10
  -9   5  -7   77.69    6.10
 -12  -6   7    4.80    2.00
 -10  -6   7    3.80    1.60
  10  -6  -7    0.60    1.90
  10  -6  -7    1.60    1.90
 -10  -6   7    3.20    2.00
 -10  -6   7   -0.90    1.60
 -10  -6   7    3.80    2.60
  10  -6  -7    0.70    1.20
  10   6  -7    2.80    1.60
 -10   6   7    0.30    1.50
  10   6  -7    4.40    2.20
 -10   6   7    2.50    1.20
  10   6  -7    0.20    1.60
 -10   6   7    1.40    1.40
  10   6  -7   -0.50    3.20
  10   6  -7    1.30    0.70
  10   6  -7    4.40    2.40
 -10   6   7    0.20    1.00
   8  -6  -7   27.30    2.70
   8  -6  -7   30.40    2.90
  -8  -6   7   32.30    4.00
  -8  -6   7   29.10    2.70
  -8  -6   7   29.00    3.30
  -8  -6   7   30.20    2.90
   8   6  -7   28.50    3.70
   8   6  -7   30.50    1.50
  -8   6   7   32.40    1.50
  -8   6   7   29.70    2.50
  -8   6   7   35.20    1.80
  -8   6   7   30.00    2.70
  -8   6   7   29.90    2.10
   8   6  -7   34.40    2.80
   8   6  -7   32.80    2.90
   8   6  -7   32.50    3.90
   8   6  -7   30.30    3.50
  -6  -6   7   12.60    2.20
  -6  -6   7   14.10    2.00
  -6  -6   7   12.40    2.50
  -6  -6   7   14.10    1.80
   6  -6  -7   13.40    1.60
   6  -6  -7   13.80    1.70
   6   6  -7   14.40    1.20
   6   6  -7   10.10    2.00
  -6   6   7   16.40    1.30
  -6   6   7   11.60    1.30
  -6   6   7   13.40    1.50
   6   6  -7   13.50    2.20
   6   6  -7   15.50    2.00
  -6   6   7   13.30    1.20
   6   6  -7   16.10    2.80
   6   6  -7   14.50    1.70
  -4  -6   7   61.99    3.20
  -4  -6   7   58.79    2.60
  -4  -6   7   58.79    3.60
   4   6  -7   63.09    3.90
  -4   6   7   58.29    2.00
   4   6  -7   60.19    3.70
   4   6  -7   60.99    2.20
   4   6  -7   59.99    4.20
  -4   6   7   55.19    3.10
  -4   6   7   59.49    2.40
   4   6  -7   62.79    2.90
   4   6  -7   60.29    4.30
   4   6  -7   48.70    4.20
  -2  -6   7   97.69    4.50
  -2  -6   7   96.99    3.50
  -2  -6   7  100.49    4.30
  -2  -6   7   99.59    5.20
  -2   6   7   93.09    4.20
   2   6  -7   98.29    3.70
   2   6  -7  102.69    4.70
   2   6  -7   98.79    3.80
   2   6  -7   95.99    3.30
   2   6  -7  102.09    4.80
   2   6  -7  101.09    5.10
  -2   6   7  101.69    3.80
   2   6  -7   94.79    5.00
   0  -6   7  202.68    6.60
   0  -6   7  199.68    7.50
   0  -6   7  196.78    6.00
   0   6  -7  200.48    7.00
   0   6  -7  199.98    7.50
   0   6  -7  187.68    7.30
   0   6  -7  195.38    6.00
   0   6  -7  190.88    7.40
   0   6   7  197.28    6.60
   0   6   7  196.28    7.00
   0   6  -7  199.08    6.20
   2  -6   7  114.79    4.50
   2  -6   7  112.69    5.30
   2  -6   7  117.29    5.50
  -2   6  -7  123.39    5.80
   2   6   7  110.29    5.10
   2   6   7  114.79    5.00
   2   6   7  113.69    3.40
  -2   6  -7  122.99    5.70
  -2   6  -7  115.29    5.20
  -2   6  -7  121.29    4.20
   4  -6   7   68.29    3.40
  -4  -6  -7   61.59    2.70
   4  -6   7   60.39    4.40
  -4  -6  -7   60.99    2.80
   4  -6   7   64.49    3.10
   4  -6   7   59.39    4.40
   4  -6   7   59.29    4.10
  -4   6  -7   64.59    3.40
   4   6   7   66.19    2.50
   4   6   7   60.99    2.50
  -4   6  -7   65.79    4.50
  -4   6  -7   69.89    4.20
   4   6   7   63.19    4.20
   4   6   7   65.79    2.80
  -4   6  -7   66.89    5.00
  -4   6  -7   65.39    3.10
  -6  -6  -7  120.99    4.90
   6  -6   7  119.59    4.90
   6  -6   7  120.99    4.80
   6  -6   7  116.89    6.30
   6  -6   7  127.49    6.20
   6  -6   7  113.89    6.40
  -6  -6  -7  114.99    4.80
  -6   6  -7  126.79    6.70
  -6   6  -7  123.79    5.10
   6   6   7  118.29    6.00
  -6   6  -7  118.39    4.60
   6   6   7  120.09    4.60
  -6   6  -7  117.69    6.00
   6   6   7  118.99    4.20
   6   6   7  119.79    4.80
   8  -6   7   31.60    3.20
   8  -6   7   28.40    3.70
  -8  -6  -7   32.40    3.90
   8  -6   7   20.60    3.30
  -8  -6  -7   25.50    3.70
   8  -6   7   28.20    3.00
  -8  -6  -7   26.70    3.10
   8  -6   7   26.90    3.80
   8   6   7   29.80    3.20
  -8   6  -7   25.60    3.60
   8   6   7   27.90    3.50
   8   6   7   26.70    3.40
   8   6   7   28.00    2.50
  -8   6  -7   26.10    4.30
  -8   6  -7   32.40    4.10
  -8   6  -7   25.50    2.50
 -11  -7   7    3.30    2.50
  11  -7  -7    1.40    1.70
 -11  -7   7    0.80    1.80
 -11  -7   7    2.60    3.20
  11  -7  -7    3.50    2.50
  11   7  -7    3.60    1.20
  11   7  -7    4.00    2.70
 -11   7   7    3.80    1.40
  11   7  -7    1.20    2.10
 -11   7   7    2.00    1.80
 -11   7   7   -0.20    1.70
  11   7  -7    2.50    4.00
  11   7  -7    4.80    2.00
 -11   7   7    2.20    1.20
   9  -7  -7   32.90    2.70
  -9  -7   7   30.60    3.10
   9  -7  -7   28.90    3.40
  -9  -7   7   28.30    3.70
   9  -7  -7   32.10    3.10
  -9  -7   7   27.90    3.20
  -9  -7   7   31.10    4.60
  -9   7   7   30.70    2.70
   9   7  -7   29.90    4.40
  -9   7   7   28.00    2.60
  -9   7   7   24.50    2.50
   9   7  -7   27.20    4.00
   9   7  -7   31.80    4.30
   9   7  -7   31.90    3.10
   9   7  -7   32.20    1.80
  -9   7   7   32.40    1.90
   9   7  -7   32.40    3.30
  -7  -7   7    7.20    2.30
   7  -7  -7    6.00    1.30
   7  -7  -7    6.40    1.50
  -7  -7   7    6.60    1.50
  -7  -7   7    3.50    1.90
  -7  -7   7    4.00    1.60
   7   7  -7    5.10    1.40
  -7   7   7    5.10    1.10
   7   7  -7    6.90    2.20
   7   7  -7    5.40    1.50
  -7   7   7    6.00    1.00
   7   7  -7    6.70    0.90
  -7   7   7    5.70    0.80
  -7   7   7    7.20    1.30
  -7   7   7    4.30    0.80
  -7   7   7    2.60    1.00
   7   7  -7    5.50    1.90
   5  -7  -7  113.69    3.60
   5  -7  -7  114.99    3.40
  -5  -7   7  101.59    5.20
  -5  -7   7  113.49    4.80
  -5  -7   7  111.89    4.20
  -5  -7   7  119.09    4.40
   5   7  -7  119.59    4.50
  -5   7   7  115.09    3.50
  -5   7   7  115.19    3.80
   5   7  -7  120.29    6.10
   5   7  -7  119.49    6.20
   5   7  -7  115.89    5.70
   5   7  -7  117.89    5.40
   5   7  -7  119.69    3.70
  -5   7   7  120.79    4.40
  -3  -7   7  131.89    5.70
  -3  -7   7  134.09    4.60
  -3  -7   7  130.39    5.20
   3   7  -7  136.39    6.20
   3   7  -7  138.09    4.20
   3   7  -7  138.59    4.90
  -3   7   7  129.29    3.50
   3   7  -7  123.69    5.60
  -3   7   7  136.19    4.60
   3   7  -7  144.19    6.30
  -3   7   7  132.59    5.00
   3   7  -7  136.79    4.80
   3   7  -7  137.09    5.90
  -1  -7   7  103.19    3.90
  -1  -7   7  107.59    5.60
  -1  -7   7  103.19    4.50
  -1  -7   7  110.49    4.60
   1   7  -7  105.29    4.20
   1   7  -7  105.49    5.50
   1   7  -7  110.29    4.00
   1   7  -7  107.69    3.70
  -1   7   7  100.59    4.20
   1   7  -7  106.99    5.30
   1   7  -7  104.79    5.50
   1   7  -7  103.69    4.90
  -1   7   7  109.09    4.60
   1  -7   7   50.79    3.10
   1  -7   7   49.80    3.20
   1  -7   7   49.99    4.00
  -1   7  -7   50.39    3.60
  -1   7  -7   58.09    3.00
   1   7   7   49.10    3.30
  -1   7  -7   51.79    4.30
   1   7   7   51.79    1.70
  -1   7  -7   54.49    2.70
   1   7   7   51.79    3.30
  -1   7  -7   56.59    4.10
  -1   7  -7   54.89    4.10
   3  -7   7   17.50    2.40
   3  -7   7   23.20    2.20
  -3  -7  -7   20.30    1.30
  -3  -7  -7   21.10    1.50
   3  -7   7   25.40    2.40
   3  -7   7   16.60    2.70
  -3   7  -7   22.10    2.50
   3   7   7   20.80    2.90
   3   7   7   22.80    1.30
  -3   7  -7   18.20    2.80
  -3   7  -7   25.00    3.20
   3   7   7   17.90    2.30
  -3   7  -7   27.00    3.30
  -3   7  -7   22.30    2.40
   5  -7   7   48.80    4.60
   5  -7   7   58.19    3.40
  -5  -7  -7   51.39    2.90
   5  -7   7   50.19    4.50
   5  -7   7   53.99    3.20
   5  -7   7   56.29    4.30
  -5   7  -7   56.49    4.30
   5   7   7   53.29    2.80
   5   7   7   46.50    4.20
  -5   7  -7   55.19    3.10
  -5   7  -7   50.69    4.70
  -5   7  -7   55.69    5.20
  -5   7  -7   52.09    3.50
   5   7   7   48.60    4.10
   5   7   7   50.09    2.40
   5   7   7   50.69    2.70
  -7  -7  -7   24.20    3.30
  -7  -7  -7   23.20    2.60
   7  -7   7   39.10    4.60
   7  -7   7   25.20    3.40
   7  -7   7   25.70    3.70
  -7  -7  -7   18.80    3.30
   7  -7   7   21.60    3.00
   7   7   7   23.50    2.20
   7   7   7   23.40    2.70
  -7   7  -7   19.80    3.70
  -7   7  -7   17.00    2.50
   7   7   7   27.70    3.90
  -7   7  -7   24.10    2.70
  -7   7  -7   28.00    3.90
   7   7   7   26.10    2.90
  -7   7  -7   25.00    3.50
 -10  -8   7    0.20    3.10
 -10  -8   7   -0.20    2.50
  10  -8  -7    6.60    1.90
  10  -8  -7    5.20    2.20
 -10  -8   7    7.30    2.60
 -10  -8   7    3.20    1.50
  10  -8  -7    6.60    2.30
  10   8  -7    4.00    1.90
 -10   8   7    6.50    1.50
  10   8  -7    4.20    1.20
  10   8  -7   11.50    3.80
  10   8  -7    2.00    2.00
  10   8  -7    5.00    2.90
 -10   8   7    4.30    1.70
 -10   8   7    8.20    1.80
  10   8  -7    7.50    2.80
 -10   8   7    4.80    0.90
  -8  -8   7    6.90    1.80
  -8  -8   7    9.50    2.50
  -8  -8   7   13.40    3.10
   8  -8  -7    7.40    1.60
  -8  -8   7    8.00    1.90
   8  -8  -7    8.50    1.80
   8  -8  -7    9.80    2.00
   8   8  -7    7.10    2.50
   8   8  -7    7.10    1.70
  -8   8   7    8.50    1.10
  -8   8   7   10.60    1.50
  -8   8   7   11.50    1.40
   8   8  -7    9.50    2.90
  -8   8   7    7.20    0.90
  -8   8   7    8.10    1.50
   8   8  -7    9.70    2.00
   8   8  -7    9.60    1.20
  -8   8   7    8.60    1.20
   8   8  -7   16.30    3.40
  -6  -8   7  107.19    4.50
   6  -8  -7  106.99    3.70
  -6  -8   7  106.19    4.90
  -6  -8   7  106.09    5.60
   6  -8  -7  106.99    4.00
   6   8  -7  104.99    4.70
  -6   8   7  114.59    3.80
  -6   8   7  107.29    3.60
   6   8  -7  115.99    3.70
   6   8  -7  106.79    4.60
   6   8  -7  111.29    6.60
  -6   8   7  106.89    3.90
   6   8  -7  119.39    5.90
   6   8  -7  110.39    6.40
   6   8  -7  101.29    5.50
  -6   8   7  110.49    3.20
  -6   8   7  106.09    3.50
  -4  -8   7   42.40    3.00
  -4  -8   7   42.10    2.70
  -4  -8   7   43.30    3.60
  -4   8   7   41.70    1.60
  -4   8   7   39.50    2.60
   4   8  -7   40.10    3.60
   4   8  -7   45.10    4.00
   4   8  -7   44.60    4.50
   4   8  -7   45.00    2.30
   4   8  -7   43.90    4.40
   4   8  -7   45.70    3.00
   4   8  -7   37.00    2.80
  -4   8   7   41.10    2.30
  -2  -8   7  339.77   10.60
  -2  -8   7  330.87   10.30
  -2  -8   7  326.77    9.80
  -2  -8   7  344.07   12.00
   2   8  -7  348.97   11.00
   2   8  -7  314.47   11.00
  -2   8   7  344.17   10.00
  -2   8   7  340.87    9.90
   2   8  -7  342.37    9.30
   2   8  -7  351.66   11.50
   2   8  -7  349.96   10.10
   2   8  -7  344.17    9.90
   2   8  -7  341.57   11.50
   0  -8   7  157.78    6.00
   0  -8   7  162.48    7.40
   0   8  -7  159.78    7.10
   0   8  -7  159.28    5.20
   0   8  -7  166.68    6.90
   0   8  -7  166.78    5.80
   0   8  -7  156.68    6.50
   0   8  -7  166.58    7.10
   0   8   7  162.98    6.00
   0   8   7  159.98    6.00
   0   8  -7  155.48    5.40
   2  -8   7  128.19    6.50
   2  -8   7  130.59    6.20
   2  -8   7  131.29    4.90
   2  -8   7  126.99    5.20
  -2   8  -7  127.29    4.80
  -2   8  -7  137.19    5.20
  -2   8  -7  135.39    6.50
  -2   8  -7  131.29    6.60
   2   8   7  123.19    5.70
  -2   8  -7  129.69    6.00
   2   8   7  125.39    3.80
   2   8   7  138.09    5.70
  -2   8  -7  137.89    6.80
   4  -8   7  141.49    5.80
  -4  -8  -7  148.59    4.80
   4  -8   7  163.28    7.20
   4  -8   7  153.28    5.60
   4  -8   7  148.19    6.90
   4  -8   7  159.18    7.20
  -4  -8  -7  148.79    4.80
   4   8   7  158.08    4.70
   4   8   7  148.19    6.60
  -4   8  -7  160.38    6.90
  -4   8  -7  153.98    5.90
  -4   8  -7  148.79    5.40
  -4   8  -7  160.08    7.30
  -4   8  -7  163.38    7.70
   4   8   7  151.78    4.70
   4   8   7  143.69    6.50
   6  -8   7  108.59    5.40
  -6  -8  -7  101.79    4.70
   6  -8   7  117.09    6.50
   6  -8   7  120.59    6.50
   6  -8   7  117.99    6.70
   6  -8   7  111.89    5.10
  -6  -8  -7  106.69    6.60
  -6  -8  -7  112.99    4.70
   6   8   7  119.69    4.70
  -6   8  -7  115.79    6.70
  -6   8  -7  110.69    5.40
   6   8   7  112.19    4.20
   6   8   7  102.89    5.70
  -6   8  -7  106.59    4.70
   6   8   7  113.79    6.10
  -6   8  -7  106.89    6.10
  -6   8  -7  117.49    7.30
   6   8   7  110.39    5.90
   8  -8   7   31.90    4.00
  -8  -8  -7   42.10    4.40
  -8  -8  -7   37.70    4.60
   8  -8   7   31.10    4.70
  -8  -8  -7   38.70    5.00
   8  -8   7   52.29    5.80
  -8   8  -7   36.40    3.60
   8   8   7   36.80    5.00
   8   8   7   46.70    3.90
   8   8   7   39.30    3.00
  -8   8  -7   48.30    6.00
   8   8   7   32.40    4.50
   8   8   7   38.50    3.40
  -8   8  -7   38.10    3.40
  -8   8  -7   41.80    5.60
   9  -9  -7    8.60    2.10
  -9  -9   7    8.30    3.10
  -9  -9   7    8.60    1.80
  -9  -9   7    8.50    2.50
   9  -9  -7   10.40    2.20
   9  -9  -7   12.30    2.50
  -9  -9   7   10.90    2.70
   9   9  -7    9.20    2.20
   9   9  -7    2.50    3.40
  -9   9   7   10.70    1.70
   9   9  -7    9.50    2.20
   9   9  -7    8.70    1.50
   9   9  -7   12.00    3.10
  -9   9   7    9.30    1.30
   9   9  -7   12.00    3.20
  -9   9   7    6.40    1.70
  -9   9   7    7.30    1.50
  -7  -9   7   22.10    3.00
  -7  -9   7   22.50    3.20
  -7  -9   7   29.40    4.00
   7  -9  -7   28.70    2.80
   7  -9  -7   25.00    2.40
  -7  -9   7   29.30    3.00
   7  -9  -7   25.40    3.40
   7   9  -7   28.10    2.20
  -7   9   7   30.40    2.00
   7   9  -7   27.20    3.60
   7   9  -7   24.20    3.70
  -7   9   7   25.70    2.00
   7   9  -7   29.00    3.10
   7   9  -7   30.60    4.20
  -7   9   7   26.70    2.00
  -7   9   7   28.50    2.00
   7   9  -7   19.10    3.00
   7   9  -7   28.10    3.10
  -7   9   7   29.30    1.90
  -5  -9   7   51.29    3.20
  -5  -9   7   50.39    4.10
  -5  -9   7   55.79    3.20
  -5  -9   7   61.39    3.80
   5   9  -7   57.19    3.50
   5   9  -7   57.69    5.30
  -5   9   7   55.99    2.80
   5   9  -7   56.59    3.40
   5   9  -7   56.49    2.70
  -5   9   7   58.79    2.20
   5   9  -7   62.09    4.90
   5   9  -7   59.09    4.40
   5   9  -7   63.69    5.40
  -5   9   7   52.49    2.60
  -3  -9   7  102.49    4.70
  -3  -9   7   97.19    5.30
  -3  -9   7  103.89    4.40
  -3   9   7  100.59    4.10
   3   9  -7   98.79    5.50
   3   9  -7  104.19    3.80
  -3   9   7   98.79    4.00
   3   9  -7  103.29    4.50
   3   9  -7  101.39    5.20
   3   9  -7   98.59    5.90
   3   9  -7  104.59    6.00
  -3   9   7   99.99    2.90
   3   9  -7   93.69    4.20
  -1  -9   7   47.00    3.00
  -1  -9   7   40.40    4.50
  -1  -9   7   47.60    3.50
   1   9  -7   46.20    4.60
  -1   9   7   43.70    3.10
   1   9  -7   49.00    2.60
  -1   9   7   42.10    2.90
   1   9  -7   41.60    4.70
   1   9  -7   41.50    4.00
   1   9  -7   49.30    3.80
   1   9  -7   43.30    3.10
   1   9  -7   41.70    2.80
   1  -9   7   46.20    4.60
   1  -9   7   57.89    3.20
   1  -9   7   53.19    3.60
   1   9   7   57.69    2.00
   1   9   7   55.49    3.60
  -1   9  -7   56.49    5.00
  -1   9  -7   57.09    4.70
  -1   9  -7   58.59    3.10
  -1   9  -7   56.69    2.90
  -1   9  -7   57.09    3.40
  -1   9  -7   54.79    4.10
   1   9   7   58.19    3.70
  -1   9  -7   57.89    4.60
  -3  -9  -7   10.80    1.40
   3  -9   7    8.90    2.60
   3  -9   7   20.80    3.10
   3  -9   7   12.10    1.80
   3  -9   7    7.40    1.60
   3   9   7   15.30    2.30
   3   9   7    9.80    1.30
  -3   9  -7   13.50    3.10
   3   9   7    8.80    2.10
  -3   9  -7    5.90    2.30
  -3   9  -7   11.90    2.00
  -3   9  -7   13.80    3.10
   5  -9   7    4.20    1.60
   5  -9   7    2.80    2.20
   5  -9   7    2.10    1.50
  -5  -9  -7    3.70    1.60
  -5  -9  -7    5.80    1.50
   5  -9   7    6.30    2.50
  -5  -9  -7    5.30    2.60
   5  -9   7    0.30    2.50
   5   9   7    5.00    1.20
  -5   9  -7    3.00    1.80
   5   9   7    1.40    2.10
  -5   9  -7    1.40    3.00
   5   9   7    4.30    1.10
  -5   9  -7    3.10    1.40
  -5   9  -7    3.90    2.60
   5   9   7    2.80    1.00
  -5   9  -7    2.50    3.10
   5   9   7    3.00    1.20
   5   9   7    1.60    1.90
  -7  -9  -7   20.00    2.60
   7  -9   7   16.50    3.70
  -7  -9  -7   16.00    2.60
   7  -9   7   11.60    2.30
  -7  -9  -7   16.80    3.70
   7  -9   7   18.40    3.40
   7  -9   7   19.40    3.60
  -7   9  -7   14.20    3.70
  -7   9  -7   14.60    2.70
  -7   9  -7   21.80    5.50
   7   9   7   18.40    2.00
  -7   9  -7   22.10    3.00
   7   9   7   16.50    2.50
   7   9   7   17.90    2.40
  -7   9  -7   18.70    4.50
   7   9   7   16.90    2.20
   7   9   7   15.20    2.80
   7   9   7   13.20    2.70
   8 -10  -7    1.80    1.60
  -8 -10   7    3.00    2.10
   8 -10  -7   -1.10    2.10
  -8 -10   7    0.40    3.00
  -8 -10   7    0.60    2.30
  -8 -10   7   -2.00    1.40
   8 -10  -7    0.90    1.90
  -8  10   7   -0.60    1.30
  -8  10   7   -0.20    1.60
  -8  10   7    0.20    1.20
   8  10  -7    3.70    4.30
   8  10  -7    0.40    1.30
   8  10  -7   -3.30    3.30
  -8  10   7    1.00    1.10
   8  10  -7    6.30    3.00
  -8  10   7    0.30    1.00
   8  10  -7   -4.50    2.50
   8  10  -7    1.20    1.80
   8  10  -7   -1.10    1.70
   6 -10  -7   39.00    2.80
  -6 -10   7   40.20    3.20
  -6 -10   7   38.60    3.40
  -6 -10   7   35.90    3.20
  -6 -10   7   29.20    4.20
   6 -10  -7   35.30    2.20
   6  10  -7   36.00    2.60
   6  10  -7   32.70    4.30
  -6  10   7   38.80    2.50
   6  10  -7   40.40    4.80
   6  10  -7   49.60    5.90
   6  10  -7   31.60    4.00
  -6  10   7   37.50    2.00
   6  10  -7   36.30    3.30
  -6  10   7   34.60    1.80
   6  10  -7   36.50    3.30
  -4 -10   7   72.49    4.80
  -4 -10   7   82.89    4.50
  -4 -10   7   78.19    3.80
  -4 -10   7   76.29    5.10
   4  10  -7   83.59    4.30
  -4  10   7   87.59    3.20
   4  10  -7   85.29    6.10
   4  10  -7   87.89    3.60
   4  10  -7   84.29    5.20
   4  10  -7   90.49    7.80
   4  10  -7   79.89    4.10
   4  10  -7   88.99    5.60
  -4  10   7   86.49    3.80
  -4  10   7   84.39    2.80
  -2 -10   7   60.79    3.70
  -2 -10   7   62.19    5.50
  -2  10   7   66.09    2.20
   2  10  -7   68.19    3.60
   2  10  -7   60.59    4.20
   2  10  -7   75.79    5.80
   2  10  -7   66.99    4.60
   2  10  -7   66.49    4.90
  -2  10   7   65.59    3.60
   2  10  -7   74.39    5.50
  -2  10   7   67.59    3.30
   2  10  -7   65.79    3.80
   0 -10   7    7.30    2.60
   0 -10   7    8.60    2.10
   0 -10   7    5.40    1.50
   0  10  -7    7.80    1.60
   0  10  -7   11.80    3.00
   0  10  -7    7.60    1.70
   0  10  -7   15.50    3.50
   0  10   7    9.60    1.70
   0  10   7    5.10    1.60
   0  10  -7   10.00    2.30
   0  10  -7    7.90    2.30
   0  10   7    8.10    1.00
   0  10  -7    6.80    1.40
   2 -10   7  150.88    6.10
   2 -10   7  140.09    5.60
   2 -10   7  140.29    7.30
  -2  10  -7  138.59    7.20
   2  10   7  147.29    5.90
  -2  10  -7  138.39    5.20
   2  10   7  139.29    6.20
  -2  10  -7  138.79    7.20
   2  10   7  139.79    4.30
  -2  10  -7  144.29    5.30
  -2  10  -7  133.09    6.60
  -2  10  -7  143.49    5.80
  -2  10  -7  146.79    8.40
   4 -10   7    3.30    2.40
   4 -10   7    9.50    3.00
   4 -10   7    6.80    1.70
   4 -10   7    5.10    1.80
  -4 -10  -7    7.00    1.40
   4 -10   7    9.60    3.00
  -4  10  -7   10.10    1.80
   4  10   7    7.40    1.10
  -4  10  -7    8.60    2.90
  -4  10  -7   12.30    2.80
   4  10   7    5.60    2.20
   4  10   7    1.70    1.80
  -4  10  -7   -0.70    3.10
   4  10   7    6.80    1.00
   4  10   7    7.20    1.20
  -4  10  -7    5.00    2.00
  -6 -10  -7    0.70    1.90
   6 -10   7    0.50    3.00
   6 -10   7   -1.90    2.50
   6 -10   7   -2.10    1.80
  -6 -10  -7    3.80    3.00
   6 -10   7    0.30    2.90
  -6  10  -7   -1.00    1.50
   6  10   7    1.80    2.00
  -6  10  -7   -1.70    2.80
   6  10   7   -1.30    1.50
  -6  10  -7    3.20    3.40
   6  10   7    0.00    1.40
   6  10   7    1.60    2.40
  -6  10  -7   -2.00    2.00
   6  10   7   -0.80    1.30
   6  10   7    1.90    1.10
  -7 -11   7   29.80    3.60
   7 -11  -7   36.20    4.40
  -7 -11   7   24.90    3.70
  -7 -11   7   25.70    3.10
   7 -11  -7   29.10    2.70
   7 -11  -7   28.20    3.40
   7  11  -7   26.00    3.90
   7  11  -7   46.70    6.40
  -7  11   7   28.70    2.30
   7  11  -7   33.30    4.90
  -7  11   7   29.30    2.50
   7  11  -7   28.10    3.60
   7  11  -7   37.30    4.90
  -7  11   7   24.90    2.20
   7  11  -7   27.30    3.70
  -5 -11   7   62.39    4.00
   5 -11  -7   59.79    2.90
  -5 -11   7   62.69    4.20
  -5 -11   7   56.89    4.90
  -5 -11   7   60.49    3.80
   5  11  -7   60.19    3.90
   5  11  -7   62.19    5.90
  -5  11   7   59.99    2.50
   5  11  -7   69.09    6.70
  -5  11   7   56.79    3.30
   5  11  -7   48.00    5.30
   5  11  -7   63.79    4.30
   5  11  -7   60.69    5.00
   5  11  -7   67.19    4.10
  -3 -11   7   26.00    3.10
  -3 -11   7   19.20    2.50
  -3 -11   7   20.80    2.50
  -3 -11   7   20.00    3.10
   3  11  -7   18.40    2.90
   3  11  -7   23.70    2.50
   3  11  -7   19.40    2.40
  -3  11   7   24.50    1.90
   3  11  -7   20.20    4.10
   3  11  -7   26.60    3.70
   3  11  -7   26.30    3.30
  -3  11   7   23.50    2.60
   3  11  -7   17.10    3.60
  -3  11   7   22.10    1.40
  -1 -11   7    3.80    1.60
  -1 -11   7    1.10    2.70
  -1 -11   7    3.70    1.90
   1  11  -7    2.20    2.50
   1  11  -7    3.00    2.10
   1  11  -7   -2.90    2.90
  -1  11   7    3.30    1.60
   1  11  -7    2.30    1.40
  -1  11   7    4.30    0.80
   1  11  -7    4.20    1.40
   1  11  -7    4.60    2.40
  -1  11   7    6.30    1.50
  -1  11   7    4.20    0.90
   1  11  -7    5.10    1.80
   1 -11   7   14.10    2.60
   1 -11   7   17.40    3.40
   1 -11   7   14.60    2.00
   1  11   7   12.50    2.20
  -1  11  -7   17.60    2.40
  -1  11  -7   11.20    3.10
  -1  11  -7    9.30    2.50
  -1  11  -7   20.30    2.60
  -1  11  -7   23.70    3.70
   1  11   7   15.20    1.40
   1  11   7   17.30    2.10
  -1  11  -7   14.30    1.80
  -1  11  -7   11.40    3.40
   3 -11   7    8.90    2.30
   3 -11   7    7.10    3.20
   3 -11   7    6.90    1.90
   3  11   7    8.80    2.30
  -3  11  -7   12.20    3.40
  -3  11  -7    9.00    3.10
  -3  11  -7    9.70    2.70
  -3  11  -7    9.00    1.70
  -3  11  -7   11.30    2.20
  -3  11  -7   11.10    1.80
   3  11   7    9.70    1.20
   3  11   7   13.60    2.30
  -3  11  -7   14.00    4.20
   5 -11   7   -3.30    2.60
   5 -11   7   -0.50    3.10
  -5 -11  -7   -0.40    2.90
  -5 -11  -7    2.30    1.70
   5 -11   7   -1.20    1.70
   5 -11   7    7.20    3.40
  -5  11  -7   -0.20    3.20
   5  11   7   -0.90    1.30
   5  11   7   -0.20    2.20
   5  11   7    0.80    1.90
  -5  11  -7    3.20    1.60
   5  11   7    1.10    1.20
  -5  11  -7    4.20    3.50
   5  11   7    2.00    1.40
  -5  11  -7    0.30    2.10
  -5  11  -7    4.70    4.10
   6 -12  -7   14.20    2.10
  -6 -12   7    8.40    2.90
  -6 -12   7    9.20    3.30
  -6 -12   7   14.20    2.50
  -6 -12   7   13.20    2.60
   6  12  -7   15.90    2.00
   6  12  -7    9.70    2.00
   6  12  -7    9.40    4.30
   6  12  -7   10.40    3.80
   6  12  -7   10.90    3.40
  -6  12   7   12.30    1.50
   6  12  -7   12.40    2.60
  -6  12   7   12.90    1.70
   6  12  -7   16.10    3.60
  -4 -12   7   53.89    3.70
  -4 -12   7   46.60    4.00
  -4 -12   7   55.29    4.30
  -4 -12   7   54.59    5.20
   4  12  -7   57.29    4.30
   4  12  -7   60.69    6.20
   4  12  -7   57.49    6.80
   4  12  -7   64.89    5.80
   4  12  -7   56.59    3.40
   4  12  -7   50.09    5.10
  -4  12   7   57.29    2.40
   4  12  -7   55.39    3.80
  -4  12   7   57.19    3.40
  -2 -12   7    2.20    1.30
  -2 -12   7   -0.90    3.00
  -2 -12   7    2.80    1.80
   2  12  -7    0.70    3.00
  -2  12   7    3.60    1.60
   2  12  -7    5.90    2.10
   2  12  -7   -0.10    2.30
   2  12  -7    3.40    2.60
  -2  12   7    3.90    1.10
   2  12  -7    6.20    4.00
   2  12  -7    6.50    1.80
   2  12  -7    6.80    1.60
  -2  12   7    5.40    0.90
  -2  12   7    6.60    1.00
   0 -12   7   45.50    3.90
   0 -12   7   32.40    4.30
   0 -12   7   38.80    4.90
   0  12  -7   33.50    3.60
   0  12   7   42.50    3.80
   0  12  -7   39.80    3.00
   0  12   7   39.50    2.10
   0  12  -7   39.70    3.30
   0  12   7   33.70    2.80
   0  12  -7   40.80    5.20
   0  12   7   39.10    2.10
   0  12  -7   42.20    5.30
   0  12  -7   34.90    4.60
   0  12  -7   35.90    4.60
   2 -12   7   52.59    6.20
   2 -12   7   42.60    3.90
   2 -12   7   47.00    4.60
  -2  12  -7   52.89    6.00
   2  12   7   50.59    3.60
  -2  12  -7   40.70    4.80
   2  12   7   39.30    4.20
  -2  12  -7   58.39    7.10
   2  12   7   51.09    2.50
  -2  12  -7   47.70    3.40
  -2  12  -7   45.60    4.90
  -2  12  -7   45.10    4.10
  -2  12  -7   49.20    3.50
   4 -12   7   63.29    6.30
   4 -12   7   52.69    5.80
   4 -12   7   57.89    4.50
   4 -12   7   44.40    6.30
  -4 -12  -7   45.10    3.40
   4  12   7   41.00    4.80
  -4  12  -7   58.79    6.30
  -4  12  -7   61.39    6.20
   4  12   7   55.19    4.20
  -4  12  -7   46.70    6.50
  -4  12  -7   53.09    3.80
   4  12   7   53.29    2.90
  -3 -13   7    5.80    1.90
  -3 -13   7    2.70    2.30
   3  13  -7    8.90    3.90
   3  13  -7    8.60    1.90
  -3  13   7    9.40    2.00
  -3  13   7    7.30    0.80
  -3  13   7    5.70    1.10
   3  13  -7    9.20    4.50
   3  13  -7   11.60    3.40
   3  13  -7    8.10    3.30
   3  13  -7    7.70    2.00
   3  13  -7   10.00    3.20
  -1 -13   7    7.40    1.80
  -1 -13   7    6.50    2.30
  -1 -13   7   10.70    4.00
  -1  13   7    9.40    1.20
   1  13  -7    7.60    3.10
   1  13  -7    6.20    2.40
   1  13  -7    5.80    1.80
  -1  13   7    8.30    1.20
   1  13  -7   11.80    3.60
   1  13  -7    5.70    3.60
   1  13  -7    2.70    2.60
  -1  13   7    9.90    1.40
   1  13  -7    8.70    2.00
  -1  13   7    7.00    2.10
   1 -13   7    8.20    3.80
   1 -13   7    1.80    2.10
  -1  13  -7   -3.50    3.80
   1  13   7   -0.90    1.00
  -1  13  -7    5.80    3.20
  -1  13  -7    6.00    3.10
  -1  13  -7    3.20    1.60
  -1  13  -7    1.90    1.50
   1  13   7    0.10    2.00
   1  13   7   -1.00    1.10
  -1  13  -7   -1.20    2.90
 -12   0   8   92.29    4.90
 -12   0   8   87.99    5.30
  12   0  -8   99.29    3.90
  12   0  -8  101.09    4.50
 -12   0   8   91.59    4.70
 -12   0   8   84.39    5.50
  10   0  -8   45.10    4.00
  10   0  -8   43.10    2.50
 -10   0   8   38.90    3.50
  10   0  -8   37.80    4.00
  10   0  -8   38.70    2.10
 -10   0   8   33.10    3.60
 -10   0   8   41.00    3.00
 -10   0   8   37.80    3.00
  -8   0   8  418.96   11.40
   8   0  -8  406.06   10.40
  -8   0   8  373.86   12.10
   8   0  -8  404.86   10.40
   8   0  -8  433.96   13.10
  -8   0   8  409.56   12.00
   8   0  -8  389.96   12.10
   8   0  -8  419.86   12.20
  -8   0   8  414.86   11.70
   6   0  -8   85.19    4.00
  -6   0   8   92.09    3.50
  -6   0   8   85.59    4.00
  -6   0   8   87.99    4.40
   6   0  -8   86.69    4.50
   6   0  -8   89.09    3.90
  -4   0   8  183.78    5.90
   4   0  -8  170.68    6.40
   4   0  -8  189.58    6.00
  -4   0   8  190.18    5.60
   4   0  -8  189.88    6.30
   4   0  -8  179.28    6.00
   2   0  -8    9.00    1.50
  -2   0   8    9.70    1.30
   2   0  -8    8.50    1.30
   2   0  -8   11.10    1.50
   2   0  -8   11.40    1.50
  -2   0   8    8.00    1.10
  -2   0   8    9.70    0.90
   0   0   8   63.69    3.20
   0   0  -8   68.69    3.00
   0   0   8   67.09    2.60
   0   0   8   66.69    2.80
   0   0   8   66.89    2.50
   0   0  -8   65.09    3.10
   0   0  -8   66.79    3.30
   0   0  -8   65.29    3.10
   2   0   8  297.37   10.10
  -2   0  -8  295.97    8.80
  -2   0  -8  288.27    8.80
   2   0   8  281.47    8.80
   2   0   8  308.07    8.90
  -2   0  -8  291.37    8.90
   2   0   8  298.17    8.20
   4   0   8  451.85   13.20
   4   0   8  455.75   13.30
  -4   0  -8  487.15   13.40
   4   0   8  470.55   14.50
  -4   0  -8  445.66   13.20
   4   0   8  463.45   12.40
   6   0   8   58.19    2.90
   6   0   8   54.69    3.80
  -6   0  -8   62.09    4.30
   6   0   8   52.09    4.80
  -6   0  -8   59.19    2.20
  -6   0  -8   50.99    6.20
  -6   0  -8   53.79    2.20
   8   0   8  111.59    5.80
  -8   0  -8   99.99    6.40
   8   0   8  106.29    4.90
  -8   0  -8  104.69    4.00
   8   0   8   95.29    6.40
  -8   0  -8  106.59    3.90
   8   0   8  106.89    5.60
  -8   0  -8  114.59    6.20
   8   0   8  110.49    4.60
  11  -1  -8    1.50    1.00
  11  -1  -8    1.50    2.30
  11  -1  -8    0.90    2.20
 -11  -1   8   -0.10    1.50
 -11  -1   8   -0.60    1.40
 -11  -1   8    2.20    2.10
  11  -1  -8    2.50    1.20
 -11  -1   8   -0.10    1.70
  11   1  -8    1.40    2.30
 -11   1   8    1.10    1.30
  11   1  -8    3.40    2.30
 -11   1   8    0.30    1.70
  11   1  -8    0.90    1.50
 -11   1   8   -0.70    1.80
  11   1  -8    2.40    1.20
 -11   1   8    1.60    1.40
   9  -1  -8   42.90    1.80
  -9  -1   8   44.80    3.70
  -9  -1   8   46.10    3.60
   9  -1  -8   45.10    1.70
   9  -1  -8   53.19    3.80
   9  -1  -8   47.90    3.70
  -9  -1   8   44.70    2.90
  -9  -1   8   45.50    3.00
   9   1  -8   46.40    2.30
  -9   1   8   47.20    3.40
   9   1  -8   51.99    5.20
   9   1  -8   48.20    2.50
  -9   1   8   44.40    2.90
   9   1  -8   51.89    3.80
  -9   1   8   51.09    2.90
  -9   1   8   44.60    3.30
   9   1  -8   45.50    3.80
  -7  -1   8    3.70    1.00
   7  -1  -8    5.60    1.60
  -7  -1   8    2.50    1.30
   7  -1  -8    3.70    1.40
  -7  -1   8    4.60    1.20
  -7  -1   8    4.00    1.50
   7  -1  -8    6.80    2.00
   7   1  -8    4.50    0.70
  -7   1   8    6.40    1.40
   7   1  -8    3.70    0.80
  -7   1   8    3.90    1.30
   7   1  -8    3.10    2.10
   7   1  -8    5.60    1.50
  -7   1   8    4.50    1.10
   7   1  -8    3.60    1.50
  -5  -1   8   49.40    2.90
  -5  -1   8   47.70    2.50
   5  -1  -8   47.40    2.70
   5  -1  -8   45.80    3.10
   5   1  -8   47.70    1.60
   5   1  -8   50.99    3.10
  -5   1   8   50.79    2.30
   5   1  -8   53.49    3.00
   5   1  -8   46.10    3.10
   5   1  -8   45.90    1.60
   5   1  -8   49.70    3.50
  -5   1   8   50.39    2.60
  -3  -1   8  115.29    3.90
   3  -1  -8  107.89    3.90
  -3  -1   8  106.59    3.00
   3  -1  -8  109.49    4.40
   3  -1  -8  108.79    4.20
  -3  -1   8  107.39    4.00
   3  -1  -8  108.09    3.80
  -3   1   8  108.79    3.60
  -3   1   8  104.29    3.30
   3   1  -8  111.29    4.30
  -3   1   8  108.09    3.00
   3   1  -8  108.49    4.50
  -3   1   8  109.49    3.70
   3   1  -8  107.49    4.40
  -1  -1   8  514.05   13.80
   1  -1  -8  526.35   13.80
   1  -1  -8  519.45   13.80
   1  -1  -8  525.55   13.80
  -1  -1   8  527.35   13.40
  -1  -1   8  544.65   14.00
   1   1  -8  512.45   14.30
  -1   1   8  530.45   13.50
  -1   1   8  526.35   13.60
   1   1  -8  531.05   14.30
   1   1  -8  514.65   14.30
   1   1  -8  529.15   14.40
   1  -1   8  162.88    5.80
   1  -1   8  174.18    5.10
  -1  -1  -8  166.18    5.30
   1  -1   8  169.78    5.20
  -1  -1  -8  161.78    5.30
   1  -1   8  162.88    6.70
  -1  -1  -8  165.68    5.40
  -1  -1  -8  169.08    5.50
   1   1   8  165.58    4.90
  -1   1  -8  159.48    5.80
  -1   1  -8  165.98    5.70
   1   1   8  165.08    5.40
  -1   1  -8  164.28    5.90
  -1   1  -8  164.98    5.90
   1   1   8  154.48    6.70
  -3  -1  -8  138.29    5.10
   3  -1   8  134.29    5.40
   3  -1   8  139.19    5.90
  -3  -1  -8  141.39    5.10
   3  -1   8  143.49    6.40
  -3  -1  -8  147.09    5.10
   3  -1   8  134.49    5.40
   3  -1   8  142.99    4.70
  -3   1  -8  143.99    5.40
   3   1   8  139.99    5.00
   3   1   8  141.59    5.10
   3   1   8  139.49    4.50
   3   1   8  147.89    6.40
  -3   1  -8  139.29    5.60
  -3   1  -8  143.49    5.60
  -3   1  -8  133.99    3.80
  -3   1  -8  141.39    3.80
   5  -1   8  146.79    6.00
   5  -1   8  147.39    6.90
   5  -1   8  154.48    5.30
  -5  -1  -8  151.98    5.90
   5  -1   8  143.79    5.10
   5  -1   8  147.79    6.10
  -5  -1  -8  152.38    5.90
   5   1   8  148.39    5.30
  -5   1  -8  157.98    6.30
  -5   1  -8  154.28    4.50
   5   1   8  150.38    5.80
   5   1   8  153.98    7.10
  -5   1  -8  148.29    4.60
   5   1   8  153.08    5.70
   7  -1   8   15.90    2.60
   7  -1   8   19.20    3.30
  -7  -1  -8   14.10    1.30
   7  -1   8   16.60    2.30
  -7  -1  -8   15.70    1.30
   7  -1   8   15.40    1.90
  -7  -1  -8   17.00    2.70
  -7  -1  -8   14.60    2.70
   7  -1   8   12.70    2.30
  -7   1  -8   20.00    3.10
   7   1   8   17.20    2.50
   7   1   8   17.80    2.00
  -7   1  -8   15.30    1.90
   7   1   8   15.80    2.80
  -7   1  -8   14.70    1.60
  -7   1  -8   18.00    3.10
   7   1   8   18.10    2.40
  -9  -1  -8   16.90    2.20
   9  -1   8   13.40    2.00
  -9  -1  -8   13.50    1.60
   9  -1   8   12.10    2.60
  -9  -1  -8    6.20    3.20
  -9  -1  -8   13.90    3.50
   9  -1   8   17.60    3.30
   9  -1   8   15.80    3.10
   9  -1   8   11.30    2.30
   9   1   8    8.60    2.90
   9   1   8   18.30    2.80
   9   1   8   16.00    2.10
  -9   1  -8   12.50    2.10
   9   1   8   10.90    2.70
  -9   1  -8   14.70    3.70
  -9   1  -8   13.10    1.90
  -9   1  -8   18.40    3.70
 -12  -2   8   25.50    2.80
  12  -2  -8   26.30    4.40
  12  -2  -8   24.80    2.00
  12  -2  -8   26.80    3.70
 -12  -2   8   16.10    2.50
 -12  -2   8   24.00    3.30
 -12  -2   8   19.00    3.20
 -12   2   8   25.50    3.60
 -12   2   8   28.20    3.10
 -12   2   8   20.40    2.80
  12   2  -8   25.90    2.80
 -12   2   8   29.70    3.30
  12   2  -8   29.10    3.60
  10  -2  -8   -0.60    1.90
 -10  -2   8    1.20    1.40
  10  -2  -8    0.00    1.90
 -10  -2   8    1.40    1.40
 -10  -2   8    0.70    1.90
 -10  -2   8    2.00    1.90
 -10   2   8    3.30    1.30
  10   2  -8    1.30    1.30
 -10   2   8   -0.80    1.00
  10   2  -8   -1.40    1.80
 -10   2   8   -0.10    1.50
  10   2  -8    1.10    2.00
  10   2  -8    1.00    1.40
  10   2  -8   -2.40    3.10
 -10   2   8    0.90    1.60
   8  -2  -8   66.19    3.80
  -8  -2   8   67.69    3.20
  -8  -2   8   64.69    3.90
   8  -2  -8   64.29    3.70
  -8  -2   8   62.49    4.20
  -8  -2   8   63.69    3.40
   8   2  -8   64.19    4.10
  -8   2   8   58.79    3.50
   8   2  -8   66.39    2.90
  -8   2   8   64.39    3.00
  -8   2   8   57.99    3.30
   8   2  -8   64.19    3.90
   8   2  -8   61.79    2.70
   8   2  -8   61.79    5.10
  -8   2   8   66.49    3.10
  -6  -2   8   52.59    3.30
   6  -2  -8   52.99    2.90
   6  -2  -8   53.89    3.50
   6  -2  -8   53.99    2.90
  -6  -2   8   53.79    2.90
  -6  -2   8   51.99    3.40
  -6   2   8   55.39    2.50
   6   2  -8   54.59    3.50
  -6   2   8   52.79    2.70
   6   2  -8   52.09    4.00
   6   2  -8   52.39    3.30
   6   2  -8   52.19    2.20
  -6   2   8   48.40    2.80
   6   2  -8   53.79    2.20
  -4  -2   8   63.19    3.30
   4  -2  -8   61.09    3.40
  -4  -2   8   66.19    3.00
   4  -2  -8   66.49    2.80
   4  -2  -8   67.09    2.80
   4   2  -8   61.59    3.80
   4   2  -8   61.89    3.70
   4   2  -8   66.19    2.20
  -4   2   8   66.19    2.50
   4   2  -8   65.49    2.20
   4   2  -8   63.89    3.40
   4   2  -8   63.89    3.70
  -4   2   8   66.89    2.60
   2  -2  -8   45.40    2.10
  -2  -2   8   46.30    2.50
  -2  -2   8   46.10    2.50
   2  -2  -8   45.00    2.40
  -2  -2   8   49.99    1.80
   2  -2  -8   45.20    2.30
   2  -2  -8   46.50    2.10
   2   2  -8   48.50    1.70
   2   2  -8   45.80    1.70
   2   2  -8   51.59    2.90
  -2   2   8   46.20    2.00
   2   2  -8   52.19    3.30
   2   2  -8   51.39    3.00
   2   2  -8   42.60    3.10
  -2   2   8   48.40    2.30
  -2   2   8   45.00    1.90
   0  -2  -8   22.20    1.80
   0  -2   8   26.60    1.90
   0  -2  -8   20.90    1.70
   0  -2   8   23.50    2.50
   0  -2   8   24.20    2.00
   0  -2   8   21.70    1.50
   0  -2  -8   24.50    1.60
   0  -2  -8   24.10    1.70
   0   2  -8   26.10    2.50
   0   2  -8   24.40    1.20
   0   2  -8   22.60    2.60
   0   2   8   22.10    1.50
   0   2  -8   23.90    2.70
   0   2   8   24.90    1.80
   0   2   8   21.30    2.90
   0   2  -8   24.50    1.20
   0   2  -8   24.20    2.30
   2  -2   8   22.20    1.70
   2  -2   8   14.40    2.20
   2  -2   8   18.90    2.40
  -2  -2  -8   20.20    1.90
   2  -2   8   22.30    1.80
  -2  -2  -8   20.20    1.90
  -2   2  -8   15.50    3.40
  -2   2  -8   21.50    1.40
  -2   2  -8   16.10    2.30
  -2   2  -8   19.70    1.30
   2   2   8   18.40    1.80
   2   2   8   17.50    2.50
   2   2   8   16.90    2.40
  -2   2  -8   19.30    2.80
   2   2   8   21.00    1.40
   4  -2   8   66.89    3.90
   4  -2   8   65.29    4.60
  -4  -2  -8   63.69    3.40
   4  -2   8   70.69    3.20
   4  -2   8   59.49    3.80
   4  -2   8   67.89    3.10
  -4  -2  -8   64.79    3.50
   4   2   8   62.69    3.20
  -4   2  -8   68.59    2.60
  -4   2  -8   67.79    4.30
   4   2   8   66.29    3.40
  -4   2  -8   66.39    2.70
  -4   2  -8   62.89    6.50
   4   2   8   60.39    4.60
  -4   2  -8   73.89    4.00
   4   2   8   65.39    2.70
  -6  -2  -8   60.09    4.00
   6  -2   8   55.89    4.20
   6  -2   8   59.49    3.10
  -6  -2  -8   57.09    3.80
   6  -2   8   42.90    4.80
   6  -2   8   61.19    4.10
   6  -2   8   58.49    3.20
   6   2   8   57.99    2.80
   6   2   8   60.69    3.70
  -6   2  -8   59.29    2.90
  -6   2  -8   63.19    4.60
  -6   2  -8   60.69    2.70
  -6   2  -8   50.69    4.50
   6   2   8   66.49    4.90
   6   2   8   56.39    3.50
   8  -2   8   21.90    2.50
  -8  -2  -8   24.10    3.10
   8  -2   8   16.30    3.10
   8  -2   8   29.70    3.50
   8  -2   8   22.60    3.00
   8  -2   8   26.00    2.80
  -8  -2  -8   26.10    3.40
   8   2   8   15.80    3.10
   8   2   8   29.40    3.60
  -8   2  -8   22.60    3.80
  -8   2  -8   25.50    3.60
   8   2   8   18.50    2.20
   8   2   8   20.30    3.00
  -8   2  -8   22.60    2.50
  -8   2  -8   25.90    3.00
 -11  -3   8    8.50    2.40
 -11  -3   8    6.50    2.30
 -11  -3   8    4.80    1.90
 -11  -3   8    5.30    1.80
  11  -3  -8    6.00    2.40
  11  -3  -8    9.50    2.50
 -11   3   8    1.60    1.60
  11   3  -8    2.90    2.40
  11   3  -8    8.00    1.70
 -11   3   8    7.10    1.60
  11   3  -8    5.70    2.60
 -11   3   8    4.10    1.60
  11   3  -8    4.10    4.20
  11   3  -8    6.50    2.00
 -11   3   8    6.20    2.00
   9  -3  -8   36.60    3.50
  -9  -3   8   36.30    2.90
  -9  -3   8   34.20    3.80
  -9  -3   8   31.70    3.40
  -9  -3   8   38.80    3.00
   9  -3  -8   38.70    3.40
  -9   3   8   35.30    2.60
  -9   3   8   37.40    2.40
   9   3  -8   33.00    5.50
  -9   3   8   38.20    3.00
  -9   3   8   38.10    3.00
   9   3  -8   35.20    2.50
   9   3  -8   35.70    3.80
   9   3  -8   36.40    3.90
   9   3  -8   35.60    2.80
  -7  -3   8    1.40    1.50
   7  -3  -8   -1.30    1.70
  -7  -3   8    0.70    0.90
   7  -3  -8    1.20    1.30
  -7  -3   8   -1.00    1.40
  -7  -3   8    1.00    1.10
   7  -3  -8    1.10    1.20
   7   3  -8    1.30    1.50
   7   3  -8    0.00    1.40
   7   3  -8    1.90    1.00
   7   3  -8    1.70    0.90
  -7   3   8    0.20    1.00
  -7   3   8    1.60    0.80
   7   3  -8    2.40    2.10
  -7   3   8    0.40    1.00
  -5  -3   8  112.79    4.30
  -5  -3   8  109.89    4.80
   5  -3  -8  107.49    3.90
   5  -3  -8  109.39    3.90
   5   3  -8  119.39    5.40
   5   3  -8  109.09    4.80
   5   3  -8  114.29    5.00
   5   3  -8  108.49    5.10
   5   3  -8  116.79    3.70
  -5   3   8  109.39    3.60
  -5   3   8  114.39    3.60
   5   3  -8  107.79    3.70
  -3  -3   8  258.27    7.00
   3  -3  -8  262.67    7.10
  -3  -3   8  265.07    8.50
   3  -3  -8  258.37    7.20
  -3  -3   8  261.37    7.90
   3  -3  -8  266.27    7.00
   3   3  -8  270.77    7.10
   3   3  -8  268.97    8.50
   3   3  -8  260.87    8.70
  -3   3   8  258.07    7.10
   3   3  -8  263.77    8.30
  -3   3   8  268.37    7.00
   3   3  -8  256.07    7.20
  -3   3   8  259.27    7.20
  -1  -3   8  803.72   21.90
  -1  -3   8  832.72   21.10
  -1  -3   8  825.52   21.00
   1  -3  -8  805.22   20.00
   1  -3  -8  808.52   20.00
  -1  -3   8  777.92   20.30
   1   3  -8  799.82   20.20
  -1   3   8  818.82   22.10
  -1   3   8  804.22   20.10
   1   3  -8  823.32   21.40
  -1   3   8  822.02   21.00
   1   3  -8  822.22   21.60
  -1   3   8  751.72   20.00
   1   3  -8  845.72   21.80
   1   3  -8  783.62   20.20
   1  -3   8  147.19    4.60
   1  -3   8  141.69    5.70
   1  -3   8  140.59    4.80
  -1  -3  -8  138.89    4.30
  -1  -3  -8  139.59    4.20
  -1  -3  -8  142.19    4.20
  -1  -3  -8  142.79    4.30
  -1   3  -8  140.19    4.30
  -1   3  -8  130.79    5.60
   1   3   8  130.29    8.80
  -1   3  -8  144.29    5.80
   1   3   8  136.89    4.00
  -1   3  -8  148.09    5.50
  -1   3  -8  147.39    4.20
   3  -3   8  125.19    5.30
  -3  -3  -8  114.29    4.20
   3  -3   8  112.29    5.80
   3  -3   8  120.89    5.40
   3  -3   8  121.99    4.30
   3  -3   8  122.89    4.40
  -3   3  -8  123.89    3.90
   3   3   8  118.99    3.80
   3   3   8  116.09    4.10
  -3   3  -8  126.29    5.50
   3   3   8  118.19    4.20
   3   3   8  122.69    5.90
  -3   3  -8  123.29    4.10
  -3   3  -8  118.89    5.20
  -3   3  -8  119.79    5.60
   5  -3   8  558.04   14.80
   5  -3   8  521.35   16.50
   5  -3   8  543.75   14.70
  -5  -3  -8  540.45   14.80
   5  -3   8  539.85   15.90
  -5  -3  -8  535.15   14.80
   5  -3   8  525.95   15.80
  -5   3  -8  551.74   16.00
   5   3   8  530.55   16.40
   5   3   8  549.35   14.20
  -5   3  -8  533.35   15.70
  -5   3  -8  542.75   14.20
  -5   3  -8  522.75   15.90
  -5   3  -8  546.55   14.40
   5   3   8  545.55   14.90
   5   3   8  521.85   14.70
   7  -3   8   93.09    4.20
   7  -3   8   83.79    5.90
   7  -3   8   88.39    5.30
   7  -3   8   82.99    4.10
  -7  -3  -8   90.99    4.90
  -7  -3  -8   89.19    4.90
   7  -3   8   90.49    5.50
   7   3   8   77.29    5.60
   7   3   8   85.79    4.70
  -7   3  -8   82.29    5.90
   7   3   8   85.69    3.70
   7   3   8   90.79    4.50
  -7   3  -8   84.69    4.10
  -7   3  -8   95.29    6.20
  -7   3  -8   90.99    3.90
   9  -3   8   48.50    5.30
   9  -3   8   37.20    3.60
   9  -3   8   30.90    4.60
   9  -3   8   37.20    4.40
  -9  -3  -8   44.50    5.40
  -9   3  -8   45.60    5.40
  -9   3  -8   37.50    3.40
   9   3   8   28.90    3.80
   9   3   8   47.10    4.30
   9   3   8   44.70    4.60
   9   3   8   41.80    3.00
  -9   3  -8   42.40    5.90
  -9   3  -8   48.20    4.00
 -10  -4   8   40.30    3.60
 -10  -4   8   37.10    4.00
 -10  -4   8   40.80    3.30
 -10  -4   8   38.60    4.40
  10  -4  -8   42.00    4.00
  10  -4  -8   40.20    3.80
 -10   4   8   39.80    2.90
  10   4  -8   32.60    4.30
 -10   4   8   34.90    2.60
  10   4  -8   42.00    3.10
 -10   4   8   43.30    3.30
 -10   4   8   33.50    3.20
  10   4  -8   36.50    4.30
  10   4  -8   43.50    3.40
   8  -4  -8  128.89    5.10
  -8  -4   8  136.29    6.40
  -8  -4   8  135.29    5.20
  -8  -4   8  134.89    5.40
  -8  -4   8  136.79    6.00
   8  -4  -8  140.39    5.40
  -8   4   8  123.69    5.00
  -8   4   8  144.99    4.80
   8   4  -8  136.69    6.20
   8   4  -8  151.78    5.20
  -8   4   8  140.79    4.60
   8   4  -8  147.59    5.00
  -8   4   8  133.19    4.90
   8   4  -8  138.89    6.20
   8   4  -8  141.59    7.10
  -6  -4   8   92.39    4.60
   6  -4  -8   91.99    3.50
   6  -4  -8   92.49    3.80
  -6  -4   8   86.29    4.80
  -6  -4   8   89.39    4.00
  -6   4   8   86.69    3.40
   6   4  -8   94.19    4.60
   6   4  -8   93.69    3.50
  -6   4   8   94.79    3.30
   6   4  -8  100.59    5.40
   6   4  -8   92.19    3.60
   6   4  -8   84.19    4.70
  -6   4   8   92.69    3.30
   4  -4  -8   11.60    1.40
   4  -4  -8    9.90    1.00
  -4  -4   8    9.60    1.10
   4  -4  -8   11.30    1.30
   4  -4  -8    9.30    1.20
  -4  -4   8    9.90    2.30
  -4  -4   8    8.50    1.70
  -4   4   8   10.70    1.10
   4   4  -8   10.40    2.10
   4   4  -8   10.40    2.20
   4   4  -8    9.00    1.20
  -4   4   8   11.10    1.10
   4   4  -8   10.10    1.40
   4   4  -8    8.70    1.70
   4   4  -8   11.20    1.90
  -2  -4   8  212.18    6.10
  -2  -4   8  224.58    6.90
   2   4  -8  216.98    6.10
  -2   4   8  209.48    6.40
  -2   4   8  208.68    5.70
   2   4  -8  211.18    6.20
  -2   4   8  219.78    7.60
   2   4  -8  222.38    7.30
   2   4  -8  217.28    7.70
   2   4  -8  216.78    7.50
  -2   4   8  203.38    5.60
   2   4  -8  214.68    7.70
   0  -4   8  121.39    3.90
   0  -4   8  115.79    5.30
   0  -4   8   99.29    4.70
   0   4  -8  118.49    3.90
   0   4  -8  119.99    5.20
   0   4  -8  119.59    5.30
   0   4   8  124.89    4.70
   0   4   8  113.39    3.30
   0   4  -8  121.59    3.80
   0   4  -8  116.29    4.90
   0   4  -8  115.89    5.30
   0   4   8  119.19    5.40
   0   4   8  115.09    3.40
  -2  -4  -8  232.28    6.50
   2  -4   8  252.47    8.50
   2  -4   8  233.28    8.20
  -2  -4  -8  235.38    6.40
   2  -4   8  233.18    7.20
   2  -4   8  236.48    7.30
  -2  -4  -8  235.98    6.50
  -2  -4  -8  234.08    6.50
   2   4   8  237.68    8.70
  -2   4  -8  235.18    8.10
  -2   4  -8  238.68    8.40
  -2   4  -8  238.68    7.00
  -2   4  -8  238.38    8.40
  -2   4  -8  243.58    6.80
   2   4   8  234.78    6.40
   4  -4   8   35.30    3.60
   4  -4   8   31.20    3.20
   4  -4   8   34.60    2.40
   4  -4   8   31.10    4.00
   4  -4   8   34.30    2.50
  -4  -4  -8   31.20    2.40
  -4   4  -8   36.70    2.50
  -4   4  -8   27.10    3.20
   4   4   8   35.30    4.00
   4   4   8   36.00    2.20
  -4   4  -8   36.10    3.50
   4   4   8   34.70    1.90
   4   4   8   35.00    2.30
  -4   4  -8   35.40    2.20
  -4   4  -8   39.90    4.00
   6  -4   8   47.50    3.10
  -6  -4  -8   48.30    3.50
   6  -4   8   43.00    4.60
   6  -4   8   53.19    3.30
  -6  -4  -8   47.00    3.60
   6  -4   8   56.59    4.60
   6  -4   8   57.99    4.30
  -6   4  -8   51.49    3.20
   6   4   8   49.10    4.50
   6   4   8   53.99    3.50
  -6   4  -8   49.99    2.90
   6   4   8   49.10    3.20
  -6   4  -8   49.60    5.00
  -6   4  -8   51.09    5.00
  -8  -4  -8   30.10    4.10
   8  -4   8   45.90    4.90
  -8  -4  -8   33.50    4.40
   8  -4   8   25.20    3.10
   8  -4   8   30.70    4.40
   8  -4   8   24.40    3.20
   8  -4   8   28.30    3.90
   8   4   8   36.50    4.60
  -8   4  -8   29.60    4.40
  -8   4  -8   32.60    3.60
  -8   4  -8   37.50    3.20
   8   4   8   35.70    2.80
  -8   4  -8   30.70    4.40
   8   4   8   36.20    3.50
   8   4   8   39.10    3.90
 -11  -5   8    2.10    2.50
  11  -5  -8    1.50    2.40
 -11  -5   8    1.80    2.50
 -11  -5   8   -1.90    2.00
 -11  -5   8    2.80    1.70
  11   5  -8    7.70    4.20
  11   5  -8    2.60    1.80
  11   5  -8   -1.30    2.70
 -11   5   8    1.50    1.80
 -11   5   8    3.80    2.00
 -11   5   8    4.40    1.50
  11   5  -8    4.70    2.10
  -9  -5   8    2.50    1.50
  -9  -5   8   -0.80    1.70
   9  -5  -8    3.40    1.90
  -9  -5   8    2.60    1.50
   9  -5  -8    1.60    1.60
  -9  -5   8    4.40    2.40
  -9   5   8    3.00    1.00
  -9   5   8    2.10    1.20
  -9   5   8    2.40    1.40
   9   5  -8    0.40    2.00
  -9   5   8    3.90    1.40
   9   5  -8    1.80    1.50
   9   5  -8    1.10    1.90
   9   5  -8    3.50    1.60
  -7  -5   8    9.00    1.50
  -7  -5   8   10.40    2.40
  -7  -5   8    8.90    1.90
   7  -5  -8   10.00    1.40
  -7  -5   8   11.70    1.80
   7  -5  -8   12.10    1.80
  -7   5   8   11.30    1.60
   7   5  -8    7.20    2.00
  -7   5   8   13.20    1.50
   7   5  -8   10.80    1.60
  -7   5   8   11.40    1.40
   7   5  -8    8.00    2.30
   7   5  -8   13.50    3.00
  -7   5   8   13.00    1.60
   7   5  -8   11.80    1.60
   5  -5  -8   36.10    2.10
   5  -5  -8   35.20    1.70
  -5  -5   8   35.30    3.10
  -5  -5   8   36.10    2.60
   5  -5  -8   38.00    1.70
   5  -5  -8   37.70    2.00
  -5  -5   8   33.00    1.70
   5   5  -8   34.30    3.80
  -5   5   8   36.30    1.60
   5   5  -8   39.20    2.40
   5   5  -8   35.10    2.30
  -5   5   8   41.40    1.80
   5   5  -8   43.80    4.10
   5   5  -8   39.20    3.40
   5   5  -8   36.70    3.50
  -3  -5   8   28.20    2.70
  -3  -5   8   25.50    2.70
  -3  -5   8   28.50    1.70
  -3  -5   8   28.60    2.40
   3   5  -8   27.40    2.80
  -3   5   8   26.10    2.80
  -3   5   8   27.30    1.20
   3   5  -8   25.00    3.00
  -3   5   8   28.70    1.90
   3   5  -8   26.70    2.10
   3   5  -8   30.90    3.50
   3   5  -8   35.40    3.60
   3   5  -8   26.60    1.90
  -1  -5   8   14.60    2.40
  -1  -5   8   14.90    2.10
  -1  -5   8   17.60    1.90
  -1  -5   8   13.90    1.50
   1   5  -8   16.90    1.60
   1   5  -8   15.90    2.40
   1   5  -8   18.30    2.50
   1   5  -8   17.90    2.60
  -1   5   8   13.40    1.80
  -1   5   8   14.40    2.10
   1   5  -8   18.60    2.70
   1   5  -8   15.30    1.80
   1  -5   8   79.49    4.60
   1  -5   8   67.89    3.40
   1  -5   8   77.39    3.10
  -1   5  -8   71.49    4.70
  -1   5  -8   76.89    3.30
  -1   5  -8   71.19    4.30
  -1   5  -8   73.99    3.00
   1   5   8   72.19    2.30
   1   5   8   74.39    3.80
   1   5   8   58.69    6.60
  -1   5  -8   83.19    4.80
  -1   5  -8   74.79    4.20
   3  -5   8   11.80    2.30
  -3  -5  -8   12.30    1.40
  -3  -5  -8   13.40    1.50
   3  -5   8   12.80    1.80
   3  -5   8   11.00    2.20
   3  -5   8    8.50    2.10
   3  -5   8   11.30    1.60
  -3   5  -8    9.70    2.30
  -3   5  -8   11.40    1.60
  -3   5  -8   15.00    2.60
   3   5   8   11.70    1.30
  -3   5  -8   14.30    1.70
   3   5   8   12.30    1.20
   3   5   8   13.40    2.40
  -3   5  -8   10.70    2.10
  -5  -5  -8   90.59    3.90
   5  -5   8   90.89    5.10
   5  -5   8   89.79    5.70
   5  -5   8   88.69    4.00
   5  -5   8   95.29    5.50
  -5  -5  -8   81.89    4.20
   5  -5   8   89.69    4.10
  -5   5  -8   91.09    5.80
  -5   5  -8   93.29    4.10
   5   5   8   93.49    3.90
  -5   5  -8   93.69    3.80
   5   5   8   81.89    5.20
   5   5   8   91.39    3.40
  -5   5  -8   94.89    5.70
   5   5   8   90.49    3.80
  -5   5  -8   80.49    5.10
   7  -5   8    9.80    3.10
   7  -5   8    7.40    1.60
   7  -5   8    8.40    2.80
  -7  -5  -8   10.20    2.20
   7  -5   8    7.90    2.60
   7  -5   8    8.80    1.90
  -7  -5  -8    7.10    2.30
   7   5   8    8.10    1.40
  -7   5  -8    5.90    1.50
   7   5   8    7.20    2.50
   7   5   8    9.10    1.80
  -7   5  -8    7.90    1.90
  -7   5  -8    4.80    3.30
   7   5   8    7.50    2.00
  -7   5  -8    9.60    3.20
 -10  -6   8   11.40    3.10
  10  -6  -8    9.00    2.40
 -10  -6   8    8.50    2.10
  10  -6  -8   10.00    2.30
 -10  -6   8    6.20    2.50
 -10  -6   8    7.20    2.00
  10   6  -8    7.70    2.90
 -10   6   8   10.00    1.40
 -10   6   8    8.70    1.90
  10   6  -8    8.40    3.20
  10   6  -8    8.10    3.60
  10   6  -8    8.20    2.20
 -10   6   8    9.10    1.70
 -10   6   8   11.60    1.90
  10   6  -8    6.60    2.00
  -8  -6   8   56.89    4.90
   8  -6  -8   57.89    3.30
   8  -6  -8   57.99    3.60
  -8  -6   8   56.49    4.50
  -8  -6   8   61.19    3.50
  -8  -6   8   62.69    3.80
  -8   6   8   57.79    2.60
  -8   6   8   58.19    3.10
  -8   6   8   59.59    2.80
   8   6  -8   60.79    4.70
   8   6  -8   59.39    4.80
   8   6  -8   62.49    3.60
   8   6  -8   62.89    3.50
  -8   6   8   53.89    4.00
   6  -6  -8  293.27    8.10
  -6  -6   8  306.47    9.00
  -6  -6   8  294.77    9.40
   6  -6  -8  305.17    8.40
   6  -6  -8  291.47    8.60
  -6  -6   8  282.67   10.10
   6   6  -8  303.37    8.90
  -6   6   8  307.37    8.00
   6   6  -8  305.67    8.90
   6   6  -8  308.07   10.40
  -6   6   8  282.37    7.90
   6   6  -8  297.57   10.60
  -6   6   8  312.07    8.20
   6   6  -8  307.07   10.20
   6   6  -8  316.47   11.00
  -4  -6   8  159.38    6.50
  -4  -6   8  162.28    6.00
  -4  -6   8  167.18    5.20
   4   6  -8  175.98    5.70
   4   6  -8  151.78    6.60
   4   6  -8  158.18    7.10
   4   6  -8  174.08    5.50
  -4   6   8  174.08    5.10
   4   6  -8  167.78    7.30
  -4   6   8  169.38    4.60
  -4   6   8  178.68    6.30
   4   6  -8  161.28    6.50
  -2  -6   8   99.09    4.40
  -2  -6   8   91.39    4.20
  -2  -6   8  104.19    5.50
  -2  -6   8   94.39    4.40
   2   6  -8   90.19    4.20
   2   6  -8   95.59    5.00
   2   6  -8  100.29    4.80
  -2   6   8   93.89    3.90
   2   6  -8  105.39    5.30
   2   6  -8   99.49    3.70
  -2   6   8   99.19    4.60
   2   6  -8  100.89    5.40
   0  -6   8   64.89    4.50
   0  -6   8   61.79    2.80
   0  -6   8   64.29    3.40
   0   6  -8   64.49    4.50
   0   6   8   61.19    4.00
   0   6  -8   60.59    2.80
   0   6  -8   60.49    4.50
   0   6  -8   58.19    3.70
   0   6  -8   57.19    4.20
   0   6   8   58.89    3.40
   2  -6   8   13.50    2.50
   2  -6   8   19.20    2.10
   2  -6   8   16.80    1.90
   2  -6   8   17.50    2.50
   2   6   8   18.10    1.10
  -2   6  -8   19.00    1.90
  -2   6  -8   16.80    2.40
  -2   6  -8   18.20    3.00
   2   6   8   14.20    2.60
  -2   6  -8   15.10    2.70
  -2   6  -8   17.10    2.20
   2   6   8   17.10    2.50
  -4  -6  -8  114.79    3.90
   4  -6   8  116.89    4.50
   4  -6   8  112.99    6.20
   4  -6   8  114.29    6.20
   4  -6   8  111.59    4.80
  -4  -6  -8  113.09    4.00
   4  -6   8  108.99    5.70
   4   6   8  118.09    3.80
   4   6   8  114.09    5.90
  -4   6  -8  116.09    6.40
   4   6   8  118.69    3.80
  -4   6  -8  110.39    5.80
  -4   6  -8  116.79    4.70
  -4   6  -8  113.59    6.50
   6  -6   8   54.09    5.50
   6  -6   8   55.89    4.80
   6  -6   8   52.09    3.70
   6  -6   8   63.19    3.60
  -6  -6  -8   56.09    3.70
   6  -6   8   60.59    5.10
  -6  -6  -8   57.29    3.70
   6   6   8   58.49    3.80
  -6   6  -8   57.49    3.30
  -6   6  -8   68.29    4.00
  -6   6  -8   64.09    6.10
   6   6   8   57.59    3.50
  -6   6  -8   62.19    5.60
   6   6   8   57.69    5.00
  -6   6  -8   61.49    5.10
   8  -6   8   47.70    5.70
   8  -6   8   45.40    5.90
   8  -6   8   50.49    5.40
  -8  -6  -8   54.49    4.90
  -8  -6  -8   55.49    4.90
   8   6   8   47.20    5.30
   8   6   8   57.09    4.30
   8   6   8   48.50    4.30
   8   6   8   58.09    3.30
  -8   6  -8   49.60    4.50
  -8   6  -8   63.79    7.40
  -8   6  -8   53.19    6.60
  -8   6  -8   49.20    3.70
  -9  -7   8    4.10    1.90
  -9  -7   8    1.40    2.50
   9  -7  -8    5.60    1.80
   9  -7  -8    8.50    2.20
  -9  -7   8    3.80    2.30
  -9  -7   8    4.10    1.80
  -9   7   8    5.50    1.30
  -9   7   8    5.90    1.50
   9   7  -8   13.00    3.60
  -9   7   8    5.30    1.10
   9   7  -8    6.70    1.80
   9   7  -8    0.50    2.50
   9   7  -8    5.80    0.80
   9   7  -8    3.30    2.50
   9   7  -8    7.40    2.00
  -9   7   8    6.30    1.60
  -7  -7   8   32.40    2.80
  -7  -7   8   30.60    3.00
   7  -7  -8   37.80    2.70
  -7  -7   8   34.60    3.70
   7  -7  -8   27.70    2.20
  -7  -7   8   34.00    4.50
  -7   7   8   33.50    1.80
  -7   7   8   32.00    1.70
   7   7  -8   31.40    3.90
   7   7  -8   33.60    2.90
   7   7  -8   34.10    4.30
  -7   7   8   29.10    2.70
   7   7  -8   28.70    3.70
   7   7  -8   34.40    4.30
   7   7  -8   31.80    1.60
   7   7  -8   28.70    2.80
  -7   7   8   28.10    1.90
  -7   7   8   32.30    2.00
  -5  -7   8  145.39    6.30
  -5  -7   8  139.59    4.90
  -5  -7   8  142.89    5.80
  -5   7   8  157.48    4.70
   5   7  -8  152.78    7.30
   5   7  -8  149.49    5.30
   5   7  -8  146.99    6.40
   5   7  -8  159.68    7.30
   5   7  -8  148.89    6.70
  -5   7   8  153.58    4.40
  -5   7   8  148.59    5.60
   5   7  -8  155.28    5.50
   5   7  -8  146.89    4.40
  -3  -7   8  134.19    4.70
  -3  -7   8  132.49    5.90
  -3  -7   8  135.09    5.50
   3   7  -8  139.09    6.30
   3   7  -8  139.79    5.10
   3   7  -8  144.29    6.80
   3   7  -8  139.79    6.00
  -3   7   8  137.79    4.80
   3   7  -8  142.89    5.00
  -3   7   8  137.49    5.50
   3   7  -8  140.29    6.60
  -1  -7   8  102.79    4.70
  -1  -7   8  110.79    4.80
  -1  -7   8  111.19    4.10
  -1  -7   8  109.09    6.10
   1   7  -8  116.49    5.60
   1   7  -8  108.89    4.40
   1   7  -8  107.99    4.10
  -1   7   8  109.29    4.50
   1   7  -8  108.99    5.20
   1   7  -8  110.59    5.80
  -1   7   8  111.99    5.00
   1   7  -8  101.79    5.90
   1  -7   8   74.99    3.40
   1  -7   8   76.39    3.90
   1  -7   8   70.49    5.00
  -1   7  -8   78.99    5.20
  -1   7  -8   75.19    4.50
  -1   7  -8   75.79    4.90
  -1   7  -8   70.69    5.30
  -1   7  -8   81.49    3.60
   1   7   8   84.29    2.50
   1   7   8   73.79    4.60
  -1   7  -8   81.49    3.70
   3  -7   8  210.08    7.30
   3  -7   8  224.68    7.00
   3  -7   8  175.28   10.00
   3  -7   8  214.98    8.40
  -3   7  -8  216.08    6.80
  -3   7  -8  230.28    7.30
   3   7   8  216.28    6.00
  -3   7  -8  219.38    8.80
  -3   7  -8  206.38    8.10
  -3   7  -8  216.78    9.00
   3   7   8  218.18    8.10
   3   7   8  201.28    8.10
   5  -7   8  142.49    5.50
   5  -7   8  139.39    5.80
   5  -7   8  151.48    7.30
   5  -7   8  141.19    7.50
  -5  -7  -8  138.59    4.90
   5  -7   8  143.39    6.90
  -5  -7  -8  137.99    5.00
  -5   7  -8  152.18    7.80
   5   7   8  138.19    6.80
   5   7   8  141.39    4.50
  -5   7  -8  145.79    6.20
   5   7   8  154.88    4.90
   5   7   8  142.19    4.70
  -5   7  -8  142.39    7.60
  -5   7  -8  133.79    6.80
   5   7   8  141.79    4.70
   5   7   8  150.48    6.90
  -5   7  -8  146.39    5.30
   7  -7   8   36.30    4.40
   7  -7   8   27.20    3.80
   7  -7   8   24.30    3.60
   7  -7   8   22.80    3.20
  -7  -7  -8   36.10    3.90
   7  -7   8   48.60    5.50
  -7  -7  -8   32.20    3.70
   7   7   8   34.70    3.90
   7   7   8   35.00    2.60
  -7   7  -8   43.10    5.20
  -7   7  -8   32.40    3.20
  -7   7  -8   33.10    4.30
  -7   7  -8   34.40    4.00
   7   7   8   32.70    4.60
   7   7   8   30.30    3.30
   8  -8  -8    9.20    2.00
   8  -8  -8    6.20    1.60
  -8  -8   8    2.70    1.70
  -8  -8   8    6.70    3.00
  -8  -8   8    9.10    1.80
  -8  -8   8    5.20    2.40
  -8   8   8    7.10    0.90
  -8   8   8    5.50    1.30
  -8   8   8    7.90    1.50
  -8   8   8    6.00    1.40
   8   8  -8    7.90    3.50
   8   8  -8    6.40    1.10
  -8   8   8    7.50    1.00
   8   8  -8    7.90    2.90
   8   8  -8    7.30    1.90
   8   8  -8    3.50    2.60
  -8   8   8    7.70    1.30
   8   8  -8    5.10    1.90
  -6  -8   8    4.20    1.60
  -6  -8   8    7.10    1.50
  -6  -8   8    0.60    2.00
  -6   8   8    5.30    0.90
  -6   8   8    4.10    1.30
   6   8  -8    4.80    1.60
   6   8  -8    4.20    2.70
   6   8  -8    4.80    1.00
   6   8  -8    4.40    1.50
   6   8  -8    5.60    3.10
   6   8  -8    3.60    2.10
   6   8  -8    6.10    2.70
  -6   8   8    4.10    0.90
  -4  -8   8   11.00    2.40
  -4  -8   8   12.60    1.90
  -4  -8   8   11.60    1.50
   4   8  -8    9.80    2.50
   4   8  -8   13.00    1.70
  -4   8   8   10.90    1.00
  -4   8   8    7.80    1.30
   4   8  -8    9.50    3.00
   4   8  -8   13.20    1.80
   4   8  -8   14.00    2.50
   4   8  -8   10.30    1.20
  -4   8   8   12.00    1.80
  -2  -8   8   16.70    2.10
  -2  -8   8   17.70    3.30
  -2  -8   8   16.00    2.10
  -2  -8   8   15.80    2.30
   2   8  -8   18.40    2.60
   2   8  -8   21.10    1.90
   2   8  -8   20.40    2.20
   2   8  -8   18.80    3.10
   2   8  -8   17.90    2.40
   2   8  -8   17.10    3.00
  -2   8   8   17.00    2.30
  -2   8   8   18.00    2.20
   2   8  -8   25.70    3.60
   0  -8   8   29.90    3.00
   0  -8   8   23.00    3.30
   0  -8   8   27.30    2.40
   0   8  -8   27.40    2.80
   0   8  -8   19.90    2.70
   0   8  -8   29.40    4.20
   0   8  -8   33.70    4.50
   0   8  -8   26.80    2.40
   0   8  -8   26.70    3.80
   0   8   8   30.20    3.10
   2  -8   8   12.40    1.90
   2  -8   8   19.20    2.30
   2  -8   8   16.50    3.10
  -2   8  -8   17.50    2.20
  -2   8  -8   18.40    3.30
  -2   8  -8   18.90    3.00
  -2   8  -8   16.90    2.80
  -2   8  -8   16.30    3.20
  -2   8  -8   16.50    2.10
   2   8   8   16.10    2.40
   2   8   8   17.90    1.20
   2   8   8   17.30    2.60
   4  -8   8   18.50    3.30
   4  -8   8   20.20    2.70
   4  -8   8   22.80    3.00
   4  -8   8   29.80    4.30
   4  -8   8   17.60    3.20
  -4  -8  -8   21.10    2.00
  -4   8  -8   22.20    2.60
  -4   8  -8   21.70    2.50
  -4   8  -8   17.00    3.10
   4   8   8   19.80    1.70
  -4   8  -8   18.20    3.30
  -4   8  -8   22.40    3.90
   4   8   8   25.90    3.70
   4   8   8   27.50    3.80
  -6  -8  -8    6.40    1.90
   6  -8   8    5.40    3.00
   6  -8   8    6.10    3.10
   6  -8   8    8.90    2.10
   6  -8   8    8.20    2.00
   6  -8   8    6.30    2.70
   6   8   8    7.90    2.40
   6   8   8    5.40    2.50
   6   8   8   12.00    1.80
  -6   8  -8   10.60    4.10
  -6   8  -8    6.60    1.80
   6   8   8    9.70    1.80
  -6   8  -8    8.50    2.30
   6   8   8    7.10    1.70
   6   8   8    5.60    1.40
  -6   8  -8   10.10    3.40
  -9  -9   8   13.30    2.40
  -7  -9   8    0.90    2.20
   7  -9  -8    5.70    1.10
  -7  -9   8    3.80    1.70
   7  -9  -8    5.30    1.60
  -7  -9   8    0.10    1.50
   7   9  -8    8.80    3.60
   7   9  -8    4.30    1.80
   7   9  -8    7.80    2.70
  -7   9   8    5.30    1.50
   7   9  -8    6.00    3.60
   7   9  -8    7.50    1.20
  -7   9   8    5.10    1.10
  -7   9   8    5.50    0.80
   7   9  -8    1.70    1.70
  -7   9   8    3.80    1.20
   7   9  -8    7.40    2.70
  -5  -9   8   66.69    3.60
  -5  -9   8   61.49    3.40
  -5  -9   8   57.59    4.50
  -5  -9   8   63.39    4.10
   5   9  -8   68.89    5.50
   5   9  -8   69.69    3.00
   5   9  -8   59.79    5.80
  -5   9   8   64.89    3.00
   5   9  -8   63.89    3.70
   5   9  -8   67.79    4.70
  -5   9   8   68.79    2.40
   5   9  -8   63.89    6.10
  -5   9   8   69.99    3.40
   5   9  -8   64.59    4.00
  -3  -9   8    5.70    2.10
  -3  -9   8    5.00    1.50
  -3  -9   8    4.60    1.50
   3   9  -8    8.00    2.20
   3   9  -8    4.80    1.50
   3   9  -8    5.50    1.60
  -3   9   8    8.50    1.50
   3   9  -8    9.40    2.60
   3   9  -8    9.00    3.20
   3   9  -8   11.00    3.10
   3   9  -8    5.60    1.30
  -3   9   8    5.40    1.40
  -1  -9   8  141.79    6.10
  -1  -9   8  149.09    7.50
  -1  -9   8  136.69    5.30
   1   9  -8  145.39    7.40
   1   9  -8  143.79    7.30
  -1   9   8  150.78    5.80
  -1   9   8  140.69    5.60
   1   9  -8  133.99    5.10
   1   9  -8  135.89    5.50
   1   9  -8  138.09    6.80
   1   9  -8  111.89    6.10
   1   9  -8  137.59    6.40
   1  -9   8   15.30    3.30
   1  -9   8    7.90    1.80
   1  -9   8   10.90    1.70
   1   9   8   11.60    2.00
  -1   9  -8    6.90    2.70
  -1   9  -8   12.60    3.60
   1   9   8   12.40    2.20
   1   9   8   10.70    1.10
  -1   9  -8   10.90    1.60
  -1   9  -8   10.70    1.90
  -1   9  -8    9.40    2.30
  -1   9  -8   12.40    3.10
   3  -9   8  134.89    7.20
   3  -9   8  138.59    7.10
   3  -9   8  129.29    5.30
   3  -9   8  128.89    5.70
   3   9   8  127.79    6.20
  -3   9  -8  129.19    7.20
  -3   9  -8  144.09    8.00
   3   9   8  127.99    6.10
  -3   9  -8  128.89    5.10
  -3   9  -8  122.09    5.50
  -3   9  -8  122.79    6.80
  -3   9  -8  119.79    7.20
   3   9   8  124.39    4.00
   5  -9   8   50.39    4.20
   5  -9   8   63.69    5.70
  -5  -9  -8   48.80    3.00
   5  -9   8   38.20    5.40
   5  -9   8   52.69    5.70
   5  -9   8   48.40    3.80
  -5  -9  -8   45.70    2.90
   5   9   8   47.80    4.70
  -5   9  -8   55.09    4.20
  -5   9  -8   57.09    7.00
  -5   9  -8   48.70    5.70
   5   9   8   46.30    4.90
  -5   9  -8   40.20    6.60
  -5   9  -8   56.59    3.60
   5   9   8   51.29    2.70
  -6 -10   8   49.00    3.60
  -6 -10   8   46.70    4.60
  -6 -10   8   52.39    4.00
  -6 -10   8   48.20    3.70
   6  10  -8   52.19    3.90
  -6  10   8   48.50    1.80
   6  10  -8   47.80    6.70
  -6  10   8   54.69    2.90
   6  10  -8   54.49    3.00
   6  10  -8   55.09    3.80
   6  10  -8   58.59    6.20
   6  10  -8   49.30    5.40
  -6  10   8   53.49    2.50
  -6  10   8   52.09    2.40
   6  10  -8   56.29    5.20
  -4 -10   8    6.80    2.50
  -4 -10   8   12.70    2.10
  -4 -10   8   13.80    2.00
  -4 -10   8   12.80    2.20
   4  10  -8   11.80    3.70
   4  10  -8   18.70    3.60
  -4  10   8   17.00    2.30
  -4  10   8   12.30    1.20
   4  10  -8   13.10    3.20
   4  10  -8   11.00    2.80
   4  10  -8   14.40    2.30
   4  10  -8   13.80    2.00
   4  10  -8   17.50    2.30
  -2 -10   8   48.40    3.40
  -2 -10   8   41.30    5.50
  -2  10   8   51.29    3.50
   2  10  -8   48.10    5.50
   2  10  -8   47.50    3.30
   2  10  -8   45.30    2.90
   2  10  -8   51.29    3.80
   2  10  -8   49.70    4.40
  -2  10   8   46.30    3.30
   2  10  -8   49.50    4.90
   2  10  -8   48.30    5.90
   0 -10   8    1.40    1.90
   0 -10   8    3.40    2.90
   0 -10   8    2.50    1.40
   0  10  -8    1.20    1.70
   0  10  -8    4.50    2.70
   0  10   8    2.50    1.60
   0  10  -8    2.50    1.20
   0  10  -8    1.30    1.40
   0  10   8    2.90    1.60
   0  10  -8    2.90    3.20
   0  10  -8    5.60    2.30
   0  10   8    3.40    0.60
   0  10  -8    5.30    2.70
   2 -10   8   10.50    3.00
   2 -10   8    5.30    2.00
   2 -10   8    6.90    1.80
  -2  10  -8    3.80    1.60
  -2  10  -8    0.80    3.20
  -2  10  -8    5.60    2.50
  -2  10  -8    3.90    2.80
  -2  10  -8    4.60    1.80
   2  10   8    5.60    0.90
   2  10   8    5.10    2.00
   2  10   8    5.30    1.90
  -2  10  -8    4.90    3.20
   4 -10   8   10.00    2.80
   4 -10   8   11.70    3.30
   4 -10   8    4.50    1.80
   4 -10   8    9.80    3.30
  -4  10  -8    7.80    1.90
  -4  10  -8    5.70    2.20
   4  10   8    7.90    2.40
   4  10   8    8.80    2.50
  -4  10  -8    8.70    4.20
  -4  10  -8    6.60    3.50
   4  10   8   10.10    1.30
  -5 -11   8   29.50    3.40
  -5 -11   8   30.60    3.70
  -5 -11   8   37.20    4.60
  -5 -11   8   30.40    4.00
   5  11  -8   32.20    4.60
   5  11  -8   28.60    2.90
  -5  11   8   34.40    1.90
   5  11  -8   33.30    3.80
   5  11  -8   29.40    3.40
  -5  11   8   30.40    1.90
  -5  11   8   34.60    2.80
   5  11  -8   34.50    6.30
   5  11  -8   37.30    5.40
   5  11  -8   36.40    4.60
  -3 -11   8   39.50    4.00
  -3 -11   8   50.19    3.80
  -3 -11   8   57.89    3.50
   3  11  -8   44.30    3.20
   3  11  -8   54.69    3.70
   3  11  -8   52.09    6.70
   3  11  -8   44.50    5.00
  -3  11   8   51.99    2.00
   3  11  -8   56.19    5.60
  -3  11   8   51.49    3.00
  -3  11   8   54.19    3.50
   3  11  -8   57.59    6.20
   3  11  -8   48.70    3.90
  -1 -11   8   30.30    4.40
  -1 -11   8   39.90    3.60
  -1 -11   8   38.00    4.40
  -1  11   8   37.10    1.70
   1  11  -8   37.80    4.60
   1  11  -8   40.40    3.00
   1  11  -8   33.00    3.20
   1  11  -8   41.10    3.80
   1  11  -8   33.00    4.60
  -1  11   8   37.90    3.60
  -1  11   8   37.10    1.70
   1  11  -8   36.80    4.70
   1  11  -8   33.10    4.80
  -1  11   8   37.10    3.30
   1 -11   8    3.50    2.30
   1 -11   8    2.60    3.20
   1 -11   8    6.80    1.90
  -1  11  -8    3.90    1.50
  -1  11  -8    4.60    2.70
   1  11   8    6.90    2.00
  -1  11  -8    4.40    2.90
  -1  11  -8   10.10    4.10
  -1  11  -8   10.30    3.40
  -1  11  -8    2.90    2.00
  -1  11  -8    9.80    1.80
   1  11   8    6.70    2.10
   1  11   8    7.80    0.90
   3 -11   8    4.40    2.10
   3 -11   8    2.20    3.20
  -3  11  -8    1.90    1.60
   3  11   8   -1.40    2.00
   3  11   8    3.40    1.00
  -3  11  -8    4.20    3.50
  -3  11  -8    2.80    3.90
  -3  11  -8    3.90    2.20
   3  11   8    7.50    2.40
  -3  11  -8    3.10    3.00
  -4 -12   8    1.50    2.60
  -4 -12   8    3.30    2.00
  -4 -12   8    3.30    2.10
   4  12  -8    5.50    1.80
   4  12  -8    3.80    3.80
  -4  12   8    0.80    1.60
   4  12  -8    1.80    2.40
  -4  12   8    3.50    0.90
   4  12  -8    2.60    3.40
   4  12  -8    4.90    1.80
   4  12  -8   -0.40    4.10
  -2 -12   8    4.10    3.80
  -2 -12   8    1.80    2.00
  -2 -12   8    4.80    1.60
   2  12  -8    3.10    1.60
  -2  12   8    1.70    1.30
  -2  12   8    1.60    0.80
   2  12  -8   -0.20    1.60
   2  12  -8    3.10    3.40
   2  12  -8   -1.40    4.10
  -2  12   8    2.00    0.90
   2  12  -8    5.00    2.90
   2  12  -8    5.40    2.30
  -2  12   8    3.10    1.80
   0 -12   8    9.00    2.40
   0 -12   8   14.00    4.20
   0  12  -8   12.90    2.70
   0  12  -8   15.70    3.40
   0  12   8   16.70    3.00
   0  12  -8   22.40    2.90
   0  12  -8   14.70    3.80
   0  12   8   19.60    1.70
   0  12  -8   14.10    4.60
   0  12   8   15.70    2.60
   0  12   8   18.70    1.60
   0  12  -8   22.30    3.00
  10   0  -9    0.80    0.70
 -10   0   9    0.00    1.80
  10   0  -9    0.50    3.30
  10   0  -9    3.10    2.20
 -10   0   9   -1.80    1.40
 -10   0   9    4.50    1.50
  10   0  -9    2.50    2.30
  10   0  -9    1.10    0.90
   8   0  -9    0.90    1.70
  -8   0   9    0.60    1.20
   8   0  -9    3.60    2.50
   8   0  -9    0.20    1.60
  -8   0   9    1.50    1.00
  -8   0   9   -0.10    1.40
  -8   0   9    0.00    1.50
   6   0  -9    1.80    1.30
   6   0  -9    0.90    1.40
   6   0  -9    1.00    1.70
   6   0  -9    1.70    1.50
  -6   0   9    1.50    1.20
  -6   0   9   -0.30    0.90
   4   0  -9    0.30    1.20
   4   0  -9   -0.40    1.20
   4   0  -9   -0.80    1.10
  -4   0   9    1.20    0.80
   4   0  -9    2.10    1.50
   2   0  -9    0.50    1.00
  -2   0   9    0.60    0.80
   2   0  -9    0.20    1.10
  -2   0   9    0.20    0.80
  -2   0   9   -0.50    0.50
   2   0  -9   -0.70    1.30
   2   0  -9   -0.40    1.70
   0   0   9   -1.00    1.10
   0   0  -9    0.80    1.30
   0   0  -9   -0.20    1.30
   0   0  -9   -0.30    1.10
   0   0   9    0.20    0.70
   0   0   9    2.30    1.80
   0   0   9   -0.70    0.60
   0   0  -9    1.30    1.10
  -2   0  -9    0.90    1.20
  -2   0  -9    0.30    1.40
   2   0   9   -1.60    0.70
   2   0   9   -0.90    1.10
  -2   0  -9    1.60    1.30
   2   0   9   -1.10    1.60
  -2   0  -9    0.70    1.50
  -4   0  -9   -0.20    1.50
  -4   0  -9   -0.50    1.70
   4   0   9    2.90    1.40
   4   0   9    0.60    2.00
   4   0   9   -2.20    0.90
  -4   0  -9    0.60    1.60
   4   0   9    0.60    0.90
   4   0   9   -0.50    1.40
  -6   0  -9    0.10    2.00
   6   0   9    3.60    1.80
   6   0   9    1.40    1.30
  -6   0  -9    1.10    2.30
   6   0   9   -2.40    2.70
   6   0   9    2.80    1.90
  11  -1  -9  111.19    6.40
 -11  -1   9  115.59    5.20
 -11  -1   9   94.29    5.60
 -11  -1   9   95.39    6.00
  11  -1  -9  105.29    8.40
 -11  -1   9  107.99    5.10
 -11   1   9   99.39    5.70
  11   1  -9  119.09    8.60
 -11   1   9  106.49    5.00
 -11   1   9  100.39    5.40
 -11   1   9  113.39    5.00
  11   1  -9  114.39    4.30
  11   1  -9  112.39    4.00
   9  -1  -9    7.70    3.00
   9  -1  -9    7.30    2.10
  -9  -1   9    5.80    2.00
   9  -1  -9    4.40    2.10
  -9  -1   9    3.10    1.40
  -9  -1   9    6.90    1.90
  -9  -1   9    4.60    1.50
  -9   1   9    7.70    1.60
   9   1  -9    9.10    2.20
  -9   1   9    7.40    1.80
   9   1  -9    7.20    3.10
   9   1  -9    6.80    1.00
   9   1  -9    5.80    2.10
  -9   1   9    9.40    1.90
  -9   1   9    5.00    1.40
   9   1  -9    6.60    1.10
   7  -1  -9   80.29    4.00
  -7  -1   9   75.89    4.00
   7  -1  -9   77.39    4.00
  -7  -1   9   75.39    3.60
  -7  -1   9   71.99    4.20
   7  -1  -9   79.69    4.60
   7   1  -9   83.89    5.20
  -7   1   9   71.49    3.70
  -7   1   9   70.09    3.90
  -7   1   9   81.99    3.50
   7   1  -9   77.09    4.20
   7   1  -9   76.59    4.30
   5  -1  -9    7.30    1.40
   5  -1  -9    7.80    1.50
  -5  -1   9    9.40    1.70
  -5  -1   9    7.70    1.30
   5  -1  -9    6.90    1.70
   5  -1  -9    6.80    1.50
   5   1  -9    5.90    1.60
   5   1  -9    7.00    1.70
   5   1  -9    6.60    1.60
  -5   1   9    5.70    1.10
   5   1  -9    6.30    2.00
  -5   1   9    8.30    1.30
  -3  -1   9   13.80    1.60
   3  -1  -9   10.60    2.50
   3  -1  -9   14.50    1.80
   3  -1  -9   11.90    2.20
  -3  -1   9   11.60    0.90
   3  -1  -9   13.00    1.60
  -3  -1   9   12.70    1.50
   3   1  -9   13.30    1.90
   3   1  -9   13.90    2.10
   3   1  -9   12.60    1.70
  -3   1   9   12.90    1.60
   3   1  -9   14.00    1.80
  -3   1   9   11.20    0.80
  -3   1   9   13.70    1.50
  -3   1   9   10.60    1.20
   1  -1  -9  120.39    4.40
  -1  -1   9  117.49    4.30
  -1  -1   9  125.29    3.80
  -1  -1   9  121.79    4.40
   1  -1  -9  122.89    4.20
   1  -1  -9  119.29    4.30
  -1   1   9  121.39    4.10
  -1   1   9  120.19    4.00
   1   1  -9  117.79    5.00
  -1   1   9  117.59    3.70
   1   1  -9  125.99    4.80
   1   1  -9  120.49    4.70
   1   1  -9  126.19    5.00
  -1  -1  -9   55.49    2.90
  -1  -1  -9   57.69    3.00
  -1  -1  -9   57.69    2.90
   1  -1   9   57.89    4.30
   1  -1   9   47.90    3.30
   1  -1   9   60.49    2.70
  -1  -1  -9   56.99    3.30
   1  -1   9   58.29    2.60
  -1   1  -9   53.89    3.50
  -1   1  -9   51.49    3.20
   1   1   9   53.79    3.70
  -1   1  -9   57.29    3.40
   1   1   9   58.79    2.50
   1   1   9   56.39    4.50
  -1   1  -9   62.49    3.70
  -3  -1  -9  175.08    6.30
   3  -1   9  164.58    7.60
   3  -1   9  181.88    5.70
  -3  -1  -9  182.68    6.20
   3  -1   9  172.88    6.50
  -3  -1  -9  172.48    6.10
   3  -1   9  176.98    5.70
   3  -1   9  168.38    6.40
  -3   1  -9  168.68    6.60
  -3   1  -9  171.88    6.80
   3   1   9  169.08    7.60
  -3   1  -9  180.68    6.50
   3   1   9  180.08    5.50
   3   1   9  177.58    6.10
   3   1   9  183.18    6.10
   5  -1   9   15.70    2.20
  -5  -1  -9   20.10    2.60
  -5  -1  -9   15.50    2.40
   5  -1   9   12.40    2.80
   5  -1   9   15.10    2.40
   5  -1   9   18.60    2.10
   5  -1   9   14.70    2.30
  -5   1  -9   16.70    2.60
   5   1   9   18.80    2.40
   5   1   9   15.00    2.00
  -5   1  -9   14.40    2.80
  -5   1  -9   15.80    2.50
   5   1   9   15.30    2.10
   5   1   9   21.10    3.20
  -7  -1  -9   24.70    3.50
   7  -1   9   21.60    2.90
   7  -1   9   28.10    4.00
  -7  -1  -9   31.20    4.30
   7  -1   9   26.50    2.80
   7  -1   9   25.70    3.20
   7  -1   9   20.60    3.00
  -7   1  -9   27.00    3.80
   7   1   9   18.50    3.40
   7   1   9   27.10    2.50
   7   1   9   25.90    3.50
  -7   1  -9   22.70    2.00
  -7   1  -9   20.90    2.00
   7   1   9   26.00    3.10
 -10  -2   9    5.40    2.20
  10  -2  -9    2.30    3.20
 -10  -2   9    4.90    1.70
 -10  -2   9    5.80    1.70
 -10  -2   9    5.10    2.10
  10  -2  -9    6.60    2.30
  10  -2  -9    7.50    2.40
  10   2  -9    7.50    1.40
 -10   2   9    5.80    1.60
  10   2  -9   -0.40    3.60
 -10   2   9    6.30    1.60
 -10   2   9    5.70    1.90
  10   2  -9    4.40    2.30
  10   2  -9    4.70    2.50
  10   2  -9    4.10    1.40
 -10   2   9    3.50    1.80
  -8  -2   9    2.40    1.70
  -8  -2   9    5.60    1.40
  -8  -2   9    5.10    1.90
  -8  -2   9    7.60    1.60
   8  -2  -9    6.90    1.90
   8  -2  -9    7.20    2.00
   8  -2  -9    6.40    2.50
   8   2  -9    5.00    1.00
  -8   2   9    6.90    1.50
  -8   2   9    5.00    1.50
   8   2  -9    7.30    1.10
  -8   2   9    5.30    1.50
   8   2  -9    4.00    1.80
   8   2  -9    3.30    1.90
   8   2  -9    5.20    2.60
  -8   2   9    5.80    1.20
  -6  -2   9   35.20    2.50
  -6  -2   9   34.40    3.00
   6  -2  -9   36.60    2.60
   6  -2  -9   33.40    3.10
   6  -2  -9   35.20    2.70
   6  -2  -9   34.90    2.70
   6   2  -9   33.50    3.20
   6   2  -9   31.40    3.10
   6   2  -9   33.70    1.60
  -6   2   9   35.00    2.30
   6   2  -9   32.60    1.50
   6   2  -9   34.80    3.50
   6   2  -9   38.20    4.10
  -6   2   9   34.80    2.20
   4  -2  -9  327.47    9.10
   4  -2  -9  315.57    9.00
  -4  -2   9  319.27    9.40
  -4  -2   9  319.57    9.80
   4  -2  -9  318.57    8.90
   4   2  -9  322.07    9.90
   4   2  -9  315.57    9.70
  -4   2   9  327.47    8.90
   4   2  -9  327.87   10.30
   4   2  -9  310.77   10.00
   2  -2  -9  214.38    6.40
   2  -2  -9  225.98    6.40
   2  -2  -9  222.18    6.30
   2  -2  -9  222.48    6.60
  -2  -2   9  221.48    6.10
  -2  -2   9  228.88    7.00
  -2  -2   9  219.18    7.00
   2   2  -9  241.08    8.00
  -2   2   9  218.28    6.40
   2   2  -9  211.08    7.50
   2   2  -9  226.08    7.50
  -2   2   9  226.38    6.40
   2   2  -9  233.48    7.40
  -2   2   9  227.28    6.70
   0  -2   9  534.35   14.70
   0  -2  -9  543.65   14.40
   0  -2  -9  559.94   14.20
   0  -2   9  551.64   14.30
   0  -2  -9  539.75   14.20
   0  -2   9  546.05   15.60
   0  -2  -9  559.84   14.30
   0   2  -9  564.94   16.10
   0   2  -9  533.75   15.40
   0   2   9  538.55   16.40
   0   2  -9  550.74   15.20
   0   2  -9  541.95   15.30
   0   2   9  548.95   14.10
   2  -2   9  286.57    8.40
   2  -2   9  284.47   10.40
   2  -2   9  288.07    9.30
  -2  -2  -9  297.57    8.30
   2  -2   9  287.77    8.40
  -2  -2  -9  280.27    8.30
  -2  -2  -9  285.87    8.30
  -2   2  -9  276.97    7.30
  -2   2  -9  286.77    9.40
  -2   2  -9  275.67    9.30
   2   2   9  283.07   10.20
  -2   2  -9  278.87    9.10
  -2   2  -9  280.37    9.30
   2   2   9  296.87    8.30
   2   2   9  288.37    7.90
   4  -2   9   37.90    4.30
  -4  -2  -9   42.20    3.30
   4  -2   9   37.80    3.50
  -4  -2  -9   39.40    3.10
   4  -2   9   38.40    2.60
   4  -2   9   41.60    2.60
  -4  -2  -9   37.20    3.00
   4   2   9   35.00    2.80
   4   2   9   38.30    2.20
   4   2   9   40.40    2.90
  -4   2  -9   38.00    1.90
  -4   2  -9   39.20    1.90
   4   2   9   37.40    4.30
  -4   2  -9   45.10    4.20
  -4   2  -9   42.30    3.70
  -6  -2  -9   71.59    4.50
   6  -2   9   71.39    3.70
   6  -2   9   65.59    4.70
  -6  -2  -9   75.89    4.80
   6  -2   9   66.69    4.80
   6  -2   9   73.49    3.70
   6  -2   9   63.29    5.70
   6   2   9   73.69    3.40
  -6   2  -9   70.39    3.10
   6   2   9   70.19    5.50
  -6   2  -9   70.69    3.00
  -6   2  -9   72.29    5.50
   6   2   9   68.69    4.00
   6   2   9   69.29    4.30
  -6   2  -9   70.39    5.70
   9  -3  -9    1.10    2.60
  -9  -3   9    0.70    1.50
   9  -3  -9    0.60    1.90
  -9  -3   9    5.30    2.20
   9  -3  -9    2.60    1.70
  -9  -3   9   -0.90    1.70
  -9  -3   9   -1.60    1.30
   9   3  -9    2.10    1.20
  -9   3   9    2.80    1.50
  -9   3   9   -0.60    1.10
  -9   3   9    0.90    1.20
   9   3  -9    5.50    2.30
   9   3  -9    0.00    2.00
   9   3  -9   -0.50    2.90
   9   3  -9    1.90    1.20
  -9   3   9    0.40    1.50
  -7  -3   9    2.80    2.00
   7  -3  -9    7.30    1.60
  -7  -3   9    6.80    1.90
   7  -3  -9    5.20    1.60
  -7  -3   9    5.40    1.20
   7  -3  -9    8.40    2.10
  -7  -3   9    5.70    1.50
  -7   3   9    8.10    1.40
   7   3  -9    5.70    2.00
  -7   3   9    5.10    1.20
   7   3  -9    5.30    1.10
   7   3  -9    6.40    1.10
   7   3  -9    2.80    2.70
  -7   3   9    6.00    1.90
   7   3  -9    6.10    1.90
   5  -3  -9    9.90    1.60
   5  -3  -9   10.50    1.30
  -5  -3   9    8.20    1.50
   5  -3  -9    9.40    1.40
  -5  -3   9    7.40    1.70
   5   3  -9   10.10    2.00
   5   3  -9   10.00    1.30
  -5   3   9    8.00    1.20
   5   3  -9   11.40    2.10
   5   3  -9    9.40    1.30
   5   3  -9    6.60    2.30
   3  -3  -9   10.80    1.20
  -3  -3   9    9.30    1.00
  -3  -3   9   11.60    1.70
   3  -3  -9   10.40    1.20
   3  -3  -9   11.60    1.40
   3  -3  -9   11.90    1.50
   3   3  -9   10.50    1.90
  -3   3   9   10.90    1.40
   3   3  -9   12.50    1.90
   3   3  -9   11.40    2.30
  -3   3   9   10.90    1.30
   3   3  -9   11.70    1.20
  -3   3   9   10.10    1.30
   3   3  -9   10.30    1.20
  -1  -3   9  113.99    4.60
  -1  -3   9  113.09    3.70
  -1  -3   9  112.29    4.40
   1  -3  -9  115.19    3.40
  -1  -3   9   99.49    5.20
   1  -3  -9  114.99    3.50
   1   3  -9  118.09    5.00
  -1   3   9  115.69    4.40
  -1   3   9  118.79    3.70
   1   3  -9  111.59    4.80
   1   3  -9  109.49    3.40
   1   3  -9  108.99    6.00
  -1   3   9  112.59    3.50
   1   3  -9  119.59    4.00
  -1   3   9  108.49    5.50
   1   3  -9  115.89    5.40
   1  -3   9   21.40    2.10
  -1  -3  -9   19.50    1.50
   1  -3   9   22.30    2.00
  -1  -3  -9   17.10    1.70
   1  -3   9   21.20    2.90
  -1  -3  -9   17.60    1.70
  -1  -3  -9   22.00    1.60
   1   3   9   19.70    2.90
  -1   3  -9   17.50    1.40
  -1   3  -9   23.10    3.00
  -1   3  -9   19.80    2.70
   1   3   9   21.20    1.30
  -1   3  -9   19.30    2.10
  -1   3  -9   19.70    2.70
   3  -3   9   77.19    4.50
  -3  -3  -9   77.39    3.40
   3  -3   9   73.99    3.40
   3  -3   9   83.69    3.70
  -3  -3  -9   84.69    3.60
   3  -3   9   69.59    4.40
   3  -3   9   73.59    5.30
  -3   3  -9   75.49    4.50
   3   3   9   78.79    3.00
  -3   3  -9   78.09    3.00
  -3   3  -9   81.19    5.00
   3   3   9   88.19    5.40
   3   3   9   77.89    3.30
  -3   3  -9   68.99    6.20
  -3   3  -9   80.39    2.90
   3   3   9   80.39    3.30
  -5  -3  -9    5.30    1.70
   5  -3   9    3.50    2.10
   5  -3   9    3.80    1.40
   5  -3   9    1.90    1.30
  -5  -3  -9    3.50    1.80
   5  -3   9    2.30    1.80
   5  -3   9    3.00    2.40
   5   3   9    3.20    1.50
  -5   3  -9    3.00    2.60
   5   3   9    3.40    2.40
   5   3   9    2.40    1.60
  -5   3  -9    2.50    2.50
  -5   3  -9    5.60    1.40
  -5   3  -9    8.80    2.20
  -5   3  -9    5.80    1.20
  -7  -3  -9   20.80    2.90
   7  -3   9   15.80    3.70
   7  -3   9   23.50    3.00
   7  -3   9   17.50    2.90
  -7  -3  -9   22.50    3.10
   7  -3   9   15.40    2.20
   7  -3   9   19.60    3.30
  -7   3  -9   20.00    3.60
   7   3   9   20.30    2.50
   7   3   9   21.50    3.10
  -7   3  -9   24.60    4.10
  -7   3  -9   16.40    2.40
   7   3   9   17.70    2.30
  -7   3  -9   18.40    2.00
   7   3   9   18.50    3.50
 -10  -4   9    2.70    1.70
  10  -4  -9    4.00    2.30
 -10  -4   9    3.00    2.40
 -10  -4   9    3.10    1.90
  10  -4  -9    5.20    2.70
 -10  -4   9    0.30    2.10
  10   4  -9    0.30    1.60
 -10   4   9   -0.10    1.70
 -10   4   9    3.20    1.60
  10   4  -9   -0.60    1.50
 -10   4   9    2.90    1.30
 -10   4   9    1.90    1.50
  10   4  -9    5.50    4.20
   8  -4  -9    9.80    1.80
  -8  -4   9    9.50    1.70
  -8  -4   9    7.80    1.80
   8  -4  -9    8.50    1.90
  -8  -4   9   12.40    2.30
  -8  -4   9    8.30    2.20
   8  -4  -9    8.00    2.50
   8   4  -9    8.80    1.80
  -8   4   9    8.80    1.60
  -8   4   9    5.50    1.50
   8   4  -9    8.80    1.50
   8   4  -9    8.50    3.30
  -8   4   9   11.10    1.40
  -8   4   9    9.70    1.50
   8   4  -9   11.70    2.40
   8   4  -9    8.40    2.40
   6  -4  -9    5.70    1.30
   6  -4  -9    3.80    1.30
   6  -4  -9    3.50    1.10
  -6  -4   9    3.70    1.70
  -6  -4   9   -0.20    1.10
   6  -4  -9    2.70    1.40
   6   4  -9    3.60    1.10
   6   4  -9    4.50    1.80
   6   4  -9    3.20    1.90
   6   4  -9    5.80    2.40
  -6   4   9    2.70    0.90
   6   4  -9    4.00    2.20
  -6   4   9    3.30    0.90
   6   4  -9    3.90    1.10
  -4  -4   9   26.20    2.40
  -4  -4   9   25.60    1.40
  -4  -4   9   26.90    2.90
   4   4  -9   27.60    1.90
  -4   4   9   25.60    1.50
   4   4  -9   25.70    1.80
  -4   4   9   26.60    1.60
   4   4  -9   29.30    3.70
   4   4  -9   27.70    3.90
   4   4  -9   23.20    2.90
   4   4  -9   23.10    3.10
  -2  -4   9   29.40    2.60
  -2  -4   9   27.20    1.70
  -2  -4   9   29.80    2.50
   2   4  -9   27.80    2.90
  -2   4   9   26.00    1.50
   2   4  -9   28.00    1.70
   2   4  -9   27.40    3.80
  -2   4   9   27.10    2.10
   2   4  -9   27.60    3.00
   2   4  -9   26.50    1.80
  -2   4   9   23.10    1.40
  -2   4   9   25.90    3.40
   2   4  -9   25.40    3.10
   0  -4   9   93.69    4.00
   0  -4   9   96.79    5.10
   0  -4   9   94.39    3.50
   0   4  -9   90.49    4.60
   0   4  -9   89.69    5.30
   0   4   9   89.69    2.90
   0   4   9   93.39    4.20
   0   4   9   86.79    5.10
   0   4  -9   94.29    5.20
   0   4  -9   92.59    3.20
   0   4  -9   96.59    4.80
   0   4  -9   92.79    3.30
  -2  -4  -9  362.66    9.20
   2  -4   9  353.06   10.00
   2  -4   9  359.46   10.50
  -2  -4  -9  359.56    9.40
  -2  -4  -9  356.76    9.20
   2  -4   9  344.67   12.10
   2  -4   9  361.16   11.60
  -2  -4  -9  359.36    9.40
  -2   4  -9  354.26    9.80
  -2   4  -9  346.37   11.50
   2   4   9  358.16    9.40
  -2   4  -9  344.07   11.10
  -2   4  -9  360.96   11.70
  -2   4  -9  339.87   11.40
  -2   4  -9  371.76    9.60
   2   4   9  354.06   12.00
  -4  -4  -9   55.69    3.20
   4  -4   9   55.99    3.10
   4  -4   9   41.70    4.70
  -4  -4  -9   52.19    2.90
   4  -4   9   53.69    4.20
   4  -4   9   51.49    3.20
   4  -4   9   53.49    4.50
   4   4   9   53.99    2.80
   4   4   9   51.69    5.00
   4   4   9   53.09    2.70
  -4   4  -9   53.19    4.30
  -4   4  -9   50.49    3.00
  -4   4  -9   50.99    4.80
  -4   4  -9   58.99    4.90
   4   4   9   50.09    2.40
  -4   4  -9   56.29    2.70
   6  -4   9   23.40    3.40
  -6  -4  -9   28.60    3.40
   6  -4   9   33.50    3.00
  -6  -4  -9   27.50    3.70
   6  -4   9   25.10    3.20
   6  -4   9   28.50    3.00
   6  -4   9   25.70    3.50
  -6   4  -9   30.90    3.10
   6   4   9   29.50    2.20
  -6   4  -9   40.70    5.60
  -6   4  -9   25.20    2.70
   6   4   9   27.60    3.10
   6   4   9   25.60    3.70
  -6   4  -9   27.30    4.10
   6   4   9   28.50    3.00
  -6   4  -9   32.30    4.60
  -9  -5   9   17.90    2.30
   9  -5  -9   20.80    3.10
  -9  -5   9   22.60    3.10
   9  -5  -9   19.60    2.60
  -9  -5   9   17.70    3.00
  -9  -5   9   15.00    2.30
  -9   5   9   17.80    2.60
   9   5  -9   20.30    2.10
   9   5  -9   19.30    3.20
   9   5  -9   23.60    3.00
   9   5  -9   23.20    4.60
  -9   5   9   18.00    2.20
  -9   5   9   21.80    2.50
   9   5  -9   15.30    3.10
  -9   5   9   21.50    2.70
   7  -5  -9   57.79    3.60
   7  -5  -9   59.79    3.30
   7  -5  -9   58.29    2.90
  -7  -5   9   51.29    3.20
  -7  -5   9   54.59    4.20
  -7  -5   9   59.19    3.60
  -7   5   9   60.19    2.80
   7   5  -9   62.59    4.50
   7   5  -9   60.39    5.40
  -7   5   9   60.89    2.40
  -7   5   9   50.49    2.60
   7   5  -9   58.49    4.70
   7   5  -9   61.39    5.60
   7   5  -9   59.99    3.20
   7   5  -9   58.19    3.20
  -5  -5   9  132.59    5.40
  -5  -5   9  139.49    6.00
   5   5  -9  133.89    6.20
   5   5  -9  144.29    6.80
   5   5  -9  143.69    6.20
   5   5  -9  142.39    7.00
   5   5  -9  142.29    4.80
  -5   5   9  142.29    4.00
  -5   5   9  140.49    4.30
   5   5  -9  140.09    4.80
  -3  -5   9   77.79    4.10
  -3  -5   9   76.39    3.90
  -3  -5   9   72.79    2.90
  -3   5   9   71.79    2.40
  -3   5   9   77.69    4.50
   3   5  -9   74.29    4.50
   3   5  -9   73.39    4.90
  -3   5   9   74.29    3.10
   3   5  -9   78.29    3.10
   3   5  -9   73.89    3.20
   3   5  -9   72.99    4.30
   3   5  -9   75.29    5.20
  -1  -5   9   80.49    4.00
  -1  -5   9   81.49    5.00
  -1  -5   9   82.89    3.20
  -1  -5   9   72.69    3.90
   1   5  -9   77.69    4.60
  -1   5   9   77.89    2.60
   1   5  -9   87.09    3.30
  -1   5   9   85.59    4.80
   1   5  -9   79.39    3.10
   1   5  -9   70.19    4.40
   1   5  -9   85.69    5.10
   1   5  -9   82.49    5.20
  -1   5   9   81.49    3.80
  -1   5   9   80.69    2.40
   1  -5   9   94.79    3.80
   1  -5   9   96.79    4.30
   1  -5   9  100.79    5.40
   1   5   9  102.59    4.70
   1   5   9   95.19    2.90
  -1   5  -9   89.79    4.90
  -1   5  -9   94.59    5.60
  -1   5  -9   95.49    5.70
  -1   5  -9  100.19    3.60
   1   5   9   89.99    5.30
  -1   5  -9   85.89    5.30
  -1   5  -9   93.69    3.80
   3  -5   9   38.30    4.20
  -3  -5  -9   37.60    2.10
  -3  -5  -9   37.50    1.90
   3  -5   9   38.10    3.80
   3  -5   9   33.70    4.40
   3  -5   9   42.40    2.70
  -3  -5  -9   39.10    2.20
   3  -5   9   40.10    3.10
  -3   5  -9   40.00    4.80
  -3   5  -9   42.20    2.50
  -3   5  -9   33.90    3.90
   3   5   9   38.40    4.40
   3   5   9   37.10    1.90
  -3   5  -9   38.20    4.50
   5  -5   9   12.90    3.20
   5  -5   9   22.70    2.90
   5  -5   9   23.70    2.60
   5  -5   9   14.60    2.50
  -5  -5  -9   20.00    2.70
   5  -5   9   26.40    3.40
  -5   5  -9   24.60    2.50
  -5   5  -9   18.90    3.30
   5   5   9   13.90    2.80
  -5   5  -9   21.30    2.30
  -5   5  -9   17.80    3.40
   5   5   9   21.40    1.90
   5   5   9   18.30    2.40
   5   5   9   19.60    2.20
  -5   5  -9   14.80    3.50
   8  -6  -9    4.00    1.40
  -8  -6   9    0.60    1.50
  -8  -6   9    1.00    1.40
  -8  -6   9    6.30    2.70
  -8  -6   9    4.30    2.30
   8  -6  -9    2.20    2.10
   8  -6  -9    4.80    1.80
   8   6  -9    1.50    2.40
  -8   6   9    1.30    1.00
   8   6  -9   -0.30    2.90
   8   6  -9    3.60    1.70
   8   6  -9    4.30    2.80
  -8   6   9    1.70    1.30
   8   6  -9    7.10    3.60
  -8   6   9    3.70    1.20
  -8   6   9    0.80    1.10
   8   6  -9    3.90    1.60
   6  -6  -9   32.30    2.10
  -6  -6   9   33.70    3.60
  -6  -6   9   25.00    3.00
  -6  -6   9   31.70    2.70
   6   6  -9   36.70    2.80
   6   6  -9   36.40    4.40
   6   6  -9   29.30    4.00
   6   6  -9   31.30    3.80
  -6   6   9   29.50    3.20
  -6   6   9   33.70    1.50
  -6   6   9   32.50    2.00
   6   6  -9   37.70    2.90
   6   6  -9   30.30    4.00
  -4  -6   9   39.90    3.60
  -4  -6   9   41.00    2.30
  -4  -6   9   38.90    3.10
  -4   6   9   42.60    3.70
   4   6  -9   45.50    2.80
   4   6  -9   45.20    5.00
  -4   6   9   40.90    1.80
  -4   6   9   42.20    2.20
   4   6  -9   45.10    4.00
   4   6  -9   38.10    3.70
   4   6  -9   41.50    2.60
   4   6  -9   37.50    4.50
  -2  -6   9   38.70    2.30
  -2  -6   9   35.20    3.10
  -2  -6   9   41.10    3.40
   2   6  -9   39.60    4.70
   2   6  -9   37.10    4.40
   2   6  -9   38.70    3.70
  -2   6   9   45.70    2.80
   2   6  -9   43.30    2.50
   2   6  -9   44.90    3.90
   0  -6   9   84.49    4.10
   0  -6   9   87.49    5.50
   0  -6   9   83.59    4.20
   0   6  -9   85.49    5.70
   0   6  -9   91.49    5.60
   0   6  -9   81.69    3.90
   0   6   9   81.19    4.90
   0   6  -9   83.19    5.10
   0   6   9   84.59    2.50
   0   6  -9   84.19    3.50
   0   6   9   84.99    4.30
   0   6  -9   87.89    4.90
   2  -6   9    3.40    1.20
   2  -6   9    5.20    1.60
   2  -6   9    7.00    2.40
  -2   6  -9    4.10    1.30
  -2   6  -9   -0.30    2.40
  -2   6  -9    6.80    2.70
   2   6   9    5.10    2.10
  -2   6  -9    5.40    1.50
  -2   6  -9    4.10    2.00
   2   6   9    4.20    1.80
   2   6   9    4.80    0.80
  -2   6  -9    4.50    2.10
   4  -6   9   34.50    4.80
   4  -6   9   35.70    4.40
  -4  -6  -9   36.10    2.40
   4  -6   9   33.80    2.90
  -4  -6  -9   34.70    3.20
   4  -6   9   31.00    3.20
  -4   6  -9   31.50    4.20
  -4   6  -9   37.00    5.10
   4   6   9   39.50    4.40
   4   6   9   34.40    2.00
  -4   6  -9   38.40    3.60
  -4   6  -9   36.20    3.20
  -4   6  -9   39.20    5.40
   6  -6   9   48.80    3.70
   6  -6   9   44.90    5.70
   6  -6   9   41.00    5.00
  -6  -6  -9   47.40    3.70
   6  -6   9   51.79    5.90
   6  -6   9   46.40    4.00
  -6   6  -9   47.20    3.40
   6   6   9   48.40    2.90
  -6   6  -9   60.69    6.50
  -6   6  -9   49.70    4.00
   6   6   9   54.79    2.90
  -6   6  -9   54.79    6.80
   6   6   9   50.69    5.40
   6   6   9   51.09    3.30
  -9  -7   9   -2.60    1.90
  -9  -7   9   -1.40    2.90
  -9   7   9    3.90    1.40
   9   7  -9    1.50    1.90
  -9   7   9    3.30    1.40
  -7  -7   9   14.60    2.30
  -7  -7   9   27.00    3.90
   7  -7  -9   17.90    2.40
  -7  -7   9   14.90    2.10
   7  -7  -9   17.20    2.50
  -7   7   9   20.40    1.40
   7   7  -9   21.60    3.30
   7   7  -9   12.70    2.80
  -7   7   9   20.00    1.90
  -7   7   9   20.20    2.40
   7   7  -9   20.20    3.80
  -7   7   9   20.20    1.70
   7   7  -9   21.10    2.40
   7   7  -9   18.10    2.20
   7   7  -9   20.20    4.10
  -5  -7   9   24.10    3.00
  -5  -7   9   24.90    2.10
  -5  -7   9   32.00    3.50
   5   7  -9   27.70    2.80
   5   7  -9   29.10    3.80
   5   7  -9   20.60    2.50
  -5   7   9   26.60    1.60
   5   7  -9   36.40    5.20
   5   7  -9   33.30    4.10
   5   7  -9   26.90    4.10
  -5   7   9   27.30    1.80
  -5   7   9   27.30    3.10
  -3  -7   9   17.40    2.30
  -3  -7   9   18.60    2.00
   3   7  -9   20.40    2.90
   3   7  -9   20.20    2.60
  -3   7   9   17.20    2.30
  -3   7   9   21.70    2.20
   3   7  -9   19.50    3.30
   3   7  -9   16.00    2.70
   3   7  -9   18.40    3.40
  -1  -7   9   13.90    3.00
  -1  -7   9   14.00    2.10
  -1  -7   9   11.10    1.50
   1   7  -9   14.60    2.50
   1   7  -9   13.50    1.80
   1   7  -9   13.20    3.00
   1   7  -9   10.80    2.50
  -1   7   9   15.90    2.50
   1   7  -9   12.80    1.70
  -1   7   9   12.70    1.90
   1   7  -9   11.00    3.10
   1  -7   9    7.00    1.60
   1  -7   9    6.80    1.40
   1  -7   9    8.10    2.80
  -1   7  -9    7.30    1.70
   1   7   9    6.50    1.80
   1   7   9    7.70    2.20
  -1   7  -9    7.70    3.10
  -1   7  -9    7.80    2.30
  -1   7  -9    7.60    2.10
  -1   7  -9    7.80    2.50
   1   7   9    7.70    0.90
  -1   7  -9    9.40    3.00
   3  -7   9   11.00    2.00
   3  -7   9   14.40    2.70
   3  -7   9    8.70    2.70
   3  -7   9   10.20    1.70
   3  -7   9    4.40    2.70
  -3   7  -9   11.00    1.70
   3   7   9    9.60    2.30
  -3   7  -9   12.80    3.70
   3   7   9    6.70    2.20
  -3   7  -9   12.40    3.70
  -3   7  -9    8.10    2.70
  -3   7  -9   10.60    2.00
  -3   7  -9   12.40    2.90
   3   7   9   11.50    1.40
   5  -7   9    6.90    2.10
  -5  -7  -9    7.80    1.60
   5  -7   9   10.20    3.20
   5  -7   9    8.60    1.90
   5  -7   9   13.70    3.10
  -5  -7  -9    9.00    1.70
   5  -7   9   10.40    2.90
  -5   7  -9    9.70    3.70
  -5   7  -9    8.10    2.20
  -5   7  -9   12.90    3.70
  -5   7  -9    8.50    1.80
   5   7   9    7.30    1.30
   5   7   9   10.60    2.70
   5   7   9    5.80    2.60
   8  -8  -9   14.90    2.10
  -8  -8   9   10.00    2.30
  -8  -8   9   17.00    3.10
   8  -8  -9   14.10    1.50
   8   8  -9   13.00    2.20
   8   8  -9   14.10    4.20
  -8   8   9   14.50    1.50
   8   8  -9   15.70    2.50
  -8   8   9   14.10    1.70
   8   8  -9   20.70    4.70
  -8   8   9   16.10    2.10
  -8   8   9   17.50    1.80
   8   8  -9   14.70    5.00
  -6  -8   9    1.80    1.50
  -6  -8   9   -1.10    1.30
   6   8  -9    0.70    2.30
  -6   8   9   -0.10    0.80
   6   8  -9    0.00    1.50
   6   8  -9   -5.40    2.40
   6   8  -9    1.00    3.20
   6   8  -9    5.00    3.40
   6   8  -9    0.70    1.60
  -6   8   9    1.10    0.80
  -6   8   9    0.60    1.50
  -4  -8   9   72.19    4.40
  -4  -8   9   77.69    3.50
  -4  -8   9   75.79    5.10
   4   8  -9   77.59    5.30
  -4   8   9   75.69    3.30
  -4   8   9   75.49    2.40
  -4   8   9   76.89    4.40
   4   8  -9   81.09    4.10
   4   8  -9   82.39    6.60
   4   8  -9   68.49    5.30
   4   8  -9   77.59    6.50
   4   8  -9   70.39    3.70
  -2  -8   9   28.90    3.60
  -2  -8   9   29.60    2.60
  -2  -8   9   33.00    4.10
  -2  -8   9   25.80    3.20
   2   8  -9   22.90    4.10
  -2   8   9   29.30    2.80
  -2   8   9   23.60    3.40
   2   8  -9   24.80    3.30
   2   8  -9   22.80    2.90
   2   8  -9   29.10    4.20
   2   8  -9   22.70    3.00
   2   8  -9   24.90    2.50
   0  -8   9   94.29    4.10
   0  -8   9   90.29    4.90
   0  -8   9  102.09    6.60
   0   8  -9   94.29    4.50
   0   8   9   92.29    4.80
   0   8   9   94.89    5.20
   0   8  -9   84.79    5.40
   0   8  -9   94.19    5.90
   0   8  -9   82.79    6.10
   0   8  -9   93.99    4.10
   0   8  -9   91.09    6.80
   2  -8   9   83.59    4.00
   2  -8   9   76.39    4.60
   2  -8   9   88.29    6.30
  -2   8  -9   76.99    6.20
  -2   8  -9   80.09    6.00
   2   8   9   76.19    5.30
  -2   8  -9   81.59    4.30
   2   8   9   76.89    4.90
  -2   8  -9   80.79    6.90
   2   8   9   86.49    2.70
  -2   8  -9   82.19    3.90
  -2   8  -9   66.19    5.30
   4  -8   9   95.79    5.40
   4  -8   9  113.49    6.70
   4  -8   9   93.89    4.80
   4  -8   9  108.59    7.10
   4  -8   9   98.69    6.70
   4   8   9  101.09    3.60
  -4   8  -9   99.99    5.20
   4   8   9   98.49    6.10
   4   8   9   90.19    6.00
  -4   8  -9  106.89    4.70
  -4   8  -9  101.69    7.20
  -4   8  -9  121.89    8.30
  -7  -9   9   20.90    3.10
  -7  -9   9   22.40    2.90
  -7   9   9   27.50    2.30
   7   9  -9   24.10    2.80
  -7   9   9   24.60    2.00
   7   9  -9   25.70    2.10
   7   9  -9   29.40    5.20
   7   9  -9   27.30    2.90
   7   9  -9   27.50    4.30
  -5  -9   9   30.30    4.20
  -5  -9   9   27.20    3.20
  -5  -9   9   26.50    3.50
  -5  -9   9   24.30    2.70
   5   9  -9   31.30    2.30
   5   9  -9   25.10    3.90
  -5   9   9   27.20    2.30
   5   9  -9   27.60    3.10
   5   9  -9   35.40    4.70
   5   9  -9   24.60    2.70
  -5   9   9   28.60    1.70
  -5   9   9   22.00    3.00
   5   9  -9   18.00    3.40
   5   9  -9   29.30    4.70
  -3  -9   9    3.10    1.60
   3   9  -9    5.50    1.60
   3   9  -9    4.80    2.90
  -3   9   9    2.70    1.50
   3   9  -9    7.60    1.90
   3   9  -9    4.80    2.50
   3   9  -9    6.10    3.30
   3   9  -9    6.70    3.60
  -3   9   9    3.50    1.70
  -1  -9   9    2.60    1.50
  -1  -9   9    2.20    1.90
  -1  -9   9    7.30    3.10
   1   9  -9    1.10    1.40
  -1   9   9    4.20    1.70
   1   9  -9    3.30    2.40
   1   9  -9    4.60    2.50
   1   9  -9    2.50    1.80
   1   9  -9    4.00    3.50
   1   9  -9    2.00    3.20
  -1   9   9    6.40    2.00
   1  -9   9   42.70    5.50
   1  -9   9   43.30    4.10
   1  -9   9   40.40    3.30
  -1   9  -9   51.89    5.50
   1   9   9   46.00    4.10
   1   9   9   50.29    4.30
   1   9   9   43.30    1.70
  -1   9  -9   46.90    3.80
  -1   9  -9   48.50    6.60
  -1   9  -9   43.70    3.20
  -1   9  -9   34.90    4.70
  -1   9  -9   46.10    5.80
   3  -9   9   13.20    2.10
   3  -9   9   16.00    3.70
   3  -9   9   15.80    4.50
  -3   9  -9   15.20    4.30
  -3   9  -9   14.40    2.10
   3   9   9   18.20    1.60
  -3   9  -9   12.80    2.50
   3   9   9   13.40    2.80
   3   9   9   17.50    2.90
  -3   9  -9   14.90    3.80
  -3   9  -9   17.10    3.60
  -4 -10   9   81.99    4.40
  -4 -10   9   70.29    4.70
   4  10  -9   75.99    7.70
  -4  10   9   76.49    2.50
  -4  10   9   74.59    3.80
   4  10  -9   77.89    3.60
   4  10  -9   73.99    6.20
   4  10  -9   75.09    4.30
  -4  10   9   81.19    4.20
   4  10  -9   79.69    4.60
   4  10  -9   79.89    7.30
  -2 -10   9    2.00    3.40
  -2 -10   9    0.90    1.70
  -2  10   9    2.20    1.80
   2  10  -9    3.40    1.90
   2  10  -9    3.60    2.50
  -2  10   9    1.10    1.70
   2  10  -9    3.00    3.30
   2  10  -9    0.10    3.80
   2  10  -9    1.20    1.50
   0 -10   9   47.30    3.60
   0 -10   9   48.90    6.50
   0 -10   9   41.40    5.40
   0  10  -9   48.00    3.50
   0  10  -9   46.70    5.40
   0  10  -9   58.09    4.30
   0  10   9   45.40    4.00
   0  10  -9   38.10    4.90
   0  10  -9   55.59    5.70
   0  10   9   43.80    4.20
   2 -10   9    0.30    1.80
   2 -10   9    3.00    3.40
   2  10   9   -1.10    2.20
  -2  10  -9    3.00    2.00
   2  10   9    1.60    0.80
  -2  10  -9    2.00    3.30
   2  10   9    0.90    2.10
  -2  10  -9   -0.60    4.10
  -2  10  -9    1.40    3.30
  -2  10  -9    4.30    1.80
   8   0 -10   22.90    2.80
   8   0 -10   19.80    2.70
  -8   0  10   19.70    2.60
  -8   0  10   23.60    3.10
  -8   0  10   19.00    2.60
   8   0 -10   26.80    3.70
  -8   0  10   20.60    2.40
  -6   0  10   54.09    3.20
   6   0 -10   55.59    3.70
   6   0 -10   55.19    4.10
   6   0 -10   47.30    3.50
  -6   0  10   53.19    3.30
   6   0 -10   53.99    4.30
  -4   0  10   45.00    2.70
   4   0 -10   45.40    3.00
   4   0 -10   43.60    3.10
   4   0 -10   47.10    3.60
   4   0 -10   47.60    3.50
  -2   0  10   21.50    2.10
   2   0 -10   20.60    2.70
  -2   0  10   21.40    1.40
   2   0 -10   20.50    2.40
   2   0 -10   24.40    2.90
   2   0 -10   23.10    2.50
  -2   0  10   24.40    2.20
   0   0 -10   20.80    2.50
   0   0 -10   21.30    2.70
   0   0 -10   20.90    2.60
   0   0  10   20.90    1.70
   0   0  10   20.80    1.90
   0   0 -10   17.80    2.30
   0   0  10   17.70    3.00
   2   0  10    7.30    2.30
  -2   0 -10   10.90    2.20
   2   0  10   10.30    1.40
  -2   0 -10   11.90    2.00
   2   0  10   11.50    2.00
   2   0  10   12.30    1.60
  -2   0 -10   11.10    2.00
  -2   0 -10   12.60    2.20
  -4   0 -10  106.89    5.70
  -4   0 -10  112.79    5.50
   4   0  10  111.09    4.30
   4   0  10  102.09    6.50
   4   0  10  112.29    5.20
   4   0  10  106.09    4.40
   4   0  10  102.39    5.00
  -4   0 -10   98.69    5.20
   6   0  10   56.59    4.50
   6   0  10   59.29    3.80
  -6   0 -10   57.99    5.00
   6   0  10   47.90    6.20
   6   0  10   65.49    3.60
   6   0  10   65.59    4.50
  -6   0 -10   64.99    6.10
  -9  -1  10    3.50    1.70
   9  -1 -10    2.90    3.30
   9  -1 -10    2.40    2.20
  -9  -1  10    5.90    2.10
  -9  -1  10   -1.80    1.90
  -9  -1  10    0.00    1.40
  -9   1  10    0.50    1.30
   9   1 -10    2.30    2.30
  -9   1  10    3.20    1.60
  -9   1  10    5.60    1.90
   9   1 -10   -1.00    3.30
  -9   1  10    2.10    1.90
   7  -1 -10   11.90    2.10
  -7  -1  10   11.20    1.70
   7  -1 -10    6.80    2.50
  -7  -1  10   11.80    2.10
   7  -1 -10   12.90    2.20
   7  -1 -10    9.50    2.00
   7   1 -10   11.30    2.10
  -7   1  10   12.40    1.80
  -7   1  10    9.40    1.60
   7   1 -10   13.80    2.60
   7   1 -10   10.30    2.20
   7   1 -10   12.80    3.00
   5  -1 -10   16.50    2.40
   5  -1 -10   19.10    2.20
   5  -1 -10   19.70    2.50
  -5  -1  10   20.20    2.30
   5  -1 -10   20.50    2.60
  -5  -1  10   19.50    2.50
  -5   1  10   19.50    2.00
   5   1 -10   23.80    3.40
   5   1 -10   20.00    2.40
   5   1 -10   15.10    2.20
   5   1 -10   19.40    2.80
   3  -1 -10   88.39    3.70
   3  -1 -10   89.29    3.80
  -3  -1  10   83.49    2.60
   3  -1 -10   83.69    3.60
  -3  -1  10   88.39    3.80
   3   1 -10   82.39    4.10
   3   1 -10   82.79    4.40
  -3   1  10   86.39    3.50
  -3   1  10   87.39    3.00
  -3   1  10   88.19    3.60
   3   1 -10   86.39    4.70
   3   1 -10   88.39    4.20
  -3   1  10   83.19    2.60
   1  -1 -10   23.00    2.20
   1  -1 -10   17.90    2.20
  -1  -1  10   17.90    1.50
   1  -1 -10   19.30    2.30
  -1  -1  10   21.60    2.10
  -1  -1  10   19.20    2.20
   1   1 -10   20.80    2.70
  -1   1  10   21.10    2.00
  -1   1  10   19.60    1.50
  -1   1  10   23.70    1.80
   1   1 -10   21.80    2.60
   1   1 -10   18.60    2.30
  -1   1  10   18.10    2.80
   1   1 -10   19.00    2.70
  -1  -1 -10   10.20    1.70
  -1  -1 -10   10.30    1.80
  -1  -1 -10    6.90    1.50
   1  -1  10    9.10    2.50
   1  -1  10   11.40    2.00
  -1  -1 -10    9.90    2.10
   1  -1  10    9.90    1.50
  -1   1 -10   10.10    2.00
  -1   1 -10   11.70    2.20
   1   1  10   13.80    2.80
  -1   1 -10    8.80    1.80
  -1   1 -10    9.30    1.80
   1   1  10   11.00    1.50
  -3  -1 -10   38.20    3.30
  -3  -1 -10   36.10    3.30
   3  -1  10   33.60    2.50
  -3  -1 -10   35.10    3.20
   3  -1  10   38.40    4.90
   3  -1  10   38.50    2.60
  -3  -1 -10   40.50    3.60
   3  -1  10   41.00    3.60
   3   1  10   34.60    2.60
  -3   1 -10   33.30    3.60
   3   1  10   38.70    3.20
   3   1  10   43.00    2.40
   3   1  10   33.30    4.60
  -3   1 -10   35.30    3.90
  -3   1 -10   35.80    4.20
   5  -1  10   33.60    3.80
  -5  -1 -10   29.80    3.90
   5  -1  10   28.90    2.70
  -5  -1 -10   32.30    4.10
   5  -1  10   35.70    3.80
  -5  -1 -10   28.10    3.50
   5  -1  10   27.60    3.80
   5  -1  10   27.50    2.90
  -5   1 -10   28.40    3.40
   5   1  10   35.60    3.30
   5   1  10   32.10    2.60
  -5   1 -10   29.60    3.80
   5   1  10   31.10    3.30
   5   1  10   30.50    3.00
  -5   1 -10   35.00    4.30
   5   1  10   27.30    4.00
  -8  -2  10    6.80    1.50
  -8  -2  10    9.20    2.30
   8  -2 -10   13.30    3.00
   8  -2 -10    9.50    2.20
   8  -2 -10   12.80    2.30
  -8  -2  10   12.50    2.00
  -8   2  10    9.90    1.90
  -8   2  10   11.90    1.60
   8   2 -10    8.40    3.00
  -8   2  10   10.70    1.70
   8   2 -10   13.80    3.50
   8   2 -10   10.10    2.50
  -8   2  10    9.70    1.90
   8   2 -10    8.00    2.30
  -6  -2  10   13.50    2.10
  -6  -2  10   12.10    1.80
   6  -2 -10   14.30    2.00
   6  -2 -10   11.20    1.80
   6  -2 -10   12.80    2.00
   6  -2 -10    6.80    2.60
   6   2 -10   14.50    2.70
   6   2 -10    8.80    2.10
   6   2 -10   13.20    2.20
   6   2 -10   13.80    2.90
  -6   2  10   10.90    1.50
   4  -2 -10    5.10    1.30
   4  -2 -10    3.70    1.30
  -4  -2  10    7.40    1.30
   4  -2 -10    2.80    1.10
   4  -2 -10    4.20    1.50
  -4   2  10    3.90    1.10
   4   2 -10    3.90    1.70
   4   2 -10    6.10    2.40
   4   2 -10    2.10    1.90
   4   2 -10    2.90    1.70
   2  -2 -10    0.80    1.00
  -2  -2  10    0.70    1.10
  -2  -2  10    1.50    1.20
   2  -2 -10    1.60    1.10
  -2  -2  10    0.10    0.70
   2  -2 -10    1.20    1.40
   2  -2 -10    1.90    1.20
  -2   2  10   -1.00    1.00
   2   2 -10    3.40    1.80
   2   2 -10    2.90    1.50
  -2   2  10    2.30    0.90
   2   2 -10    0.80    1.60
  -2   2  10    0.70    0.90
  -2   2  10    0.10    1.80
   2   2 -10    0.60    2.00
  -2   2  10    0.30    0.60
   0  -2 -10   51.89    2.70
   0  -2 -10   48.50    2.80
   0  -2  10   49.00    3.80
   0  -2 -10   48.80    2.60
   0  -2  10   47.60    2.40
   0  -2 -10   48.20    2.50
   0  -2  10   45.40    2.80
   0   2 -10   42.70    3.40
   0   2 -10   46.30    4.00
   0   2  10   48.30    4.60
   0   2  10   51.49    2.30
   0   2 -10   42.60    3.40
   0   2 -10   46.60    3.90
   2  -2  10   14.90    1.60
   2  -2  10   12.50    2.90
   2  -2  10   14.20    1.80
  -2  -2 -10   14.90    1.80
  -2  -2 -10   16.40    1.90
  -2  -2 -10   19.10    2.40
   2  -2  10   18.40    2.50
  -2   2 -10   13.40    2.40
   2   2  10   13.60    1.70
  -2   2 -10   17.70    2.90
  -2   2 -10   15.30    2.40
   2   2  10   14.30    1.70
   2   2  10   14.60    3.10
  -2   2 -10   17.00    2.50
   4  -2  10    6.60    2.70
  -4  -2 -10   10.00    2.10
  -4  -2 -10    9.20    2.00
   4  -2  10    7.80    2.30
  -4  -2 -10   11.30    2.30
   4  -2  10    9.30    2.80
   4  -2  10    6.90    1.50
   4  -2  10    7.60    1.60
  -4   2 -10    6.40    2.50
   4   2  10    9.40    2.80
   4   2  10    7.60    1.80
  -4   2 -10    6.20    2.30
  -4   2 -10   12.50    3.00
   4   2  10    7.80    1.30
   9  -3 -10    1.00    3.20
  -9  -3  10   -1.30    2.20
   9  -3 -10    2.80    2.30
  -9  -3  10    0.40    1.60
  -9  -3  10    0.80    1.70
  -9  -3  10   -1.10    2.00
  -9   3  10    1.00    1.70
  -9   3  10    1.30    1.40
  -9   3  10   -0.30    1.30
   9   3 -10    1.10    1.20
  -9   3  10    1.70    1.60
   9   3 -10    0.70    3.60
   9   3 -10    1.30    1.10
  -7  -3  10   22.00    2.80
  -7  -3  10   30.10    3.50
   7  -3 -10   24.10    2.60
   7  -3 -10   25.40    3.10
   7  -3 -10   19.60    2.90
   7   3 -10   22.60    1.70
  -7   3  10   23.20    2.30
  -7   3  10   21.40    2.20
   7   3 -10   20.30    2.80
   7   3 -10   22.90    3.10
   7   3 -10   29.20    4.00
   7   3 -10   23.90    1.70
  -5  -3  10   15.50    2.00
   5  -3 -10   23.40    2.40
   5  -3 -10   18.90    2.10
   5  -3 -10   17.30    1.90
   5  -3 -10   23.10    2.50
  -5  -3  10   23.10    3.00
   5   3 -10   18.60    2.60
   5   3 -10   20.20    3.20
   5   3 -10   22.00    2.80
  -5   3  10   18.40    1.90
   5   3 -10   21.20    3.10
   5   3 -10   20.20    1.30
   5   3 -10   21.80    1.30
  -3  -3  10  208.18    7.20
  -3  -3  10  197.78    6.90
  -3  -3  10  198.98    5.70
   3  -3 -10  206.78    5.80
   3  -3 -10  204.38    5.90
   3   3 -10  220.68    8.10
   3   3 -10  216.98    7.50
   3   3 -10  192.48    7.80
  -3   3  10  207.68    8.20
   3   3 -10  206.38    7.50
  -3   3  10  208.38    6.20
  -3   3  10  215.38    6.10
  -3   3  10  209.18    6.00
  -1  -3  10   93.29    3.30
   1  -3 -10   93.79    3.00
   1  -3 -10   91.09    3.10
  -1  -3  10   85.19    4.20
  -1  -3  10   95.99    4.20
  -1   3  10   92.19    3.20
  -1   3  10   98.79    4.10
   1   3 -10   89.49    4.70
   1   3 -10   89.49    4.60
  -1   3  10   91.19    3.40
   1   3 -10   96.69    5.40
  -1   3  10   91.59    5.50
   1   3 -10   90.99    5.20
  -1  -3 -10   36.80    2.40
  -1  -3 -10   38.00    2.20
  -1  -3 -10   37.20    1.90
   1  -3  10   37.50    2.40
   1  -3  10   39.00    2.90
   1  -3  10   35.50    4.50
   1  -3  10   36.10    3.80
  -1   3 -10   38.60    3.70
   1   3  10   36.10    2.00
  -1   3 -10   35.10    3.40
   1   3  10   45.10    4.50
  -1   3 -10   35.60    4.20
  -1   3 -10   36.20    4.40
  -3  -3 -10  167.78    5.80
   3  -3  10  153.08    8.00
   3  -3  10  180.48    5.90
   3  -3  10  180.08    7.40
  -3  -3 -10  177.38    5.80
  -3  -3 -10  176.48    5.80
   3  -3  10  176.68    6.20
  -3  -3 -10  175.48    5.70
   3   3  10  168.08    8.00
   3   3  10  166.58    5.40
  -3   3 -10  170.48    4.80
  -3   3 -10  165.68    4.80
   3   3  10  176.38    5.50
  -3   3 -10  167.48    7.00
  -3   3 -10  181.48    7.70
  -3   3 -10  160.28    7.30
   5  -3  10  102.19    6.00
   5  -3  10  104.89    4.80
   5  -3  10  106.49    6.00
   5  -3  10  103.09    4.70
  -5  -3 -10  103.19    5.10
   5  -3  10   97.79    6.80
  -5  -3 -10   97.19    5.10
  -5  -3 -10  100.39    4.90
   5   3  10  105.29    7.10
  -5   3 -10  104.39    7.40
  -5   3 -10  107.39    7.00
  -5   3 -10  101.49    3.70
   5   3  10  102.59    4.60
   5   3  10  108.79    4.10
  -5   3 -10  103.29    3.70
   5   3  10  103.19    4.90
  -5   3 -10  100.99    6.10
   8  -4 -10    8.00    1.90
  -8  -4  10    9.50    1.90
  -8  -4  10    9.00    1.80
  -8  -4  10   14.20    2.50
   8  -4 -10   13.50    2.20
  -8   4  10   15.70    2.10
   8   4 -10   11.70    4.00
   8   4 -10   10.60    1.60
   8   4 -10   12.30    2.80
   8   4 -10    7.40    3.10
  -8   4  10   10.50    1.40
   8   4 -10   10.50    1.60
  -8   4  10   10.50    1.60
  -6  -4  10   41.30    3.90
  -6  -4  10   47.70    3.30
   6  -4 -10   41.10    2.30
   6  -4 -10   40.20    3.00
   6  -4 -10   43.90    2.80
   6   4 -10   52.29    5.50
   6   4 -10   44.50    2.30
   6   4 -10   44.00    4.40
   6   4 -10   45.50    2.40
   6   4 -10   49.60    4.10
   6   4 -10   53.39    5.40
  -6   4  10   42.80    2.50
  -4  -4  10   43.60    1.80
  -4  -4  10   45.20    3.20
  -4   4  10   46.70    4.20
   4   4 -10   45.60    2.20
   4   4 -10   51.19    3.90
  -4   4  10   49.90    2.00
   4   4 -10   43.90    4.00
   4   4 -10   45.40    4.90
  -4   4  10   48.80    2.30
   4   4 -10   45.30    2.20
  -2  -4  10    6.90    1.10
  -2  -4  10    8.00    1.60
  -2  -4  10    6.00    1.70
  -2   4  10    9.20    1.40
  -2   4  10    6.70    1.00
   2   4 -10    3.70    1.90
   2   4 -10   11.00    2.80
  -2   4  10    6.10    2.10
   2   4 -10    5.90    1.00
   2   4 -10    7.10    1.00
   2   4 -10    5.80    2.00
  -2   4  10    7.20    0.90
   0  -4  10   27.70    3.30
   0  -4  10   27.20    2.70
   0  -4  10   26.30    2.00
   0   4  10   21.00    2.40
   0   4 -10   34.10    3.50
   0   4 -10   27.10    3.50
   0   4  10   23.10    1.50
   0   4  10   24.50    3.20
   0   4 -10   23.30    3.50
   0   4 -10   24.00    1.80
   0   4 -10   23.10    1.70
   2  -4  10    9.80    2.70
   2  -4  10    4.30    1.30
   2  -4  10    6.00    1.60
  -2  -4 -10    6.20    1.20
   2  -4  10    3.10    2.10
  -2   4 -10    6.30    1.10
  -2   4 -10    5.30    2.10
  -2   4 -10    6.20    1.20
  -2   4 -10    9.30    2.80
  -2   4 -10    5.20    3.10
   2   4  10    2.40    2.30
  -2   4 -10    5.10    2.30
   2   4  10    6.80    1.00
   4  -4  10   42.70    5.20
   4  -4  10   46.60    3.20
   4  -4  10   51.89    4.60
  -4  -4 -10   52.99    3.40
  -4  -4 -10   52.89    3.40
   4  -4  10   51.49    4.80
  -4  -4 -10   48.50    3.20
   4  -4  10   51.39    3.60
   4   4  10   43.80    5.30
  -4   4 -10   45.00    5.50
  -4   4 -10   50.49    5.80
  -4   4 -10   51.99    2.80
   4   4  10   52.79    2.60
  -4   4 -10   48.80    3.00
   4   4  10   48.50    2.60
  -4   4 -10   40.50    4.70
   7  -5 -10    8.60    1.70
  -7  -5  10    8.70    2.30
  -7  -5  10   10.80    1.90
   7  -5 -10    8.10    1.50
   7  -5 -10    9.20    1.30
  -7  -5  10    8.30    1.70
   7  -5 -10    8.70    1.80
   7   5 -10    9.20    1.70
  -7   5  10    8.60    1.40
   7   5 -10    7.40    3.80
   7   5 -10    6.40    2.50
   7   5 -10   11.10    3.50
   7   5 -10    8.00    1.50
   7   5 -10    7.70    3.00
  -5  -5  10   10.30    2.20
  -5  -5  10   10.30    1.90
  -5   5  10    8.50    2.20
   5   5 -10    8.60    2.60
  -5   5  10   11.50    1.00
   5   5 -10   11.60    3.20
   5   5 -10    9.70    3.40
  -5   5  10   11.60    1.30
   5   5 -10   11.40    1.50
   5   5 -10   12.90    2.50
   5   5 -10   13.30    1.60
  -3  -5  10   12.80    1.60
  -3  -5  10   12.00    1.90
  -3  -5  10    8.20    1.90
   3   5 -10   16.00    2.00
   3   5 -10   10.80    2.50
  -3   5  10   13.50    1.50
   3   5 -10   10.10    3.20
   3   5 -10   14.10    3.20
  -3   5  10   14.10    1.40
  -3   5  10   11.10    2.40
   3   5 -10   17.40    1.90
   3   5 -10   11.40    2.30
  -1  -5  10   29.00    2.10
  -1  -5  10   21.50    2.90
  -1  -5  10   33.40    4.50
   1   5 -10   28.80    2.20
   1   5 -10   25.60    3.00
   1   5 -10   26.80    2.00
  -1   5  10   28.50    1.50
   1   5 -10   26.90    3.50
  -1   5  10   24.60    3.20
   1   5 -10   27.40    3.70
  -1   5  10   35.40    2.80
   1   5 -10   22.60    3.60
  -1   5  10   28.00    1.70
   1  -5  10   -1.90    1.30
   1  -5  10   -0.50    2.20
   1  -5  10    0.20    1.10
  -1   5 -10   -0.20    2.70
  -1   5 -10    3.70    1.10
   1   5  10   -0.10    0.70
  -1   5 -10    0.60    2.60
   1   5  10    1.00    1.50
  -1   5 -10    1.10    2.20
   1   5  10   -0.40    2.10
  -1   5 -10    1.70    1.80
  -1   5 -10    0.20    1.20
   3  -5  10   25.50    3.10
   3  -5  10   24.60    2.60
   3  -5  10   25.00    3.50
  -3  -5 -10   23.30    1.90
   3  -5  10   27.00    4.00
   3   5  10   21.70    3.40
  -3   5 -10   24.30    2.40
  -3   5 -10   27.90    4.10
  -3   5 -10   23.90    2.70
   3   5  10   25.50    1.80
  -3   5 -10   17.90    3.10
  -3   5 -10   19.40    3.20
  -3   5 -10   31.40    4.00
  -6  -6  10   32.80    3.30
  -6  -6  10   34.80    4.00
  -6   6  10   29.90    3.90
   6   6 -10   35.60    4.60
   6   6 -10   26.90    4.50
   6   6 -10   46.80    6.30
   6   6 -10   32.50    4.90
  -6   6  10   34.80    2.20
   6   6 -10   34.90    3.00
  -6   6  10   33.20    1.40
   6   6 -10   36.80    2.90
  -4  -6  10   33.20    3.30
  -4  -6  10   26.40    2.10
   4   6 -10   30.50    2.40
   4   6 -10   35.80    4.40
   4   6 -10   29.90    2.70
  -4   6  10   31.90    2.00
   4   6 -10   32.50    4.20
  -4   6  10   26.30    1.70
   4   6 -10   30.90    4.00
   4   6 -10   34.90    4.40
  -4   6  10   27.90    3.90
  -2  -6  10    2.60    1.80
  -2  -6  10    6.10    1.80
  -2  -6  10    7.00    1.30
  -2   6  10    5.00    0.80
  -2   6  10    6.30    1.50
   2   6 -10    4.20    2.20
   2   6 -10    6.10    1.30
   2   6 -10   -1.70    2.70
   2   6 -10    4.90    2.20
   2   6 -10    9.50    3.10
  -2   6  10    1.60    2.10
   0  -6  10    7.80    1.40
   0  -6  10    6.00    2.70
   0  -6  10    7.60    1.90
   0   6 -10    7.70    1.40
   0   6 -10    8.10    1.90
   0   6  10    7.80    1.00
   0   6  10    3.40    2.20
   0   6 -10    5.80    2.40
   0   6 -10    1.40    2.90
   0   6 -10    7.20    3.20
   0   6  10    4.90    2.10
   0   6 -10    8.10    2.40
   2  -6  10   20.40    2.60
   2  -6  10   20.60    3.20
   2  -6  10   21.70    3.60
   2  -6  10   17.60    2.00
   2   6  10   21.30    1.50
  -2   6 -10   25.70    4.20
  -2   6 -10   22.00    2.80
   2   6  10   22.20    2.80
  -2   6 -10   20.00    2.50
  -2   6 -10   19.00    3.40
  -2   6 -10   15.20    2.80
  -2   6 -10   25.50    4.10
   2   6  10   25.00    3.40
   4  -6  10    6.40    1.70
   4  -6  10    7.40    3.10
   4  -6  10    8.00    2.00
   4  -6  10    7.60    3.20
   4   6  10    5.30    2.80
  -4   6 -10    8.80    2.00
   4   6  10    0.80    2.60
   4   6  10    4.80    1.10
  -5  -7  10    5.20    1.80
  -5  -7  10    2.70    1.10
   5   7 -10    0.80    3.00
  -5   7  10    3.20    0.90
  -5   7  10    3.40    0.90
   5   7 -10    4.80    1.70
   5   7 -10    3.60    1.50
   5   7 -10    2.80    3.50
  -5   7  10    1.80    2.10
   5   7 -10    0.80    2.50
   5   7 -10   10.10    4.00
  -3  -7  10   44.40    2.80
  -3  -7  10   43.70    3.70
  -3   7  10   49.90    4.30
   3   7 -10   50.29    6.20
   3   7 -10   44.80    4.80
  -3   7  10   47.80    3.00
   3   7 -10   48.50    3.30
   3   7 -10   46.80    6.10
   3   7 -10   42.90    4.80
  -1  -7  10   28.40    3.80
  -1  -7  10   25.60    4.60
  -1  -7  10   35.10    2.70
   1   7 -10   30.80    3.80
   1   7 -10   29.20    4.20
  -1   7  10   36.20    4.30
   1   7 -10   39.00    5.70
   1   7 -10   33.30    3.00
   1   7 -10   28.80    3.60
   1   7 -10   34.00    3.10
  -1   7  10   28.30    4.70
   1  -7  10   60.29    3.50
   1  -7  10   59.79    4.30
   1  -7  10   61.79    6.30
  -1   7 -10   58.89    3.80
   1   7  10   62.09    4.50
  -1   7 -10   65.49    6.90
  -1   7 -10   57.89    3.90
   1   7  10   64.49    5.30
  -1   7 -10   69.79    5.60
  -1   7 -10   51.69    5.20
   1   7  10   64.29    2.20
   3  -7  10   93.89    5.20
   3  -7  10   89.49    4.50
   3  -7  10  100.19    7.00
   3  -7  10   86.99    6.70
   3   7  10   96.09    6.30
   3   7  10   99.59    5.90
  -3   7 -10   93.39    7.50
  -3   7 -10   95.99    4.40
  -3   7 -10  100.49    8.30
   3   7  10   97.39    3.30
  -3   7 -10   94.89    4.80
  -4  -8  10    1.80    1.30
  -4  -8  10    2.00    1.80
   4   8 -10    4.00    3.60
   4   8 -10    0.70    3.90
  -4   8  10    2.00    2.20
   4   8 -10    0.30    1.50
  -4   8  10    0.80    1.20
   4   8 -10    1.60    1.80
  -2  -8  10   39.90    4.50
  -2  -8  10   34.80    3.00
   2   8 -10   29.90    4.10
  -2   8  10   39.60    4.40
   2   8 -10   44.70    6.50
   2   8 -10   41.90    3.50
   2   8 -10   45.80    6.70
   2   8 -10   36.00    3.00
   0  -8  10    9.20    2.40
   0  -8  10    6.00    1.70
   0  -8  10   11.60    3.40
   0   8 -10    1.80    3.80
   0   8 -10    5.60    3.50
   0   8  10    0.20    2.20
   0   8 -10    4.50    1.70
   0   8 -10    4.10    1.90
   0   8  10    4.50    2.10
   0   8 -10    8.50    3.70
   6   0 -11   -1.80    2.10
   6   0 -11   -1.30    1.70
  -6   0  11    1.30    1.40
   6   0 -11    2.40    2.00
   6   0 -11    0.80    2.50
   4   0 -11   -2.80    1.60
   4   0 -11    2.60    1.60
   4   0 -11   -0.40    2.20
   4   0 -11   -0.60    1.90
  -4   0  11    2.40    1.30
   2   0 -11   -0.70    1.70
  -2   0  11    0.10    1.30
   2   0 -11    3.60    1.50
   2   0 -11   -1.20    2.00
   2   0 -11   -0.50    1.60
  -2   0  11    0.20    0.70
   0   0  11   -0.90    0.90
   0   0  11    1.30    2.20
   0   0  11    0.40    1.10
   0   0 -11    2.20    1.60
   0   0 -11   -0.90    1.80
   0   0 -11    0.90    1.90
   0   0 -11   -0.60    1.60
   2   0  11    0.40    1.10
  -2   0 -11    2.10    1.90
   2   0  11   -0.10    1.20
  -2   0 -11   -0.30    2.10
  -2   0 -11   -0.20    2.30
   2   0  11    1.30    1.90
  -2   0 -11   -1.00    1.80
   7  -1 -11   27.10    3.60
  -7  -1  11   26.10    3.50
   7  -1 -11   30.40    4.00
   7  -1 -11   33.30    4.30
   7  -1 -11   33.30    3.70
  -7  -1  11   25.20    3.00
  -7   1  11   29.80    3.10
   7   1 -11   31.70    4.20
   7   1 -11   31.50    4.10
  -7   1  11   33.70    3.00
   7   1 -11   29.10    3.60
   5  -1 -11   36.50    5.20
   5  -1 -11   41.50    3.40
   5  -1 -11   40.70    3.70
   5  -1 -11   37.90    3.10
  -5  -1  11   39.50    3.10
   5   1 -11   35.30    4.30
   5   1 -11   43.30    3.80
   5   1 -11   43.90    3.70
   5   1 -11   54.09    5.10
  -5   1  11   40.50    3.00
   3  -1 -11    5.60    1.70
  -3  -1  11    4.10    0.90
  -3  -1  11    4.20    0.70
   3  -1 -11    4.20    1.60
  -3  -1  11    2.20    1.50
  -3  -1  11    3.80    1.60
   3  -1 -11    6.10    1.50
  -3   1  11    4.80    0.70
  -3   1  11    4.10    1.40
   3   1 -11    4.80    2.40
   3   1 -11    7.10    2.30
  -3   1  11    4.90    0.90
   3   1 -11    3.70    1.80
  -3   1  11    2.70    1.40
   3   1 -11    6.80    2.00
  -1  -1  11   -1.20    1.20
  -1  -1  11   -0.60    0.80
   1  -1 -11    1.30    2.60
   1  -1 -11    1.50    1.50
   1  -1 -11   -0.10    1.50
   1  -1 -11    0.40    1.30
  -1   1  11   -0.50    1.00
   1   1 -11   -0.30    1.60
   1   1 -11   -2.20    1.70
  -1   1  11    1.80    2.30
   1   1 -11    0.50    2.10
   1   1 -11    1.40    2.00
  -1   1  11    0.00    0.80
   1  -1  11   90.19    3.60
  -1  -1 -11   83.49    4.00
  -1  -1 -11   89.29    4.30
  -1  -1 -11   83.69    4.30
   1  -1  11   85.99    4.70
   1  -1  11   71.59    6.00
   1  -1  11   92.19    4.00
   1   1  11   84.49    6.10
  -1   1 -11   81.09    4.90
  -1   1 -11   86.09    5.50
  -1   1 -11   90.19    4.80
   1   1  11   86.79    3.60
  -1   1 -11   80.29    4.60
   1   1  11   79.59    4.10
  -3  -1 -11   15.10    2.50
  -3  -1 -11   20.60    3.50
  -3  -1 -11   12.10    2.60
   3  -1  11   15.70    1.90
   3  -1  11   17.70    2.10
   3  -1  11   20.10    2.70
  -3  -1 -11   16.10    2.50
   3  -1  11   14.40    3.30
   3   1  11    9.10    2.90
   3   1  11   20.30    2.40
  -3   1 -11   18.30    3.10
  -3   1 -11   20.80    3.40
   3   1  11   15.40    1.80
  -3   1 -11   17.10    2.80
   6  -2 -11   31.40    3.40
  -6  -2  11   26.00    3.00
   6  -2 -11   27.20    3.00
   6  -2 -11   27.90    3.40
   6   2 -11   27.00    3.90
   6   2 -11   31.70    4.10
  -6   2  11   30.60    2.80
   6   2 -11   36.70    4.70
   4  -2 -11   15.00    1.70
   4  -2 -11   13.20    2.00
   4  -2 -11   15.20    1.80
  -4  -2  11   14.10    1.90
   4  -2 -11   15.30    1.90
   4   2 -11   16.30    2.60
   4   2 -11   17.80    3.00
  -4   2  11   14.90    1.70
   4   2 -11   17.50    3.10
   4   2 -11   12.50    2.40
   2  -2 -11   47.20    2.90
  -2  -2  11   46.80    3.30
  -2  -2  11   49.50    3.40
   2  -2 -11   42.00    2.30
  -2  -2  11   44.20    2.10
   2  -2 -11   43.40    2.70
  -2   2  11   48.50    2.70
   2   2 -11   49.20    4.70
  -2   2  11   46.60    2.70
   2   2 -11   40.00    3.80
   2   2 -11   38.20    3.80
   2   2 -11   40.50    4.40
  -2   2  11   41.00    2.70
  -2   2  11   45.70    2.10
  -2   2  11   46.20    5.00
   0  -2 -11   31.30    2.70
   0  -2 -11   26.20    2.70
   0  -2 -11   31.60    2.30
   0  -2  11   36.60    2.30
   0  -2  11   34.80    4.90
   0  -2  11   34.90    2.90
   0   2 -11   31.30    4.40
   0   2 -11   28.40    3.80
   0   2  11   33.80    4.60
   0   2 -11   28.70    3.80
   0   2 -11   34.00    4.30
   0   2  11   34.60    2.30
   2  -2  11   23.10    2.40
   2  -2  11   31.40    2.90
  -2  -2 -11   21.60    3.00
  -2  -2 -11   24.10    3.00
   2  -2  11   18.30    3.40
  -2  -2 -11   19.20    2.70
  -2  -2 -11   24.70    3.20
   2  -2  11   29.70    3.90
  -2   2 -11   18.60    2.80
   2   2  11   15.00    3.00
  -2   2 -11   19.90    3.50
  -2   2 -11   26.10    3.30
   2   2  11   23.90    2.50
   5  -3 -11   26.60    2.20
   5  -3 -11   29.80    2.70
  -5  -3  11   27.00    3.10
   5  -3 -11   26.80    2.00
   5  -3 -11   27.20    2.80
   5   3 -11   31.20    4.00
  -5   3  11   26.00    2.40
   5   3 -11   28.10    3.90
   5   3 -11   32.80    4.80
  -3  -3  11    8.20    0.90
  -3  -3  11    9.40    2.10
  -3  -3  11    8.20    1.90
   3   3 -11    9.60    2.90
  -3   3  11    4.40    2.50
   3   3 -11    8.40    2.70
   3   3 -11   10.10    2.30
  -3   3  11    6.40    0.80
   3   3 -11    6.80    2.30
  -3   3  11    7.20    1.30
  -3   3  11    6.90    1.10
  -1  -3  11    5.20    1.10
  -1  -3  11    4.40    1.60
   1   3 -11    5.00    2.70
  -1   3  11    6.60    1.10
   1   3 -11    4.40    2.00
  -1   3  11    7.50    1.70
   1   3 -11    1.50    2.40
  -1   3  11    3.30    2.40
   1   3 -11    4.20    2.10
   1  -3  11    9.90    2.50
   1  -3  11   10.20    1.50
   1  -3  11    9.40    1.80
  -1  -3 -11    7.20    1.50
   1  -3  11    8.30    3.00
  -1  -3 -11    7.80    1.50
   1   3  11    8.20    1.30
  -1   3 -11    5.30    2.80
  -1   3 -11    4.40    2.90
  -1   3 -11    5.60    2.40
   1   3  11    5.60    2.60
   6  -4 -11    7.40    1.60
   6  -4 -11    7.80    2.00
  -6  -4  11    5.70    2.10
  -6  -4  11    4.70    1.70
   6   4 -11    5.10    1.30
   6   4 -11    6.40    1.40
   6   4 -11    5.20    3.10
  -6   4  11    6.40    1.40
  -4  -4  11   21.70    2.60
   4   4 -11   29.80    4.10
  -4   4  11   21.60    2.10
   4   4 -11   22.70    3.10
  -4   4  11   22.30    3.20
  -4   4  11   21.40    1.20
   4   4 -11   25.90    3.90
  -4   4  11   24.10    1.40
  -2  -4  11   24.80    2.70
  -2  -4  11   27.20    2.00
  -2  -4  11   28.60    3.40
   2   4 -11   28.90    4.00
   2   4 -11   29.10    3.90
   2   4 -11   22.90    3.30
  -2   4  11   30.10    2.00
  -2   4  11   29.90    2.20
  -2   4  11   33.10    2.70
  -2   4  11   26.70    3.60
   2   4 -11   27.80    3.70
   0  -4  11   75.39    5.40
   0  -4  11   68.69    4.20
   0  -4  11   76.39    3.40
   0   4 -11   68.89    4.90
   0   4  11   60.79    5.60
   0   4  11   70.39    4.50
   0   4  11   74.19    2.90
   0   4 -11   67.29    5.70
   0   4 -11   81.89    6.30
   2  -4  11   23.10    2.60
   2  -4  11   27.80    3.30
   2  -4  11   22.60    3.70
   2  -4  11   23.70    3.50
   2   4  11   25.30    2.00
  -2   4 -11   20.40    3.30
   2   4  11   22.70    3.80
  -5  -5  11   26.60    3.30
   5   5 -11   24.30    2.30
   5   5 -11   26.60    2.20
   5   5 -11   30.40    4.50
  -5   5  11   22.80    2.10
  -5   5  11   23.20    3.50
  -3  -5  11    9.50    1.30
  -3  -5  11    9.00    2.00
  -3   5  11    7.70    1.40
   3   5 -11    8.90    2.80
   3   5 -11    8.80    3.80
   3   5 -11    8.10    1.30
   3   5 -11    9.70    1.30
  -3   5  11    7.90    1.20
  -3   5  11    8.60    2.70
   3   5 -11   11.40    3.50
  -1  -5  11    0.60    1.60
  -1  -5  11    5.80    2.00
   1   5 -11    5.10    2.60
  -1   5  11    3.50    0.90
  -1   5  11    3.40    2.60
   1   5 -11    3.40    3.50
   1   5 -11    4.20    1.10
   1   5 -11    3.70    1.20
   1   5 -11    6.00    3.50
  -1   5  11    3.70    1.80
   1  -5  11   10.40    3.40
   1  -5  11   11.90    1.70
   1  -5  11   12.30    3.10
   1  -5  11   13.50    2.20
  -1   5 -11   12.40    1.60
   1   5  11   14.00    1.60
   1   5  11   14.20    3.10
  -1   5 -11   11.80    1.50
   1   5  11   15.90    2.60
  -2  -6  11   11.20    2.50
  -2  -6  11   11.80    1.60
   2   6 -11    9.40    4.90
   2   6 -11   11.20    1.70
   2   6 -11   11.90    1.60
  -2   6  11   10.90    1.20
  -2   6  11   11.50    2.90
  -2   6  11   11.40    1.90
   2   6 -11   12.20    3.80
_computing_structure_solution     'SHELXT 2014/4 (Sheldrick, 2014)'
;
_shelx_hkl_checksum              71466
_shelx_res_file
;
    p.res created by SHELXL-2014/7
TITL p_a.res in Cc
REM Old TITL p in C2/c
REM SHELXT solution in Cc
REM R1 0.147,  Rweak 0.031,  Alpha 0.001,  Orientation as input
REM Flack x =  0.487 ( 0.014 ) from Parsons' quotients
REM Formula found by SHELXT:  C8 N5 O4 F6 S2
CELL  0.71073  12.4858  14.0212   9.8480   90.000   98.179   90.000
ZERR    4.000   0.0006   0.0006   0.0004    0.000    0.001    0.000
LATT -7
SYMM X, -Y, 1/2+Z
SFAC C H N O F S
UNIT 32 44 12 24 24 8
TEMP -90.150
SIZE 0.12 0.16 0.18
L.S. 10
ACTA
OMIT -0.5 50.5
BOND $H
CONF
LIST 6
FMAP 2
PLAN 5
REM TWIN
REM BASF   0.48574
WGHT    0.057600    1.070800
EXTI    0.004594
FVAR       0.51572
S1    6    0.403360    0.159624    0.699531    11.00000    0.04452    0.04822 =
         0.04431   -0.00328    0.00196    0.01723
S2    6    0.360960    0.351876    0.655214    11.00000    0.03945    0.04717 =
         0.04275    0.01511   -0.00427   -0.00423
O1    4    0.785461    0.172323    0.588724    11.00000    0.02746    0.09039 =
         0.03178   -0.00380   -0.00188   -0.00626
O2    4    0.489270    0.216306    0.244826    11.00000    0.03525    0.09364 =
         0.04083    0.00980   -0.00080    0.01871
O3    4    0.498647    0.167465    0.640756    11.00000    0.04454    0.10777 =
         0.11864   -0.05106    0.02916    0.00901
O4    4    0.403150    0.099733    0.817518    11.00000    0.14590    0.05782 =
         0.06070    0.00874   -0.00213    0.04199
O5    4    0.403559    0.347704    0.531673    11.00000    0.09597    0.10360 =
         0.03626    0.01501    0.00427   -0.04339
O6    4    0.266458    0.407284    0.661064    11.00000    0.04905    0.05061 =
         0.14654    0.02902   -0.00869    0.00838
N1    3    0.696321    0.152818    0.493088    11.00000    0.02554    0.05491 =
         0.02915    0.00062   -0.00331   -0.00257
N2    3    0.566194    0.171928    0.336106    11.00000    0.03351    0.05028 =
         0.03598    0.00203    0.00200    0.00275
N3    3    0.344300    0.254168    0.729472    11.00000    0.04497    0.04081 =
         0.04093    0.00787    0.01634    0.00987
C1    1    0.640306    0.220751    0.419854    11.00000    0.02846    0.03851 =
         0.03155    0.00216    0.00790   -0.00049
C2    1    0.657584    0.064010    0.456461    11.00000    0.05547    0.03491 =
         0.04991    0.00463    0.00411    0.00083
AFIX  43
H2    2    0.684752    0.005020    0.494367    11.00000   -1.20000
AFIX   0
C3    1    0.574859    0.076038    0.357922    11.00000    0.05489    0.04574 =
         0.04988   -0.00991    0.00182   -0.01458
AFIX  43
H3    2    0.530491    0.027644    0.311734    11.00000   -1.20000
AFIX   0
C4    1    0.655216    0.324112    0.433372    11.00000    0.06554    0.04113 =
         0.05617   -0.00507    0.02367   -0.00599
AFIX 137
H4A   2    0.601835    0.356601    0.366512    11.00000   -1.50000
H4B   2    0.728293    0.341031    0.416353    11.00000   -1.50000
H4C   2    0.645495    0.343857    0.526295    11.00000   -1.50000
AFIX   0
C5    1    0.758977    0.161821    0.727205    11.00000    0.04653    0.08588 =
         0.03068   -0.00134   -0.00315   -0.00723
AFIX  33
H5A   2    0.823101    0.175915    0.793763    11.00000   -1.50000
H5B   2    0.700741    0.206198    0.740567    11.00000   -1.50000
H5C   2    0.735259    0.096280    0.740509    11.00000   -1.50000
AFIX   0
C6    1    0.517639    0.210872    0.107930    11.00000    0.06173    0.12586 =
         0.03560    0.01784    0.00369    0.03011
AFIX  33
H6A   2    0.461956    0.242882    0.043640    11.00000   -1.50000
H6B   2    0.587547    0.242208    0.105858    11.00000   -1.50000
H6C   2    0.522670    0.143839    0.081374    11.00000   -1.50000
AFIX   0
C7    1    0.307780    0.100210    0.569928    11.00000    0.06491    0.06165 =
         0.06832   -0.01910    0.02164   -0.00968
C8    1    0.464290    0.412600    0.773808    11.00000    0.05105    0.06495 =
         0.04582   -0.00076    0.00174   -0.00580
F1    5    0.346866    0.014058    0.547145    11.00000    0.12190    0.08357 =
         0.13558   -0.06187    0.02745   -0.00276
F2    5    0.296783    0.145990    0.455616    11.00000    0.14799    0.14787 =
         0.05212    0.00562   -0.02985   -0.06259
F3    5    0.213175    0.086919    0.611256    11.00000    0.07009    0.09658 =
         0.14112   -0.03039    0.03149   -0.02551
F4    5    0.482691    0.497441    0.725867    11.00000    0.10804    0.07878 =
         0.10001    0.00806    0.00191   -0.04661
F5    5    0.555381    0.363380    0.790559    11.00000    0.04758    0.13088 =
         0.10185   -0.04034   -0.02678    0.00501
F6    5    0.432729    0.423856    0.894656    11.00000    0.12238    0.09428 =
         0.05879   -0.02456    0.01921   -0.01828
HKLF 4
REM  p_a.res in Cc
REM R1 =  0.0326 for    3020 Fo > 4sig(Fo)  and  0.0334 for all    3088 data
REM    228 parameters refined using      2 restraints
END
WGHT      0.0576      1.0700
REM Highest difference peak  0.345,  deepest hole -0.227,  1-sigma level  0.042
Q1    1   0.4323  0.2474  0.6203  11.00000  0.05    0.34
Q2    1   0.4776  0.1106  0.8044  11.00000  0.05    0.22
Q3    1   0.2189  0.1602  0.5483  11.00000  0.05    0.22
Q4    1   0.4973  0.0849  0.6669  11.00000  0.05    0.22
Q5    1   0.5755  0.4267  0.7358  11.00000  0.05    0.21
;
_shelx_res_checksum              71724
loop_
_space_group_symop_operation_xyz
'x, y, z'
'x, -y, z+1/2'
'x+1/2, y+1/2, z'
'x+1/2, -y+1/2, z+1/2'
loop_
_atom_site_type_symbol
_atom_site_label
_atom_site_fract_x
_atom_site_fract_y
_atom_site_fract_z
_atom_site_U_iso_or_equiv
_atom_site_adp_type
_atom_site_calc_flag
_atom_site_occupancy
S S1 0.40336(7) 0.15962(7) 0.69953(9) 0.0461(3) Uani d 1
S S2 0.36096(7) 0.35188(7) 0.65521(8) 0.0441(3) Uani d 1
O O1 0.7855(2) 0.1723(3) 0.5887(3) 0.0505(7) Uani d 1
O O2 0.4893(2) 0.2163(3) 0.2448(3) 0.0572(8) Uani d 1
O O3 0.4986(3) 0.1675(3) 0.6408(5) 0.0886(14) Uani d 1
O O4 0.4032(4) 0.0997(3) 0.8175(4) 0.0898(14) Uani d 1
O O5 0.4036(4) 0.3477(3) 0.5317(3) 0.0791(12) Uani d 1
O O6 0.2665(3) 0.4073(2) 0.6611(5) 0.0843(14) Uani d 1
N N1 0.6963(2) 0.1528(2) 0.4931(3) 0.0372(7) Uani d 1
N N2 0.5662(3) 0.1719(2) 0.3361(3) 0.0402(7) Uani d 1
N N3 0.3443(3) 0.2542(2) 0.7295(3) 0.0412(7) Uani d 1
C C1 0.6403(3) 0.2208(2) 0.4199(4) 0.0325(6) Uani d 1
C C2 0.6576(3) 0.0640(3) 0.4565(4) 0.0471(9) Uani d 1
H H2 0.6848 0.0050 0.4944 0.057 Uiso calc 1
C C3 0.5749(4) 0.0760(3) 0.3579(5) 0.0507(10) Uani d 1
H H3 0.5305 0.0276 0.3117 0.061 Uiso calc 1
C C4 0.6552(4) 0.3241(3) 0.4334(5) 0.0528(11) Uani d 1
H H4A 0.6018 0.3566 0.3665 0.079 Uiso calc 1
H H4B 0.7283 0.3410 0.4164 0.079 Uiso calc 1
H H4C 0.6455 0.3439 0.5263 0.079 Uiso calc 1
C C5 0.7590(4) 0.1618(4) 0.7272(4) 0.0552(11) Uani d 1
H H5A 0.8231 0.1759 0.7938 0.083 Uiso calc 1
H H5B 0.7007 0.2062 0.7406 0.083 Uiso calc 1
H H5C 0.7353 0.0963 0.7405 0.083 Uiso calc 1
C C6 0.5176(4) 0.2109(5) 0.1079(5) 0.0747(16) Uani d 1
H H6A 0.4620 0.2429 0.0436 0.112 Uiso calc 1
H H6B 0.5875 0.2422 0.1059 0.112 Uiso calc 1
H H6C 0.5227 0.1438 0.0814 0.112 Uiso calc 1
C C7 0.3078(4) 0.1002(4) 0.5699(6) 0.0638(13) Uani d 1
C C8 0.4643(4) 0.4126(4) 0.7738(5) 0.0544(11) Uani d 1
F F1 0.3469(4) 0.0141(3) 0.5471(5) 0.1128(14) Uani d 1
F F2 0.2968(4) 0.1460(3) 0.4556(4) 0.1203(18) Uani d 1
F F3 0.2132(3) 0.0869(3) 0.6113(5) 0.1010(13) Uani d 1
F F4 0.4827(3) 0.4974(3) 0.7259(4) 0.0969(12) Uani d 1
F F5 0.5554(3) 0.3634(3) 0.7906(4) 0.0971(13) Uani d 1
F F6 0.4327(3) 0.4239(3) 0.8947(3) 0.0912(11) Uani d 1
loop_
_atom_site_aniso_label
_atom_site_aniso_U_11
_atom_site_aniso_U_22
_atom_site_aniso_U_33
_atom_site_aniso_U_12
_atom_site_aniso_U_13
_atom_site_aniso_U_23
S1 0.0445(5) 0.0482(5) 0.0443(5) 0.0172(4) 0.0020(4) -0.0033(4)
S2 0.0394(5) 0.0472(5) 0.0427(5) -0.0042(4) -0.0043(4) 0.0151(4)
O1 0.0275(11) 0.090(2) 0.0318(13) -0.0063(13) -0.0019(10) -0.0038(13)
O2 0.0353(14) 0.094(2) 0.0408(15) 0.0187(15) -0.0008(11) 0.0098(15)
O3 0.0445(18) 0.108(3) 0.119(3) 0.0090(18) 0.029(2) -0.051(3)
O4 0.146(4) 0.058(2) 0.061(2) 0.042(2) -0.002(2) 0.0087(17)
O5 0.096(3) 0.104(3) 0.0363(16) -0.043(2) 0.0043(17) 0.0150(17)
O6 0.0490(18) 0.0506(18) 0.147(4) 0.0084(15) -0.009(2) 0.029(2)
N1 0.0255(14) 0.055(2) 0.0291(15) -0.0026(13) -0.0033(11) 0.0006(12)
N2 0.0335(15) 0.0503(17) 0.0360(16) 0.0028(13) 0.0020(13) 0.0020(13)
N3 0.0450(16) 0.0408(16) 0.0409(15) 0.0099(13) 0.0163(13) 0.0079(13)
C1 0.0285(14) 0.0385(15) 0.0316(14) -0.0005(13) 0.0079(11) 0.0022(14)
C2 0.055(2) 0.0349(18) 0.050(2) 0.0008(16) 0.0041(17) 0.0046(16)
C3 0.055(2) 0.046(2) 0.050(2) -0.0146(18) 0.0018(18) -0.0099(17)
C4 0.066(3) 0.041(2) 0.056(2) -0.0060(18) 0.024(2) -0.005(2)
C5 0.047(2) 0.086(3) 0.0307(18) -0.007(2) -0.0031(16) -0.0013(18)
C6 0.062(3) 0.126(5) 0.036(2) 0.030(3) 0.0037(19) 0.018(3)
C7 0.065(3) 0.062(3) 0.068(3) -0.010(2) 0.022(2) -0.019(2)
C8 0.051(3) 0.065(3) 0.046(2) -0.006(2) 0.0017(19) -0.0008(19)
F1 0.122(3) 0.084(2) 0.136(3) -0.003(2) 0.027(3) -0.062(3)
F2 0.148(4) 0.148(4) 0.0521(19) -0.063(3) -0.030(2) 0.006(2)
F3 0.070(2) 0.097(3) 0.141(4) -0.0255(19) 0.031(2) -0.030(2)
F4 0.108(3) 0.079(2) 0.100(3) -0.047(2) 0.002(2) 0.0081(19)
F5 0.0476(17) 0.131(3) 0.102(3) 0.0050(18) -0.0268(16) -0.040(2)
F6 0.122(3) 0.094(2) 0.0588(17) -0.018(2) 0.0192(18) -0.0246(16)
loop_
_atom_type_symbol
_atom_type_description
_atom_type_scat_dispersion_real
_atom_type_scat_dispersion_imag
_atom_type_scat_source
C C 0.0033 0.0016 'International Tables Vol C Tables 4.2.6.8 and 6.1.1.4'
H H 0.0000 0.0000 'International Tables Vol C Tables 4.2.6.8 and 6.1.1.4'
N N 0.0061 0.0033 'International Tables Vol C Tables 4.2.6.8 and 6.1.1.4'
O O 0.0106 0.0060 'International Tables Vol C Tables 4.2.6.8 and 6.1.1.4'
F F 0.0171 0.0103 'International Tables Vol C Tables 4.2.6.8 and 6.1.1.4'
S S 0.1246 0.1234 'International Tables Vol C Tables 4.2.6.8 and 6.1.1.4'
loop_
_geom_angle_atom_site_label_1
_geom_angle_atom_site_label_2
_geom_angle_atom_site_label_3
_geom_angle
O3 S1 O4 118.7(3)
O3 S1 N3 117.5(2)
O4 S1 N3 106.7(2)
O3 S1 C7 104.9(2)
O4 S1 C7 102.9(3)
N3 S1 C7 103.9(2)
O5 S2 O6 118.7(3)
O5 S2 N3 117.3(2)
O6 S2 N3 106.9(2)
O5 S2 C8 104.8(2)
O6 S2 C8 103.6(2)
N3 S2 C8 103.7(2)
N1 O1 C5 110.5(3)
N2 O2 C6 110.3(3)
C1 N1 C2 111.7(3)
C1 N1 O1 122.6(3)
C2 N1 O1 125.6(3)
C1 N2 C3 112.0(3)
C1 N2 O2 122.1(3)
C3 N2 O2 125.8(4)
S1 N3 S2 123.39(19)
N1 C1 N2 103.4(3)
N1 C1 C4 127.5(4)
N2 C1 C4 129.1(4)
C3 C2 N1 106.7(4)
C3 C2 H2 126.6
N1 C2 H2 126.6
C2 C3 N2 106.1(4)
C2 C3 H3 126.9
N2 C3 H3 126.9
C1 C4 H4A 109.5
C1 C4 H4B 109.5
H4A C4 H4B 109.5
C1 C4 H4C 109.5
H4A C4 H4C 109.5
H4B C4 H4C 109.5
O1 C5 H5A 109.5
O1 C5 H5B 109.5
H5A C5 H5B 109.5
O1 C5 H5C 109.5
H5A C5 H5C 109.5
H5B C5 H5C 109.5
O2 C6 H6A 109.5
O2 C6 H6B 109.5
H6A C6 H6B 109.5
O2 C6 H6C 109.5
H6A C6 H6C 109.5
H6B C6 H6C 109.5
F2 C7 F3 110.6(6)
F2 C7 F1 107.5(5)
F3 C7 F1 106.8(5)
F2 C7 S1 111.3(4)
F3 C7 S1 112.1(4)
F1 C7 S1 108.3(4)
F4 C8 F6 107.9(4)
F4 C8 F5 109.1(5)
F6 C8 F5 108.3(4)
F4 C8 S2 109.7(3)
F6 C8 S2 111.1(3)
F5 C8 S2 110.8(3)
loop_
_geom_bond_atom_site_label_1
_geom_bond_atom_site_label_2
_geom_bond_distance
S1 O3 1.399(4)
S1 O4 1.434(4)
S1 N3 1.565(3)
S1 C7 1.820(5)
S2 O5 1.397(4)
S2 O6 1.421(4)
S2 N3 1.581(3)
S2 C8 1.823(5)
O1 N1 1.379(4)
O1 C5 1.456(5)
O2 N2 1.368(4)
O2 C6 1.444(5)
N1 C1 1.332(5)
N1 C2 1.366(5)
N2 C1 1.337(5)
N2 C3 1.363(5)
C1 C4 1.465(5)
C2 C3 1.324(6)
C2 H2 0.9500
C3 H3 0.9500
C4 H4A 0.9800
C4 H4B 0.9800
C4 H4C 0.9800
C5 H5A 0.9800
C5 H5B 0.9800
C5 H5C 0.9800
C6 H6A 0.9800
C6 H6B 0.9800
C6 H6C 0.9800
C7 F2 1.286(7)
C7 F3 1.316(6)
C7 F1 1.334(7)
C8 F4 1.312(6)
C8 F6 1.315(6)
C8 F5 1.320(6)
loop_
_geom_hbond_atom_site_label_D
_geom_hbond_atom_site_label_H
_geom_hbond_atom_site_label_A
_geom_hbond_site_symmetry_A
_geom_hbond_distance_DH
_geom_hbond_distance_HA
_geom_hbond_distance_DA
_geom_hbond_angle_DHA
_geom_hbond_publ_flag
C3 H3 O4 2_554 0.95 2.396 3.253(6) 150 y
C2 H2 O6 3_545 0.95 2.266 3.155(5) 156 y
C5 H5A O5 4_555 0.98 2.437 3.276(5) 143 y
loop_
_geom_torsion_atom_site_label_1
_geom_torsion_atom_site_label_2
_geom_torsion_atom_site_label_3
_geom_torsion_atom_site_label_4
_geom_torsion
C5 O1 N1 C1 106.1(4)
C5 O1 N1 C2 -77.2(5)
C6 O2 N2 C1 103.0(5)
C6 O2 N2 C3 -80.0(5)
O3 S1 N3 S2 21.3(4)
O4 S1 N3 S2 157.7(3)
C7 S1 N3 S2 -94.0(3)
O5 S2 N3 S1 19.4(4)
O6 S2 N3 S1 155.5(3)
C8 S2 N3 S1 -95.4(3)
C2 N1 C1 N2 -0.4(4)
O1 N1 C1 N2 176.7(3)
C2 N1 C1 C4 177.5(4)
O1 N1 C1 C4 -5.4(6)
C3 N2 C1 N1 0.8(4)
O2 N2 C1 N1 178.2(3)
C3 N2 C1 C4 -177.0(4)
O2 N2 C1 C4 0.4(6)
C1 N1 C2 C3 -0.2(5)
O1 N1 C2 C3 -177.1(3)
N1 C2 C3 N2 0.7(5)
C1 N2 C3 C2 -1.0(5)
O2 N2 C3 C2 -178.3(3)
O3 S1 C7 F2 -56.0(5)
O4 S1 C7 F2 179.1(5)
N3 S1 C7 F2 68.0(5)
O3 S1 C7 F3 179.5(4)
O4 S1 C7 F3 54.6(5)
N3 S1 C7 F3 -56.5(5)
O3 S1 C7 F1 61.9(5)
O4 S1 C7 F1 -62.9(4)
N3 S1 C7 F1 -174.1(4)
O5 S2 C8 F4 59.0(4)
O6 S2 C8 F4 -66.1(4)
N3 S2 C8 F4 -177.5(3)
O5 S2 C8 F6 178.2(4)
O6 S2 C8 F6 53.1(4)
N3 S2 C8 F6 -58.4(4)
O5 S2 C8 F5 -61.5(4)
O6 S2 C8 F5 173.5(4)
N3 S2 C8 F5 62.0(4)

_cod_database_fobs_code 1543462
