#------------------------------------------------------------------------------
#$Date: 2016-06-26 05:09:07 +0300 (Sun, 26 Jun 2016) $
#$Revision: 183949 $
#$URL: file:///home/coder/svn-repositories/cod/cif/1/54/35/1543532.cif $
#------------------------------------------------------------------------------
#
# This file is available in the Crystallography Open Database (COD),
# http://www.crystallography.net/. The original data for this entry
# were provided by IUCr Journals, http://journals.iucr.org/.
#
# The file may be used within the scientific community so long as
# proper attribution is given to the journal article from which the
# data were obtained.
#
data_1543532
loop_
_publ_author_name
'Mohamed, Shaaban K.'
'Mague, Joel T.'
'Akkurt, Mehmet'
'Younes, Sabry H. H.'
'Albayati, Mustafa R.'
_publ_section_title
;
 (5<i>Z</i>)-5-(4-Chlorobenzylidene)-1,3-thiazolidine-2,4-dione
;
_journal_coeditor_code           XU4009
_journal_issue                   6
_journal_name_full               IUCrData
_journal_page_first              x160988
_journal_paper_doi               10.1107/S2414314616009883
_journal_volume                  1
_journal_year                    2016
_chemical_formula_iupac          'C10 H6 Cl N O2 S'
_chemical_formula_moiety         'C10 H6 Cl N O2 S'
_chemical_formula_sum            'C10 H6 Cl N O2 S'
_chemical_formula_weight         239.67
_chemical_name_systematic
;
(5<i>Z</i>)-5-(4-Chlorobenzylidene)-1,3-thiazolidine-2,4-dione
;
_space_group_crystal_system      monoclinic
_space_group_IT_number           14
_space_group_name_Hall           '-P 2yn'
_space_group_name_H-M_alt        'P 1 21/n 1'
_symmetry_space_group_name_Hall  '-P 2yn'
_symmetry_space_group_name_H-M   'P 1 21/n 1'
_atom_sites_solution_hydrogens   geom
_atom_sites_solution_primary     direct
_atom_sites_solution_secondary   difmap
_audit_creation_method           SHELXL-2014/7
_cell_angle_alpha                90
_cell_angle_beta                 93.7480(10)
_cell_angle_gamma                90
_cell_formula_units_Z            4
_cell_length_a                   3.90980(10)
_cell_length_b                   40.7555(15)
_cell_length_c                   6.0917(2)
_cell_measurement_reflns_used    9969
_cell_measurement_temperature    150(2)
_cell_measurement_theta_max      72.1522
_cell_measurement_theta_min      3.2531
_cell_volume                     968.61(5)
_computing_cell_refinement
;
<i>SAINT</i> (Bruker, 2015)
;
_computing_data_collection
;
<i>APEX2</i> (Bruker, 2015)
;
_computing_data_reduction
;
<i>SAINT</i> (Bruker, 2015)
;
_computing_molecular_graphics
;
<i>DIAMOND</i> (Brandenburg & Putz, 2012)
;
_computing_publication_material
;
<i>SHELXTL</i> (Sheldrick, 2008)
;
_computing_structure_refinement
;
<i>SHELXL2014</i> (Sheldrick, 2015b)
;
_computing_structure_solution
;
<i>SHELXT</i> (Sheldrick, 2015a)
;
_diffrn_ambient_temperature      150(2)
_diffrn_detector_area_resol_mean 10.4167
_diffrn_measured_fraction_theta_full 0.986
_diffrn_measured_fraction_theta_max 0.984
_diffrn_measurement_device_type  'Bruker D8 VENTURE PHOTON 100 CMOS'
_diffrn_measurement_method       '\w scans'
_diffrn_radiation_monochromator  mirror
_diffrn_radiation_type           CuK\a
_diffrn_radiation_wavelength     1.54178
_diffrn_reflns_av_R_equivalents  0.0335
_diffrn_reflns_limit_h_max       4
_diffrn_reflns_limit_h_min       -4
_diffrn_reflns_limit_k_max       50
_diffrn_reflns_limit_k_min       -50
_diffrn_reflns_limit_l_max       7
_diffrn_reflns_limit_l_min       -7
_diffrn_reflns_number            12027
_diffrn_reflns_theta_full        69.000
_diffrn_reflns_theta_max         72.145
_diffrn_reflns_theta_min         2.168
_exptl_absorpt_coefficient_mu    5.325
_exptl_absorpt_correction_T_max  0.63
_exptl_absorpt_correction_T_min  0.46
_exptl_absorpt_correction_type   multi-scan
_exptl_absorpt_process_details
;
(<i>SADABS</i>; Bruker, 2015)
;
_exptl_crystal_colour            colourless
_exptl_crystal_density_diffrn    1.643
_exptl_crystal_density_method    'not measured'
_exptl_crystal_description       column
_exptl_crystal_F_000             488
_exptl_crystal_size_max          0.357
_exptl_crystal_size_mid          0.132
_exptl_crystal_size_min          0.096
_refine_diff_density_max         0.215
_refine_diff_density_min         -0.374
_refine_ls_extinction_method     none
_refine_ls_goodness_of_fit_ref   1.142
_refine_ls_hydrogen_treatment    constr
_refine_ls_matrix_type           full
_refine_ls_number_parameters     136
_refine_ls_number_reflns         1885
_refine_ls_number_restraints     0
_refine_ls_restrained_S_all      1.142
_refine_ls_R_factor_all          0.0354
_refine_ls_R_factor_gt           0.0342
_refine_ls_shift/su_max          0.001
_refine_ls_shift/su_mean         0.000
_refine_ls_structure_factor_coef Fsqd
_refine_ls_weighting_details
'w=1/[\s^2^(Fo^2^)+(0.0399P)^2^+0.7319P] where P=(Fo^2^+2Fc^2^)/3'
_refine_ls_weighting_scheme      calc
_refine_ls_wR_factor_gt          0.0873
_refine_ls_wR_factor_ref         0.0882
_reflns_number_gt                1815
_reflns_number_total             1885
_reflns_threshold_expression     'I > 2\s(I)'
_cod_data_source_file            xu4009sup1.cif
_cod_data_source_block           I
_cod_database_code               1543532
_shelx_space_group_comment
;
The symmetry employed for this shelxl refinement is uniquely defined
by the following loop, which should always be used as a source of
symmetry information in preference to the above space-group names.
They are only intended as comments.
;
_shelx_estimated_absorpt_t_min   0.252
_shelx_estimated_absorpt_t_max   0.629
_shelx_hkl_file
;
   2   0   0  389.36   16.80
  -2   0   0  386.36   17.00
  -2   0   0  408.96   16.70
   3   0   0    0.20    1.20
   3   0   0    0.10    1.60
  -3   0   0   -1.10    1.10
   3   0   0    1.10    1.10
  -3   0   0    0.70    1.80
   4   0   0   58.59    3.00
  -4   0   0   65.89    3.70
   4   0   0   49.80    3.20
   4   0   0   64.59    3.60
   4   0   0   60.99    3.50
  -1  -1   0  496.05   21.00
   1  -1   0  520.05   21.00
   1   1   0  518.65   21.00
  -1   1   0  488.55   20.90
   1   1   0  498.95   21.00
  -1   1   0  475.75   20.90
  -2  -1   0  153.48    6.50
   2  -1   0  147.29    6.60
  -2   1   0  155.58    6.50
  -2   1   0  147.99    6.50
   2   1   0  147.29    6.60
   3  -1   0   51.29    3.00
  -3  -1   0   53.09    3.00
   3  -1   0   55.59    3.00
   3  -1   0   54.89    3.50
  -3  -1   0   56.39    3.60
   3   1   0   53.29    3.00
   3   1   0   57.99    3.10
   3   1   0   55.99    3.60
  -3   1   0   49.90    3.50
  -3   1   0   55.59    3.00
   4  -1   0   88.29    4.20
   4  -1   0   77.99    4.20
   4  -1   0   90.69    4.50
   4   1   0   89.89    4.60
   4   1   0   88.59    4.20
   4   1   0   92.99    4.50
  -4   1   0   87.49    4.70
   0  -2   0  177.08    7.40
  -1  -2   0  159.08    6.90
   1  -2   0  162.88    7.00
   1   2   0  179.58    7.00
  -1   2   0  155.08    6.90
  -1   2   0  163.18    6.90
   1   2   0  162.88    7.00
   2  -2   0  107.59    4.80
  -2  -2   0  112.89    4.70
   2   2   0   99.39    4.80
  -2   2   0  107.29    4.70
  -2   2   0  109.29    4.70
  -3  -2   0   12.60    2.40
   3  -2   0   18.70    2.40
   3  -2   0   15.30    1.60
  -3  -2   0   18.10    1.70
   3  -2   0   12.30    1.80
   3  -2   0   15.10    2.40
   3   2   0   18.00    3.80
   3   2   0   16.00    1.80
  -3   2   0   17.00    1.70
  -3   2   0   12.20    3.70
   3   2   0   14.50    1.70
   3   2   0   14.00    2.50
   4  -2   0   11.70    2.20
   4  -2   0   10.30    1.50
   4  -2   0   12.00    1.70
   4   2   0   12.20    1.40
   4   2   0   10.60    2.20
   4   2   0    9.60    1.90
  -4   2   0   10.40    2.40
   0  -3   0   -0.10    0.10
   0  -3   0    0.00    0.10
   1  -3   0 2696.43  109.19
  -1  -3   0 2543.45  109.29
   1   3   0 2691.13  109.39
  -1   3   0 2570.74  109.19
   1   3   0 2830.82  109.49
  -1   3   0 2367.36  109.29
   2  -3   0  176.78    7.90
  -2  -3   0  196.58    7.90
  -2   3   0  176.68    7.80
   2   3   0  173.58    7.90
  -2   3   0  186.18    7.80
  -3  -3   0   30.90    2.20
   3  -3   0   32.60    2.80
  -3  -3   0   30.00    2.70
   3  -3   0   33.10    2.60
   3  -3   0   33.20    2.20
   3  -3   0   27.00    2.30
   3   3   0   25.70    2.90
   3   3   0   31.50    2.20
  -3   3   0   31.60    2.20
   3   3   0   35.00    2.80
   3   3   0   30.80    2.30
   4  -3   0   48.10    3.20
   4  -3   0   47.50    2.80
   4  -3   0   49.40    2.60
  -4   3   0   52.99    3.50
   4   3   0   46.00    3.10
   4   3   0   51.39    3.10
   4   3   0   49.20    2.60
   0  -4   0    2.40    0.30
   0  -4   0    2.70    0.20
   0   4   0    2.70    0.20
   1  -4   0 2976.20  123.79
  -1  -4   0 2914.91  123.89
  -1   4   0 2825.22  123.69
  -1   4   0 2879.51  123.89
   1   4   0 3088.59  124.09
   1   4   0 3108.69  123.89
   2  -4   0  105.49    4.70
  -2  -4   0  114.39    4.70
  -2   4   0  101.59    4.70
   2   4   0  101.79    4.70
  -2   4   0  106.89    4.60
  -3  -4   0   31.30    2.70
   3  -4   0   29.90    2.20
   3  -4   0   29.60    2.50
   3  -4   0   28.50    2.70
  -3  -4   0   27.80    2.10
   3  -4   0   27.60    2.20
   3   4   0   26.70    2.70
   3   4   0   30.60    2.20
   3   4   0   23.70    2.80
  -3   4   0   30.90    2.10
   3   4   0   32.90    2.20
   4  -4   0   10.30    1.60
   4  -4   0   12.10    2.30
   4  -4   0    9.20    1.30
  -4  -4   0   11.20    2.70
  -4   4   0    7.30    1.90
   4   4   0   10.30    2.00
   4   4   0    9.70    1.30
   4   4   0    8.90    2.10
   0   5   0    0.10    0.10
   1  -5   0    2.30    0.40
  -1  -5   0    1.70    0.30
   1   5   0    2.20    0.40
  -1   5   0    1.80    0.30
   1   5   0    1.80    0.40
  -1   5   0    1.70    0.20
   2  -5   0  181.98    8.30
  -2  -5   0  201.88    8.30
   2   5   0  179.48    8.30
  -2   5   0  184.28    8.30
   2   5   0  215.68    8.80
   3  -5   0    1.30    1.30
   3  -5   0    4.10    1.50
   3  -5   0    6.60    1.40
   3  -5   0    9.00    2.40
   3   5   0    5.20    1.60
   3   5   0    5.10    1.70
   3   5   0    1.80    1.30
   3   5   0    3.20    1.60
  -3   5   0    7.10    1.50
   4  -5   0    7.70    2.30
  -4  -5   0    2.70    1.90
   4  -5   0    4.40    1.20
   4   5   0    2.90    1.40
   4   5   0    2.60    1.00
   4   5   0    4.70    1.30
   0  -6   0   92.89    3.80
   0  -6   0   83.09    3.80
   0   6   0   90.89    3.80
   1  -6   0  500.55   20.60
  -1  -6   0  490.35   20.60
  -1   6   0  479.35   20.50
   1   6   0  490.15   20.60
  -1   6   0  492.05   20.60
   1   6   0  493.15   20.60
   2  -6   0    2.40    0.70
   2   6   0    1.20    0.50
  -2   6   0    1.70    0.60
  -3  -6   0  622.44   26.70
  -3  -6   0  685.53   27.00
   3  -6   0  632.74   26.80
   3  -6   0  627.34   26.70
   3  -6   0  594.54   27.20
   3  -6   0  639.84   26.70
   3  -6   0  646.84   26.90
   3   6   0  587.84   26.90
   3   6   0  615.34   27.00
   3   6   0  636.94   26.80
  -3   6   0  655.73   26.80
   3   6   0  616.64   26.80
   4  -6   0  186.28    8.40
   4  -6   0  200.18    8.40
  -4  -6   0  184.58    8.70
   4  -6   0  159.68    8.60
   4   6   0  198.28    8.40
  -4   6   0  197.58    8.70
   4   6   0  195.38    8.70
   4   6   0  199.18    8.60
  -1  -7   0 1309.97   55.89
   1  -7   0 1387.66   55.89
   1   7   0 1348.07   55.89
  -1   7   0 1257.07   55.79
   1   7   0 1382.26   55.89
  -2  -7   0    8.90    0.90
  -2   7   0    8.20    0.80
   2   7   0    9.10    0.90
  -3  -7   0   17.60    2.10
  -3  -7   0   13.90    2.10
   3  -7   0   14.20    1.80
   3  -7   0   15.60    2.50
   3  -7   0    9.00    3.10
   3  -7   0   13.50    3.10
   3  -7   0   15.00    1.80
   3  -7   0   15.40    1.90
   3   7   0   16.50    1.90
   3   7   0   16.60    2.50
  -3   7   0   18.60    1.70
   3   7   0   16.30    1.90
   3   7   0   17.80    2.90
   4  -7   0   19.50    3.20
   4  -7   0   17.90    1.50
  -4  -7   0   16.30    2.30
   4  -7   0   16.20    1.60
   4   7   0   19.80    2.20
  -4   7   0   15.50    2.20
   4   7   0   17.10    1.50
   4   7   0   19.70    2.10
   0  -8   0 1040.30   42.20
   0  -8   0  962.10   42.20
   0   8   0 1026.30   42.20
  -1  -8   0    3.70    0.40
   1  -8   0    4.80    0.40
  -1   8   0    3.70    0.40
   1   8   0    3.40    0.40
   1   8   0    3.10    0.50
  -2  -8   0   13.60    1.10
   2  -8   0   13.90    1.00
   2   8   0   14.00    1.10
   2   8   0   13.40    1.20
  -2   8   0   13.00    0.90
  -3  -8   0   43.80    3.00
   3  -8   0   38.40    3.70
   3  -8   0   43.60    2.70
   3  -8   0   40.00    3.20
   3  -8   0   41.60    3.80
   3  -8   0   43.60    2.70
   3  -8   0   39.90    2.70
  -3  -8   0   47.40    2.90
  -3   8   0   47.30    2.60
   3   8   0   40.30    3.30
   3   8   0   45.80    3.30
   3   8   0   44.10    2.80
   3   8   0   48.40    2.80
   4  -8   0    9.90    1.40
  -4  -8   0    6.90    2.10
   4  -8   0    9.30    1.30
   4   8   0    5.60    1.20
   4   8   0    8.20    2.10
   4   8   0    8.00    1.80
   0  -9   0    0.20    0.20
   1  -9   0  159.98    6.80
  -1  -9   0  160.08    6.80
   1   9   0  163.08    6.80
  -1   9   0  162.98    6.80
   1   9   0  153.08    6.80
   2  -9   0  469.45   20.00
  -2  -9   0  473.05   19.90
  -2   9   0  455.15   19.90
   2   9   0  485.95   20.00
   2   9   0  472.65   20.00
  -3  -9   0    2.80    1.30
   3  -9   0    2.70    1.20
  -3  -9   0    1.80    1.90
   3  -9   0    2.30    1.70
   3  -9   0    1.50    1.20
   3  -9   0    2.50    1.20
   3  -9   0    1.30    2.10
   3  -9   0    0.20    2.10
   3   9   0    4.50    1.60
   3   9   0    5.00    1.60
   3   9   0    2.60    1.30
   3   9   0    3.40    1.60
  -3   9   0    1.10    1.10
   4  -9   0  200.58    8.60
   4  -9   0  195.88    8.60
  -4  -9   0  178.58    8.90
   4   9   0  197.38    8.90
   4   9   0  192.18    8.60
   4   9   0  198.68    8.80
  -4   9   0  206.78    8.90
   0  10   0   10.60    0.60
   0  10   0   10.90    0.60
   1 -10   0  168.48    7.00
  -1 -10   0  164.68    7.00
  -1  10   0  157.18    7.00
   1  10   0  168.68    7.00
   1  10   0  163.08    7.00
  -2 -10   0   13.90    1.10
   2 -10   0   13.90    1.00
   2  10   0   11.40    1.20
  -2  10   0   12.30    0.90
   2  10   0   13.20    1.10
   3 -10   0   10.60    3.20
   3 -10   0   18.50    2.00
   3 -10   0   21.90    2.70
  -3 -10   0   12.90    2.60
   3 -10   0   24.10    2.00
   3 -10   0   25.10    1.90
   3 -10   0   13.80    3.30
  -3 -10   0   20.20    2.10
  -3  10   0   22.50    1.90
   3  10   0   21.50    2.60
   3  10   0   18.30    2.60
   3  10   0   20.60    2.20
   3  10   0   18.00    2.00
  -4 -10   0   10.20    2.10
   4 -10   0    9.40    1.30
   4 -10   0   10.10    1.40
   4  10   0   10.70    1.30
  -4  10   0   11.50    2.00
   4  10   0   10.70    1.90
   4  10   0   10.00    1.80
   1 -11   0   99.69    4.20
  -1 -11   0   96.89    4.20
   1  11   0   98.49    4.20
  -1  11   0   93.99    4.20
   1  11   0   92.99    4.20
  -2 -11   0  330.77   14.20
   2 -11   0  334.17   14.20
   2  11   0  341.47   14.20
  -2  11   0  324.27   14.10
   2  11   0  331.87   14.20
  -3 -11   0   18.30    2.00
  -3 -11   0   15.30    2.60
   3 -11   0   20.10    2.10
   3 -11   0   23.40    3.90
   3 -11   0   19.50    1.80
   3 -11   0   19.30    3.30
   3 -11   0   17.60    2.00
   3  11   0   18.00    2.00
  -3  11   0   20.40    1.90
  -3  11   0   24.80    3.00
   3  11   0   22.20    2.30
   3  11   0   18.60    2.70
   3  11   0   22.80    2.30
  -4 -11   0    0.80    1.60
   4 -11   0   -0.10    0.90
   4 -11   0    1.00    0.90
   4  11   0    0.10    0.90
   4  11   0    0.90    1.30
   4  11   0   -0.10    1.20
  -4  11   0   -0.20    1.20
   0 -12   0  113.59    4.80
   0  12   0  115.29    4.90
   0  12   0  111.59    4.80
   1 -12   0  930.81   37.20
  -1 -12   0  919.91   37.20
   1  12   0  860.11   37.20
  -1  12   0  874.81   37.10
   1  12   0  851.21   37.20
   2 -12   0   11.10    1.00
  -2 -12   0   11.90    1.10
  -2  12   0   10.30    0.90
   2  12   0   11.30    1.10
   2  12   0   15.70    2.50
   2  12   0   11.20    1.20
   3 -12   0  801.32   35.00
  -3 -12   0  838.72   35.20
   3 -12   0  776.92   35.30
   3 -12   0  792.62   35.00
  -3  12   0  816.62   35.20
  -3  12   0  891.91   35.10
   3  12   0  893.11   35.10
   3  12   0  835.12   35.30
   3  12   0  828.92   35.20
   4 -12   0   57.49    2.90
  -4 -12   0   51.89    3.40
   4 -12   0   60.09    3.00
   4  12   0   52.99    3.30
  -4  12   0   65.79    3.60
   4  12   0   57.29    2.90
   4  12   0   62.99    3.40
   0  13   0    0.30    0.30
  -1 -13   0  225.48    9.50
   1 -13   0  240.08    9.50
   1  13   0  215.38    9.50
  -1  13   0  215.58    9.50
   1  13   0  219.48    9.50
  -2 -13   0   14.30    1.20
   2 -13   0   13.70    1.20
   2  13   0   12.60    1.20
  -2  13   0   12.10    1.00
   2  13   0   13.00    1.70
   2  13   0   13.00    1.30
  -3 -13   0   41.00    3.30
   3 -13   0   43.30    2.60
   3 -13   0   46.20    3.50
  -3 -13   0   48.20    2.90
   3 -13   0   39.70    3.10
   3 -13   0   43.90    2.80
   3  13   0   49.10    3.30
   3  13   0   49.50    3.30
  -3  13   0   48.40    2.90
  -3  13   0   47.60    3.40
   3  13   0   46.80    3.50
   3  13   0   51.59    2.90
   4 -13   0   11.50    1.40
   4 -13   0   11.10    1.20
  -4 -13   0   10.20    1.90
   4  13   0   10.60    1.80
   4  13   0   10.00    1.30
  -4  13   0   17.50    2.40
   0 -14   0 2484.55  102.09
   0  14   0 2423.36  101.99
   0  14   0 2422.46  101.99
  -1 -14   0  108.89    4.80
   1 -14   0  113.19    4.80
  -1  14   0  110.59    4.80
   1  14   0  109.19    4.80
   1  14   0  107.49    4.80
  -2 -14   0   70.39    3.40
   2 -14   0   72.39    3.40
   2  14   0   72.69    3.50
   2  14   0   70.49    3.50
   2  14   0   68.99    3.70
  -2  14   0   70.59    3.30
   3 -14   0   56.59    3.40
   3 -14   0   61.99    3.10
   3 -14   0   57.79    3.90
  -3 -14   0   64.99    3.50
  -3 -14   0   58.19    4.00
   3 -14   0   58.99    3.70
   3  14   0   67.39    3.40
   3  14   0   56.29    3.80
   3  14   0   57.79    3.90
  -3  14   0   67.59    3.40
   3  14   0   59.29    3.70
  -3  14   0   59.79    3.90
   4 -14   0   59.99    3.30
  -4 -14   0   63.89    3.60
  -4  14   0   61.89    3.40
   0 -15   0    0.50    0.30
   0  15   0    0.60    0.30
   0  15   0    0.00    0.30
  -1 -15   0 1170.48   47.90
   1 -15   0 1159.58   47.90
   1  15   0 1127.39   47.90
  -1  15   0 1150.98   47.90
   1  15   0 1111.29   47.90
  -2 -15   0 1058.59   46.30
   2 -15   0 1147.19   46.40
   2  15   0 1143.99   46.40
  -2  15   0 1074.19   46.20
   2  15   0 1075.19   46.30
   2  15   0 1115.39   46.40
   3 -15   0   60.69    3.40
   3 -15   0   60.39    3.80
   3 -15   0   59.89    3.20
   3 -15   0   56.79    3.80
  -3 -15   0   62.39    3.50
  -3 -15   0   61.99    4.10
  -3  15   0   56.79    4.00
   3  15   0   60.49    4.00
  -3  15   0   64.99    3.50
   3  15   0   70.89    3.80
   3  15   0   64.99    3.40
   3  15   0   55.59    3.90
   4 -15   0   38.10    2.20
  -4 -15   0   42.00    2.60
   4 -15   0   39.60    2.20
   4  15   0   37.60    2.60
   4  15   0   38.20    2.10
   4  15   0   39.80    2.60
  -4  15   0   33.40    2.50
   0 -16   0   21.20    1.20
   0  16   0   22.60    1.20
   0  16   0   22.70    1.20
  -1 -16   0    2.20    0.60
   1 -16   0    1.50    0.60
   1  16   0    2.90    0.60
   1  16   0    2.60    0.60
  -1  16   0    1.80    0.50
  -2 -16   0   20.60    1.50
   2 -16   0   22.50    1.60
   2  16   0   19.50    1.80
   2  16   0   20.80    1.70
   2  16   0   19.80    1.60
  -2  16   0   20.00    1.30
  -3 -16   0   -0.40    2.30
   3 -16   0    2.10    1.00
   3 -16   0    2.40    2.10
  -3 -16   0    5.00    1.70
   3 -16   0    1.00    1.40
   3 -16   0    1.70    1.60
  -3  16   0    2.10    2.00
   3  16   0    3.80    1.60
   3  16   0    0.80    1.70
   3  16   0   -1.60    2.00
  -3  16   0    1.90    1.50
   3  16   0    3.50    1.40
   4 -16   0   14.80    1.20
   4 -16   0   15.50    1.50
  -4 -16   0   14.70    1.80
   4  16   0   15.60    1.40
   4  16   0   17.40    1.80
   4  16   0   14.70    1.90
  -4  16   0   15.60    2.00
   0 -17   0   -0.20    0.30
   0  17   0    1.90    0.50
   0  17   0    0.50    0.40
   1 -17   0  901.81   35.20
  -1 -17   0  827.12   35.30
  -1  17   0  750.12   35.30
   1  17   0  862.61   35.20
   1  17   0  848.82   35.30
  -2 -17   0   30.40    1.90
   2 -17   0   31.90    2.00
  -2  17   0   30.60    1.70
   2  17   0   30.30    2.10
   2  17   0   28.80    2.10
   2  17   0   31.00    2.00
   3 -17   0   38.00    3.00
  -3 -17   0   38.90    3.60
  -3 -17   0   40.40    2.60
   3 -17   0   39.50    3.30
   3 -17   0   40.00    2.30
   3 -17   0   37.20    2.60
   3  17   0   37.60    3.20
  -3  17   0   30.80    3.40
   3  17   0   37.70    2.90
   3  17   0   40.80    2.60
  -3  17   0   40.70    2.80
   3  17   0   33.60    3.60
  -4 -17   0   46.90    2.80
   4 -17   0   50.99    2.40
   4 -17   0   38.90    3.10
   4 -17   0   44.80    2.50
   4  17   0   45.90    2.80
   4  17   0   45.70    2.80
  -4  17   0   49.20    3.00
   4  17   0   44.60    2.40
   0 -18   0  155.68    6.70
   0  18   0  156.48    6.70
   0  18   0  156.88    6.70
   1 -18   0   16.80    1.20
   1  18   0   14.80    1.10
  -1  18   0   15.50    1.00
   1  18   0   15.10    1.20
  -2 -18   0  158.18    7.20
   2 -18   0  165.98    7.20
   2  18   0  162.38    7.20
   2  18   0  160.58    7.30
  -2  18   0  162.78    7.10
   2  18   0  154.58    7.20
   3 -18   0   44.10    3.10
   3 -18   0   38.50    3.60
   3 -18   0   43.20    2.50
  -3 -18   0   48.20    2.90
   3 -18   0   45.30    2.90
  -3 -18   0   40.60    3.80
   3  18   0   46.00    2.80
   3  18   0   47.60    4.40
   3  18   0   45.30    3.10
   3  18   0   45.90    3.20
  -4 -18   0   79.99    4.00
   4 -18   0   77.19    3.70
   4 -18   0   77.69    3.60
   4 -18   0   77.79    4.20
   4  18   0   85.19    4.00
   4  18   0   77.89    3.90
   4  18   0   77.39    3.70
   0 -19   0   -0.20    0.40
   0  19   0    2.40    0.60
   0  19   0    0.90    0.50
   1 -19   0   56.19    2.60
  -1 -19   0   50.69    2.50
  -1  19   0   50.89    2.50
   1  19   0   56.09    2.60
   2 -19   0   48.70    2.50
  -2 -19   0   40.50    2.40
   2  19   0   42.20    2.60
  -2  19   0   41.20    2.20
   2  19   0   38.20    2.50
   2  19   0   40.30    2.60
   3 -19   0   45.70    2.80
  -3 -19   0   45.50    2.80
   3 -19   0   41.20    3.00
   3 -19   0   39.80    2.70
   3  19   0   41.20    3.40
   3  19   0   36.10    3.00
   3  19   0   41.50    3.10
  -4 -19   0   59.59    3.30
   4 -19   0   60.99    3.00
   4 -19   0   63.19    3.00
   4  19   0   62.29    3.30
   4  19   0   58.89    3.00
   4  19   0   62.29    3.20
   0 -20   0   21.00    1.20
   0  20   0   20.90    1.20
   0  20   0   19.90    1.20
  -1 -20   0  681.13   29.20
   1 -20   0  780.82   29.20
  -1  20   0  684.93   29.10
   1  20   0  587.84   29.20
   1  20   0  729.63   29.10
   2 -20   0    0.60    1.00
  -2 -20   0    0.00    1.60
  -2 -20   0    1.30    1.00
  -2  20   0    1.10    0.70
   2  20   0   -1.60    1.00
   2  20   0   -0.90    1.40
   2  20   0    1.00    1.10
  -3 -20   0  422.86   19.10
   3 -20   0  469.45   19.30
   3 -20   0  441.16   18.90
   3 -20   0  417.16   19.10
   3  20   0  447.16   19.20
   3  20   0  460.25   19.60
   3  20   0  444.46   18.90
  -4 -20   0   10.10    1.60
   4 -20   0    8.70    1.10
   4 -20   0    8.70    1.30
  -4 -20   0    7.50    1.80
   4  20   0    7.90    1.20
   4  20   0    8.60    1.70
   4  20   0    7.20    1.60
   0 -21   0   -0.50    0.50
   0  21   0    1.20    0.60
   0  21   0    0.00    0.50
  -1 -21   0  369.06   15.50
  -1  21   0  368.46   15.50
   1  21   0  399.86   15.50
   1  21   0  323.47   15.60
  -2 -21   0  190.38    8.50
   2 -21   0  189.68    8.60
  -2 -21   0  185.98    8.60
   2  21   0  183.78    8.70
   2  21   0  196.38    8.60
   2  21   0  195.58    8.60
  -2  21   0  201.78    8.50
   3 -21   0    7.60    2.10
   3 -21   0    7.60    2.10
  -3 -21   0   13.20    1.80
   3 -21   0    9.20    1.40
   3  21   0    8.60    1.80
   3  21   0   13.00    2.40
   3  21   0    8.30    1.70
   4 -21   0   10.20    1.40
   4 -21   0   10.00    1.10
  -4 -21   0    7.80    1.80
  -4 -21   0    7.20    1.80
   4  21   0    9.70    1.50
   4  21   0    8.00    1.10
   0 -22   0  847.42   34.50
   0  22   0  804.62   34.50
   0  22   0  812.12   34.40
  -1 -22   0  349.96   16.00
   1 -22   0  383.96   16.10
   1  22   0  410.46   16.30
  -1  22   0  357.96   15.90
   2 -22   0   47.90    2.90
  -2 -22   0   46.30    3.00
  -2 -22   0   47.60    2.80
   2  22   0   47.50    3.00
   2  22   0   47.90    2.90
  -2  22   0   50.39    2.60
   3 -22   0   10.40    2.00
  -3 -22   0   11.10    1.70
   3 -22   0    9.50    1.40
   3 -22   0   11.90    2.00
  -3 -22   0    8.90    4.00
   3  22   0    9.70    1.80
   3  22   0   10.20    1.90
   3  22   0   12.50    2.20
  -4 -22   0   26.70    2.00
   4 -22   0   27.80    1.60
   4 -22   0   26.20    2.10
   4  22   0   26.70    1.90
   4  22   0   25.50    1.60
   0 -23   0    2.80    0.80
   0  23   0   -0.30    0.60
   0  23   0    0.70    0.60
   1 -23   0    4.10    1.30
  -1 -23   0    4.50    0.90
   1  23   0    4.30    1.40
   1  23   0    5.20    1.10
  -1  23   0    5.10    0.80
  -2 -23   0  425.86   19.20
  -2 -23   0  505.05   20.60
   2 -23   0  418.06   19.00
  -2 -23   0  433.66   19.00
   2 -23   0  484.75   19.50
   2 -23   0  427.96   19.10
   2  23   0  416.16   19.10
  -2  23   0  444.86   18.90
   2  23   0  431.16   19.00
   3 -23   0   28.80    2.50
   3 -23   0   28.90    2.00
  -3 -23   0   34.40    2.30
  -3 -23   0   28.10    4.10
   3 -23   0   30.80    2.40
   3  23   0   29.00    2.90
   3  23   0   26.80    2.30
   3  23   0   25.40    2.50
  -4 -23   0   64.69    3.30
   4 -23   0   63.19    3.00
   4  23   0   64.79    3.30
   4  23   0   64.69    3.40
   0 -24   0   24.70    1.70
   0  24   0   29.60    1.60
   0  24   0   29.90    1.60
   1 -24   0   32.70    2.00
  -1 -24   0   28.30    1.80
   1  24   0   32.20    2.10
  -1  24   0   28.80    1.70
   2 -24   0   77.59    4.40
   2 -24   0   76.99    4.40
  -2 -24   0   83.19    4.20
  -2 -24   0   90.09    5.60
   2 -24   0   74.09    4.10
  -2 -24   0   80.39    4.20
  -2  24   0   88.99    4.00
   2  24   0   78.19    4.50
   2  24   0   82.09    4.10
   3 -24   0   47.50    3.00
  -3 -24   0   44.10    4.30
   3 -24   0   50.79    2.60
  -3 -24   0   52.79    3.00
   3 -24   0   48.50    3.00
   3  24   0   44.80    3.10
   3  24   0   43.30    3.50
   3  24   0   44.40    2.90
   4 -24   0    3.30    0.80
  -4 -24   0    2.70    1.10
   4  24   0    1.90    1.00
   4  24   0    1.70    0.90
   0 -25   0   -1.80    0.70
   0  25   0    1.10    0.70
   1 -25   0   12.20    1.50
  -1 -25   0   11.90    1.30
   1  25   0   10.80    2.30
   1  25   0   13.10    1.70
  -1  25   0   13.20    1.20
  -2 -25   0    7.60    1.90
  -2 -25   0    9.50    3.30
   2 -25   0    7.80    2.10
  -2 -25   0    8.40    1.80
   2 -25   0    6.20    1.80
  -2  25   0    6.60    1.60
   2  25   0    6.80    1.80
   2  25   0    0.10    3.20
  -3 -25   0   59.09    3.60
  -3 -25   0   69.49    4.90
   3 -25   0   66.39    3.30
   3 -25   0   68.29    3.60
   3  25   0   70.29    3.50
   3  25   0   65.79    3.70
  -4 -25   0    3.40    1.20
   4 -25   0    2.30    0.60
   4  25   0    2.60    0.90
   0 -26   0    6.00    1.10
   0  26   0    6.10    1.10
  -1 -26   0  311.67   13.30
   1  26   0  281.87   13.40
   1  26   0  322.57   13.40
  -1  26   0  318.77   13.30
  -2 -26   0  197.28    9.00
  -2 -26   0  174.08    7.90
   2 -26   0  152.88    7.60
   2 -26   0  166.08    7.90
  -2 -26   0  161.28    7.80
   2  26   0  165.68    7.90
  -2  26   0  180.18    7.70
   3 -26   0  425.26   18.40
  -3 -26   0  452.45   19.30
   3 -26   0  432.16   18.60
  -3 -26   0  412.76   18.60
   3  26   0  448.06   18.40
   3  26   0  424.76   18.60
  -4 -26   0   54.29    2.80
   4 -26   0   50.79    2.50
   4  26   0   53.39    2.70
   0 -27   0    0.10    1.00
   0  27   0    0.60    0.80
  -1 -27   0  265.77   12.00
  -1  27   0  280.87   11.90
   1  27   0  282.97   12.10
   2 -27   0  405.46   18.10
  -2 -27   0  433.36   18.40
   2 -27   0  426.46   18.30
  -2 -27   0  397.06   18.20
   2  27   0  445.36   18.40
  -2  27   0  440.26   18.30
  -3 -27   0   14.70    1.90
   3 -27   0   17.30    1.80
   3 -27   0   14.20    1.40
  -3 -27   0   15.30    3.10
   3  27   0   14.20    1.90
   4 -27   0    1.90    0.80
  -4 -27   0    0.80    1.30
   4  27   0    2.20    0.90
   0  28   0    3.20    0.90
  -1 -28   0   18.10    1.70
  -1  28   0   18.10    1.50
   1  28   0   19.00    2.30
  -2 -28   0   52.79    3.60
   2 -28   0   54.59    3.20
  -2 -28   0   61.89    4.30
  -2 -28   0   53.69    3.20
   2 -28   0   51.49    3.10
   2  28   0   52.39    3.40
  -2  28   0   55.49    3.30
  -3 -28   0   10.20    2.90
   3 -28   0    6.30    1.50
  -3 -28   0   11.20    1.70
   3 -28   0    8.30    1.30
   3  28   0    6.00    1.40
   4  28   0   34.50    1.90
   0  29   0    1.10    1.00
   1 -29   0  223.38   10.40
  -1 -29   0  261.27   11.30
  -1 -29   0  245.68   10.60
  -1  29   0  213.28   10.30
   1  29   0  236.18   10.50
   1  29   0  219.68   11.30
  -2 -29   0  382.16   16.10
  -2 -29   0  415.66   17.10
   2 -29   0  378.26   16.20
  -2 -29   0  365.76   16.30
   2 -29   0  356.06   16.00
  -2  29   0  370.56   16.20
   2  29   0  367.26   16.20
   2  29   0  346.27   16.80
  -3 -29   0    0.30    1.80
   3 -29   0    2.10    1.00
   3 -29   0    1.60    0.90
  -3 -29   0    0.50    1.20
   3  29   0    1.10    1.10
   0  30   0   16.10    1.70
   1 -30   0  257.87   11.50
  -1 -30   0  250.07   11.50
  -1 -30   0  265.57   11.30
   1 -30   0  266.37   11.40
  -1  30   0  267.97   11.30
   1  30   0  250.07   11.80
   1  30   0  246.38   11.40
   2 -30   0    3.50    1.40
  -2 -30   0    1.70    1.60
   2 -30   0    3.60    1.30
  -2 -30   0    7.00    2.70
   2  30   0    3.80    1.50
   2  30   0    3.30    2.70
   3 -30   0    5.50    1.20
   3 -30   0    6.40    1.40
  -3 -30   0    4.00    2.30
  -3 -30   0    4.50    1.30
   3  30   0    3.50    1.20
   0 -31   0    0.70    1.10
   0  31   0    0.90    1.50
   0  31   0    0.60    1.20
  -1 -31   0    7.90    2.70
  -1 -31   0    8.00    2.40
   1 -31   0    7.00    1.80
   1 -31   0    5.30    1.90
   1 -31   0    8.70    2.40
  -1 -31   0    9.10    2.00
  -1  31   0    6.00    1.70
   1  31   0    9.40    3.10
   1  31   0    7.40    1.60
  -2 -31   0    3.90    1.70
   2 -31   0    2.70    1.40
  -2 -31   0    2.90    1.90
   2 -31   0    2.70    1.20
   2  31   0    3.70    1.40
   2  31   0    3.50    2.40
  -3 -31   0  134.59    6.50
   3 -31   0  124.89    6.30
  -3 -31   0  124.09    6.00
   3  31   0  132.09    5.90
   0 -32   0 1231.58   52.69
   0 -32   0 1174.98   52.49
   0 -32   0 1363.56   53.49
   0  32   0 1288.97   52.59
   0  32   0 1196.58   52.69
  -1 -32   0   61.99    4.00
  -1 -32   0   65.19    3.80
   1 -32   0   59.09    3.70
   1 -32   0   65.19    3.50
   1 -32   0   58.49    3.60
  -1  32   0   65.99    3.50
   1  32   0   65.89    3.70
  -1  32   0   62.29    3.60
   1  32   0   61.29    4.30
  -2 -32   0  225.08   10.10
   2 -32   0  206.68    9.90
  -2 -32   0  258.17   11.00
   2 -32   0  221.28   10.00
   2  32   0  233.58   10.80
   2  32   0  212.38   10.00
   3 -32   0    9.50    1.20
  -3 -32   0    7.90    1.60
   3 -32   0    8.00    1.30
  -3 -32   0   11.20    2.10
   3  32   0    8.90    1.40
   0 -33   0    0.70    1.00
   0 -33   0    2.20    1.40
   0 -33   0    1.00    2.50
   0  33   0    0.30    1.40
   0  33   0    0.60    1.70
  -1 -33   0  145.69    7.20
   1 -33   0  123.19    6.20
  -1 -33   0  128.09    6.40
  -1 -33   0  128.59    6.40
   1 -33   0  130.29    6.20
  -1  33   0  129.79    6.20
  -1  33   0  128.59    6.20
   1  33   0  134.39    6.70
   1  33   0  127.59    6.20
   2 -33   0  151.38    7.00
  -2 -33   0  153.78    7.80
   2 -33   0  145.29    6.80
  -2 -33   0  161.18    7.90
   2  33   0  156.38    7.80
   2  33   0  142.29    7.00
   3 -33   0    0.80    0.80
  -3 -33   0    1.60    1.30
   3 -33   0    0.40    0.80
  -3 -33   0    2.40    1.40
   3  33   0   -0.20    0.90
  -3  33   0    0.30    1.00
   0 -34   0   92.59    4.70
   0 -34   0  103.19    6.10
   0 -34   0   98.09    4.70
   0  34   0   94.89    5.00
   0  34   0   91.29    4.90
   1 -34   0   31.90    2.60
  -1 -34   0   27.30    3.20
   1 -34   0   27.60    2.40
  -1 -34   0   26.40    2.80
  -1 -34   0   33.20    3.40
  -1  34   0   28.90    2.40
   1  34   0   26.40    3.20
   1  34   0   26.20    2.50
  -1  34   0   29.10    2.80
  -2 -34   0  573.84   25.00
   2 -34   0  591.04   24.30
   2 -34   0  562.14   24.20
  -2 -34   0  529.75   24.30
   2  34   0  566.94   24.30
   2  34   0  600.34   24.80
  -3 -34   0    6.00    1.70
   3 -34   0    2.00    0.80
  -3 -34   0    1.70    1.30
  -3  34   0    1.50    0.90
   3  34   0    1.60    0.80
   0 -35   0    1.20    1.30
   0 -35   0    0.20    2.50
   0 -35   0    0.10    0.90
   0  35   0    0.50    1.70
   0  35   0    0.10    2.20
   0  35   0    0.50    1.20
  -1 -35   0  649.64   28.30
   1 -35   0  672.73   28.30
   1 -35   0  633.14   28.10
  -1 -35   0  676.93   29.00
   1  35   0  675.73   28.50
  -1  35   0  661.33   28.30
   1  35   0  678.83   28.30
   2 -35   0  270.77   11.70
   2 -35   0  268.57   11.60
  -2 -35   0  264.27   12.30
   2  35   0  277.57   12.20
   2  35   0  258.57   11.70
  -2  35   0  265.47   11.70
  -3 -35   0   -1.10    1.30
  -3 -35   0    0.70    1.30
   3 -35   0    2.20    0.80
   3  35   0    1.10    0.80
  -3  35   0    0.60    0.90
   0 -36   0  362.26   15.70
   0 -36   0  370.56   16.40
   0  36   0  357.86   15.70
   0  36   0  357.26   15.80
  -1 -36   0    3.00    1.20
   1 -36   0    2.30    1.00
   1 -36   0    1.40    1.40
  -1 -36   0    3.20    1.90
   1  36   0    1.30    1.60
  -1  36   0    5.40    1.70
   1  36   0    0.80    1.40
   2 -36   0   26.40    3.30
  -2 -36   0   24.40    2.60
   2  36   0   20.70    2.00
  -2  36   0   27.30    2.00
   2  36   0   22.50    3.00
   3 -36   0   26.40    1.50
  -3 -36   0   19.60    1.90
   3  36   0   25.10    1.60
  -3  36   0   25.30    1.80
   0 -37   0    0.40    1.00
   0 -37   0    1.80    2.60
   0  37   0    1.00    1.60
   0  37   0    1.30    1.70
  -1 -37   0    7.90    2.40
   1 -37   0    5.50    1.70
   1 -37   0    4.30    1.50
  -1 -37   0    4.20    1.20
   1  37   0    7.50    2.30
   1  37   0    4.60    1.50
  -1  37   0    4.80    1.70
  -2 -37   0    1.80    1.50
  -2  37   0    2.10    1.00
   2  37   0    1.70    1.10
   2  37   0    4.20    1.80
   3 -37   0   17.40    1.40
  -3 -37   0   13.90    1.70
  -3  37   0   18.10    1.50
   3  37   0   15.60    1.30
   0 -38   0  249.18   10.80
   0 -38   0  235.98   11.50
   0  38   0  245.88   10.80
   0  38   0  237.58   10.70
  -1 -38   0  217.38    9.40
   1 -38   0  208.28    9.20
   1 -38   0  209.38    9.10
  -1 -38   0  186.18    9.90
   1  38   0  214.08    9.50
  -1  38   0  202.78    9.30
   1  38   0  209.98    9.20
  -2 -38   0    8.90    2.10
  -2  38   0   12.90    1.60
   2  38   0   14.40    1.60
  -3 -38   0   16.50    1.70
  -3  38   0   21.00    1.50
   3  38   0   21.00    1.30
   0 -39   0    0.20    0.90
   0 -39   0   -0.60    2.30
   0  39   0    0.10    1.20
   0  39   0   -0.80    1.40
   1 -39   0   77.49    4.00
  -1 -39   0   84.69    4.30
   1 -39   0   81.39    4.10
  -1 -39   0   72.99    4.80
   1  39   0   81.39    4.10
   1  39   0   79.29    4.40
  -1  39   0   80.69    4.10
  -2 -39   0    1.00    1.40
   2  39   0    1.90    1.60
  -3 -39   0    0.80    1.00
   3  39   0    1.10    0.70
  -3  39   0    0.10    0.80
   0 -40   0    1.60    0.90
   0 -40   0    2.00    3.00
   0  40   0    3.70    1.30
   0  40   0    2.20    1.40
   1 -40   0    4.30    1.00
  -1 -40   0    5.30    2.20
   1 -40   0    3.50    1.50
  -1 -40   0    5.50    1.20
   1  40   0    4.90    1.50
  -1  40   0    6.20    1.60
   1  40   0    6.20    1.30
  -2 -40   0    4.70    1.70
   2  40   0    5.90    1.20
  -2  40   0    5.60    1.20
   2  40   0    5.30    1.50
   0 -41   0   -0.30    0.80
   0  41   0    0.40    1.30
   0  41   0    0.30    1.20
  -1 -41   0    2.30    1.40
   1 -41   0    1.40    0.90
  -1 -41   0    2.40    1.00
  -1  41   0    2.00    1.00
   1  41   0    2.60    1.20
   1  41   0    2.70    1.40
  -2 -41   0  259.67   12.40
   2  41   0  271.27   11.90
  -2  41   0  286.27   12.00
   2  41   0  295.17   12.20
   0 -42   0  111.79    5.30
   0  42   0  110.09    5.30
   0  42   0  110.29    5.40
  -1 -42   0    4.90    2.00
   1 -42   0   11.30    1.60
  -1 -42   0    8.40    1.80
   1  42   0    8.90    1.60
  -1  42   0    9.80    1.50
   1  42   0    9.00    2.00
  -2 -42   0   18.40    2.00
   2  42   0   23.60    2.20
   2  42   0   21.10    1.50
  -2  42   0   23.50    1.60
   0 -43   0    0.20    0.80
   0  43   0   -0.70    1.00
   1 -43   0   12.80    2.20
  -1 -43   0   11.90    1.80
  -1 -43   0   13.70    2.10
   1  43   0   12.60    1.70
   1  43   0   16.00    2.20
  -1  43   0   16.00    1.70
  -2 -43   0    9.00    1.40
  -2  43   0   12.60    1.20
   2  43   0    9.60    1.10
   0 -44   0   38.10    2.40
   0  44   0   35.60    2.50
   0  44   0   40.60    2.50
  -1 -44   0   78.99    4.70
   1 -44   0   94.09    4.40
  -1 -44   0   99.99    4.40
   1  44   0   95.59    4.60
   1  44   0   91.99    4.30
  -1  44   0   89.39    4.40
  -2 -44   0    3.00    1.00
   2  44   0    2.20    0.70
  -2  44   0    4.80    1.00
   2  44   0    3.30    1.30
   0 -45   0    0.60    0.70
   0  45   0   -0.10    0.90
   0  45   0    1.40    1.20
   1 -45   0    9.00    1.30
  -1 -45   0    7.90    1.60
  -1 -45   0    6.30    1.70
   1  45   0   10.10    1.40
   1  45   0    7.20    1.70
  -1  45   0    9.10    1.30
  -2 -45   0    5.20    1.20
   2  45   0    8.10    1.00
   0 -46   0   80.39    3.80
   0  46   0   77.79    3.90
   0  46   0   78.89    3.90
   1 -46   0   12.40    1.40
  -1 -46   0   13.10    1.60
   1  46   0   11.70    1.70
   1  46   0   13.00    1.40
  -1  46   0   15.00    1.40
   0 -47   0   -0.30    0.60
   0  47   0   -0.20    0.80
   1 -47   0  107.49    5.00
  -1 -47   0  114.49    5.10
   1  47   0  105.69    5.40
  -1  47   0  111.69    5.00
   1  47   0  111.59    5.10
   0 -48   0    8.70    1.20
   0  48   0    7.20    1.30
   1 -48   0   57.89    3.00
  -1 -48   0   56.59    2.80
   1  48   0   53.19    2.80
   1  48   0   48.80    2.60
  -1  48   0   50.59    2.70
   0 -49   0    1.00    0.60
   0  49   0    0.70    0.80
  -1 -49   0   16.50    1.60
   1 -49   0   15.30    1.20
   1  49   0   12.20    1.50
   0 -50   0  332.47   14.00
   0  50   0  325.17   14.00
   4   0  -1    1.10    0.90
  -4   0   1    0.10    2.50
  -4   0   1    2.30    1.30
   4   0  -1    2.30    1.10
   3   0  -1   29.70    2.20
   3   0  -1   29.50    2.30
   3   0  -1   28.90    2.30
   3   0  -1   32.30    2.80
  -3   0   1   31.40    2.50
   2   0  -1   -0.10    0.50
  -2   0   1    0.20    0.60
  -1   0   1    5.50    0.50
   1   0  -1    5.40    0.50
  -1   0   1    4.80    0.40
   0   0   1   -3.30    0.20
   0   0   1   -3.40    0.10
   0   0   1   -3.30    0.10
   1   0   1  212.08    9.40
   1   0   1  218.98    9.40
  -1   0  -1  223.58    9.30
   2   0   1    7.40    0.80
  -2   0  -1    5.60    0.80
  -2   0  -1    4.30    0.90
  -3   0  -1   74.59    3.80
   3   0   1   67.89    4.50
   3   0   1   64.79    3.90
   3   0   1   70.49    3.60
   3   0   1   74.19    4.20
   3   0   1   71.59    3.70
   4   0   1    0.30    1.30
   4   0   1    1.50    1.20
   4   0   1   -0.20    1.60
   4   0   1    0.30    0.80
   4  -1  -1   47.40    2.60
  -4  -1   1   44.20    3.20
   4  -1  -1   50.09    2.60
  -4  -1   1   47.00    3.10
  -4   1   1   49.80    3.10
   4   1  -1   43.50    2.70
   4   1  -1   50.19    2.60
   3  -1  -1    6.60    1.70
   3  -1  -1    7.90    1.60
  -3  -1   1    6.80    2.00
   3  -1  -1    6.10    1.60
   3  -1  -1    7.00    1.50
   3   1  -1    9.90    1.70
  -3   1   1    8.70    2.10
   3   1  -1    4.90    1.30
   3   1  -1    6.30    1.40
   3   1  -1    6.90    1.60
  -2  -1   1  278.27   11.40
  -2  -1   1  281.17   11.40
   2  -1  -1  251.57   11.50
  -2   1   1  268.37   11.40
   2   1  -1  253.17   11.50
  -2   1   1  277.17   11.40
  -1  -1   1  813.02   33.00
  -1  -1   1  769.82   32.90
   1  -1  -1  797.52   33.00
  -1   1   1  776.42   32.90
   1   1  -1  784.92   33.00
  -1   1   1  788.72   33.00
   0  -1   1  130.19    5.20
   0  -1   1  115.79    5.30
   0  -1   1  128.29    5.30
   0   1   1  124.59    5.20
   0   1   1  115.79    5.30
   0   1   1  130.69    5.30
   1  -1   1 9999.00  403.86
  -1  -1  -1 9341.67  403.46
   1  -1   1 9787.82  403.76
   1   1   1 9620.64  403.86
   1   1   1 9579.74  403.66
  -2  -1  -1  502.25   22.20
   2  -1   1  530.25   22.20
  -2  -1  -1  546.85   22.10
  -2   1  -1  541.65   22.20
   2   1   1  513.65   22.20
  -2   1  -1  533.75   22.10
   2   1   1  503.35   22.20
  -3  -1  -1   39.60    2.60
   3  -1   1   36.40    2.90
  -3  -1  -1   42.60    3.40
   3  -1   1   38.60    3.60
   3  -1   1   43.00    3.30
   3  -1   1   41.80    2.70
   3  -1   1   41.40    2.60
   3   1   1   39.90    3.30
   3   1   1   42.50    2.70
   3   1   1   41.20    3.10
   3   1   1   40.70    2.60
  -3   1  -1   46.90    2.70
   3   1   1   42.30    3.90
   4  -1   1    0.10    1.50
   4  -1   1    0.90    1.30
   4  -1   1    1.30    0.90
   4  -1   1    1.80    1.20
   4   1   1   -0.60    1.60
   4   1   1    0.90    0.90
   4   1   1   -0.70    1.30
   4   1   1    1.20    1.20
  -4  -2   1    6.40    1.80
   4  -2  -1    6.40    1.40
  -4  -2   1    7.80    2.10
   4  -2  -1    7.00    1.30
   4   2  -1    8.80    1.60
   4   2  -1    5.20    1.10
  -4   2   1    7.80    1.80
   3  -2  -1  330.37   14.60
   3  -2  -1  350.16   14.70
   3  -2  -1  322.27   14.60
   3  -2  -1  354.16   14.80
   3   2  -1  323.27   14.60
   3   2  -1  353.66   14.90
   3   2  -1  336.97   14.70
  -3   2   1  336.67   14.70
   3   2  -1  342.87   14.60
   2  -2  -1   26.00    1.60
  -2  -2   1   31.50    1.60
  -2  -2   1   29.30    1.50
  -2   2   1   29.20    1.50
   2   2  -1   25.50    1.60
  -2   2   1   28.80    1.50
   1  -2  -1  236.28    9.50
  -1  -2   1  226.78    9.50
  -1  -2   1  219.58    9.40
  -1   2   1  221.88    9.50
   1   2  -1  209.58    9.50
  -1   2   1  227.08    9.40
   0  -2   1  297.17   12.60
   0  -2   1  330.27   12.60
   0  -2   1  284.57   12.60
   0   2   1  298.67   12.60
   0   2   1  293.57   12.60
  -1  -2  -1 3587.64  157.78
   1  -2   1 3938.81  157.78
   1  -2   1 3622.44  157.78
   1   2   1 3774.22  157.78
  -1   2  -1 3812.22  157.58
   1   2   1 3902.11  157.68
   2  -2   1 1951.50   82.69
  -2  -2  -1 2130.29   82.69
   2   2   1 1946.91   82.69
  -2   2  -1 1944.41   82.69
   2   2   1 1912.81   82.79
   3  -2   1  154.28    8.00
  -3  -2  -1  177.48    7.60
   3  -2   1  169.08    7.50
   3  -2   1  177.98    7.90
   3  -2   1  168.08    7.40
   3  -2   1  156.18    7.60
   3   2   1  165.08    7.50
   3   2   1  166.88    7.80
   3   2   1  168.48    7.40
   3   2   1  159.08    7.60
  -3   2  -1  166.18    7.50
   3   2   1  145.29    8.10
   4  -2   1    4.80    1.60
   4  -2   1    3.00    0.90
   4  -2   1    0.70    1.10
   4  -2   1    2.70    1.30
   4   2   1    2.10    1.20
   4   2   1    2.40    1.60
   4   2   1    3.80    0.90
   4   2   1    3.50    1.20
   4  -3  -1    7.60    1.30
   4  -3  -1    7.30    1.40
  -4  -3   1    4.60    1.80
  -4  -3   1    6.50    1.50
  -4   3   1   11.50    2.00
   4   3  -1    8.60    1.40
   4   3  -1    6.30    1.30
   3  -3  -1   16.70    1.90
   3  -3  -1   16.60    2.20
   3  -3  -1   18.50    1.90
  -3  -3   1   16.30    2.90
   3  -3  -1   16.00    2.10
  -3   3   1   14.50    3.00
   3   3  -1   16.90    1.80
   3   3  -1   21.20    2.70
  -3   3   1   17.50    2.40
   3   3  -1   18.60    2.30
   3   3  -1   16.60    1.90
  -2  -3   1  100.59    4.30
   2  -3  -1   92.09    4.40
  -2  -3   1  104.59    4.80
  -2   3   1  101.09    4.30
  -2   3   1   99.19    4.40
   2   3  -1   92.39    4.50
  -1  -3   1    0.20    0.30
   1  -3  -1    0.50    0.30
  -1  -3   1    0.90    0.20
  -1   3   1    0.80    0.30
  -1   3   1    0.20    0.20
   1   3  -1   -0.10    0.20
   0  -3   1  609.64   26.50
   0  -3   1  692.63   26.50
   0  -3   1  599.24   26.50
   0   3   1  656.43   26.50
   0   3   1  607.14   26.50
  -1  -3  -1  971.40   42.20
   1  -3   1 1009.90   42.20
   1  -3   1 1021.10   42.20
   1   3   1  993.30   42.20
   1   3   1 1073.69   42.20
  -1   3  -1  981.60   42.10
   2  -3   1  559.94   24.70
  -2  -3  -1  629.24   24.70
   2   3   1  577.44   24.70
  -2   3  -1  578.34   24.70
   2   3   1  583.44   24.80
   3  -3   1   33.10    2.90
   3  -3   1   26.50    2.60
  -3  -3  -1   35.40    3.90
   3  -3   1   29.60    2.10
   3  -3   1   27.20    2.60
  -3  -3  -1   30.80    2.30
   3  -3   1   29.00    3.30
   3  -3   1   30.40    2.20
   3   3   1   28.80    2.60
   3   3   1   27.70    3.50
   3   3   1   27.50    2.90
  -3   3  -1   31.80    2.20
   3   3   1   26.20    2.30
   3   3   1   30.20    2.30
   4  -3   1    9.50    1.70
   4  -3   1   10.00    1.30
   4  -3   1    9.90    2.00
   4  -3   1   11.80    2.50
   4   3   1   10.30    1.40
   4   3   1    6.50    1.90
   4   3   1   10.70    1.90
   4   3   1   12.70    1.70
   4  -4  -1   45.60    2.50
  -4  -4   1   46.70    3.00
   4  -4  -1   44.00    2.50
  -4  -4   1   41.00    3.00
  -4   4   1   50.09    3.00
   4   4  -1   46.60    2.50
   4   4  -1   37.90    2.60
   3  -4  -1   55.29    3.40
   3  -4  -1   51.59    3.00
  -3  -4   1   56.49    3.20
   3  -4  -1   53.89    3.10
   3  -4  -1   49.20    3.10
   3   4  -1   55.09    3.10
  -3   4   1   54.19    3.00
   3   4  -1   58.09    3.20
   3   4  -1   58.29    3.70
  -3   4   1   51.69    3.50
   3   4  -1   56.09    3.30
  -2  -4   1    0.70    0.50
  -2  -4   1    0.40    0.60
   2   4  -1    0.70    0.50
  -2   4   1    2.50    0.80
  -1  -4   1   76.69    3.40
   1  -4  -1   86.09    3.50
  -1  -4   1   80.29    3.50
  -1   4   1   78.89    3.50
   1   4  -1   80.49    3.50
  -1   4   1   80.19    3.50
   0  -4   1  956.20   46.10
   0  -4   1 1155.08   46.10
   0   4   1 1103.59   46.00
   0   4  -1 1189.48   46.00
   1  -4   1   94.59    4.10
  -1  -4  -1   92.29    4.10
  -1   4  -1   94.49    4.00
  -1   4  -1   93.99    4.10
   1   4   1   90.39    4.10
   1   4   1   96.09    4.10
  -2  -4  -1   26.90    1.40
   2  -4   1   19.80    1.30
   2   4   1   21.60    1.40
  -2   4  -1   21.30    1.30
   2   4   1   23.00    1.40
   3  -4   1    8.90    1.60
   3  -4   1    8.80    1.70
   3  -4   1   10.60    2.50
   3  -4   1    9.50    2.10
   3  -4   1    8.80    2.30
  -3  -4  -1    9.60    2.70
  -3  -4  -1   10.10    1.80
   3  -4   1    6.10    2.10
   3   4   1    9.80    2.50
   3   4   1    8.40    2.10
   3   4   1   13.20    3.30
  -3   4  -1    7.80    1.60
   3   4   1    9.60    1.80
   3   4   1   10.30    1.70
   4  -4   1   46.70    2.50
   4  -4   1   49.50    2.80
   4  -4   1   49.40    3.30
   4  -4   1   50.19    3.00
   4   4   1   45.20    3.10
   4   4   1   44.50    2.50
   4   4   1   41.80    3.60
  -4   4  -1   53.69    3.30
   4   4   1   46.50    2.80
  -4  -5   1   19.90    2.10
   4  -5  -1   18.00    1.60
   4  -5  -1   17.00    1.50
  -4  -5   1   14.10    2.30
   4   5  -1   12.20    2.00
  -4   5   1   16.70    2.00
   4   5  -1   17.60    1.60
   3  -5  -1  134.89    6.30
   3  -5  -1  124.19    6.00
   3  -5  -1  125.79    6.00
  -3  -5   1  133.09    6.10
   3  -5  -1  128.89    5.90
   3   5  -1  129.39    6.30
   3   5  -1  118.49    6.10
  -3   5   1  128.39    6.00
   3   5  -1  134.19    6.10
  -3   5   1  125.99    6.30
   3   5  -1  131.19    6.00
  -3   5   1  137.69    6.50
   2  -5  -1 1204.78   50.59
  -2  -5   1 1196.78   50.59
  -2  -5   1 1232.08   50.49
  -2   5   1 1260.57   50.49
  -2   5   1 1183.28   50.49
   2   5  -1 1161.08   50.59
  -1  -5   1  607.44   25.70
   1  -5  -1  647.84   25.70
  -1  -5   1  593.24   25.70
  -1   5   1  622.24   25.70
  -1   5   1  599.14   25.70
   1   5  -1  614.84   25.80
   0  -5   1 1536.05   62.89
   0  -5   1 1402.66   62.79
   0   5  -1 1492.85   62.79
   0   5   1 1583.04   62.89
   1  -5   1   27.20    1.30
  -1  -5  -1   29.50    1.30
   1   5   1   27.10    1.40
  -1   5  -1   26.00    1.20
   1   5   1   27.40    1.30
  -1   5  -1   26.90    1.30
   2  -5   1  129.09    5.90
  -2  -5  -1  143.79    5.90
   2   5   1  128.79    5.90
  -2   5  -1  132.89    5.90
   2   5   1  130.59    5.90
   3  -5   1   35.60    2.30
  -3  -5  -1   31.50    2.40
   3  -5   1   33.30    3.00
   3  -5   1   31.60    3.30
   3  -5   1   28.50    2.40
  -3  -5  -1   32.40    3.00
   3  -5   1   33.90    2.70
   3  -5   1   29.20    2.50
   3   5   1   31.30    3.80
   3   5   1   30.30    2.40
   3   5   1   31.60    2.40
   3   5   1   30.10    2.90
   3   5   1   28.80    2.60
  -3   5  -1   31.00    2.20
   4  -5   1  125.59    5.90
   4  -5   1  115.89    5.30
   4  -5   1  119.39    5.50
   4   5   1  114.29    5.80
   4   5   1  123.99    5.60
   4   5   1  108.69    6.10
  -4   5  -1  111.89    5.80
   4   5   1  122.49    5.40
  -4  -6   1    2.20    1.30
   4  -6  -1    2.00    1.10
  -4  -6   1    1.90    1.70
   4  -6  -1    2.90    0.90
  -4   6   1    1.00    1.10
   4   6  -1    2.10    1.00
   3  -6  -1    8.40    1.90
  -3  -6   1    5.90    1.70
  -3  -6   1    5.20    2.70
   3  -6  -1    3.40    1.20
   3  -6  -1    7.00    1.70
   3   6  -1    5.30    1.50
  -3   6   1    9.10    1.60
   3   6  -1    6.10    2.60
   3   6  -1    5.40    1.80
   3   6  -1    4.70    1.30
   3   6  -1    5.30    1.70
  -3   6   1    7.60    1.80
  -2  -6   1    8.50    0.90
   2  -6  -1    8.60    0.90
  -2  -6   1   10.30    0.90
   2   6  -1    7.10    0.90
  -2   6   1    8.50    0.80
  -2   6   1    8.40    0.90
  -1  -6   1  648.94   27.40
  -1  -6   1  625.64   27.30
   1  -6  -1  685.73   27.40
  -1   6   1  640.34   27.30
   1   6  -1  658.33   27.40
  -1   6   1  658.13   27.30
   0  -6   1  111.49    5.00
   0  -6   1  117.59    4.90
   0   6   1  120.69    4.90
   0   6  -1  107.89    4.80
   0   6   1  116.09    4.90
  -1  -6  -1    2.70    0.40
   1  -6   1    2.80    0.50
   1   6   1    2.40    0.40
  -1   6  -1    3.50    0.40
   2  -6   1  331.37   14.70
  -2  -6  -1  342.77   14.60
   2   6   1  350.66   14.60
  -2   6  -1  353.26   14.60
   2   6   1  341.27   14.70
   3  -6   1   18.10    2.90
  -3  -6  -1   23.70    2.70
   3  -6   1   17.40    2.40
   3  -6   1   18.80    2.00
   3  -6   1   19.60    2.60
   3  -6   1   22.20    2.10
   3  -6   1   16.70    2.20
  -3  -6  -1   21.80    2.10
   3   6   1   18.80    2.30
   3   6   1   16.40    3.40
   3   6   1   22.50    2.10
   3   6   1   22.20    2.50
  -3   6  -1   20.40    1.90
   3   6   1   18.90    2.10
   4  -6   1   26.50    2.20
   4  -6   1   33.80    2.30
   4  -6   1   34.40    2.80
   4  -6   1   30.30    2.00
  -4   6  -1   31.30    2.90
   4   6   1   39.10    2.10
   4   6   1   34.60    2.30
   4   6   1   40.40    4.00
   4   6   1   37.10    2.70
  -4  -7   1    1.70    1.70
  -4  -7   1    2.10    1.30
   4  -7  -1    1.00    1.10
   4  -7  -1    1.70    0.80
  -4   7   1    0.10    1.10
   4   7  -1    2.20    1.00
   3  -7  -1  145.29    6.40
  -3  -7   1  141.89    6.50
   3  -7  -1  133.19    6.40
  -3  -7   1  139.29    6.60
   3  -7  -1  135.89    6.50
  -3   7   1  137.29    6.40
   3   7  -1  144.09    6.80
   3   7  -1  151.18    6.60
   3   7  -1  130.29    7.20
   3   7  -1  122.89    6.90
  -3   7   1  150.08    6.90
   3   7  -1  143.29    6.50
   2  -7  -1  305.37   12.90
  -2  -7   1  297.07   12.90
  -2  -7   1  308.97   12.80
  -2   7   1  291.77   12.80
   2   7  -1  296.07   12.90
  -2   7   1  310.27   12.80
   1  -7  -1  346.27   14.30
  -1  -7   1  344.67   14.30
  -1   7   1  327.97   14.30
  -1   7   1  339.17   14.30
   1   7  -1  345.97   14.20
   1   7  -1  332.07   14.30
   0  -7   1  189.18    7.80
   0  -7   1  176.78    7.90
   0   7   1  184.28    7.80
   0   7   1  189.78    7.80
   0   7  -1  179.98    7.70
   1  -7   1 1408.66   56.79
  -1  -7  -1 1370.06   56.79
  -1   7  -1 1351.36   56.69
   1   7   1 1286.67   56.79
   1   7   1 1372.76   56.69
  -2  -7  -1  198.58    8.50
   2  -7   1  195.68    8.50
   2   7   1  188.38    8.50
   2   7   1  196.68    8.50
  -2   7  -1  197.88    8.50
   3  -7   1   41.30    2.50
  -3  -7  -1   42.90    2.70
   3  -7   1   34.20    3.30
  -3  -7  -1   43.10    3.10
   3  -7   1   38.30    2.70
   3  -7   1   42.30    3.20
   3  -7   1   38.10    2.70
   3  -7   1   41.80    3.00
  -3   7  -1   41.80    2.60
   3   7   1   38.20    2.80
   3   7   1   42.00    2.80
   3   7   1   42.60    2.60
   3   7   1   38.20    3.20
   3   7   1   37.20    3.80
  -4  -7  -1   18.60    2.70
   4  -7   1   19.20    1.80
   4  -7   1   21.40    2.40
   4  -7   1   22.40    1.60
   4  -7   1   20.00    2.00
  -4   7  -1   19.90    2.20
   4   7   1   20.80    1.60
   4   7   1   20.30    2.00
   4   7   1   21.90    2.30
  -4  -8   1    0.10    1.50
  -4  -8   1    2.90    1.40
   4  -8  -1    2.30    0.90
   4  -8  -1    1.80    1.00
  -4   8   1    2.40    1.20
   4   8  -1    4.20    1.00
   3  -8  -1  473.45   19.30
  -3  -8   1  479.65   19.50
   3  -8  -1  470.15   19.50
  -3  -8   1  448.96   19.40
   3  -8  -1  419.06   19.30
   3   8  -1  465.55   19.30
  -3   8   1  462.45   19.30
   3   8  -1  405.86   19.50
   3   8  -1  473.35   19.50
  -3   8   1  410.96   19.40
   3   8  -1  455.75   19.60
  -2  -8   1  426.86   17.20
  -2  -8   1  417.86   17.40
   2  -8  -1  416.36   17.40
  -2   8   1  404.86   17.30
  -2   8   1  395.66   17.30
   2   8  -1  391.86   17.40
  -1  -8   1  956.40   39.80
   1  -8  -1 1004.10   39.80
   1   8  -1  960.20   39.80
   1   8  -1  939.81   39.70
  -1   8   1  955.10   39.80
  -1   8   1  889.71   39.70
   0  -8   1 1437.56   62.19
   0   8  -1 1432.26   62.09
   0   8   1 1532.55   62.09
   0   8   1 1548.35   62.09
  -1  -8  -1    0.20    0.30
   1  -8   1   -0.10    0.40
   1   8   1    0.90    0.40
  -1   8  -1    0.50    0.30
   1   8   1    0.00    0.30
  -2  -8  -1  204.98    8.80
   2  -8   1  202.38    8.80
   2   8   1  208.48    8.80
   2   8   1  199.18    8.90
  -2   8  -1  202.48    8.80
   3  -8   1   92.69    4.80
  -3  -8  -1  103.29    5.10
   3  -8   1   87.59    5.20
  -3  -8  -1   96.69    4.80
   3  -8   1   94.99    4.80
   3  -8   1   95.49    4.60
   3  -8   1   95.69    4.60
   3  -8   1   95.39    5.20
   3   8   1   92.19    4.80
  -3   8  -1   96.09    4.60
   3   8   1   81.39    4.70
   3   8   1   89.49    5.70
   3   8   1   98.19    4.60
   3   8   1   91.79    5.00
   4  -8   1   28.90    1.80
  -4  -8  -1   23.60    2.70
   4  -8   1   28.30    2.30
   4  -8   1   28.20    2.00
   4   8   1   28.30    2.10
  -4   8  -1   29.20    3.20
   4   8   1   31.00    2.40
   4   8   1   31.50    1.90
   4   8   1   25.00    3.50
   4  -9  -1    3.60    1.10
  -4  -9   1    3.00    1.40
  -4  -9   1    4.30    1.60
   4  -9  -1    2.70    0.90
   4   9  -1    6.60    1.20
  -3  -9   1   45.20    3.20
  -3  -9   1   48.90    2.90
   3  -9  -1   48.50    2.90
   3  -9  -1   42.80    2.60
   3  -9  -1   40.90    2.80
  -3   9   1   46.00    3.10
   3   9  -1   43.80    2.80
   3   9  -1   39.50    3.60
   3   9  -1   50.99    3.00
   3   9  -1   43.60    3.40
  -3   9   1   48.20    2.80
   2  -9  -1    4.00    0.80
  -2  -9   1    2.10    0.70
  -2  -9   1    0.90    0.60
  -2   9   1    2.60    0.70
   2   9  -1    2.40    0.70
  -1  -9   1  764.82   31.50
   1  -9  -1  763.62   31.50
  -1   9   1  712.23   31.40
   1   9  -1  753.72   31.40
  -1   9   1  754.52   31.50
   1   9  -1  758.12   31.50
   0  -9   1   16.40    0.90
   0  -9   1   16.50    1.00
   0   9  -1   15.60    0.80
   0   9   1   16.50    0.90
   0   9   1   15.50    0.90
  -1  -9  -1   40.70    1.90
   1  -9   1   40.90    1.90
  -1   9  -1   38.10    1.80
   1   9   1   38.40    1.80
   1   9   1   40.80    1.90
  -2  -9  -1   32.80    1.80
   2  -9   1   32.50    1.80
   2   9   1   31.60    1.90
  -2   9  -1   31.80    1.70
   2   9   1   31.70    1.80
   3  -9   1  114.59    6.00
   3  -9   1  115.89    5.70
   3  -9   1  116.09    5.80
   3  -9   1  114.99    5.50
   3  -9   1  116.69    5.40
  -3  -9  -1  111.99    5.70
  -3  -9  -1  122.99    5.90
   3  -9   1  122.59    5.70
   3   9   1  108.39    5.70
   3   9   1  113.99    5.60
   3   9   1  111.49    5.90
   3   9   1  106.99    6.30
   3   9   1  121.29    5.50
  -3   9  -1  123.29    5.60
   4  -9   1    1.80    0.90
  -4  -9  -1    2.60    1.90
   4  -9   1    1.80    1.10
   4   9   1    3.30    1.10
   4   9   1    2.80    1.20
   4   9   1   -0.20    1.80
   4   9   1    2.30    1.10
   4 -10  -1  106.19    5.00
  -4 -10   1  107.19    5.40
   4 -10  -1  117.69    5.10
  -4 -10   1  101.99    5.40
   4  10  -1  116.69    5.10
  -4  10   1  111.99    5.30
  -3 -10   1  203.18    8.90
   3 -10  -1  177.58    8.70
   3 -10  -1  199.18    8.60
  -3 -10   1  205.88    8.90
   3 -10  -1  210.18    8.90
  -3  10   1  183.08    8.90
   3  10  -1  199.98    8.70
   3  10  -1  197.58    9.10
   3  10  -1  179.58    9.20
   3  10  -1  199.18    8.90
  -3  10   1  188.08    8.70
   2 -10  -1  596.04   24.70
  -2 -10   1  579.14   24.70
  -2  10   1  575.64   24.60
   2  10  -1  589.44   24.80
  -1 -10   1  194.88    8.10
   1 -10  -1  191.88    8.00
  -1  10   1  189.68    8.00
   1  10  -1  186.48    8.10
   1  10  -1  186.48    8.00
  -1  10   1  183.58    8.00
   0 -10   1  585.84   24.40
   0 -10   1  585.34   24.40
   0  10   1  570.44   24.40
   0  10  -1  566.54   24.30
   0  10   1  601.04   24.40
  -1 -10  -1    2.00    0.40
   1 -10   1    3.10    0.50
   1  10   1    1.90    0.40
  -1  10  -1    2.60    0.40
   1  10   1    3.40    0.60
   2 -10   1    1.50    0.70
  -2 -10  -1    1.50    0.70
   2  10   1    1.20    0.80
   2  10   1    0.90    1.30
   2  10   1    0.10    0.70
  -3 -10  -1    8.70    2.40
   3 -10   1   13.40    2.70
   3 -10   1   10.20    1.80
   3 -10   1   12.20    2.50
   3 -10   1    9.90    2.30
   3 -10   1   11.60    2.10
   3 -10   1   11.60    1.70
  -3  10  -1   13.10    1.90
   3  10   1    8.10    2.30
   3  10   1   13.40    2.40
   3  10   1   15.40    2.40
   3  10   1   14.10    3.30
   3  10   1   13.70    1.90
   4 -10   1   31.00    1.80
   4 -10   1   24.50    2.50
   4 -10   1   29.20    2.20
  -4 -10  -1   31.50    2.80
   4 -10   1   29.60    2.00
   4  10   1   32.90    2.20
  -4  10  -1   30.30    2.60
   4  10   1   24.60    3.30
   4  10   1   26.20    2.40
   4 -11  -1   15.20    1.30
   4 -11  -1   12.90    1.50
  -4 -11   1   16.30    2.00
  -4 -11   1   12.40    2.00
  -4  11   1   11.00    1.90
   4  11  -1    9.20    2.30
   4  11  -1   15.30    1.40
  -3 -11   1   25.10    2.10
   3 -11  -1   19.90    2.30
   3 -11  -1   22.00    2.20
   3 -11  -1   20.10    1.80
  -3 -11   1   17.00    2.70
   3  11  -1   20.00    3.00
  -3  11   1   21.20    2.20
  -3  11   1   23.40    2.50
   3  11  -1   21.90    2.30
   3  11  -1   13.40    3.10
   3  11  -1   23.00    2.10
  -2 -11   1  456.75   18.90
  -2 -11   1  423.16   18.60
   2 -11  -1  449.46   18.60
  -2  11   1  425.76   18.50
   2  11  -1  436.46   18.70
   1 -11  -1    3.60    0.60
  -1 -11   1    2.70    0.50
  -1  11   1    3.50    0.50
  -1  11   1    2.10    0.40
   1  11  -1    3.30    0.50
   1  11  -1    3.30    0.60
   0 -11   1  118.39    5.30
   0 -11  -1  126.79    5.30
   0 -11   1  127.79    5.20
   0  11  -1  117.69    5.20
   0  11   1  122.39    5.30
   1 -11   1  134.49    5.70
  -1 -11  -1  132.29    5.70
   1  11   1  127.39    5.70
   1  11   1  128.59    5.60
  -1  11  -1  132.09    5.60
  -2 -11  -1    6.40    1.00
   2 -11   1    4.70    1.00
  -2  11  -1    6.20    0.80
   2  11   1    7.10    1.80
   2  11   1    9.50    1.10
   2  11   1    7.30    1.10
   3 -11   1    2.40    1.60
  -3 -11  -1    0.50    1.70
   3 -11   1    1.70    1.20
   3 -11   1    1.70    1.60
   3 -11   1    3.00    1.20
  -3 -11  -1    2.30    1.90
   3 -11   1    1.80    1.60
   3 -11   1    0.30    1.90
   3  11   1    3.90    1.70
  -3  11  -1   -0.30    1.10
   3  11   1    0.40    1.90
   3  11   1    2.00    1.60
   3  11   1    4.60    2.20
   3  11   1    0.90    1.40
  -4 -11  -1   34.10    2.90
   4 -11   1   33.80    2.20
   4 -11   1   32.60    2.50
   4 -11   1   36.20    2.30
   4 -11   1   39.80    2.10
  -4  11  -1   33.40    2.70
   4  11   1   35.50    3.40
   4  11   1   40.90    2.60
   4  11   1   37.80    2.80
   4  11   1   31.80    2.10
   4 -12  -1    1.10    0.70
  -4 -12   1    1.30    1.40
  -4 -12   1    0.10    1.30
   4  12  -1    1.70    0.90
   4  12  -1   -0.70    1.60
   3 -12  -1  122.59    6.10
  -3 -12   1  130.99    6.30
   3 -12  -1  131.39    6.00
  -3 -12   1  130.19    6.40
   3 -12  -1  125.69    6.30
   3  12  -1  141.39    6.10
  -3  12   1  119.09    6.30
   3  12  -1  132.19    6.40
   3  12  -1  130.59    6.60
  -3  12   1  142.99    6.20
   3  12  -1  131.59    6.50
  -2 -12   1   61.39    3.00
  -2 -12   1   62.69    3.50
   2 -12  -1   63.39    3.10
  -2  12   1   60.19    2.90
   2  12  -1   65.19    3.10
   1 -12  -1    5.20    0.60
  -1 -12   1    4.80    0.50
  -1  12   1    4.50    0.50
  -1  12   1    4.40    0.50
   1  12  -1    5.40    0.60
   0 -12  -1   20.10    1.00
   0 -12   1   19.60    1.00
   0 -12   1   20.10    1.10
   0  12   1   18.50    1.00
   0  12  -1   18.00    1.00
   0  12  -1   19.20    1.10
  -1 -12  -1  328.27   14.10
   1 -12   1  336.57   14.10
   1  12   1  336.47   14.00
  -1  12  -1  335.47   14.00
   1  12   1  324.07   14.10
  -2 -12  -1  142.39    6.30
   2 -12   1  146.19    6.30
   2  12   1  133.49    6.40
   2  12   1  147.49    6.30
   2  12   1  139.49    6.50
  -2  12  -1  140.99    6.20
  -3 -12  -1   56.29    3.60
  -3 -12  -1   56.59    3.80
   3 -12   1   52.49    3.00
   3 -12   1   51.89    3.40
   3 -12   1   52.09    3.00
   3 -12   1   54.59    3.40
   3 -12   1   55.69    3.60
   3  12   1   55.29    3.50
   3  12   1   54.89    3.70
   3  12   1   58.09    3.10
   3  12   1   46.60    3.70
   3  12   1   55.99    4.20
  -3  12  -1   57.09    3.20
  -4 -12  -1   13.80    2.30
   4 -12   1   14.80    1.70
   4 -12   1   16.50    1.50
   4 -12   1   15.20    1.80
   4  12   1   12.60    1.40
   4  12   1   14.30    2.80
   4 -13  -1   98.59    4.40
   4 -13  -1   90.49    4.40
  -4 -13   1   89.59    4.70
   4  13  -1   96.39    4.50
   4  13  -1   92.79    4.90
  -4  13   1   99.89    4.80
   3 -13  -1    1.50    1.70
  -3 -13   1   -1.80    2.00
  -3 -13   1    0.90    1.30
   3 -13  -1   -1.80    1.60
   3 -13  -1    2.20    1.10
  -3  13   1    1.60    1.60
   3  13  -1   -0.70    1.80
   3  13  -1    2.40    2.00
   3  13  -1    1.80    1.30
  -3  13   1    1.80    1.50
   3  13  -1    3.00    1.60
   2 -13  -1 1605.34   66.99
  -2 -13   1 1738.13   67.19
  -2 -13   1 1494.45   66.99
  -2  13   1 1578.94   66.99
   2  13  -1 1580.74   67.09
   1 -13  -1 1491.05   61.89
  -1 -13   1 1515.75   61.89
  -1  13   1 1415.36   61.79
   1  13  -1 1465.25   61.89
  -1  13   1 1487.65   61.89
   1  13  -1 1509.55   61.99
   0 -13   1  536.05   21.70
   0 -13  -1  519.25   21.70
   0  13  -1  513.45   21.70
   0  13  -1  500.25   21.80
   0  13   1  520.65   21.80
  -1 -13  -1  342.47   14.20
   1 -13   1  328.87   14.20
   1  13   1  320.67   14.20
  -1  13  -1  337.37   14.10
   1  13   1  338.47   14.10
   2 -13   1  589.54   24.30
  -2 -13  -1  551.84   24.20
   2  13   1  580.44   24.40
  -2  13  -1  571.04   24.20
   2  13   1  575.74   24.40
   2  13   1  567.44   24.20
   3 -13   1   77.99    4.20
   3 -13   1   80.09    3.90
   3 -13   1   80.39    4.30
  -3 -13  -1   82.89    4.40
  -3 -13  -1   78.69    4.60
   3 -13   1   75.69    4.30
   3 -13   1   73.99    3.90
   3  13   1   77.49    4.40
   3  13   1   78.29    4.00
  -3  13  -1   74.09    4.10
   3  13   1   74.99    4.90
   3  13   1   65.79    4.70
   3  13   1   77.59    4.20
   4 -13   1  171.48    8.00
   4 -13   1  183.58    7.80
   4 -13   1  168.08    7.70
   4 -13   1  179.58    7.80
  -4 -13  -1  174.88    8.20
  -4  13  -1  178.48    8.00
   4  13   1  182.68    8.10
   4  13   1  178.58    7.70
   4  13   1  167.18    8.30
   4  13   1  180.98    7.90
  -4 -14   1   80.19    4.10
   4 -14  -1   76.79    3.80
   4 -14  -1   90.69    3.90
  -4 -14   1   69.79    4.00
   4  14  -1   74.99    4.40
  -4  14   1   70.99    4.10
   4  14  -1   89.29    4.00
  -3 -14   1   -0.70    2.10
   3 -14  -1    3.30    1.80
  -3 -14   1    2.50    1.40
   3 -14  -1    0.80    1.90
   3 -14  -1    4.00    1.10
   3  14  -1    2.60    1.30
   3  14  -1    4.20    1.80
  -3  14   1    4.10    1.60
   3  14  -1    3.40    1.80
   3  14  -1    1.90    1.90
  -3  14   1    4.10    1.60
  -2 -14   1   34.40    2.50
   2 -14  -1   34.40    1.90
  -2 -14   1   29.50    1.80
   2  14  -1   30.40    1.90
  -2  14   1   30.00    1.70
  -1 -14   1  418.86   17.40
   1 -14  -1  426.56   17.30
  -1  14   1  404.46   17.30
  -1  14   1  420.46   17.30
   1  14  -1  411.66   17.40
   1  14  -1  379.16   17.30
   0 -14  -1 2098.39   86.49
   0 -14   1 2085.89   86.49
   0  14   1 2098.09   86.49
   0  14  -1 1997.40   86.39
   0  14  -1 2075.89   86.49
   1 -14   1  265.67   11.10
  -1 -14  -1  263.97   11.10
  -1  14  -1  259.77   11.00
   1  14   1  257.27   11.00
   1  14   1  248.48   11.10
   2 -14   1  307.57   13.00
  -2 -14  -1  296.37   12.90
   2  14   1  304.77   13.10
  -2  14  -1  303.97   12.90
   2  14   1  297.07   13.10
   2  14   1  291.27   12.90
   3 -14   1   56.99    3.50
  -3 -14  -1   60.09    3.70
   3 -14   1   56.49    3.80
  -3 -14  -1   58.59    4.20
   3 -14   1   62.29    3.70
  -3 -14  -1   52.09    4.60
   3 -14   1   59.19    3.10
   3 -14   1   58.59    3.20
   3  14   1   57.99    4.20
  -3  14  -1   60.29    3.40
   3  14   1   57.99    3.30
   3  14   1   52.19    3.70
   3  14   1   61.59    3.60
   4 -14   1   90.99    4.20
   4 -14   1   93.99    4.50
  -4 -14  -1   85.49    4.60
   4 -14   1   90.59    4.20
   4 -14   1   89.89    4.20
   4  14   1  100.09    4.40
   4  14   1   87.49    4.50
   4  14   1   82.49    5.00
   4  14   1   87.49    4.10
  -4 -15   1    1.90    1.30
  -4 -15   1    1.50    1.30
   4 -15  -1    2.40    1.10
   4  15  -1    1.80    0.90
  -4  15   1    2.00    1.20
   4  15  -1    0.30    1.60
  -3 -15   1    3.90    2.20
  -3 -15   1    8.10    1.80
   3 -15  -1    3.20    2.30
   3 -15  -1    6.30    1.80
   3 -15  -1    7.90    1.40
   3  15  -1    3.20    1.70
  -3  15   1    5.10    1.60
   3  15  -1    2.80    1.80
   3  15  -1    5.70    1.40
   3  15  -1    3.00    1.90
  -3  15   1    4.10    1.70
  -2 -15   1   11.00    1.90
   2 -15  -1    8.20    1.20
  -2 -15   1    8.00    1.10
   2  15  -1    8.60    1.20
  -2  15   1    9.00    1.00
   1 -15  -1    2.10    0.60
  -1 -15   1    3.90    0.60
   1 -15  -1    1.00    0.40
   1  15  -1    2.10    0.60
  -1  15   1    2.50    0.50
  -1  15   1    1.80    0.50
   1  15  -1    2.00    0.60
   0 -15  -1  125.79    5.80
   0 -15   1  136.09    5.80
   0  15  -1  136.59    5.80
   0  15   1  137.09    5.80
   0  15  -1  134.79    5.70
  -1 -15  -1  347.27   17.40
   1 -15   1  442.16   17.40
   1  15   1  413.66   17.40
   1  15   1  421.26   17.30
  -1  15  -1  427.16   17.30
   2 -15   1   43.90    2.40
  -2 -15  -1   42.60    2.40
   2  15   1   45.20    2.60
  -2  15  -1   45.90    2.30
   2  15   1   41.50    2.60
   2  15   1   43.30    2.40
   3 -15   1   19.60    2.60
   3 -15   1   23.50    2.00
  -3 -15  -1   25.20    2.50
   3 -15   1   20.60    2.30
  -3 -15  -1   16.50    3.50
   3 -15   1   20.10    2.30
  -3 -15  -1   18.10    3.70
   3 -15   1   21.20    1.80
  -3  15  -1   23.70    2.30
   3  15   1   24.80    2.10
   3  15   1   20.80    2.30
   3  15   1   26.10    2.60
   3  15   1   20.80    3.30
  -4 -15  -1    1.70    1.50
   4 -15   1    1.60    0.80
   4 -15   1    0.40    0.80
   4 -15   1    0.50    1.00
   4  15   1   -1.50    1.70
   4  15   1    2.10    1.00
   4  15   1    0.90    0.90
   4  15   1    0.70    1.10
  -4 -16   1    4.10    1.40
   4 -16  -1    6.40    1.30
   4 -16  -1    4.00    1.00
  -4 -16   1    4.80    1.30
  -4  16   1    6.30    1.80
   4  16  -1    3.90    1.70
   4  16  -1    4.70    1.10
   3 -16  -1  342.47   14.60
  -3 -16   1  366.86   15.00
  -3 -16   1  344.57   15.00
   3 -16  -1  315.47   15.00
  -3  16   1  316.37   14.80
  -3  16   1  333.37   14.80
   3  16  -1  354.96   14.80
   3  16  -1  340.37   15.00
   3  16  -1  353.66   15.00
  -2 -16   1    3.50    1.40
  -2 -16   1    5.20    1.00
   2 -16  -1    4.40    1.20
  -2  16   1    4.00    0.90
   2  16  -1    5.20    1.10
  -1 -16   1  374.06   16.20
   1 -16  -1  391.66   15.90
   1 -16  -1  365.66   15.90
   1  16  -1  395.36   16.00
   1  16  -1  362.86   15.90
  -1  16   1  374.26   15.90
   0 -16  -1   10.40    0.80
   0 -16   1   10.00    0.80
   0  16  -1   10.70    0.80
   0  16  -1    9.80    0.80
   0  16   1    9.80    0.80
  -1 -16  -1  286.87   12.70
  -1  16  -1  309.87   12.70
   1  16   1  295.57   12.60
   1  16   1  303.67   13.00
  -2 -16  -1    9.60    1.20
   2 -16   1   12.50    1.30
   2  16   1    9.70    1.40
   2  16   1    8.20    1.50
   2  16   1    9.10    1.60
  -2  16  -1    8.40    1.00
   3 -16   1  317.57   14.20
   3 -16   1  343.77   14.70
  -3 -16  -1  353.16   14.50
   3 -16   1  337.87   14.40
   3 -16   1  327.67   14.10
  -3 -16  -1  321.27   14.70
   3 -16   1  331.37   14.10
   3  16   1  298.07   14.40
   3  16   1  325.57   14.30
   3  16   1  322.97   14.10
   3  16   1  323.57   14.70
  -4 -16  -1    5.50    1.50
   4 -16   1    6.60    1.70
   4 -16   1    6.30    1.50
   4 -16   1    4.10    1.10
   4 -16   1    5.40    1.10
   4  16   1    5.20    1.20
   4  16   1    4.10    1.70
   4  16   1    5.40    1.20
   4  16   1    6.90    1.40
   4 -17  -1   17.80    1.30
  -4 -17   1   16.10    2.00
  -4 -17   1   15.90    1.80
   4 -17  -1   14.70    2.70
   4  17  -1   15.50    2.30
   4  17  -1   13.80    1.30
  -4  17   1   19.80    2.00
  -3 -17   1    6.80    1.80
  -3 -17   1    2.80    2.20
   3 -17  -1    5.90    1.30
  -3  17   1    5.50    1.70
   3  17  -1    4.10    2.00
   3  17  -1    7.10    1.90
  -3  17   1    7.50    2.30
   3  17  -1    0.90    2.10
   3  17  -1    7.40    1.70
   2 -17  -1  226.48    9.80
  -2 -17   1  215.48    9.80
  -2 -17   1  242.38   10.10
   2  17  -1  217.68    9.90
  -2  17   1  225.38    9.80
   1 -17  -1  528.35   21.10
  -1 -17   1  491.05   21.10
   1 -17  -1  497.25   21.00
  -1  17   1  496.35   21.10
   1  17  -1  510.15   21.00
   1  17  -1  476.35   21.50
   0 -17   1  330.77   14.10
   0 -17  -1  334.37   14.10
   0  17   1  340.97   14.10
   0  17  -1  332.17   14.10
   0  17  -1  327.87   14.10
   1 -17   1    0.80    0.60
  -1 -17  -1    0.50    0.50
  -1  17  -1    1.20    0.50
   1  17   1    0.30    0.60
   2 -17   1  211.88    9.10
  -2 -17  -1  197.08    9.00
  -2  17  -1  209.68    8.90
   2  17   1  203.78    9.20
   2  17   1  203.88    9.10
  -3 -17  -1    2.10    1.60
   3 -17   1    2.70    1.20
   3 -17   1    1.30    1.30
   3 -17   1    0.80    1.30
   3  17   1    1.90    1.70
   3  17   1    0.10    1.70
   3  17   1   -0.10    2.00
   3  17   1    1.80    1.60
   4 -17   1   14.40    1.70
   4 -17   1   14.60    1.70
   4 -17   1   12.50    1.20
  -4 -17  -1   12.70    1.90
   4 -17   1   15.60    1.30
   4  17   1   15.50    1.60
   4  17   1   12.30    1.70
   4  17   1   13.20    1.40
   4  17   1    9.20    2.50
   4 -18  -1   13.60    1.10
  -4 -18   1   11.70    1.70
  -4 -18   1   12.40    1.90
   4  18  -1    9.10    2.20
  -4  18   1   14.30    1.90
   4  18  -1   12.60    1.20
   3 -18  -1    5.70    1.30
  -3 -18   1    5.40    1.80
   3  18  -1    6.60    1.70
  -3  18   1    5.90    1.60
   3  18  -1    8.70    2.70
   3  18  -1    5.00    2.00
  -2 -18   1   52.19    3.00
   2 -18  -1   47.50    2.70
  -2 -18   1   43.70    2.50
   2  18  -1   46.80    2.60
  -2  18   1   44.90    2.40
   1 -18  -1   29.70    1.50
   1 -18  -1   28.10    1.60
  -1 -18   1   28.10    1.60
   1  18  -1   27.60    1.60
  -1  18   1   27.50    1.50
   1  18  -1   28.20    1.60
   0 -18   1  682.83   29.50
   0 -18  -1  712.93   29.50
   0  18  -1  694.53   29.50
   0  18  -1  712.23   29.60
   0  18   1  710.33   29.50
  -1 -18  -1   86.49    4.00
   1 -18   1   88.09    4.00
   1  18   1   89.49    4.10
  -1  18  -1   87.59    3.90
   2 -18   1   14.80    1.50
  -2 -18  -1   12.80    1.40
  -2  18  -1   14.50    1.30
   2  18   1   17.00    1.70
   2  18   1   12.90    1.90
   3 -18   1   11.00    2.70
   3 -18   1   10.80    1.40
  -3 -18  -1    8.90    2.10
   3 -18   1   11.20    1.70
   3 -18   1   11.80    2.00
   3  18   1    7.80    1.60
   3  18   1    6.90    1.80
   3  18   1    7.40    2.60
   3  18   1    9.70    2.00
   4 -18   1    3.50    1.00
   4 -18   1    7.20    1.50
  -4 -18  -1    4.80    1.80
   4 -18   1    4.80    1.10
   4 -18   1    4.90    1.00
   4  18   1    4.70    1.20
   4  18   1    5.80    1.40
   4  18   1    5.50    1.20
   4  18   1    1.00    1.70
   4 -19  -1   50.19    2.30
  -4 -19   1   48.90    2.80
  -4 -19   1   41.30    2.80
   4  19  -1   47.40    2.40
   4  19  -1   44.70    2.90
  -3 -19   1   17.80    2.00
  -3 -19   1   12.50    4.70
   3  19  -1   18.10    2.10
  -3  19   1   18.10    3.40
   3  19  -1   17.60    3.10
   2 -19  -1  928.71   38.40
  -2 -19   1  920.01   38.50
  -2 -19   1  882.71   38.40
  -2  19   1  925.11   38.40
   2  19  -1  900.71   38.50
   1 -19  -1  313.27   13.10
  -1 -19   1  311.67   13.10
   1  19  -1  306.07   13.10
  -1  19   1  294.77   13.10
   1  19  -1  311.57   13.20
   0 -19   1    0.70    0.60
   0 -19  -1   -0.50    0.40
   0  19   1    0.20    0.30
   0  19  -1    0.60    0.50
   0  19  -1    0.70    0.50
  -1 -19  -1    1.20    0.60
   1 -19   1    1.90    0.70
  -1  19  -1    2.30    0.60
   1  19   1    3.00    0.90
  -2 -19  -1  418.66   18.40
   2 -19   1  440.06   18.40
  -2  19  -1  437.36   18.30
   2  19   1  418.96   18.60
   2  19   1  429.66   18.40
   3 -19   1    4.10    1.00
   3 -19   1    3.90    1.40
   3 -19   1    3.30    1.40
   3 -19   1    5.50    1.30
  -3 -19  -1    4.70    1.50
   3  19   1    4.70    1.90
   3  19   1    5.20    1.60
   3  19   1    2.80    1.30
   3  19   1   -1.20    2.10
  -4 -19  -1   72.39    3.50
   4 -19   1   67.99    3.10
   4 -19   1   61.59    3.10
   4 -19   1   64.89    3.20
   4 -19   1   67.19    3.30
   4  19   1   63.49    3.30
   4  19   1   60.99    3.90
   4  19   1   57.69    3.10
   4  19   1   63.89    3.20
  -4 -20   1  107.29    4.90
   4 -20  -1  108.79    4.60
   4  20  -1   95.49    4.90
   4  20  -1  100.59    4.60
  -4  20   1   97.89    4.90
  -3 -20   1  490.65   19.00
  -3 -20   1  424.16   19.50
   3 -20  -1  416.46   18.60
   3  20  -1  445.06   19.00
   3  20  -1  453.05   18.80
  -3  20   1  399.56   18.80
  -2 -20   1    2.30    1.00
  -2 -20   1    2.60    1.20
   2  20  -1    0.60    1.10
  -2  20   1    0.80    0.80
  -1 -20   1  198.08    8.70
   1  20  -1  201.88    8.90
   1  20  -1  205.08    8.80
  -1  20   1  201.08    8.70
   0 -20  -1   82.69    3.70
   0 -20   1   82.89    3.70
   0  20  -1   84.69    3.70
   0  20  -1   83.89    3.80
   0  20   1   78.09    3.70
  -1 -20  -1  164.48    7.70
   1 -20   1  182.58    7.80
  -1  20  -1  179.68    7.60
   1  20   1  176.88    7.80
   2 -20   1    1.80    1.20
  -2 -20  -1    4.00    1.10
   2  20   1    2.10    1.60
  -2  20  -1    1.60    0.80
   2  20   1    3.10    1.10
  -3 -20  -1  248.48   10.50
   3 -20   1  227.98   10.20
   3 -20   1  237.88   10.10
   3 -20   1  235.88   10.40
   3 -20   1  233.78   10.20
   3  20   1  226.28   10.50
   3  20   1  214.08   10.80
   3  20   1  232.98   10.30
   4 -20   1    5.00    1.10
   4 -20   1    3.00    0.70
   4 -20   1    4.10    1.30
  -4 -20  -1    5.00    1.60
   4  20   1    2.00    0.90
   4  20   1    2.90    1.00
  -4 -21   1   24.30    2.00
   4 -21  -1   23.30    1.40
   4  21  -1   20.90    1.40
  -4  21   1   20.40    2.10
   4  21  -1   15.30    2.00
  -3 -21   1   22.00    2.00
  -3 -21   1   16.30    3.70
   3 -21  -1   20.50    1.70
   3  21  -1   18.20    1.90
   3  21  -1   13.00    2.60
  -3  21   1   15.40    2.60
  -2 -21   1  152.78    7.10
   2  21  -1  162.28    7.20
  -1 -21   1   26.10    1.60
   1  21  -1   26.60    1.70
  -1  21   1   27.20    1.50
   0 -21   1 1173.28   47.40
   0  21  -1 1173.98   47.40
   0  21   1 1069.79   47.40
   0  21  -1 1108.69   47.50
   1 -21   1   30.50    1.90
  -1 -21  -1   27.50    1.70
   1  21   1   32.30    1.90
  -1  21  -1   31.50    1.70
   2 -21   1   75.89    4.60
  -2 -21  -1   73.69    3.80
   2 -21   1   79.99    4.50
   2 -21   1   80.09    4.60
  -2  21  -1   76.99    3.70
   2  21   1   69.69    4.30
   2  21   1   75.49    3.90
   3 -21   1   33.40    2.30
  -3 -21  -1   37.20    2.60
   3 -21   1   32.20    2.40
   3 -21   1   35.50    2.50
   3 -21   1   32.50    2.10
   3  21   1   30.50    2.40
   3  21   1   32.40    2.80
   3  21   1   25.90    3.50
   4 -21   1   66.39    3.20
   4 -21   1   61.29    3.00
   4 -21   1   63.89    3.00
  -4 -21  -1   71.19    3.40
   4  21   1   58.39    3.10
   4  21   1   59.49    3.10
   4 -22  -1   67.59    3.00
  -4 -22   1   68.89    3.40
   4  22  -1   59.29    3.00
   4  22  -1   63.29    3.40
   3 -22  -1  112.09    5.00
  -3 -22   1  114.49    5.30
  -3 -22   1  107.09    6.20
   3  22  -1  114.29    5.60
   3  22  -1  109.89    5.10
  -3  22   1   91.09    5.50
  -2 -22   1  134.89    6.10
  -2 -22   1  129.09    6.10
   2  22  -1  125.59    6.80
  -2  22   1  136.39    6.00
  -1 -22   1   90.49    4.40
  -1  22   1   96.89    4.30
   1  22  -1  100.39    4.50
   0 -22  -1  748.53   33.00
   0 -22   1  834.52   33.00
   0  22  -1  760.72   33.00
   0  22   1  744.63   33.00
   0  22  -1  838.52   33.00
  -1 -22  -1    0.40    0.60
   1 -22   1    1.40    0.90
   1  22   1   -0.20    1.20
  -1  22  -1    1.40    0.60
   2 -22   1   44.40    2.70
   2 -22   1   49.50    2.90
  -2 -22  -1   52.89    2.80
   2 -22   1   43.50    3.20
   2 -22   1   57.29    3.60
   2  22   1   49.40    2.80
  -2  22  -1   50.69    2.60
   2  22   1   44.30    3.50
   2  22   1   35.90    4.30
   2  22   1   47.60    3.90
   2  22   1   38.70    4.80
   3 -22   1   89.49    4.50
   3 -22   1   87.09    4.40
   3 -22   1   92.79    4.30
  -3 -22  -1   94.69    4.60
   3 -22   1   85.69    4.30
   3  22   1   87.99    4.70
   3  22   1   84.69    4.50
  -4 -22  -1   13.00    1.70
   4 -22   1   11.20    1.00
   4 -22   1   11.80    1.20
   4 -22   1   10.00    1.10
   4  22   1   11.80    1.50
   4  22   1   10.60    1.20
   4 -23  -1  121.79    4.90
  -4 -23   1  122.29    5.20
   4  23  -1   99.09    4.90
   4  23  -1  103.09    5.20
  -3 -23   1    0.80    1.20
  -3 -23   1   -0.40    2.30
   3 -23  -1    1.60    1.40
   3 -23  -1   -0.90    0.90
   3  23  -1   -0.80    1.10
   3  23  -1   -1.50    1.60
  -3  23   1    1.00    2.50
  -2 -23   1  157.88    7.80
  -2 -23   1  148.89    6.80
  -2  23   1  153.28    6.70
   2  23  -1  140.99    7.20
   2  23  -1  143.79    7.00
   2  23  -1  145.89    7.00
  -1 -23   1  160.28    7.20
   1  23  -1  163.98    7.30
  -1  23   1  166.18    7.20
   0 -23   1  160.68    6.60
   0 -23  -1  149.29    6.60
   0  23  -1  151.28    6.70
   0  23   1  143.99    6.60
  -1 -23  -1   66.99    3.30
   1 -23   1   76.49    3.50
   1  23   1   63.09    3.60
  -1  23  -1   69.79    3.30
   1  23   1   69.09    3.50
   2 -23   1  130.19    6.20
   2 -23   1  139.39    6.40
   2 -23   1  132.29    6.40
   2 -23   1  135.49    6.40
   2 -23   1  127.29    6.30
  -2 -23  -1  134.49    6.30
   2  23   1  129.29    7.20
   2  23   1  140.79    6.30
   2  23   1  129.69    6.80
   2  23   1  137.49    7.10
   2  23   1  127.19    6.70
   2  23   1  138.39    6.50
  -2  23  -1  142.19    6.20
   3 -23   1   25.30    1.80
   3 -23   1   26.80    2.00
   3 -23   1   24.50    2.30
   3 -23   1   27.80    2.20
   3  23   1   23.70    2.20
   3  23   1   28.70    2.70
   4 -23   1    7.40    1.20
  -4 -23  -1    5.30    1.30
   4 -23   1    5.60    1.50
   4 -23   1    7.00    0.90
   4  23   1    4.90    1.60
   4  23   1    5.70    1.10
   4 -24  -1   78.39    3.20
  -4 -24   1   70.79    3.50
   4  24  -1   62.49    3.20
   4  24  -1   67.59    3.60
  -3 -24   1   23.80    3.40
   3 -24  -1   27.90    1.90
   3 -24  -1   22.00    2.40
   3  24  -1   28.40    2.00
   3  24  -1   26.40    2.60
  -2 -24   1   99.19    4.80
   2 -24  -1   88.29    4.80
   2 -24  -1   91.39    5.10
  -2 -24   1  108.79    6.00
  -2 -24   1  103.09    4.90
   2  24  -1  105.39    5.10
  -2  24   1  103.29    4.80
   2  24  -1   93.69    5.30
   2  24  -1  101.09    5.10
  -1 -24   1  164.98    7.40
  -1  24   1  165.78    7.30
   1  24  -1  171.58    7.50
   0 -24  -1   42.20    2.20
   0  24  -1   42.80    2.20
   0  24  -1   41.90    2.20
   0  24   1   43.10    2.20
   1 -24   1  257.17   10.40
  -1 -24  -1  228.98   10.30
   1  24   1  215.58   10.40
  -1  24  -1  239.88   10.20
   1  24   1  244.18   10.50
   2 -24   1    0.20    1.20
  -2 -24  -1   -1.00    1.30
   2 -24   1    1.00    1.70
   2 -24   1    1.60    1.30
   2 -24   1    1.00    1.60
   2 -24   1    1.50    1.80
   2  24   1    1.20    1.20
   2  24   1    1.00    2.20
   2  24   1   -2.60    1.70
  -2  24  -1    0.20    1.10
   2  24   1    0.40    2.10
   2  24   1    1.00    2.00
   3 -24   1   66.69    3.50
   3 -24   1   69.99    3.70
   3 -24   1   70.29    3.60
   3 -24   1   70.39    3.40
  -3 -24  -1   63.59    3.70
   3  24   1   70.19    4.00
   3  24   1   65.69    3.60
  -4 -24  -1   42.00    2.50
   4 -24   1   41.60    2.10
   4 -24   1   40.80    2.10
   4 -24   1   44.90    2.30
   4  24   1   43.30    2.30
   4  24   1   40.00    2.40
  -4 -25   1    4.10    1.20
   4 -25  -1    2.80    0.80
   4  25  -1    2.10    1.20
   4  25  -1    2.60    0.80
  -3 -25   1   11.70    2.90
   3 -25  -1   13.30    2.10
  -3 -25   1    9.00    1.70
   3 -25  -1   11.80    1.40
   3  25  -1   11.30    2.40
   3  25  -1   15.20    1.70
  -2 -25   1  190.98    8.80
   2 -25  -1  152.38    7.80
   2 -25  -1  157.18    8.00
  -2 -25   1  176.28    7.90
  -2 -25   1  174.88    7.90
  -2  25   1  178.08    7.80
   2  25  -1  178.08    8.10
   2  25  -1  179.88    8.00
   2  25  -1  173.28    8.10
  -1 -25   1  993.50   41.40
   1  25  -1 1002.30   41.40
  -1  25   1  952.80   41.30
   0 -25  -1   15.80    1.30
   0  25   1   16.90    1.30
   0  25  -1   16.20    1.40
   0  25  -1   18.20    1.40
  -1 -25  -1  172.28    7.50
   1 -25   1  179.08    7.60
   1  25   1  150.88    7.50
  -1  25  -1  172.78    7.40
   1  25   1  160.68    7.60
   2 -25   1  119.19    5.80
   2 -25   1  126.29    6.20
   2 -25   1  118.99    5.60
  -2 -25  -1  120.99    5.90
   2 -25   1  112.69    5.90
   2 -25   1  117.59    5.70
   2  25   1  119.09    6.60
   2  25   1  122.29    6.40
   2  25   1  112.29    6.30
   2  25   1  127.89    5.90
   2  25   1  126.09    5.70
  -2  25  -1  127.39    5.70
   2  25   1  112.49    6.60
   3 -25   1   29.90    2.10
   3 -25   1   29.70    2.20
  -3 -25  -1   26.50    3.80
   3 -25   1   30.60    1.90
   3 -25   1   27.20    2.10
  -3 -25  -1   25.60    2.30
   3  25   1   29.80    2.70
   3  25   1   27.70    2.20
  -4 -25  -1   15.00    1.70
   4 -25   1   14.20    1.30
   4 -25   1   16.10    1.30
   4 -25   1   15.90    1.10
   4  25   1   14.60    1.20
   4 -26  -1   56.09    2.50
  -4 -26   1   56.39    2.90
   4  26  -1   48.40    2.50
   4  26  -1   58.09    2.90
   3 -26  -1    1.00    0.90
  -3 -26   1    0.50    1.20
  -3 -26   1    0.30    2.00
   3 -26  -1    0.80    1.30
   3  26  -1    0.20    1.50
   3  26  -1    0.20    1.10
   2 -26  -1   10.20    2.20
  -2 -26   1   11.80    2.00
  -2 -26   1   11.90    2.90
  -2 -26   1   11.30    2.00
   2 -26  -1   10.10    2.30
   2  26  -1   10.70    2.50
   2  26  -1   11.10    2.30
   2  26  -1   11.20    2.80
  -2  26   1   13.20    1.90
  -1 -26   1  418.56   18.00
   1  26  -1  428.36   18.00
  -1  26   1  416.86   17.90
   0 -26  -1   12.70    1.10
   0  26  -1    9.70    1.40
   0  26  -1    7.60    1.20
   0  26   1   10.20    1.10
  -1 -26  -1   14.80    1.50
   1 -26   1   13.00    1.60
   1  26   1   12.50    1.80
  -1  26  -1   15.00    1.30
   1  26   1    8.40    2.00
   2 -26   1   55.69    3.30
   2 -26   1   57.59    3.40
  -2 -26  -1   67.49    4.80
  -2 -26  -1   58.29    3.50
   2 -26   1   56.29    3.10
   2 -26   1   55.39    3.90
   2 -26   1   55.99    3.60
   2  26   1   58.79    3.30
   2  26   1   51.49    4.60
  -2  26  -1   63.09    3.30
   2  26   1   45.30    4.30
   2  26   1   58.99    3.90
   2  26   1   57.19    3.50
   3 -26   1   73.89    3.50
   3 -26   1   73.59    3.60
   3 -26   1   72.69    3.60
  -3 -26  -1   70.79    5.10
  -3 -26  -1   63.49    3.80
   3 -26   1   64.59    3.50
   3  26   1   72.49    3.70
   3  26   1   69.09    3.90
   4 -26   1   95.39    4.20
   4 -26   1   99.49    4.10
   4  26   1   83.59    4.10
   4 -27  -1   10.30    0.90
   4  27  -1    6.50    1.00
   4  27  -1    7.90    1.50
   3 -27  -1  245.38   11.50
  -3 -27   1  287.17   12.20
  -3 -27   1  250.07   11.50
   3 -27  -1  264.57   11.30
   3  27  -1  266.17   11.40
   3  27  -1  265.77   11.60
  -2 -27   1  195.08    8.80
   2 -27  -1  176.58    8.70
  -2 -27   1  195.38    8.80
  -2 -27   1  215.58    9.60
   2 -27  -1  174.08    8.60
   2  27  -1  195.88    8.80
  -2  27   1  201.18    8.70
   2  27  -1  189.78    8.90
  -1 -27   1  101.09    4.90
   1  27  -1  107.19    5.00
  -1  27   1  104.09    4.80
   0 -27  -1   73.09    3.50
   0  27  -1   70.69    3.50
   0  27  -1   73.69    3.60
   0  27   1   70.49    3.50
  -1 -27  -1    3.20    1.00
   1  27   1    1.80    1.30
   1  27   1    1.10    1.40
  -1  27  -1    2.30    1.10
  -1  27  -1    1.60    1.00
   2 -27   1   91.49    4.60
  -2 -27  -1  101.59    5.80
   2 -27   1   89.69    4.40
  -2 -27  -1   89.99    4.80
   2 -27   1   88.89    4.70
   2 -27   1   93.69    5.30
   2 -27   1   87.69    4.50
  -2  27  -1   91.59    4.60
   2  27   1   91.29    5.10
   2  27   1   76.19    5.90
   2  27   1   87.49    5.50
   2  27   1   90.29    4.70
   2  27   1   91.09    4.60
   3 -27   1   69.89    3.20
  -3 -27  -1   58.59    3.60
   3 -27   1   63.39    3.30
   3 -27   1   66.99    3.40
  -3 -27  -1   62.09    4.80
   3 -27   1   67.99    3.30
   3  27   1   60.59    4.20
   3  27   1   66.39    3.40
   3  27   1   64.19    3.80
  -3 -28   1   42.70    3.30
  -3 -28   1   36.70    2.50
   3 -28  -1   34.20    2.50
   3 -28  -1   39.00    2.20
   3  28  -1   40.50    2.40
   3  28  -1   40.90    2.80
  -3  28   1   37.10    2.90
  -2 -28   1    6.40    1.60
   2 -28  -1    4.80    1.50
   2 -28  -1    4.30    1.50
  -2 -28   1    6.50    2.20
  -2 -28   1    7.60    2.30
   2  28  -1    6.30    1.80
   2  28  -1    5.00    1.70
  -2  28   1    6.20    1.90
  -1 -28   1    5.80    1.50
   1  28  -1    1.70    1.40
  -1  28   1    2.70    1.00
   0 -28  -1 1178.68   48.70
   0  28  -1 1189.88   48.70
   0  28   1 1107.29   48.70
   0  28  -1 1161.98   48.70
   1 -28   1   31.20    2.80
  -1 -28  -1   25.20    1.90
   1  28   1   24.70    2.40
  -1  28  -1   24.20    2.00
   1  28   1   23.50    2.40
  -1  28  -1   23.90    2.00
   1  28   1   26.90    3.70
   1  28   1   26.40    3.00
  -2 -28  -1   80.39    4.60
   2 -28   1   76.39    4.30
   2 -28   1   77.49    4.10
  -2 -28  -1   89.39    5.30
   2 -28   1   80.99    5.20
   2 -28   1   74.49    4.00
   2 -28   1   79.99    4.20
   2  28   1   76.59    4.20
   2  28   1   73.79    5.00
   2  28   1   89.49    4.20
  -2  28  -1   74.89    4.30
   3 -28   1   25.30    1.70
   3 -28   1   20.70    1.60
  -3 -28  -1   14.40    3.30
  -3 -28  -1   17.80    2.00
   3 -28   1   22.30    1.80
   3 -28   1   19.90    1.80
   3  28   1   13.30    2.80
   3  28   1   22.50    1.90
   3 -29  -1   72.89    3.40
  -3 -29   1   75.29    4.30
  -3 -29   1   64.49    3.60
   3  29  -1   73.79    3.90
  -3  29   1   68.89    4.40
   3  29  -1   73.89    3.60
   2 -29  -1   50.69    3.40
  -2 -29   1   60.69    3.60
   2 -29  -1   57.49    3.50
  -2 -29   1   65.49    4.40
   2  29  -1   61.19    3.70
  -2  29   1   69.09    3.90
   2  29  -1   64.79    3.70
  -1 -29   1  111.89    6.00
   1 -29  -1  113.29    5.60
  -1 -29   1  120.49    5.40
  -1  29   1  120.89    5.40
  -1  29   1  110.19    5.70
   1  29  -1  111.39    5.70
   0 -29  -1  184.08    8.20
   0  29   1  184.68    8.20
   0  29  -1  188.28    8.20
   1 -29   1   33.60    3.20
  -1 -29  -1   39.50    2.40
   1 -29   1   40.70    2.80
   1 -29   1   33.00    2.60
   1  29   1   33.10    3.50
   1  29   1   37.40    2.90
  -1  29  -1   37.20    2.50
   1  29   1   36.70    3.20
   1  29   1   30.70    3.40
   1  29   1   41.50    2.80
   2 -29   1   46.60    3.00
  -2 -29  -1   51.19    4.10
   2 -29   1   43.00    3.10
   2 -29   1   46.70    2.70
   2 -29   1   45.00    2.80
   2  29   1   44.10    3.60
   2  29   1   38.40    3.80
   2  29   1   48.50    2.90
   3 -29   1   87.79    3.70
   3 -29   1   85.99    3.80
  -3 -29  -1   80.39    4.80
  -3 -29  -1   69.89    3.90
   3 -29   1   72.09    3.70
   3 -29   1   75.49    3.70
   3  29   1   80.79    3.90
   3  29   1   62.99    5.70
  -3 -30   1   26.60    2.10
   3 -30  -1   29.10    2.10
  -3 -30   1   28.60    3.00
  -3  30   1   27.40    2.30
   3  30  -1   26.60    1.90
   3  30  -1   24.20    2.20
  -2 -30   1   10.70    2.30
   2  30  -1    9.70    2.60
  -1 -30   1   34.80    3.50
  -1 -30   1   27.70    2.30
  -1 -30   1   24.00    2.90
   1 -30  -1   27.40    2.50
  -1  30   1   28.50    2.10
   1  30  -1   22.80    4.40
  -1  30   1   27.00    2.70
   1  30  -1   26.00    2.60
   0 -30  -1   17.30    3.00
   0 -30   1   13.60    2.60
   0  30   1   13.90    1.90
   0  30   1   12.80    2.60
  -1 -30  -1  105.59    5.60
   1 -30   1  111.99    5.30
  -1 -30  -1  107.09    5.20
   1 -30   1  106.39    5.10
   1 -30   1   97.89    5.40
   1 -30   1  102.19    5.40
   1  30   1  113.89    5.50
   1  30   1  116.19    5.80
   1  30   1   90.89    6.40
  -1  30  -1  110.89    5.10
   1  30   1  107.89    5.70
   1  30   1  106.79    5.60
   2 -30   1   43.30    3.00
   2 -30   1   41.90    2.70
  -2 -30  -1   49.70    4.00
   2 -30   1   42.30    2.70
   2 -30   1   43.90    2.60
   2  30   1   45.00    2.80
   2  30   1   40.40    3.70
   2  30   1   41.80    2.80
   3 -30   1  218.88    9.40
   3 -30   1  189.78    8.90
   3 -30   1  188.98    8.90
   3 -30   1  235.48    9.30
  -3 -30  -1  203.28    9.70
  -3 -30  -1  185.38    9.10
   3  30   1  206.38    9.50
   3  30   1  229.38    9.70
  -3 -31   1   30.80    2.70
   3 -31  -1   28.90    1.80
  -3 -31   1   29.60    2.20
  -3  31   1   29.30    2.40
   3  31  -1   28.50    1.90
  -2 -31   1    0.30    1.70
   2 -31  -1    3.30    1.30
  -2 -31   1    0.20    1.80
  -2  31   1    6.90    2.10
   2  31  -1    3.80    1.50
   2  31  -1    8.20    2.30
   1 -31  -1  231.88   10.30
  -1 -31   1  262.77   11.10
  -1 -31   1  217.88   10.40
  -1 -31   1  222.18   10.30
  -1  31   1  228.18   10.30
   1  31  -1  223.18   10.30
   1  31  -1  213.68   10.90
  -1  31   1  239.28   10.20
   0 -31   1   16.60    2.40
   0 -31  -1   21.40    2.30
   0 -31   1   18.70    2.00
   0  31   1   19.10    1.90
   0  31   1   18.10    2.50
   0  31  -1   21.00    2.70
   0  31   1   21.30    3.40
   1 -31   1  351.56   15.80
  -1 -31  -1  369.36   15.80
   1 -31   1  362.66   15.60
  -1 -31  -1  347.07   15.80
   1 -31   1  362.46   15.80
   1 -31   1  349.77   15.70
   1  31   1  356.16   15.70
   1  31   1  379.76   16.20
   1  31   1  358.66   15.80
  -1  31  -1  372.46   15.70
   1  31   1  360.56   16.00
   1  31   1  386.36   16.00
  -2 -31  -1   96.89    5.40
   2 -31   1   85.89    4.30
   2 -31   1   82.89    4.30
   2 -31   1   79.49    4.10
   2 -31   1   78.99    4.10
  -2 -31  -1   78.09    4.30
   2  31   1   80.29    4.30
   2  31   1   83.89    5.00
   2  31   1   88.99    4.30
   3 -31   1   40.20    2.20
   3 -31   1   39.00    2.40
  -3 -31  -1   39.50    3.20
   3 -31   1   38.70    2.20
   3 -31   1   40.20    2.10
  -3 -31  -1   35.40    2.40
   3  31   1   39.70    2.30
   3  31   1   37.10    2.90
   3 -32  -1    1.40    0.90
  -3 -32   1    0.80    1.40
  -3 -32   1    1.60    1.30
  -3  32   1    2.80    1.40
   3  32  -1    2.70    1.10
   3  32  -1    1.90    1.10
  -2 -32   1   57.29    4.00
   2  32  -1   49.99    3.20
   2  32  -1   53.99    3.30
  -2  32   1   47.60    3.20
  -1 -32   1   86.09    4.80
  -1 -32   1  104.39    5.40
  -1 -32   1   88.29    4.70
   1 -32  -1   89.39    4.60
   1  32  -1   81.69    5.60
  -1  32   1   85.59    4.60
   1  32  -1   85.09    4.60
  -1  32   1   90.09    4.50
   0 -32  -1  390.56   16.70
   0 -32   1  374.66   16.50
   0 -32   1  378.06   16.70
   0  32   1  403.56   17.20
   0  32   1  400.06   16.70
   0  32   1  381.96   16.80
   0  32  -1  371.76   16.80
  -1 -32  -1   10.80    2.30
   1 -32   1    9.90    1.90
   1 -32   1    9.10    2.30
  -1 -32  -1   13.70    2.60
   1 -32   1   13.30    1.90
   1 -32   1   11.80    2.60
   1  32   1   10.50    2.90
   1  32   1    9.20    2.30
   1  32   1    8.20    2.40
   1  32   1    8.90    2.50
  -1  32  -1   13.10    2.40
   1  32   1    7.90    2.10
   2 -32   1    2.50    1.10
  -2 -32  -1    1.80    1.60
   2 -32   1    0.70    1.10
  -2 -32  -1    2.30    1.90
   2 -32   1    2.30    1.10
   2  32   1   -0.70    1.30
   2  32   1    0.40    1.70
   2  32   1    4.80    1.40
  -3 -32  -1    6.70    1.60
   3 -32   1    9.50    1.10
  -3 -32  -1    8.70    2.30
   3 -32   1    8.00    1.10
   3 -32   1    5.40    1.70
   3  32   1    9.70    1.30
  -3 -33   1   17.90    1.90
  -3 -33   1   17.60    1.90
   3 -33  -1   16.80    1.40
   3  33  -1   13.00    1.90
   3  33  -1   17.80    1.70
  -3  33   1   19.70    2.00
   2 -33  -1   45.10    3.80
  -2 -33   1   64.99    4.00
  -2  33   1   56.79    3.30
   2  33  -1   58.29    3.40
  -1 -33   1  879.91   35.40
  -1 -33   1  824.12   34.90
   1 -33  -1  801.02   34.80
   1  33  -1  807.72   34.80
   1  33  -1  799.62   35.10
  -1  33   1  817.62   34.80
  -1  33   1  819.72   34.90
   0 -33   1   50.99    3.00
   0 -33  -1   55.09    3.30
   0 -33   1   52.19    3.30
   0  33   1   57.69    4.20
   0  33  -1   49.60    3.50
   0  33   1   57.89    3.40
   0  33   1   54.29    3.40
   1 -33   1  352.96   14.70
  -1 -33  -1  325.87   14.80
   1 -33   1  351.16   14.50
  -1 -33  -1  333.37   14.70
   1 -33   1  336.57   14.70
   1  33   1  352.86   15.10
   1  33   1  338.87   15.00
   1  33   1  339.77   14.70
   1  33   1  337.07   14.90
  -1  33  -1  300.17   15.40
  -2 -33  -1  149.79    7.30
   2 -33   1  159.98    7.20
   2 -33   1  160.58    7.10
   2 -33   1  155.98    7.10
  -2 -33  -1  165.28    8.10
   2  33   1  153.18    7.20
   2  33   1  161.68    7.70
   3 -33   1  177.38    7.20
  -3 -33  -1  166.48    7.80
   3 -33   1  165.28    7.30
  -3 -33  -1  147.59    7.90
   3  33   1  171.68    7.60
   3  33   1  167.48    7.30
  -3 -34   1  146.89    6.80
  -3 -34   1  151.48    7.10
   3 -34  -1  147.29    6.60
   3  34  -1  151.18    6.70
  -3  34   1  155.58    6.90
   2 -34  -1   13.70    2.30
  -2 -34   1   16.50    2.60
  -2  34   1   19.40    2.10
   2  34  -1   14.90    2.00
   1 -34  -1  303.17   13.30
  -1 -34   1  295.67   13.40
  -1 -34   1  330.87   14.00
  -1  34   1  300.37   13.50
  -1  34   1  310.07   13.40
   1  34  -1  295.07   13.30
   1  34  -1  300.17   13.80
   0 -34   1  124.49    6.10
   0 -34   1  124.89    5.90
   0 -34  -1  129.49    6.10
   0  34  -1  126.69    6.30
   0  34   1  132.79    6.30
   0  34   1  129.39    6.20
   0  34   1  127.79    6.70
   1 -34   1  292.97   12.70
  -1 -34  -1  285.07   12.70
   1 -34   1  282.37   12.70
   1 -34   1  298.57   12.50
   1  34   1  282.07   13.20
   1  34   1  294.87   13.10
   1  34   1  286.87   12.90
   1  34   1  283.77   12.70
  -2 -34  -1   20.60    2.30
   2 -34   1   28.60    2.10
  -2 -34  -1   29.00    3.10
   2 -34   1   26.70    2.00
   2 -34   1   26.20    2.00
   2  34   1   25.10    2.10
   2  34   1   24.20    2.80
   3 -34   1  226.78    9.00
  -3 -34  -1  197.38    9.50
  -3 -34  -1  195.98    9.20
   3 -34   1  212.28    9.10
   3  34   1  209.48    9.10
   3  34   1  218.98    9.30
  -3 -35   1   21.70    2.40
  -3 -35   1   18.60    1.80
   3 -35  -1   15.90    1.50
   3  35  -1   19.90    1.50
   2 -35  -1    2.70    1.10
  -2 -35   1    2.60    1.60
  -2  35   1    3.90    1.30
   2  35  -1    2.00    1.30
  -1 -35   1  369.56   16.40
   1 -35  -1  357.56   15.90
   1  35  -1  371.86   15.80
  -1  35   1  354.96   15.80
   0 -35   1    3.30    1.20
   0 -35   1   -0.20    1.00
   0 -35  -1    0.20    1.00
   0  35  -1    0.70    1.40
   0  35   1    1.00    1.30
   0  35   1    3.20    2.10
   0  35   1    2.70    1.70
   1 -35   1  176.48    8.20
  -1 -35  -1  179.48    9.10
   1 -35   1  184.48    8.10
  -1 -35  -1  180.48    8.40
  -1  35  -1  174.88    8.20
   1  35   1  186.98    8.70
   1  35   1  182.98    8.50
   1  35   1  186.08    8.30
   2 -35   1  120.89    5.50
   2 -35   1  120.89    5.50
  -2 -35  -1  110.19    5.70
   2 -35   1  120.89    5.60
  -2 -35  -1  119.09    6.40
   2  35   1  115.09    5.60
   2  35   1  129.09    6.10
   3 -35   1   57.99    2.70
  -3 -35  -1   49.70    3.20
  -3 -35  -1   59.99    3.10
   3 -35   1   55.79    2.80
   3  35   1   59.59    2.90
  -3  35  -1   64.19    2.90
   3  35   1   57.29    3.20
  -3 -36   1   28.50    2.10
  -3  36   1   33.90    2.60
   3  36  -1   31.20    1.80
   2 -36  -1    2.70    1.10
  -2 -36   1    5.10    2.20
   2  36  -1    4.20    1.30
  -2  36   1    5.20    1.70
   1 -36  -1    3.70    1.00
  -1 -36   1    1.70    1.80
  -1 -36   1    4.20    1.10
   1  36  -1    5.00    2.20
  -1  36   1    5.40    1.30
   1  36  -1    4.90    1.30
   0 -36   1  486.05   20.30
   0 -36  -1  478.25   20.60
   0 -36   1  461.45   20.60
   0  36  -1  462.55   20.50
   0  36   1  492.25   20.80
   0  36   1  471.95   20.70
  -1 -36  -1   53.09    4.20
   1 -36   1   61.59    3.20
  -1 -36  -1   60.79    3.60
   1 -36   1   59.09    3.40
   1  36   1   59.19    3.60
   1  36   1   60.19    3.60
  -1  36  -1   57.49    3.30
   2 -36   1  125.09    5.70
   2 -36   1  130.89    5.80
   2 -36   1  126.29    5.60
  -2 -36  -1  121.99    6.50
  -2 -36  -1  108.89    5.90
   2  36   1  137.29    6.30
   2  36   1  124.09    5.80
  -3 -36  -1   48.40    2.70
   3 -36   1   51.59    2.30
  -3 -36  -1   38.40    3.10
   3  36   1   49.00    2.40
  -3  36  -1   49.40    2.40
   3  36   1   45.50    2.70
  -3 -37   1   32.30    2.20
   3  37  -1   42.00    2.00
  -2 -37   1  114.49    5.90
  -2  37   1  110.29    5.40
   2  37  -1  115.59    5.40
  -1 -37   1    5.80    2.60
  -1 -37   1    8.40    2.00
   1 -37  -1    6.00    1.80
  -1  37   1    5.00    1.30
   1  37  -1    8.10    2.80
   1  37  -1    5.70    1.70
   0 -37  -1   15.10    2.00
   0 -37   1   21.10    2.10
   0 -37  -1   16.40    3.30
   0 -37   1   16.40    1.70
   0  37  -1   16.50    2.30
   0  37   1   16.60    2.80
   0  37   1   18.60    2.20
   1 -37   1    7.10    1.50
  -1 -37  -1    3.00    1.90
   1 -37   1    2.80    1.00
  -1 -37  -1    6.30    2.10
   1  37   1    6.20    1.70
   1  37   1    3.70    1.40
  -1  37  -1    3.80    1.20
   2 -37   1  259.77   11.00
  -2 -37  -1  243.48   11.70
  -2 -37  -1  222.08   11.00
  -2  37  -1  256.07   11.00
   2  37   1  256.17   10.90
   2  37   1  276.67   11.40
  -3 -37  -1   34.60    2.50
   3 -37   1   42.90    2.00
  -3  37  -1   43.40    2.10
   3  37   1   38.30    2.50
   3  37   1   45.70    2.30
  -3 -38   1   -0.40    1.00
   3  38  -1    1.30    0.70
  -2 -38   1    2.20    1.40
   2 -38  -1    1.00    1.10
  -2  38   1    1.80    1.60
   2  38  -1    0.80    1.00
  -1 -38   1   13.30    2.20
   1 -38  -1   15.70    1.90
  -1 -38   1   16.90    2.70
   1  38  -1   16.90    2.90
   1  38  -1   17.80    1.90
  -1  38   1   17.20    2.00
   0 -38  -1    8.20    1.70
   0 -38   1    9.60    1.80
   0 -38   1    7.90    1.50
   0 -38  -1    5.80    2.40
   0  38   1   10.20    1.90
   0  38  -1   10.70    2.00
   1 -38   1   63.39    3.30
  -1 -38  -1   62.09    4.30
   1 -38   1   61.49    3.50
  -1 -38  -1   62.99    3.70
   1  38   1   64.09    3.70
   1  38   1   63.79    3.70
  -1  38  -1   64.19    3.50
   2 -38   1   10.90    1.50
   2 -38   1    6.70    1.40
  -2 -38  -1    7.80    2.00
  -2  38  -1   11.10    1.40
   2  38   1   11.00    1.40
   3 -38   1   28.10    1.50
   3  38   1   28.30    1.60
  -3  38  -1   27.80    1.60
  -3 -39   1   23.60    1.70
   3  39  -1   26.00    1.50
   2 -39  -1   23.90    2.20
  -2  39   1   25.30    2.00
  -1 -39   1   29.10    2.50
   1 -39  -1   25.00    2.10
  -1 -39   1   35.30    3.00
   1  39  -1   27.80    3.00
  -1  39   1   28.20    2.30
   1  39  -1   25.70    2.10
   0 -39  -1   80.59    4.00
   0 -39  -1   74.49    5.00
   0 -39   1   77.89    3.80
   0 -39   1   79.69    4.10
   0  39  -1   76.09    4.20
   0  39   1   76.39    4.10
   0  39  -1   76.09    4.00
   1 -39   1  129.79    5.70
  -1 -39  -1  135.39    6.00
  -1 -39  -1  111.49    6.60
   1 -39   1  128.69    5.90
  -1  39  -1  125.99    5.90
   1  39   1  129.09    6.10
   1  39   1  119.19    5.90
  -2 -39  -1    9.90    1.90
   2 -39   1   10.00    1.60
   2 -39   1   12.40    1.30
   2  39   1   10.60    1.90
  -2  39  -1    9.10    1.30
   2  39   1   12.20    1.40
  -2 -40   1   37.10    2.70
   2 -40  -1   43.50    2.70
  -2  40   1   43.10    2.50
   2  40  -1   44.10    2.30
   1 -40  -1  140.69    6.60
  -1 -40   1  154.48    7.20
  -1 -40   1  144.49    6.70
   1  40  -1  138.69    6.60
   1  40  -1  144.39    7.00
  -1  40   1  143.69    6.70
   0 -40  -1  191.78   10.10
   0 -40  -1  217.98    9.50
   0 -40   1  213.58    9.50
   0  40  -1  217.08    9.70
   0  40  -1  218.08    9.40
   0  40   1  217.48    9.60
   1 -40   1    7.90    1.70
  -1 -40  -1    9.00    2.00
   1 -40   1    7.40    1.40
  -1 -40  -1    8.50    2.40
   1  40   1    8.90    1.90
   1  40   1    7.50    2.00
  -1  40  -1    8.50    1.60
  -2 -40  -1    3.60    1.20
   2 -40   1    4.50    1.70
   2 -40   1    5.40    1.20
   2  40   1    5.10    1.30
  -2  40  -1    3.20    1.10
   2  40   1    4.90    1.70
   2 -41  -1   43.40    2.90
  -2 -41   1   51.69    3.00
  -2  41   1   56.39    2.80
   2  41  -1   55.09    2.70
   1 -41  -1   26.40    1.90
  -1 -41   1   24.70    2.20
  -1 -41   1   28.40    2.60
   1  41  -1   25.10    2.80
   1  41  -1   24.00    2.00
  -1  41   1   24.00    2.10
   0 -41   1   -0.40    0.80
   0 -41  -1    1.60    1.90
   0 -41  -1    2.10    0.80
   0  41   1    0.40    1.10
   0  41  -1   -0.40    1.20
   0  41  -1    0.50    1.20
  -1 -41  -1   22.80    2.20
   1 -41   1   26.30    2.10
  -1 -41  -1   21.90    2.50
   1 -41   1   23.10    1.70
  -1  41  -1   22.40    1.90
   1  41   1   22.00    2.20
   2 -41   1   26.90    1.70
  -2 -41  -1   20.70    2.00
   2  41   1   29.50    2.10
  -2  41  -1   26.70    1.70
   2  41   1   25.80    1.70
  -2 -42   1    0.30    1.00
  -2  42   1   -0.30    0.90
   2  42  -1    0.40    0.70
   1 -42  -1  121.09    5.60
  -1 -42   1  126.69    5.70
  -1  42   1  120.89    5.70
   1  42  -1  126.79    5.60
   1  42  -1  110.29    5.90
   0 -42   1   40.00    2.40
   0 -42  -1   36.90    2.40
   0 -42  -1   29.30    3.50
   0  42   1   37.10    2.50
   0  42  -1   36.50    2.40
   0  42  -1   34.80    2.60
   1 -42   1   25.70    1.90
  -1 -42  -1   21.30    2.70
  -1 -42  -1   25.00    2.20
   1  42   1   25.90    2.20
  -1  42  -1   25.20    1.90
  -2 -42  -1    6.30    1.50
  -2  42  -1    7.50    1.10
   2  42   1    8.10    1.50
   2  42   1    7.50    1.20
  -2 -43   1   48.10    3.00
   2  43  -1   58.19    2.70
  -2  43   1   59.19    2.80
   1 -43  -1  156.28    7.10
  -1 -43   1  162.28    7.20
  -1  43   1  157.28    7.20
   1  43  -1  157.48    7.10
   1  43  -1  160.68    7.40
   0 -43  -1   43.60    2.60
   0 -43   1   41.00    2.50
   0  43   1   46.50    2.80
   0  43  -1   41.40    2.50
   0  43  -1   44.70    2.80
   1 -43   1   52.29    2.90
  -1 -43  -1   57.59    3.00
   1 -43   1   52.69    2.70
   1  43   1   54.79    3.10
  -1  43  -1   52.59    2.90
   1  43   1   52.59    3.00
  -1  43  -1   52.89    2.90
  -2 -43  -1   14.20    1.60
   2  43   1   17.40    1.40
   2  43   1   19.20    1.70
  -2  43  -1   19.20    1.30
  -2 -44   1   22.70    1.80
  -2  44   1   27.30    2.00
   2  44  -1   29.10    1.60
  -1 -44   1    2.20    0.90
  -1 -44   1    2.70    1.30
   1 -44  -1    2.40    0.70
  -1  44   1    1.80    0.90
   1  44  -1    1.90    1.50
   1  44  -1    3.20    0.90
   0  44  -1    8.60    1.40
   0  44  -1    8.50    1.60
  -1 -44  -1    1.20    1.10
   1 -44   1    2.00    0.70
  -1 -44  -1    1.00    0.90
  -1  44  -1    3.10    1.10
  -1  44  -1    1.50    0.80
   1  44   1    1.70    1.00
  -2 -44  -1   21.40    1.80
   2  44   1   27.60    1.80
  -2  44  -1   27.20    1.60
   2  45  -1   74.99    3.60
  -2  45   1   86.59    3.80
   1 -45  -1   83.29    3.90
  -1 -45   1   68.49    4.10
  -1 -45   1   88.49    4.00
  -1  45   1   84.29    4.00
   1  45  -1   80.99    4.20
   1  45  -1   83.29    3.80
   0 -45   1    4.30    1.20
   0 -45  -1    4.40    1.20
   0  45  -1    2.90    1.00
   0  45  -1    4.70    1.50
   0  45   1    4.30    1.40
   1 -45   1   89.29    4.20
  -1 -45  -1   96.99    4.30
   1  45   1   91.59    4.40
  -1  45  -1   83.69    4.20
  -1  45  -1   88.99    4.20
  -2  45  -1   18.60    1.30
   2  45   1   17.50    1.50
  -1 -46   1    2.90    1.20
  -1 -46   1    2.20    0.80
   1 -46  -1    1.30    0.60
   1  46  -1    2.10    0.80
  -1  46   1    2.90    0.90
   0 -46  -1  246.28   10.40
   0 -46   1  245.58   10.50
   0  46   1  232.88   10.50
   0  46  -1  241.98   10.50
   0  46  -1  236.28   10.40
  -1 -46  -1    0.50    1.10
   1 -46   1    1.20    0.70
  -1 -46  -1    1.40    0.80
   1  46   1    1.50    0.90
  -1  46  -1    2.60    1.60
  -1  46  -1    3.30    1.10
  -1 -47   1    0.00    1.10
   1 -47  -1    0.00    0.60
  -1 -47   1    1.10    0.80
   1  47  -1    0.80    0.70
  -1  47   1    0.80    0.80
   0 -47   1   20.90    1.50
   0 -47  -1   21.90    1.60
   0  47   1   20.10    1.60
   0  47  -1   19.10    1.70
   0  47  -1   20.20    1.60
  -1 -47  -1   -0.20    0.80
   1 -47   1    0.40    0.60
  -1 -47  -1    0.10    1.10
  -1  47  -1    0.50    1.40
   1  47   1    1.30    0.80
  -1  47  -1    0.80    0.70
   1 -48  -1   50.49    3.00
  -1 -48   1   59.29    2.70
  -1  48   1   56.09    2.90
   1  48  -1   51.39    2.60
   0 -48   1    0.70    0.60
   0 -48  -1    1.30    0.60
   0  48  -1    0.30    0.90
   0  48   1    1.20    0.80
  -1 -48  -1   61.89    3.10
   1 -48   1   63.59    3.00
  -1  48  -1   61.59    3.00
   0 -49   1    1.90    0.60
   0 -49  -1    2.80    1.00
   0  49  -1    4.40    1.30
   0  49  -1    2.80    0.80
   0  49   1    2.60    0.80
   4   0  -2  265.27   11.30
   4   0  -2  272.77   11.40
  -4   0   2  235.18   11.50
  -4   0   2  272.67   11.60
   3   0  -2   -0.30    1.60
   3   0  -2    1.00    1.20
  -3   0   2    0.80    1.70
  -3   0   2    0.10    1.40
   3   0  -2   -0.90    1.30
   2   0  -2  253.17   10.90
  -2   0   2  250.57   10.80
  -1   0   2    0.10    0.30
  -1   0   2    0.10    0.30
   1   0  -2   -0.10    0.40
   0   0   2 2304.87   97.09
   0   0  -2 2259.77   96.79
   0   0   2 2377.26   96.89
  -1   0  -2   -0.20    0.30
   1   0   2    0.40    0.50
   1   0   2   -0.30    0.40
   2   0   2 1732.53   72.39
   2   0   2 1721.93   72.39
  -3   0  -2   16.50    2.30
   3   0   2   18.00    2.70
   3   0   2   18.80    2.60
   3   0   2   21.30    2.60
   4   0   2    5.40    1.20
   4   0   2    4.20    1.20
   4   0   2    5.90    1.70
   4   0   2    4.70    1.30
   4  -1  -2    6.00    1.30
   4  -1  -2    8.80    1.50
  -4  -1   2    7.50    2.00
  -4   1   2   11.90    1.80
  -4   1   2    5.10    1.80
   4   1  -2    8.90    1.40
   4   1  -2   10.00    1.60
   3  -1  -2   41.30    2.90
   3  -1  -2   43.40    2.60
  -3  -1   2   38.80    3.20
  -3  -1   2   45.10    2.80
   3  -1  -2   36.40    2.70
   3   1  -2   43.00    3.00
  -3   1   2   42.00    3.10
   3   1  -2   41.30    2.70
  -3   1   2   39.40    2.90
   3   1  -2   42.00    2.70
   2  -1  -2   94.39    4.30
  -2  -1   2   92.89    4.20
  -2   1   2   92.59    4.20
   2   1  -2   90.29    4.30
   1  -1  -2  160.98    7.30
  -1  -1   2  177.28    7.30
  -1   1   2  177.58    7.30
  -1   1   2  161.78    7.20
   1   1  -2  166.98    7.30
   0  -1  -2    9.30    0.60
   0   1   2   11.80    0.70
   1  -1   2   41.20    2.00
   1  -1   2   43.30    2.00
  -1  -1  -2   40.40    1.90
   1   1   2   39.10    2.00
  -1   1  -2   39.40    1.90
   1   1   2   43.90    2.00
  -2  -1  -2  166.38    7.20
   2  -1   2  160.68    7.10
   2   1   2  159.08    7.10
  -2   1  -2  168.88    7.20
   2   1   2  154.08    7.20
   3  -1   2 1070.69   44.70
   3  -1   2 1062.99   44.70
   3  -1   2 1032.40   44.60
   3  -1   2 1088.09   44.40
  -3  -1  -2 1019.30   44.50
   3  -1   2 1086.69   44.50
   3   1   2 1112.09   44.40
   3   1   2 1051.29   44.70
   3   1   2 1050.19   44.40
   3   1   2 1020.90   44.60
   3   1   2 1027.30   44.60
  -3   1  -2 1024.00   44.50
   4  -1   2   47.80    2.90
   4  -1   2   53.89    3.00
   4  -1   2   46.20    2.70
   4  -1   2   50.09    2.60
   4   1   2   53.79    2.70
   4   1   2   51.29    2.70
   4   1   2   50.39    3.10
   4   1   2   51.69    3.10
  -4  -2   2   58.69    3.30
  -4  -2   2   50.29    3.30
   4  -2  -2   57.19    3.00
   4  -2  -2   55.59    2.90
   4   2  -2   60.09    3.00
   4   2  -2   58.99    3.10
  -4   2   2   58.39    3.30
  -4   2   2   52.79    3.50
  -3  -2   2   35.60    2.90
  -3  -2   2   32.30    2.60
   3  -2  -2   34.30    2.50
   3  -2  -2   34.20    2.40
   3  -2  -2   37.30    2.70
   3   2  -2   34.80    2.50
   3   2  -2   35.80    2.70
   3   2  -2   33.50    2.50
  -3   2   2   34.60    2.60
  -3   2   2   35.70    2.80
  -2  -2   2   14.00    1.10
   2  -2  -2   12.30    1.10
  -2   2   2   11.70    1.10
   2   2  -2   12.40    1.20
  -2   2   2   13.30    1.30
  -1  -2   2   17.60    1.00
   1  -2  -2   16.50    1.00
  -1   2   2   17.00    1.00
   1   2  -2   15.80    1.00
  -1   2   2   17.00    0.90
   0  -2   2  194.28    8.30
   0  -2  -2  197.68    8.30
   0   2  -2  193.38    8.40
   0   2   2  203.08    8.40
   0   2   2  195.28    8.30
   1  -2   2   67.29    3.00
   1  -2   2   64.09    3.00
  -1  -2  -2   63.49    3.00
   1  -2   2   64.99    3.00
   1   2   2   72.49    3.10
   1   2   2   64.59    3.00
   2  -2   2  168.38    7.30
  -2  -2  -2  162.98    7.50
   2   2   2  160.18    7.30
  -2   2  -2  175.68    7.30
   2   2   2  160.98    7.40
  -3  -2  -2   12.50    2.10
   3  -2   2    9.90    1.70
   3  -2   2    8.70    2.00
   3  -2   2    8.80    2.50
   3  -2   2    8.50    2.40
  -3   2  -2    9.80    2.00
   3   2   2   12.30    1.90
   3   2   2    9.80    2.60
   3   2   2   13.30    1.80
   3   2   2   15.90    2.60
   4  -2   2   33.70    2.50
   4  -2   2   32.70    2.00
   4  -2   2   34.60    2.50
   4  -2   2   32.70    2.10
   4   2   2   36.30    2.00
   4   2   2   36.80    2.10
   4   2   2   32.80    2.50
   4   2   2   30.40    2.50
   4  -3  -2    2.30    1.00
  -4  -3   2    0.60    1.50
   4  -3  -2    0.20    1.00
  -4  -3   2    5.90    1.80
   4   3  -2    0.70    1.20
  -4   3   2    2.70    1.20
   4   3  -2    3.40    1.10
   3  -3  -2   20.50    2.00
  -3  -3   2   22.30    3.20
  -3  -3   2   17.50    2.50
  -3  -3   2   17.70    2.10
   3  -3  -2   22.80    2.40
   3  -3  -2   21.80    2.20
   3   3  -2   22.50    2.10
  -3   3   2   18.90    2.30
   3   3  -2   22.10    2.10
  -3   3   2   23.80    2.50
   3   3  -2   20.20    2.30
  -2  -3   2    4.30    1.40
  -2  -3   2    3.00    0.80
   2  -3  -2    4.50    0.90
  -2   3   2    4.00    0.80
  -2   3   2    5.20    0.90
   2   3  -2    2.50    0.70
   1  -3  -2  817.32   35.00
  -1  -3   2  838.02   35.00
  -1   3   2  810.02   34.90
  -1   3   2  873.71   35.00
   1   3  -2  838.82   35.10
   0  -3   2   36.00    1.50
   0  -3   2   30.80    1.50
   0   3  -2   29.10    1.50
   0   3   2   30.30    1.50
   0   3   2   30.10    1.50
  -1  -3  -2  184.08    8.00
   1  -3   2  183.08    8.00
   1  -3   2  194.08    8.10
   1  -3   2  178.78    8.00
   1   3   2  200.88    8.10
   1   3   2  185.68    8.00
   2  -3   2 1699.93   71.29
  -2  -3  -2 1760.92   71.29
   2   3   2 1614.74   71.39
  -2   3  -2 1730.83   71.29
   2   3   2 1701.93   71.29
   3  -3   2   48.60    3.50
   3  -3   2   47.80    3.40
   3  -3   2   51.89    2.90
  -3  -3  -2   47.40    3.10
   3  -3   2   46.00    3.00
   3  -3   2   53.09    3.60
   3   3   2   46.90    3.50
   3   3   2   48.20    3.00
   3   3   2   48.60    3.60
  -3   3  -2   48.90    3.10
   3   3   2   54.39    3.60
   3   3   2   51.89    2.90
   4  -3   2    2.30    0.90
   4  -3   2    1.80    1.20
   4  -3   2    2.30    1.20
   4  -3   2    2.50    0.90
   4   3   2    2.00    1.20
   4   3   2    1.30    0.90
   4   3   2    1.80    1.20
   4   3   2    0.40    0.90
  -4  -4   2    2.40    1.20
  -4  -4   2    2.80    1.50
   4  -4  -2    6.20    1.40
   4   4  -2    6.20    1.40
   4   4  -2    2.10    1.50
  -3  -4   2   22.60    2.60
   3  -4  -2   26.00    2.40
   3  -4  -2   17.00    2.40
  -3  -4   2   21.80    2.60
  -3  -4   2   23.20    2.10
   3  -4  -2   21.90    2.00
  -3   4   2   24.60    2.50
   3   4  -2   22.90    2.40
   3   4  -2   23.10    2.10
  -3   4   2   24.80    2.40
   3   4  -2   24.00    2.20
   2  -4  -2  332.67   14.00
  -2  -4   2  289.57   14.00
  -2  -4   2  328.97   13.90
  -2   4   2  340.47   13.80
  -2   4   2  344.67   13.90
   2   4  -2  321.37   14.00
   1  -4  -2   54.09    2.50
  -1  -4   2   55.89    2.50
  -1   4   2   53.89    2.50
   1   4  -2   52.79    2.50
  -1   4   2   55.59    2.40
   0  -4   2   60.99    2.80
   0  -4   2   67.39    2.80
   0  -4  -2   62.79    2.80
   0   4  -2   63.69    2.90
   0   4   2   62.89    2.80
   0   4   2   63.39    2.80
   1  -4   2   99.89    4.20
   1  -4   2   87.39    4.10
   1  -4   2   87.99    4.10
  -1  -4  -2   93.99    4.10
   1   4   2   90.29    4.10
   1   4   2   96.59    4.20
   2  -4   2  448.66   19.10
  -2  -4  -2  455.05   19.10
  -2   4  -2  463.05   19.10
   2   4   2  455.15   19.10
   2   4   2  426.96   19.20
   3  -4   2    8.40    2.30
   3  -4   2    7.60    2.40
   3  -4   2    7.90    1.60
   3  -4   2    7.30    1.90
   3  -4   2    8.80    1.80
  -3  -4  -2    5.80    2.40
  -3  -4  -2    8.60    2.00
   3   4   2    6.40    1.90
   3   4   2    7.20    1.80
   3   4   2    5.60    1.80
   3   4   2    6.40    1.70
  -3   4  -2    7.20    1.80
   3   4   2    5.20    2.20
   4  -4   2   49.10    2.60
   4  -4   2   45.30    3.10
   4  -4   2   51.39    2.70
   4  -4   2   50.99    3.00
   4   4   2   44.60    2.90
   4   4   2   51.19    2.60
   4   4   2   51.89    3.00
   4   4   2   47.60    2.70
   4  -5  -2  230.38    9.90
  -4  -5   2  206.28    9.90
   4  -5  -2  233.08    9.90
  -4  -5   2  207.68   10.10
  -4   5   2  240.48   10.00
   4   5  -2  236.78    9.90
   3  -5  -2   68.79    3.90
  -3  -5   2   63.89    4.10
   3  -5  -2   74.69    3.60
  -3  -5   2   67.49    4.00
  -3  -5   2   72.09    3.80
   3  -5  -2   73.49    4.00
   3   5  -2   71.09    4.00
  -3   5   2   71.89    4.00
   3   5  -2   69.59    3.80
   3   5  -2   70.89    3.80
  -3   5   2   69.59    4.00
  -2  -5   2  272.07   11.90
  -2  -5   2  257.57   11.90
   2  -5  -2  280.97   11.90
  -2   5   2  274.17   11.90
  -2   5   2  302.07   11.90
   2   5  -2  272.17   12.00
  -1  -5   2  310.07   13.10
   1  -5  -2  308.67   13.10
  -1   5   2  309.17   13.00
  -1   5   2  311.97   13.10
   1   5  -2  302.77   13.10
   0  -5   2   63.89    2.80
   0   5  -2   60.69    2.80
   0   5   2   63.09    2.80
   0   5   2   60.29    2.70
   1  -5   2    2.60    0.60
   1  -5   2    3.20    0.60
   1  -5   2    2.00    0.60
  -1  -5  -2    1.70    0.50
   1   5   2    1.40    0.50
   1   5   2    1.40    0.50
   2  -5   2  307.67   13.00
  -2  -5  -2  297.77   13.00
   2   5   2  301.67   13.00
   2   5   2  302.97   13.10
   2   5   2  284.67   13.20
  -2   5  -2  321.57   13.00
   3  -5   2   47.90    3.50
   3  -5   2   49.30    3.00
   3  -5   2   46.10    3.30
  -3  -5  -2   44.30    3.20
   3  -5   2   49.00    3.60
  -3  -5  -2   51.09    3.90
   3  -5   2   50.89    2.80
   3   5   2   53.49    3.70
   3   5   2   49.20    3.60
   3   5   2   48.10    2.90
   3   5   2   45.30    3.00
  -3   5  -2   39.80    3.00
   3   5   2   45.80    3.80
   4  -5   2   18.10    1.50
   4  -5   2   19.40    1.90
   4  -5   2   16.90    1.60
   4   5   2   20.40    2.10
   4   5   2   18.60    1.70
   4   5   2   20.30    1.60
   4   5   2   18.10    2.10
  -4   5  -2   25.00    2.40
  -4  -6   2  357.76   16.30
   4  -6  -2  406.16   16.20
  -4  -6   2  361.86   16.40
   4   6  -2  356.36   16.20
   4   6  -2  391.46   16.20
  -4   6   2  396.16   16.40
   3  -6  -2   62.09    3.80
  -3  -6   2   62.89    4.00
   3  -6  -2   69.29    3.50
  -3  -6   2   66.69    3.60
   3  -6  -2   66.69    3.90
  -3  -6   2   66.79    3.90
   3   6  -2   65.89    3.70
  -3   6   2   66.79    4.00
  -3   6   2   65.59    3.70
   3   6  -2   65.19    3.60
   3   6  -2   68.29    3.90
  -2  -6   2   67.79    3.50
   2  -6  -2   75.29    3.40
  -2  -6   2   66.99    3.40
   2   6  -2   72.39    3.50
  -2   6   2   76.19    3.40
  -2   6   2   71.79    3.30
   1  -6  -2 1497.85   60.79
  -1  -6   2 1429.36   60.89
  -1   6   2 1443.56   60.79
   1   6  -2 1399.36   60.89
  -1   6   2 1505.05   60.79
   0  -6   2  233.98    9.80
   0   6   2  240.28    9.90
   0   6  -2  241.08    9.90
   0   6   2  225.28    9.80
   0   6  -2  221.38    9.80
   1  -6   2  381.06   16.60
   1  -6   2  385.26   16.70
  -1  -6  -2  402.76   16.70
   1   6   2  388.26   16.60
   1   6   2  409.06   16.70
  -1   6  -2  400.66   16.60
  -2  -6  -2  179.98    7.80
   2  -6   2  174.78    7.80
   2   6   2  173.78    7.90
   2   6   2  179.58    7.80
  -2   6  -2  184.48    7.80
   2   6   2  170.78    8.10
   3  -6   2  355.56   14.50
   3  -6   2  321.17   14.80
   3  -6   2  313.97   14.80
   3  -6   2  333.07   14.80
  -3  -6  -2  365.56   15.00
   3  -6   2  316.77   14.50
   3  -6   2  347.77   14.60
  -3  -6  -2  308.87   14.70
   3   6   2  347.67   14.60
   3   6   2  350.46   14.70
   3   6   2  314.67   14.80
   3   6   2  349.77   15.00
  -3   6  -2  341.57   14.70
   3   6   2  344.37   15.10
   4  -6   2   18.50    1.90
   4  -6   2   21.20    1.50
   4  -6   2   16.80    1.40
   4   6   2   14.80    2.00
   4   6   2   19.20    2.10
   4   6   2   19.00    1.70
  -4   6  -2   21.90    2.40
   4   6   2   17.00    1.50
  -4  -7   2   81.99    4.20
   4  -7  -2   69.19    3.90
   4  -7  -2   86.59    3.90
  -4  -7   2   86.79    4.20
   4   7  -2   82.99    4.00
   4   7  -2   77.09    4.00
  -4   7   2   86.49    4.20
  -3  -7   2    9.50    2.30
   3  -7  -2    7.90    2.20
   3  -7  -2    6.80    1.50
  -3  -7   2    5.50    1.80
   3  -7  -2    6.10    1.70
  -3  -7   2    5.30    1.70
   3   7  -2    7.90    2.20
  -3   7   2    8.90    2.30
   3   7  -2    8.50    2.00
  -3   7   2    5.30    1.30
   3   7  -2    6.80    1.80
   2  -7  -2  118.19    5.20
  -2  -7   2  106.09    5.30
  -2  -7   2  116.59    5.20
   2   7  -2  108.69    5.20
  -2   7   2  117.39    5.10
  -2   7   2  119.79    5.10
  -1  -7   2 1058.69   43.40
   1  -7  -2 1055.09   43.30
  -1   7   2 1027.20   43.40
   1   7  -2 1013.80   43.40
  -1   7   2 1022.80   43.30
   0  -7   2 3096.89  128.09
   0   7  -2 2768.02  127.79
   0   7  -2 3142.99  128.29
   0   7   2 3205.28  128.29
   0   7   2 3098.29  127.99
  -1  -7  -2   14.00    0.90
   1  -7   2   15.30    1.00
   1  -7   2   13.20    0.90
   1   7   2   14.80    1.00
  -1   7  -2   14.20    0.90
   1   7   2   14.10    1.00
  -2  -7  -2   17.20    1.40
   2  -7   2   17.90    1.40
   2   7   2   16.70    1.40
   2   7   2   15.80    1.50
   2   7   2   17.00    2.20
  -2   7  -2   17.00    1.30
   3  -7   2   77.29    3.70
  -3  -7  -2   65.89    4.10
   3  -7   2   68.09    4.20
   3  -7   2   72.99    4.10
   3  -7   2   76.49    3.90
   3  -7   2   73.69    4.00
   3  -7   2   69.69    4.40
   3   7   2   76.69    4.00
   3   7   2   70.79    4.40
   3   7   2   78.79    4.40
   3   7   2   70.69    4.50
   3   7   2   74.79    3.90
  -3   7  -2   71.39    4.00
   4  -7   2   27.50    1.90
   4  -7   2   28.80    2.10
   4  -7   2   26.10    1.70
  -4   7  -2   26.50    2.30
   4   7   2   25.80    1.80
   4   7   2   26.70    2.30
   4   7   2   29.50    2.50
   4   7   2   25.80    1.90
   4  -8  -2   76.49    3.60
  -4  -8   2   70.59    3.90
   4  -8  -2   71.09    3.60
   4   8  -2   67.99    3.80
   4   8  -2   74.69    3.60
  -4   8   2   79.79    3.90
  -3  -8   2  100.99    4.80
  -3  -8   2   87.99    4.90
  -3  -8   2  106.99    5.40
   3  -8  -2   96.89    4.60
   3  -8  -2   92.29    5.00
   3  -8  -2   90.39    4.90
  -3   8   2   99.19    4.90
   3   8  -2   97.99    4.80
  -3   8   2   91.09    4.90
   3   8  -2   93.59    5.10
   3   8  -2   95.39    4.80
  -2  -8   2   17.40    1.60
   2  -8  -2   20.60    1.50
  -2  -8   2   21.20    1.40
   2   8  -2   18.40    1.50
  -2   8   2   19.30    1.40
  -2   8   2   21.00    1.30
  -1  -8   2  469.65   19.30
   1  -8  -2  449.26   19.20
  -1   8   2  441.36   19.20
  -1   8   2  467.85   19.20
   1   8  -2  454.15   19.30
   0  -8   2  126.79    5.40
   0   8  -2  115.49    5.30
   0   8   2  121.99    5.40
   0   8   2  133.39    5.40
   0   8  -2  130.19    5.50
   1  -8   2  322.07   14.40
  -1  -8  -2  349.87   14.50
   1  -8   2  341.77   14.50
   1   8   2  335.07   14.40
   1   8   2  350.16   14.50
  -1   8  -2  345.77   14.40
   2  -8   2  431.36   18.20
  -2  -8  -2  425.16   18.20
   2   8   2  413.76   18.30
   2   8   2  419.66   18.40
   2   8   2  425.86   18.20
  -2   8  -2  448.06   18.20
   3  -8   2    7.80    2.60
   3  -8   2    7.50    1.60
   3  -8   2   10.10    2.40
  -3  -8  -2    8.40    2.50
   3  -8   2    6.80    2.20
  -3  -8  -2   10.30    2.90
   3  -8   2    9.50    2.00
   3  -8   2    7.20    1.50
   3   8   2    6.30    2.00
   3   8   2    9.40    2.10
  -3   8  -2    4.40    1.60
   3   8   2   10.90    2.40
   3   8   2    8.50    1.90
   3   8   2    8.70    2.70
   4  -8   2   13.30    1.40
   4  -8   2   13.70    1.70
   4  -8   2   11.10    1.20
  -4   8  -2   15.00    2.20
   4   8   2   14.20    2.10
   4   8   2   10.70    1.40
   4   8   2   14.20    1.50
   4   8   2   11.40    1.80
  -4  -9   2   58.19    3.40
  -4  -9   2   59.59    3.50
   4  -9  -2   59.79    3.20
   4  -9  -2   65.49    3.10
   4   9  -2   69.09    3.20
   4   9  -2   60.29    3.40
  -4   9   2   68.49    3.50
  -3  -9   2   61.39    4.20
  -3  -9   2   60.59    3.30
   3  -9  -2   58.49    3.20
   3  -9  -2   56.89    3.80
  -3  -9   2   55.29    3.60
  -3   9   2   59.29    3.40
   3   9  -2   64.39    3.90
   3   9  -2   61.09    3.40
  -3   9   2   54.59    3.80
   3   9  -2   60.79    3.50
  -2  -9   2 1729.43   70.69
   2  -9  -2 1754.82   70.59
  -2  -9   2 1654.63   70.59
  -2   9   2 1678.33   70.49
  -2   9   2 1676.73   70.49
   2   9  -2 1614.84   70.69
   1  -9  -2   10.30    0.80
   1   9  -2    8.50    0.90
  -1   9   2    6.80    0.70
  -1   9   2   10.20    0.70
   0  -9   2  391.26   16.50
   0   9  -2  403.46   16.60
   0   9   2  390.06   16.50
   0   9   2  410.16   16.50
   0   9  -2  362.46   16.40
  -1  -9  -2   -0.20    0.40
   1   9   2    0.20    0.50
   1   9   2    0.20    0.60
  -1   9  -2    0.10    0.40
  -2  -9  -2  169.58    7.60
   2  -9   2  173.48    7.60
   2   9   2  160.28    7.60
   2   9   2  167.28    7.80
   2   9   2  172.28    7.50
  -2   9  -2  177.98    7.50
  -3  -9  -2    9.60    2.80
   3  -9   2    9.70    2.70
   3  -9   2    6.50    1.50
   3  -9   2    7.00    1.50
   3  -9   2    8.00    1.90
   3  -9   2    8.50    2.20
  -3  -9  -2    6.40    2.10
   3   9   2   10.50    2.10
  -3   9  -2    3.70    1.70
   3   9   2    8.80    2.10
   3   9   2    9.60    2.30
   3   9   2    7.80    1.90
   3   9   2    8.00    2.60
   4  -9   2   37.90    2.30
   4  -9   2   36.50    2.10
   4  -9   2   35.70    1.90
   4   9   2   33.40    2.10
   4   9   2   34.30    2.40
   4   9   2   29.00    2.00
   4   9   2   36.30    2.60
   4 -10  -2   13.70    1.60
  -4 -10   2   12.10    1.80
   4 -10  -2   14.80    1.40
  -4 -10   2   16.10    2.00
  -4  10   2   16.00    1.80
   4  10  -2   16.60    1.60
  -3 -10   2   39.90    3.70
   3 -10  -2   31.80    3.20
  -3 -10   2   37.10    2.50
   3 -10  -2   35.40    2.30
  -3 -10   2   33.20    2.90
  -3  10   2   37.10    2.70
   3  10  -2   35.10    2.50
   3  10  -2   37.50    2.80
   3  10  -2   39.20    3.20
  -2 -10   2   17.40    1.40
   2 -10  -2   21.00    1.50
  -2 -10   2   19.80    1.90
  -2  10   2   17.10    1.40
   2  10  -2   19.00    1.50
  -2  10   2   16.90    1.30
   1 -10  -2  451.55   19.00
  -1 -10   2  451.55   19.10
  -1  10   2  450.45   19.00
   1  10  -2  447.26   19.20
  -1  10   2  456.45   19.00
   0 -10   2    6.20    0.60
   0  10  -2    4.80    0.40
   0  10   2    7.10    0.60
   0  10  -2    6.20    0.60
   0  10   2    6.20    0.60
   1 -10   2  408.06   18.30
   1  10   2  426.26   18.20
   1  10   2  420.66   18.30
  -1  10  -2  475.55   18.30
   2 -10   2   40.00    2.20
  -2 -10  -2   38.90    2.30
   2  10   2   38.20    2.30
  -2  10  -2   38.50    2.10
   2  10   2   38.30    2.20
   2  10   2   38.40    2.80
   3 -10   2   35.50    2.30
   3 -10   2   35.40    2.50
   3 -10   2   34.40    2.70
  -3 -10  -2   37.50    3.50
   3 -10   2   30.30    2.50
   3  10   2   34.90    2.70
   3  10   2   33.40    3.10
   3  10   2   29.80    2.50
   3  10   2   27.60    3.20
   3  10   2   32.50    2.90
   4 -10   2   25.80    1.90
   4 -10   2   31.40    1.90
   4 -10   2   31.50    2.10
   4 -10   2   28.40    1.70
   4  10   2   29.40    2.50
   4  10   2   28.80    1.90
   4  10   2   25.20    2.10
   4  10   2   31.80    1.90
  -4 -11   2    4.60    1.50
  -4 -11   2    5.30    1.30
  -3 -11   2   -0.40    1.80
   3 -11  -2    6.40    2.40
  -3 -11   2    4.90    2.40
  -3 -11   2    3.70    1.20
   3 -11  -2    3.30    1.00
   3  11  -2    5.40    1.70
   3  11  -2    4.80    2.00
   3  11  -2    2.70    1.30
  -3  11   2    6.80    2.00
   2 -11  -2   70.89    3.40
  -2 -11   2   71.99    3.60
  -2 -11   2   70.49    3.40
  -2  11   2   68.99    3.30
   2  11  -2   67.09    3.50
  -2  11   2   67.29    3.30
   1 -11  -2  761.22   32.60
   1  11  -2  737.43   32.80
  -1  11   2  813.22   32.70
  -1  11   2  805.12   32.70
   0 -11   2 1194.98   49.60
   0  11  -2 1127.09   49.50
   0  11   2 1185.08   49.60
   0  11  -2 1189.38   49.70
   0  11   2 1230.68   49.60
  -1 -11  -2  187.98    8.00
   1 -11   2  178.68    8.00
   1  11   2  180.58    8.10
  -1  11  -2  194.58    8.00
   2 -11   2  254.97   11.50
  -2 -11  -2  269.87   11.60
   2  11   2  267.47   11.70
  -2  11  -2  267.57   11.50
   2  11   2  267.87   11.70
   3 -11   2    8.00    1.50
  -3 -11  -2    8.30    2.30
   3 -11   2    6.20    2.00
   3 -11   2    8.90    2.00
   3 -11   2    9.40    1.80
   3  11   2    2.80    1.40
   3  11   2    7.80    2.20
   3  11   2    4.70    2.10
   3  11   2    7.60    2.00
   3  11   2    6.30    1.80
   4 -11   2    7.50    1.40
   4 -11   2    9.70    1.30
   4 -11   2    7.20    1.10
   4 -11   2    7.10    1.30
   4  11   2    7.50    2.00
   4  11   2    5.80    1.50
   4  11   2    7.50    1.40
   4  11   2    9.50    1.30
  -4 -12   2   13.60    1.80
  -4 -12   2   17.20    2.00
   4 -12  -2   18.40    1.30
   4  12  -2   17.40    1.50
  -4  12   2   17.10    1.70
  -3 -12   2  478.55   20.20
  -3 -12   2  455.75   20.30
   3 -12  -2  480.55   20.00
  -3 -12   2  474.25   20.40
  -3  12   2  488.75   20.20
   3  12  -2  449.16   20.50
   3  12  -2  481.65   20.20
   3  12  -2  450.65   20.10
  -2 -12   2   30.20    1.90
  -2 -12   2   29.10    2.20
   2 -12  -2   32.80    2.00
  -2  12   2   31.50    1.80
   2  12  -2   28.60    2.00
  -1 -12   2 1723.23   77.19
   1  12  -2 1765.32   77.29
  -1  12   2 1920.21   77.19
  -1  12   2 1977.20   77.19
   0 -12   2  282.77   12.10
   0  12   2  286.57   12.20
   0  12   2  280.97   12.20
   0  12  -2  295.37   12.20
   1 -12   2   23.50    1.40
  -1 -12  -2   24.60    1.40
  -1  12  -2   26.60    1.30
   1  12   2   23.20    1.50
  -2 -12  -2    2.30    1.00
   2 -12   2    5.60    1.10
   2  12   2    2.90    1.30
  -2  12  -2    3.20    0.90
  -3 -12  -2  113.09    5.70
   3 -12   2  100.19    5.20
   3 -12   2   91.99    4.90
   3  12   2  106.39    5.60
   3  12   2  100.49    5.30
  -4 -12  -2    1.90    2.20
   4 -12   2    3.90    1.00
   4 -12   2    3.20    0.80
   4 -12   2    3.10    0.90
   4 -12   2    3.40    0.90
   4  12   2    2.90    1.30
   4  12   2    3.40    1.10
   4  12   2    4.90    1.20
   4  12   2    3.00    1.00
   4 -13  -2   14.50    1.20
  -4 -13   2   11.40    2.10
  -4 -13   2   12.20    1.70
   4  13  -2   11.70    1.30
  -4  13   2   13.20    1.60
  -3 -13   2   74.99    4.60
  -3 -13   2   81.19    4.80
   3 -13  -2   85.59    4.10
  -3 -13   2   90.99    4.30
   3  13  -2   79.49    4.40
  -3  13   2   86.09    4.40
   3  13  -2   88.29    4.30
   3  13  -2   83.39    4.90
  -2 -13   2    4.90    1.30
   2 -13  -2    6.20    1.40
  -2 -13   2    6.50    1.20
  -2  13   2    0.70    2.60
   2  13  -2    6.40    1.30
  -2  13   2    7.10    1.10
  -1 -13   2  307.07   12.90
   1  13  -2  298.67   13.00
  -1  13   2  314.37   12.80
  -1  13   2  289.57   13.00
   0 -13   2  234.88   10.10
   0  13  -2  240.58   10.20
   0  13   2  248.48   10.10
   0  13   2  239.88   10.10
   0  13  -2  220.78   10.00
  -1 -13  -2  245.38   10.50
   1 -13   2  230.98   10.50
   1  13   2  237.78   10.50
  -1  13  -2  264.57   10.40
  -2 -13  -2   32.70    2.20
   2 -13   2   34.20    2.10
   2  13   2   35.50    2.50
  -2  13  -2   36.10    2.00
   2  13   2   33.30    2.30
   3 -13   2  264.07   11.60
   3 -13   2  265.77   11.90
   3 -13   2  263.37   11.60
  -3 -13  -2  305.47   12.20
   3 -13   2  270.97   11.70
   3  13   2  272.47   12.00
   3  13   2  255.17   11.70
   3  13   2  253.47   12.10
   3  13   2  250.07   12.10
   4 -13   2    6.10    1.10
   4 -13   2    5.40    1.30
   4 -13   2    5.90    1.30
  -4 -13  -2    4.60    1.90
   4 -13   2    4.40    0.90
   4  13   2    3.50    1.00
   4  13   2    6.30    1.20
   4  13   2    5.60    1.70
  -4 -14   2   40.10    2.40
  -4 -14   2   33.90    2.70
   4 -14  -2   38.90    2.00
   4  14  -2   40.10    2.20
  -4  14   2   39.60    2.50
  -3 -14   2    7.90    2.50
  -3 -14   2   13.80    1.80
   3 -14  -2   12.70    1.60
   3  14  -2   17.30    3.70
  -3  14   2   16.00    2.10
   3  14  -2   14.20    2.00
  -2 -14   2  119.49    5.40
  -2 -14   2  122.69    5.60
  -2  14   2  117.59    5.30
   2  14  -2  112.69    5.50
  -1 -14   2  408.66   17.10
  -1  14   2  402.26   17.00
  -1  14   2  418.16   17.00
   1  14  -2  381.06   17.20
   0 -14   2  427.96   17.90
   0  14   2  458.95   17.90
   0  14   2  422.96   17.90
   0  14  -2  388.16   17.80
  -1 -14  -2  698.53   28.90
   1 -14   2  665.33   28.90
   1  14   2  691.43   28.90
   2 -14   2   41.30    2.50
  -2 -14  -2   44.80    2.60
   2  14   2   46.10    2.80
  -2  14  -2   42.50    2.30
   2  14   2   43.30    2.70
   3 -14   2   22.80    2.00
   3 -14   2   26.70    2.20
   3 -14   2   26.20    2.40
  -3 -14  -2   27.20    3.00
   3 -14   2   24.40    2.00
   3  14   2   24.90    2.60
   3  14   2   25.60    2.20
   3  14   2   23.80    3.00
   3  14   2   22.40    2.80
  -4 -14  -2   26.90    2.60
   4 -14   2   23.70    1.80
   4 -14   2   30.10    1.90
   4 -14   2   29.60    1.60
   4 -14   2   30.70    1.70
   4  14   2   26.60    2.00
   4  14   2   29.30    1.80
   4  14   2   30.00    2.30
   4 -15  -2   67.39    3.00
  -4 -15   2   55.89    3.40
  -4 -15   2   63.09    3.30
   4  15  -2   63.09    3.20
  -4  15   2   68.19    3.40
   3 -15  -2    4.50    1.40
  -3 -15   2    1.90    4.90
  -3 -15   2    7.80    1.60
  -3  15   2    6.00    1.80
   3  15  -2    4.70    1.40
  -2 -15   2  144.99    6.40
  -2 -15   2  140.79    6.30
   2  15  -2  133.69    6.50
  -2  15   2  137.69    6.20
  -1 -15   2  790.12   33.80
   1  15  -2  765.82   34.00
  -1  15   2  791.62   33.80
  -1  15   2  872.91   33.80
   0 -15   2   17.00    1.00
   0  15   2   15.90    1.00
   0  15  -2   15.70    1.10
   0  15  -2   16.20    1.00
   1 -15   2  480.25   20.50
  -1 -15  -2  472.35   20.40
  -1  15  -2  483.25   20.30
   1  15   2  491.55   20.50
   2 -15   2    0.70    1.00
  -2 -15  -2    1.50    1.10
  -2  15  -2    0.90    0.80
   2  15   2    2.10    1.30
   2  15   2    0.70    1.20
   3 -15   2   23.70    1.90
   3 -15   2   22.90    1.90
   3 -15   2   23.60    2.30
  -3 -15  -2   23.40    2.90
   3 -15   2   22.10    2.10
   3  15   2   19.60    2.90
   3  15   2   17.60    2.60
   3  15   2   18.70    2.10
   3  15   2   23.00    2.40
   4 -15   2   26.50    1.80
   4 -15   2   31.40    2.00
   4 -15   2   33.90    1.70
  -4 -15  -2   27.30    2.50
   4 -15   2   29.80    1.70
   4  15   2   30.90    1.90
   4  15   2   29.80    2.40
   4  15   2   29.00    2.00
   4 -16  -2    1.40    0.60
  -4 -16   2    1.80    1.10
  -4  16   2    5.40    1.50
   4  16  -2    1.10    0.80
  -3 -16   2   21.50    4.30
  -3 -16   2   28.70    2.10
   3  16  -2   19.00    4.40
   3  16  -2   26.40    2.70
  -2 -16   2    0.40    1.00
  -2 -16   2    1.90    1.30
   2  16  -2    1.30    1.10
  -2  16   2    1.00    0.90
  -1 -16   2  188.38    8.30
   1  16  -2  192.68    8.50
  -1  16   2  189.28    8.30
  -1  16   2  199.68    8.40
   0 -16   2   65.59    2.90
   0 -16  -2   63.19    2.90
   0  16   2   62.49    2.90
   0  16  -2   61.69    2.80
   0  16  -2   61.19    3.00
   1 -16   2  108.29    5.10
  -1 -16  -2  108.89    5.00
  -1  16  -2  115.89    4.90
   1  16   2  110.69    5.10
  -2 -16  -2  239.98   10.50
  -2  16  -2  231.08   10.30
   2  16   2  236.48   10.90
   2  16   2  240.38   10.50
   3 -16   2   40.70    2.50
   3 -16   2   41.60    2.80
   3 -16   2   40.30    2.50
  -3 -16  -2   41.80    3.30
   3 -16   2   40.40    2.50
   3  16   2   39.40    3.40
   3  16   2   42.10    3.00
   3  16   2   40.00    3.20
   3  16   2   38.80    2.60
   4 -16   2   34.20    1.70
   4 -16   2   35.70    1.90
   4 -16   2   31.30    1.70
  -4 -16  -2   25.40    2.50
   4 -16   2   27.70    1.80
   4  16   2   28.50    2.10
   4  16   2   27.70    2.30
   4  16   2   28.30    1.80
  -4 -17   2   23.60    1.80
   4 -17  -2   21.10    1.40
  -4  17   2   20.80    2.00
   4  17  -2   19.80    1.50
  -3 -17   2    7.80    2.70
   3 -17  -2    9.50    1.50
  -3 -17   2   11.70    1.60
   3  17  -2    9.70    1.80
   3  17  -2    6.90    2.50
  -3  17   2    9.10    1.90
  -2 -17   2   50.59    2.90
  -2 -17   2   56.39    3.10
  -2  17   2   51.49    2.80
   2  17  -2   51.59    3.10
  -1 -17   2  459.25   19.10
  -1  17   2  449.66   19.00
   1  17  -2  470.85   19.20
  -1  17   2  417.06   19.10
   0 -17   2    5.90    0.80
   0 -17  -2    4.50    0.70
   0  17  -2    5.30    0.70
   0  17  -2    6.40    1.00
   0  17   2    4.60    0.70
  -1 -17  -2  175.48    7.80
   1 -17   2  182.88    7.80
  -1  17  -2  180.98    7.60
   1  17   2  172.08    7.80
   1  17   2  172.18    7.90
   2 -17   2    9.90    1.50
  -2 -17  -2    6.30    1.90
   2 -17   2   14.20    2.90
   2 -17   2   10.20    2.00
   2 -17   2   10.70    3.00
   2 -17   2   11.90    2.50
   2  17   2   14.30    1.80
   2  17   2   11.10    3.40
   2  17   2    7.90    1.90
   3 -17   2    6.10    1.50
   3 -17   2    5.40    1.20
   3 -17   2    5.40    1.50
  -3 -17  -2    6.70    1.90
   3 -17   2    7.20    1.80
   3  17   2    5.30    1.80
   3  17   2    5.80    1.70
   3  17   2    6.70    2.00
   3  17   2    6.90    2.40
   4 -17   2    9.00    1.10
  -4 -17  -2    7.60    2.00
   4 -17   2    9.60    1.10
   4 -17   2    8.20    1.20
   4 -17   2    8.30    1.00
   4  17   2    5.50    1.70
   4  17   2    5.10    1.10
   4  17   2    7.50    1.40
   4 -18  -2    9.50    1.00
  -4 -18   2    9.90    2.20
   4  18  -2    7.50    1.10
  -4  18   2    5.80    1.50
  -3 -18   2   58.99    4.70
   3 -18  -2   66.29    3.40
  -3 -18   2   68.29    3.60
   3  18  -2   61.19    4.40
  -3  18   2   69.49    3.80
   3  18  -2   69.19    3.60
  -2 -18   2  136.09    6.20
  -2  18   2  129.99    5.90
   2  18  -2  126.69    6.70
  -1 -18   2   30.80    1.80
   1  18  -2   30.20    1.90
  -1  18   2   31.80    1.70
  -1  18   2   30.40    1.70
   0 -18  -2 1233.68   52.09
   0 -18   2 1281.27   51.99
   0  18  -2 1243.28   52.19
   0  18   2 1214.28   52.09
  -1 -18  -2    4.00    0.80
   1 -18   2    3.80    1.00
   1  18   2    4.30    1.00
   1  18   2    3.50    1.10
  -1  18  -2    4.50    0.80
   2 -18   2   58.39    3.40
   2 -18   2   65.29    3.40
   2 -18   2   61.09    3.50
   2 -18   2   61.39    3.90
   2 -18   2   63.59    3.60
  -2 -18  -2   64.09    3.50
  -2  18  -2   65.29    3.20
   2  18   2   66.09    3.50
   2  18   2   68.39    4.10
   2  18   2   55.09    4.30
   2  18   2   58.59    4.10
   2  18   2   63.09    3.70
   3 -18   2    0.20    1.00
  -3 -18  -2    0.90    1.80
   3 -18   2    3.30    1.10
   3 -18   2   -0.50    1.10
   3 -18   2    0.10    1.10
   3  18   2   -0.70    1.40
   3  18   2    1.30    1.20
   3  18   2    2.50    1.60
   3  18   2    0.70    1.70
   4 -18   2   54.39    2.70
   4 -18   2   60.19    2.70
   4 -18   2   52.39    2.70
  -4 -18  -2   56.69    3.20
   4 -18   2   57.19    2.90
   4  18   2   58.29    3.20
   4  18   2   61.59    3.00
   4  18   2   55.39    2.80
   4 -19  -2    8.80    1.00
  -4 -19   2    9.20    1.40
  -4  19   2    7.80    1.50
   4  19  -2    6.80    1.10
   3 -19  -2   90.59    4.30
  -3 -19   2   98.89    4.60
  -3 -19   2   89.79    5.50
   3  19  -2   95.09    4.60
   3  19  -2   84.59    5.20
  -3  19   2   90.49    4.70
  -2 -19   2   90.49    4.40
  -2 -19   2   89.29    4.30
  -2 -19   2   97.89    5.20
  -2  19   2   73.19    4.70
   2  19  -2   85.89    4.50
  -1 -19   2   65.39    3.20
   1 -19  -2   68.99    3.20
   1  19  -2   66.39    3.40
  -1  19   2   66.79    3.20
   0 -19  -2   62.19    2.90
   0 -19   2   63.39    2.90
   0  19   2   59.19    2.90
   0  19  -2   63.49    3.00
   1 -19   2  421.66   17.80
  -1 -19  -2  425.36   17.70
   1  19   2  415.26   17.70
  -1  19  -2  419.16   17.60
   1  19   2  391.46   17.70
   2 -19   2    8.60    1.70
   2 -19   2    8.60    1.90
   2 -19   2    7.90    1.70
  -2 -19  -2    6.30    1.80
   2 -19   2   10.10    1.80
   2 -19   2    9.20    2.30
   2  19   2    9.00    2.60
  -2  19  -2    7.90    1.40
   2  19   2    9.80    2.30
   2  19   2    6.60    1.70
   2  19   2    8.50    2.20
   2  19   2    9.20    3.60
   2  19   2    8.00    2.00
   3 -19   2   32.00    2.40
  -3 -19  -2   35.60    3.40
   3 -19   2   28.10    2.10
   3 -19   2   29.30    2.00
   3 -19   2   27.60    2.00
   3  19   2   28.30    2.30
   3  19   2   27.80    2.80
   3  19   2   25.30    2.80
   4 -19   2   17.90    1.40
   4 -19   2   21.10    1.40
   4 -19   2   19.00    1.20
  -4 -19  -2   18.80    2.10
   4 -19   2   20.50    1.40
   4  19   2   17.50    1.40
   4  19   2   21.10    1.60
   4  19   2   18.10    2.00
   4 -20  -2   29.50    1.60
  -4 -20   2   33.10    2.10
  -4  20   2   29.10    2.10
   4  20  -2   28.60    1.70
  -3 -20   2  147.09    7.60
   3 -20  -2  142.99    6.60
  -3 -20   2  155.68    6.90
   3  20  -2  146.99    6.80
  -3  20   2  143.99    6.90
   3  20  -2  147.09    7.30
  -2 -20   2   72.89    4.10
  -2 -20   2   80.59    4.00
  -2 -20   2   76.79    4.10
  -2 -20   2   76.89    5.10
   2  20  -2   81.09    4.20
  -2  20   2   78.89    3.90
  -1 -20   2  781.42   33.10
   1 -20  -2  794.42   33.10
  -1  20   2  787.62   33.10
   1  20  -2  783.82   33.30
   0 -20  -2  135.09    5.70
   0 -20   2  130.79    5.60
   0  20   2  124.29    5.70
   0  20  -2  121.79    5.70
   1 -20   2    1.60    0.90
   1  20   2    0.80    1.10
   2 -20   2    7.60    1.70
   2 -20   2    7.90    2.20
   2 -20   2    6.30    1.90
   2 -20   2    6.70    1.90
  -2 -20  -2    4.70    1.60
   2 -20   2    7.10    1.50
  -2  20  -2    6.60    1.40
   2  20   2    5.50    1.30
   2  20   2    7.60    2.40
   2  20   2    3.80    1.90
   2  20   2    5.40    2.00
   2  20   2    5.30    2.00
   2  20   2    5.50    2.50
   3 -20   2  123.19    5.70
   3 -20   2  126.79    5.80
   3 -20   2  129.59    6.00
   3 -20   2  126.69    5.80
  -3 -20  -2  129.49    6.30
   3  20   2  123.59    6.20
   3  20   2  128.29    6.30
   3  20   2  122.59    6.10
   3  20   2  124.79    6.00
  -4 -20  -2   32.30    2.50
   4 -20   2   36.10    1.90
   4 -20   2   40.60    2.40
   4 -20   2   40.40    2.00
   4 -20   2   40.70    2.00
   4  20   2   33.30    2.00
   4  20   2   39.40    2.10
   4  20   2   36.20    2.40
   4 -21  -2   13.10    1.00
  -4 -21   2   10.70    1.60
   4  21  -2   12.20    1.10
  -4  21   2   12.80    1.60
  -3 -21   2  179.58    7.70
  -3 -21   2  158.98    8.30
   3 -21  -2  168.28    7.40
  -3  21   2  162.68    7.80
   3  21  -2  170.48    7.70
   3  21  -2  170.88    8.10
   2 -21  -2  107.69    5.80
  -2 -21   2  118.79    6.40
  -2 -21   2  112.19    5.50
  -2 -21   2  119.49    5.60
  -2 -21   2  120.39    5.60
  -2  21   2  116.49    5.40
   2  21  -2  120.19    5.80
  -2  21   2  108.39    6.00
   2  21  -2  114.19    6.50
  -1 -21   2  338.27   15.00
   1 -21  -2  366.96   15.00
   1  21  -2  354.06   15.20
  -1  21   2  344.67   15.00
   0 -21   2   90.29    4.20
   0 -21  -2   86.59    4.10
   0  21  -2   89.09    4.10
   0  21   2   87.19    4.10
   1 -21   2  422.76   16.90
  -1 -21  -2  386.76   16.80
   1  21   2  372.16   16.90
  -1  21  -2  385.16   16.70
   1  21   2  398.16   16.90
   2 -21   2   28.70    2.30
   2 -21   2   35.20    2.70
   2 -21   2   28.30    2.20
   2 -21   2   33.50    2.60
   2 -21   2   31.40    2.40
  -2 -21  -2   29.70    2.60
   2  21   2   31.50    3.00
   2  21   2   31.20    3.10
   2  21   2   30.80    3.60
   2  21   2   30.20    2.30
   2  21   2   29.90    3.30
   2  21   2   33.00    3.10
  -2  21  -2   31.80    2.20
   3 -21   2    6.00    1.40
   3 -21   2    7.50    1.40
  -3 -21  -2    6.40    2.10
   3 -21   2    8.90    1.70
   3 -21   2    7.40    1.30
   3  21   2    6.50    1.70
   3  21   2   11.30    2.40
   3  21   2    8.60    1.70
   3  21   2    7.20    1.70
   4 -21   2    0.60    0.70
   4 -21   2   -0.20    0.70
   4 -21   2    1.80    0.70
   4 -21   2    1.20    0.80
   4  21   2    1.60    1.30
   4  21   2    1.80    1.10
   4  21   2    1.10    0.70
   4 -22  -2    0.30    0.50
  -4 -22   2    0.00    1.10
   4  22  -2    1.10    0.70
  -4  22   2    1.10    1.40
   3 -22  -2   74.39    3.60
  -3 -22   2   76.09    4.70
  -3  22   2   72.59    4.20
   3  22  -2   76.09    4.50
   3  22  -2   77.89    3.90
  -2 -22   2  382.16   15.70
  -2 -22   2  368.66   15.70
  -2 -22   2  393.86   16.40
   2 -22  -2  316.57   15.60
  -2 -22   2  377.16   15.70
  -2  22   2  357.46   15.60
   2  22  -2  378.66   16.00
  -2  22   2  336.57   15.80
   2  22  -2  354.26   16.10
  -1 -22   2  347.27   15.00
  -1  22   2  350.16   14.90
   1  22  -2  350.66   15.10
   0 -22  -2  103.69    4.70
   0  22   2   98.29    4.70
   0  22  -2  104.79    4.70
   1 -22   2  751.22   29.90
  -1 -22  -2  693.93   29.80
   1  22   2  682.73   29.90
  -1  22  -2  707.03   29.70
   1  22   2  689.03   29.90
  -2 -22  -2   14.60    2.20
   2 -22   2   15.10    2.00
   2 -22   2   12.40    2.40
   2 -22   2   19.10    1.90
   2 -22   2   14.40    1.80
   2 -22   2   13.90    2.10
   2  22   2    9.10    2.80
   2  22   2   13.00    2.90
   2  22   2   11.60    2.60
   2  22   2   15.30    3.00
   2  22   2   12.40    2.20
  -2  22  -2   10.70    1.80
   2  22   2   10.80    1.80
   3 -22   2   11.60    1.50
   3 -22   2    9.60    1.40
   3 -22   2   12.70    1.70
   3 -22   2   11.90    1.50
  -3 -22  -2    9.10    1.90
   3  22   2    6.30    1.60
   3  22   2   15.10    2.20
   3  22   2   10.80    1.70
   3  22   2    7.60    1.70
   4 -22   2    3.30    0.90
   4 -22   2    2.70    0.80
   4 -22   2    3.70    1.00
   4 -22   2    3.90    0.90
   4  22   2    1.80    0.80
   4  22   2    4.60    0.90
   4  22   2    6.40    1.60
   4 -23  -2   17.50    1.20
  -4 -23   2   17.40    1.60
  -4  23   2   18.50    1.80
   4  23  -2   16.20    1.20
  -3 -23   2   20.60    1.90
   3 -23  -2   20.70    1.70
  -3 -23   2   25.70    2.90
   3  23  -2   23.10    3.00
  -3  23   2   21.10    2.50
   3  23  -2   22.70    1.90
  -2 -23   2  462.85   21.40
  -2 -23   2  522.85   21.40
   2 -23  -2  454.55   21.30
  -2 -23   2  514.45   21.50
  -2 -23   2  550.14   22.10
  -2  23   2  506.95   21.40
   2  23  -2  498.65   21.80
  -2  23   2  475.15   21.50
   2  23  -2  522.45   21.70
  -1 -23   2    4.50    1.30
   1  23  -2    5.60    1.40
  -1  23   2    6.90    1.10
   0 -23  -2   12.30    1.10
   0  23   2    9.80    1.10
   0  23  -2   10.80    1.20
   0  23   2    9.90    2.00
  -1 -23  -2  135.99    6.10
   1 -23   2  137.89    6.20
   1  23   2  130.39    6.20
  -1  23  -2  128.39    5.90
   1  23   2  133.79    6.20
   2 -23   2    2.60    1.70
  -2 -23  -2    2.70    1.50
   2 -23   2    1.20    1.40
   2 -23   2    1.50    1.40
   2 -23   2    1.90    1.20
   2 -23   2    2.50    1.10
   2  23   2    0.40    2.30
   2  23   2   -3.00    1.90
  -2  23  -2    0.50    1.40
   2  23   2   -1.20    1.80
   2  23   2    0.60    1.30
   2  23   2   -1.50    1.80
   2  23   2    1.80    2.10
   3 -23   2   49.60    2.70
  -3 -23  -2   45.00    3.10
   3 -23   2   55.39    2.80
   3 -23   2   50.19    2.90
   3 -23   2   50.79    2.70
   3  23   2   51.59    3.50
   3  23   2   48.00    3.20
   3  23   2   50.79    2.90
   4  23   2   60.49    2.90
   4  23   2   58.89    2.80
  -4 -24   2   35.70    2.20
   4 -24  -2   36.60    2.00
   4  24  -2   36.20    1.90
  -3 -24   2  325.27   14.30
   3 -24  -2  318.37   13.60
  -3 -24   2  304.67   13.80
   3  24  -2  313.97   13.80
  -3  24   2  328.17   13.90
  -2 -24   2    4.40    1.70
  -2 -24   2    7.00    1.50
  -2 -24   2    5.90    1.40
  -2 -24   2    7.10    2.60
  -2  24   2    5.10    2.00
  -2  24   2    5.40    1.70
  -2  24   2    5.20    1.70
   2  24  -2    5.90    1.90
   2  24  -2    7.70    2.40
  -1 -24   2   36.70    2.30
   1  24  -2   40.90    2.50
  -1  24   2   37.60    2.20
   0 -24  -2  410.66   17.20
   0  24  -2  424.06   17.30
   0  24   2  372.06   17.20
   0  24   2  402.36   17.20
   1 -24   2   48.40    2.80
  -1 -24  -2   46.90    2.70
   1  24   2   44.70    2.80
   1  24   2   47.50    2.80
  -1  24  -2   44.40    2.60
   2 -24   2   49.60    3.00
  -2 -24  -2   49.20    3.30
   2 -24   2   52.89    3.60
   2 -24   2   49.60    3.10
   2 -24   2   50.69    3.00
   2 -24   2   48.70    2.80
   2  24   2   50.89    3.00
   2  24   2   53.09    4.00
   2  24   2   49.30    3.50
  -2  24  -2   48.90    3.10
   2  24   2   45.70    3.50
   2  24   2   43.90    3.80
   2  24   2   44.40    4.10
   3 -24   2    1.10    0.90
   3 -24   2    1.30    0.80
   3 -24   2    3.70    1.10
   3 -24   2    2.60    1.00
  -3 -24  -2    2.40    1.40
   3  24   2    2.50    1.10
   3  24   2    0.90    1.40
   3  24   2    0.20    1.40
   4  25  -2    5.50    0.80
   3 -25  -2   25.10    1.80
  -3 -25   2   22.50    2.00
  -3 -25   2   25.00    2.80
   3  25  -2   24.00    2.80
   3  25  -2   25.90    1.90
  -3  25   2   25.40    2.50
  -2 -25   2   43.40    3.00
  -2 -25   2   40.80    2.80
  -2 -25   2   43.70    3.70
  -2 -25   2   38.70    2.70
   2  25  -2   38.80    3.70
   2  25  -2   42.90    3.40
  -2  25   2   40.50    3.50
  -2  25   2   43.10    2.80
  -2  25   2   36.80    3.40
  -1 -25   2   54.39    3.20
  -1  25   2   64.99    3.20
   1  25  -2   56.39    3.20
   0 -25  -2  683.53   29.50
   0  25  -2  735.33   29.60
   0  25   2  662.93   29.60
   0  25   2  711.73   29.50
  -1 -25  -2    0.60    1.10
   1 -25   2    1.10    1.70
  -1  25  -2    2.10    1.40
  -1  25  -2    1.30    1.20
   1  25   2   -0.30    1.20
   1  25   2    1.00    1.20
   2 -25   2  175.28    8.00
   2 -25   2  182.88    8.00
   2 -25   2  182.98    8.00
  -2 -25  -2  176.78    8.40
   2 -25   2  185.68    8.50
   2 -25   2  183.08    8.20
   2  25   2  193.88    8.20
   2  25   2  179.48    8.20
  -2  25  -2  168.68    8.20
   2  25   2  182.38    8.80
   2  25   2  164.88    8.90
   2  25   2  174.18    8.60
   2  25   2  173.48    8.40
   3 -25   2   17.40    1.50
  -3 -25  -2   12.80    1.90
   3 -25   2   17.80    1.40
   3 -25   2   17.50    1.50
   3 -25   2   18.30    1.60
   3  25   2   20.30    2.10
   3  25   2   14.20    2.30
   3  25   2   17.90    1.80
   4 -26  -2   18.00    1.20
   3 -26  -2  363.16   15.10
  -3 -26   2  346.87   15.70
  -3 -26   2  344.47   15.30
  -3  26   2  366.46   15.30
   3  26  -2  350.66   15.20
  -2 -26   2   91.59    4.90
   2 -26  -2   77.09    4.50
  -2 -26   2   88.69    4.20
  -2 -26   2   82.69    4.30
  -2 -26   2   77.89    4.50
   2  26  -2   82.99    4.80
   2  26  -2   78.19    5.00
  -2  26   2   78.49    4.40
  -2  26   2   80.19    4.70
  -2  26   2   81.59    4.70
  -1 -26   2  294.37   13.60
  -1 -26   2  269.77   12.00
  -1 -26   2  239.48   11.40
  -1  26   2  258.77   11.40
   1  26  -2  249.78   11.70
   0 -26  -2  137.09    6.10
   0  26  -2  139.99    6.20
   0  26   2  125.19    6.30
   0  26   2  134.49    6.10
   1 -26   2   75.19    4.40
  -1 -26  -2   81.29    4.00
   1 -26   2   74.69    4.00
   1 -26   2   72.09    4.10
   1 -26   2   78.19    4.00
   1  26   2   82.49    4.10
   1  26   2   81.69    4.10
   1  26   2   72.09    4.70
   1  26   2   81.09    4.70
  -1  26  -2   77.79    3.90
   2 -26   2  163.48    7.50
   2 -26   2  162.88    7.70
   2 -26   2  169.48    7.50
   2 -26   2  160.38    7.40
   2  26   2  171.38    7.70
   2  26   2  158.28    7.80
   2  26   2  158.58    8.10
   2  26   2  165.28    8.10
  -2  26  -2  188.98    8.40
   2  26   2  169.58    7.80
  -3 -26  -2  108.59    5.80
   3 -26   2  122.59    5.60
   3 -26   2  124.99    5.70
   3 -26   2  124.19    5.60
   3 -26   2  128.39    5.60
   3  26   2  124.39    5.90
   3  26   2  130.99    6.10
   3  26   2  125.69    5.70
   3 -27  -2    2.20    0.90
  -3 -27   2    2.10    1.30
  -3 -27   2    1.20    1.60
   3  27  -2    0.00    1.50
   3  27  -2    1.40    1.00
   2 -27  -2  222.68   10.30
  -2 -27   2  225.98   10.20
  -2 -27   2  235.78   10.90
  -2 -27   2  239.68   10.20
   2  27  -2  227.08   10.50
   2  27  -2  248.68   11.50
   2  27  -2  237.48   10.30
  -2  27   2  208.58   10.40
  -1 -27   2    0.70    1.50
  -1 -27   2   -1.10    2.40
  -1 -27   2    1.10    1.40
  -1 -27   2    1.60    1.40
  -1 -27   2    0.10    1.40
  -1  27   2    2.50    1.20
  -1  27   2    1.60    1.20
  -1  27   2    1.50    1.80
   1  27  -2   -1.40    1.40
   0 -27  -2    4.10    1.40
   0  27  -2    5.20    1.10
   0  27   2    4.20    1.50
  -1 -27  -2  412.56   19.00
   1 -27   2  422.66   18.80
   1 -27   2  439.36   19.00
   1 -27   2  450.35   18.80
   1 -27   2  436.36   18.70
   1  27   2  446.66   18.80
  -1  27  -2  427.46   18.80
   1  27   2  468.25   19.00
   1  27   2  462.05   19.20
   1  27   2  467.65   19.40
   1  27   2  392.26   19.00
   2 -27   2   29.90    2.40
   2 -27   2   30.50    2.20
   2 -27   2   30.10    2.10
   2 -27   2   29.20    2.30
   2  27   2   22.80    2.60
   2  27   2   29.10    2.20
   2  27   2   27.60    3.00
   2  27   2   30.30    3.10
   3 -27   2   12.00    1.20
   3 -27   2   11.10    1.40
  -3 -27  -2    9.90    1.70
   3  27   2   10.10    2.50
   3  27   2   11.50    1.80
  -3 -28   2    6.80    1.60
  -3 -28   2    6.90    2.10
   3  28  -2    7.70    1.80
   3  28  -2    7.40    1.30
  -2 -28   2  545.45   26.50
  -2 -28   2  664.03   28.30
   2  28  -2  672.13   27.10
  -1 -28   2    0.70    1.40
  -1 -28   2    1.20    2.40
  -1 -28   2   -0.10    1.60
  -1 -28   2    0.90    1.40
  -1 -28   2    3.40    1.40
  -1  28   2    0.50    1.20
  -1  28   2    0.10    1.00
   1  28  -2   -0.50    1.50
  -1  28   2    0.10    1.80
   0 -28   2   22.70    2.20
   0 -28  -2   26.60    2.60
   0 -28   2   22.00    2.70
   0  28  -2   26.00    2.10
   0  28   2   25.20    2.60
   0  28   2   21.00    3.00
   0  28   2   22.40    1.90
   1 -28   2  362.96   15.90
   1 -28   2  354.46   15.90
   1 -28   2  344.47   15.70
   1 -28   2  364.66   15.60
  -1 -28  -2  377.26   15.90
   1 -28   2  365.56   15.70
  -1 -28  -2  352.16   15.90
   1  28   2  338.57   16.00
   1  28   2  367.96   15.70
   1  28   2  366.96   16.10
  -1  28  -2  371.96   15.80
   1  28   2  379.16   16.30
   1  28   2  389.96   16.00
   2 -28   2   49.60    2.90
   2 -28   2   53.39    2.90
   2 -28   2   54.99    2.90
   2 -28   2   52.39    3.00
   2  28   2   45.60    3.30
   2  28   2   45.10    3.70
   2  28   2   55.69    3.10
   2  28   2   54.79    3.80
   2  28   2   49.60    3.50
  -3 -28  -2   10.70    1.70
   3 -28   2   15.30    1.40
   3 -28   2   14.00    1.30
   3 -28   2   14.70    1.30
   3 -28   2   15.20    1.30
   3  28   2   14.60    2.00
   3  28   2   14.80    1.50
   3  28   2   11.90    1.90
   3 -29  -2  134.49    6.00
  -3 -29   2  128.59    6.20
  -3 -29   2  136.19    7.20
   3  29  -2  137.49    6.10
   3  29  -2  142.19    6.40
  -2 -29   2    7.20    2.50
  -2 -29   2   13.50    3.40
   2 -29  -2    7.60    2.10
   2  29  -2    7.80    1.90
   2  29  -2    7.30    1.50
  -1 -29   2    5.20    1.30
  -1 -29   2    2.60    1.30
  -1 -29   2    6.40    1.50
  -1 -29   2    8.70    2.90
  -1 -29   2    4.80    1.80
  -1  29   2    4.00    1.20
  -1  29   2    5.10    1.70
  -1  29   2    6.80    1.50
   1  29  -2    3.10    1.90
   0 -29   2    3.50    1.50
   0 -29   2    1.40    1.20
   0 -29  -2    2.40    1.40
   0 -29   2    4.30    1.40
   0  29   2    3.10    1.80
   0  29   2    3.70    1.20
   0  29   2    3.30    2.10
   0  29   2    3.10    1.30
   0  29  -2    2.50    1.30
   1 -29   2  151.48    6.70
   1 -29   2  144.39    6.80
  -1 -29  -2  156.28    7.00
   1 -29   2  148.39    6.70
   1 -29   2  149.29    7.00
   1 -29   2  143.79    7.00
  -1 -29  -2  143.09    7.10
   1  29   2  153.08    7.10
  -1  29  -2  147.19    7.00
   1  29   2  159.18    7.40
   1  29   2  130.49    7.30
   1  29   2  149.39    6.90
   1  29   2  146.69    7.20
   2 -29   2  182.08    8.20
   2 -29   2  186.18    8.20
   2 -29   2  190.48    8.30
   2 -29   2  186.28    8.40
   2  29   2  183.68    8.80
   2  29   2  181.18    8.60
   2  29   2  178.68    8.90
   2  29   2  197.38    8.40
   2  29   2  186.88    8.40
   3 -29   2   12.10    1.20
  -3 -29  -2   11.10    1.60
   3 -29   2   11.50    1.20
  -3 -29  -2   10.80    3.50
   3 -29   2   11.10    1.20
   3 -29   2   11.30    1.20
   3  29   2    9.70    1.40
   3  29   2   11.40    1.80
   3  29   2   10.00    1.80
   3 -30  -2  138.69    6.10
  -3 -30   2  144.19    6.70
  -3 -30   2  132.59    6.30
   3  30  -2  143.89    6.50
   3  30  -2  137.39    6.20
   2 -30  -2   39.70    2.80
  -2 -30   2   41.40    3.40
   2  30  -2   40.90    2.70
   2  30  -2   40.60    3.10
  -1 -30   2   19.70    2.10
  -1 -30   2   16.70    3.00
  -1 -30   2   21.20    2.70
  -1 -30   2   28.70    3.40
  -1 -30   2   22.70    2.00
   1  30  -2   23.00    2.90
  -1  30   2   22.40    2.50
  -1  30   2   25.90    2.20
   1  30  -2   24.30    2.70
  -1  30   2   18.00    2.80
   0 -30   2  123.99    6.30
   0 -30  -2  133.29    6.20
   0 -30   2  128.69    6.00
   0 -30   2  134.69    6.10
   0  30  -2  130.49    6.20
   0  30   2  128.99    6.10
   0  30   2  138.59    6.80
   0  30   2  129.39    6.20
   0  30   2  133.09    6.50
   0  30  -2  111.99    6.60
  -1 -30  -2  157.98    7.80
   1 -30   2  163.38    7.60
  -1 -30  -2  165.48    7.80
   1 -30   2  167.18    7.70
   1 -30   2  163.88    7.70
   1 -30   2  172.38    7.50
   1 -30   2  172.08    7.50
   1  30   2  171.48    8.00
  -1  30  -2  157.38    7.80
   1  30   2  171.68    7.70
   1  30   2  172.68    8.10
   1  30   2  160.58    7.90
   2 -30   2    7.00    1.60
   2 -30   2    7.50    1.40
   2 -30   2    8.60    1.50
   2 -30   2    9.00    1.50
   2  30   2    7.50    2.10
   2  30   2    8.30    1.70
   2  30   2    8.60    1.80
   2  30   2    7.40    1.60
   3 -30   2   55.59    2.60
  -3 -30  -2   47.60    3.60
   3 -30   2   49.40    2.60
   3 -30   2   55.09    2.60
   3 -30   2   53.29    2.70
  -3 -30  -2   51.49    3.00
   3  30   2   52.79    2.70
   3  30   2   51.19    2.90
   3  30   2   56.49    3.10
  -3 -31   2   91.99    4.50
   3 -31  -2   88.09    4.00
  -3 -31   2   83.29    4.20
   3  31  -2   90.49    4.30
   3  31  -2   80.29    4.00
   2 -31  -2    1.70    1.20
  -2 -31   2    2.90    1.70
   2  31  -2    2.60    1.40
  -2  31   2    3.10    1.70
   2  31  -2    2.00    1.50
  -1 -31   2   26.50    2.70
   1 -31  -2   28.30    2.30
  -1 -31   2   27.70    2.30
  -1 -31   2   28.00    3.10
   1  31  -2   23.70    2.60
   1  31  -2   25.70    3.30
  -1  31   2   27.90    2.60
  -1  31   2   25.40    2.80
  -1  31   2   30.20    2.50
   0 -31   2   84.49    4.40
   0 -31  -2   74.19    4.90
   0 -31   2   85.69    4.10
   0 -31  -2   86.49    4.40
   0 -31   2   83.69    4.20
   0  31   2   83.89    4.30
   0  31   2   87.69    5.00
   0  31   2   80.29    4.40
   0  31  -2   79.49    4.90
   0  31   2   76.09    4.60
   0  31  -2   85.99    4.40
  -1 -31  -2  131.89    6.70
   1 -31   2  136.89    6.30
   1 -31   2  138.29    6.30
  -1 -31  -2  135.99    6.70
   1 -31   2  131.99    6.30
   1 -31   2  136.29    6.50
   1 -31   2  136.19    6.50
   1  31   2  137.49    6.90
   1  31   2  143.69    6.50
   1  31   2  141.29    7.00
  -1  31  -2  134.19    6.70
   1  31   2  137.59    6.80
   2 -31   2    8.90    1.50
  -2 -31  -2    8.60    2.80
   2 -31   2    9.00    1.40
   2 -31   2    8.80    1.50
   2 -31   2   10.60    1.50
   2  31   2    9.70    1.70
   2  31   2    8.40    2.00
   2  31   2    8.10    1.70
   2  31   2   11.90    2.60
   2  31   2   11.40    2.20
   3 -31   2   40.90    2.10
   3 -31   2   41.10    2.00
  -3 -31  -2   38.20    3.30
   3 -31   2   37.00    2.00
  -3 -31  -2   33.60    3.10
   3 -31   2   40.80    2.00
   3  31   2   37.60    2.40
   3  31   2   40.40    2.50
   3  31   2   40.40    2.20
  -3 -32   2    4.00    1.60
  -3 -32   2    3.10    1.50
   3  32  -2    4.60    1.10
   3  32  -2    3.10    1.10
  -2 -32   2    6.40    2.20
   2 -32  -2   10.10    2.00
  -2  32   2    3.30    1.60
   2  32  -2    6.00    1.60
   2  32  -2    6.50    1.80
   1 -32  -2   29.00    2.30
  -1 -32   2   28.50    2.30
  -1 -32   2   27.30    2.70
  -1 -32   2   26.60    3.20
   1  32  -2   27.00    2.60
  -1  32   2   21.80    2.50
   1  32  -2   27.50    4.60
  -1  32   2   28.00    2.80
   0 -32   2  948.11   41.00
   0 -32   2  996.20   40.90
   0 -32   2  970.60   40.80
   0 -32  -2  992.90   41.00
   0  32  -2  902.41   41.00
   0  32   2  981.60   41.10
   0  32  -2  997.80   41.10
   0  32   2  966.70   41.40
   1 -32   2   59.99    3.40
   1 -32   2   53.19    3.30
   1 -32   2   59.69    3.20
   1 -32   2   59.89    3.20
  -1 -32  -2   62.09    3.70
   1 -32   2   54.69    3.50
   1  32   2   57.99    3.50
   1  32   2   54.19    3.60
   1  32   2   60.49    3.80
   2 -32   2   61.99    2.90
  -2 -32  -2   53.09    4.00
   2 -32   2   56.79    2.90
   2 -32   2   56.69    3.00
   2 -32   2   52.49    2.80
   2  32   2   50.39    3.50
   2  32   2   53.09    3.10
   2  32   2   53.29    3.20
   2  32   2   54.19    3.70
  -3 -32  -2    7.20    2.60
   3 -32   2   10.30    1.10
   3 -32   2    9.20    1.10
  -3 -32  -2    9.20    1.50
   3 -32   2   11.40    1.00
   3 -32   2   11.20    1.00
   3  32   2   10.60    1.50
   3  32   2   11.00    1.20
  -3 -33   2   28.40    2.20
   3  33  -2   31.40    2.00
   3  33  -2   23.40    1.70
  -2 -33   2  195.98    8.70
   2 -33  -2  172.18    8.20
   2  33  -2  187.38    8.30
   2  33  -2  185.28    8.10
  -2  33   2  169.88    8.30
  -1 -33   2   27.00    2.40
  -1 -33   2   34.30    4.40
  -1  33   2   27.40    3.80
   0 -33   2    8.30    1.90
   0 -33   2    9.80    1.80
   0 -33  -2   13.70    2.00
   0 -33   2    8.20    1.60
   0  33   2   12.40    2.60
   0  33  -2   10.00    2.70
   0  33   2    7.70    2.20
   0  33   2    8.30    2.30
   1 -33   2  104.89    5.20
   1 -33   2  109.09    5.00
   1 -33   2  105.99    5.10
  -1 -33  -2   99.49    5.30
   1 -33   2  101.39    4.90
   1 -33   2  104.59    4.90
   1  33   2   97.79    5.30
   1  33   2   98.89    5.50
   1  33   2  104.59    5.20
   2 -33   2  141.79    6.50
   2 -33   2  145.39    6.40
  -2 -33  -2  144.69    7.40
   2 -33   2  137.89    6.40
   2 -33   2  149.39    6.40
   2  33   2  137.39    6.50
   2  33   2  145.09    6.90
   2  33   2  138.69    6.60
  -3 -33  -2   33.60    2.80
   3 -33   2   43.60    2.10
   3 -33   2   42.60    2.10
   3 -33   2   41.00    2.10
  -3 -33  -2   41.90    2.40
   3  33   2   45.00    2.40
   3  33   2   42.10    2.20
  -3 -34   2   -0.10    1.10
   3  34  -2    0.40    0.90
   3  34  -2    0.40    0.80
   2 -34  -2  202.88    9.70
  -2 -34   2  234.58   10.20
  -2  34   2  211.98    9.80
   2  34  -2  222.78    9.60
   2  34  -2  218.48    9.70
  -1 -34   2   10.10    1.80
  -1 -34   2    7.80    2.20
  -1 -34   2    7.40    2.50
   1 -34  -2    8.20    1.70
  -1  34   2    6.10    1.60
   1  34  -2   11.80    2.00
   0 -34   2  149.49    6.90
   0 -34   2  155.48    6.90
   0 -34   2  149.19    7.10
   0 -34  -2  155.58    7.00
   0  34   2  148.79    7.30
   0  34  -2  145.89    7.30
   0  34   2  155.18    7.50
  -1 -34  -2   11.70    2.40
   1 -34   2   11.40    2.10
   1 -34   2   14.10    1.60
   1 -34   2   13.70    2.30
   1 -34   2   11.50    2.00
   1 -34   2   10.90    1.90
   1  34   2    9.80    2.20
   1  34   2   12.90    2.20
   1  34   2   11.20    2.20
   2 -34   2  309.27   14.10
   2 -34   2  351.06   14.10
  -2 -34  -2  281.47   14.20
   2 -34   2  351.96   14.20
  -2 -34  -2  328.27   15.00
   2 -34   2  348.57   14.30
   2  34   2  328.47   14.20
   2  34   2  322.67   14.30
   2  34   2  354.76   14.60
  -3 -34  -2    0.20    1.40
   3 -34   2    1.50    0.60
   3 -34   2    1.00    0.60
  -3 -34  -2    0.90    1.20
   3 -34   2    1.10    0.50
   3 -34   2    0.80    0.70
   3  34   2    1.00    0.90
   3  34   2    0.70    1.00
  -3 -35   2    7.30    1.40
   3  35  -2    4.80    1.20
   3  35  -2    4.70    1.00
  -2 -35   2   13.30    2.10
   2 -35  -2   11.20    1.90
  -2  35   2   12.60    2.30
   2  35  -2   16.90    1.90
   2  35  -2   13.80    1.80
   1 -35  -2  115.59    5.50
  -1 -35   2  116.89    5.40
  -1 -35   2  111.79    5.70
  -1 -35   2  109.29    6.00
   1  35  -2  117.59    5.50
  -1  35   2  115.99    5.70
   0 -35   2   10.50    1.80
   0 -35  -2   11.70    1.80
   0 -35   2    8.30    1.80
   0 -35   2    8.40    1.60
   0  35  -2   10.80    2.50
   0  35   2    6.50    2.20
   0  35   2    7.30    2.50
  -1 -35  -2  577.64   24.00
   1 -35   2  554.54   23.90
   1 -35   2  567.14   23.70
   1 -35   2  562.34   23.80
   1 -35   2  567.24   23.70
  -1  35  -2  541.65   23.90
   1  35   2  545.75   24.30
   1  35   2  569.54   23.90
   1  35   2  551.44   24.10
  -2 -35  -2   10.60    2.00
  -2 -35  -2   15.70    2.50
   2 -35   2   15.70    1.50
   2 -35   2   16.40    1.40
   2 -35   2   18.50    1.50
   2  35   2   14.40    1.80
   2  35   2   12.20    2.00
   2  35   2   14.10    1.80
   3 -35   2    0.50    0.60
  -3 -35  -2    1.70    2.10
   3 -35   2    0.70    0.60
   3  35   2    0.90    0.80
   3  35   2    0.40    0.90
  -3  35  -2    0.20    0.60
  -3 -36   2   50.09    2.50
   3  36  -2   35.30    2.20
  -2 -36   2   50.99    3.20
   2 -36  -2   41.80    3.00
  -2  36   2   43.30    3.00
   2  36  -2   49.10    2.80
   2  36  -2   42.90    3.00
  -1 -36   2   28.80    2.60
  -1 -36   2   35.90    2.40
   1 -36  -2   30.20    2.20
  -1 -36   2   29.00    2.90
  -1  36   2   29.20    2.50
   1  36  -2   29.70    2.30
   0 -36   2  133.49    6.10
   0 -36   2  133.19    6.10
   0 -36   2  131.29    6.20
   0 -36  -2  135.59    6.20
   0  36   2  136.09    6.70
   0  36   2  130.89    6.40
   0  36  -2  126.39    6.50
   1 -36   2   46.50    2.70
   1 -36   2   45.30    2.60
   1 -36   2   43.20    2.90
   1 -36   2   44.10    2.90
  -1 -36  -2   45.10    3.10
   1  36   2   42.20    3.10
  -1  36  -2   44.70    2.90
   1  36   2   45.90    4.20
   1  36   2   44.50    3.20
   2 -36   2   14.70    1.60
  -2 -36  -2   14.80    2.30
   2 -36   2   15.60    1.40
  -2 -36  -2   12.40    2.00
   2  36   2   15.20    2.00
   2  36   2   11.20    1.90
   3 -36   2    3.90    0.70
  -3  36  -2    3.90    0.80
   3  36   2    1.50    0.80
   3  36   2    1.90    0.80
  -3 -37   2   23.00    1.60
   3  37  -2   23.10    1.50
   2 -37  -2   18.30    1.90
  -2 -37   2   20.60    2.10
   2  37  -2   21.10    1.80
   2  37  -2   20.40    2.00
  -2  37   2   19.70    2.20
  -1 -37   2   99.89    5.30
   1 -37  -2   96.49    4.70
  -1 -37   2   99.79    4.70
  -1 -37   2   98.69    4.90
  -1  37   2   94.79    4.90
   1  37  -2   95.59    4.80
   0 -37   2  117.09    5.60
   0 -37   2  118.59    5.70
   0 -37  -2  119.79    5.70
   0 -37   2  120.29    5.50
   0  37   2  120.49    5.90
   0  37  -2  116.29    5.90
   0  37   2  121.79    6.10
  -1 -37  -2   28.60    2.50
   1 -37   2   29.10    2.10
   1 -37   2   29.60    2.40
   1 -37   2   28.30    1.90
   1 -37   2   26.60    2.30
   1  37   2   26.00    2.50
   1  37   2   25.60    2.50
  -1  37  -2   27.40    2.30
   2 -37   2   11.20    1.20
  -2 -37  -2   10.10    2.00
   2 -37   2   12.60    1.30
   2 -37   2   12.00    1.30
  -2 -37  -2   11.10    2.00
   2 -37   2   11.20    1.30
  -2  37  -2   11.60    1.30
   2  37   2   13.50    1.70
   2  37   2   12.30    1.70
   2 -38  -2    0.80    0.80
  -2 -38   2   -0.10    1.10
   2  38  -2    2.00    1.20
  -2  38   2    2.10    1.20
   2  38  -2    0.70    1.00
  -1 -38   2   -0.40    1.60
  -1 -38   2   -0.70    1.30
  -1 -38   2    2.30    1.10
   1 -38  -2    1.40    0.80
  -1  38   2    0.00    1.20
   1  38  -2    0.90    1.10
   0 -38   2  147.29    6.70
   0 -38   2  152.68    6.70
   0 -38   2  144.69    6.90
   0 -38  -2  149.79    6.90
   0  38   2  150.48    7.10
   0  38   2  152.68    7.30
   0  38  -2  144.19    7.00
   1 -38   2   13.10    1.70
   1 -38   2   12.90    2.00
   1 -38   2   16.60    1.50
  -1 -38  -2   13.80    2.10
   1 -38   2   14.10    2.10
   1  38   2   14.90    2.10
   1  38   2   13.30    2.00
  -1  38  -2   13.50    1.80
   2 -38   2   32.40    1.80
  -2 -38  -2   26.60    2.50
   2 -38   2   30.90    2.00
  -2 -38  -2   28.70    2.50
   2 -38   2   35.20    1.90
  -2  38  -2   31.10    1.90
   2  38   2   33.60    2.30
   2  38   2   31.40    2.20
   2 -39  -2  145.59    6.60
  -2 -39   2  135.39    6.90
   2  39  -2  155.98    6.60
  -2  39   2  156.88    6.80
   1 -39  -2  123.59    5.60
  -1 -39   2  122.09    5.70
  -1 -39   2  122.69    6.10
  -1 -39   2  116.39    5.60
   1  39  -2  115.69    5.60
  -1  39   2  123.09    5.80
   0 -39   2  122.09    5.90
   0 -39   2  133.99    5.90
   0 -39  -2  133.39    6.00
   0 -39   2  125.59    6.00
   0  39   2  131.59    6.40
   0  39   2  130.19    6.20
   0  39  -2  127.09    6.20
   1 -39   2   17.30    1.50
  -1 -39  -2   13.00    2.40
   1 -39   2   18.10    1.90
  -1 -39  -2   16.00    2.00
   1  39   2   16.90    2.00
  -1  39  -2   17.40    1.80
   2 -39   2   23.40    1.50
  -2 -39  -2   17.70    3.10
   2 -39   2   26.00    1.60
  -2 -39  -2   20.90    2.20
   2  39   2   24.20    1.90
  -2  39  -2   24.50    1.60
  -2 -40   2   46.00    2.90
   2 -40  -2   50.39    2.70
  -2  40   2   53.89    3.00
   2  40  -2   53.39    2.60
  -1 -40   2    5.20    1.60
  -1 -40   2    9.20    1.70
   1 -40  -2    7.70    1.40
  -1 -40   2    9.00    1.60
   1  40  -2    8.70    1.50
  -1  40   2    8.80    1.70
   0 -40  -2   -0.10    0.80
   0 -40   2    1.20    2.00
   0 -40   2    1.60    0.90
   0 -40  -2    1.20    1.70
   0 -40   2    0.50    0.80
   0  40  -2    3.20    1.40
   0  40   2    0.60    1.20
   0  40   2    2.30    1.50
  -1 -40  -2   65.59    4.20
  -1 -40  -2   70.99    3.80
   1 -40   2   78.39    3.50
  -1  40  -2   73.09    3.70
   1  40   2   73.59    3.90
   2 -40   2   59.79    2.80
   2 -40   2   56.29    2.60
  -2 -40  -2   48.10    3.20
  -2  40  -2   58.29    2.80
   2  40   2   58.49    3.00
  -2 -41   2  213.28    9.90
   2  41  -2  228.68    9.60
  -2  41   2  226.88    9.80
  -1 -41   2   24.30    2.30
   1  41  -2   26.50    1.90
  -1  41   2   23.90    2.10
   0 -41  -2   59.09    3.10
   0 -41   2   54.99    3.10
   0 -41   2   59.09    3.00
   0  41  -2   58.79    3.10
   0  41   2   60.39    3.30
   1 -41   2   26.90    1.70
   1 -41   2   29.20    2.00
  -1 -41  -2   32.70    2.20
  -1 -41  -2   22.70    2.50
  -1  41  -2   26.60    2.00
   2 -41   2   17.90    1.20
   2 -41   2   18.40    1.40
  -2 -41  -2   14.10    1.60
   2  41   2   19.60    1.50
  -2  41  -2   19.10    1.30
   2 -42  -2    8.90    1.60
  -2 -42   2    9.40    1.20
   2  42  -2    7.90    1.10
  -1 -42   2    4.00    1.70
  -1 -42   2    7.70    1.50
   1 -42  -2    3.60    1.20
   1  42  -2    6.60    1.30
  -1  42   2    5.70    1.60
   0 -42  -2  116.89    5.20
   0 -42   2  110.69    5.20
   0  42  -2   98.09    5.30
   0  42  -2  108.79    5.20
   0  42   2  119.39    5.50
   1 -42   2  122.99    5.70
  -1 -42  -2  131.19    5.80
   1 -42   2  124.59    5.50
  -1  42  -2  120.89    5.70
   1  42   2  126.89    5.90
   2 -42   2   46.70    2.20
   2  42   2   45.30    2.40
  -2  42  -2   46.60    2.30
  -2 -43   2    7.30    1.20
   2  43  -2    9.20    1.00
   1 -43  -2   10.70    1.30
  -1 -43   2   12.90    1.60
  -1 -43   2    8.20    1.70
  -1  43   2   13.30    1.70
   0 -43  -2  191.88    8.40
   0 -43   2  189.88    8.40
   0  43   2  200.28    8.60
   0  43  -2  184.98    8.50
   0  43  -2  188.98    8.40
  -1 -43  -2    3.30    1.50
   1 -43   2    4.50    0.90
   1 -43   2    3.80    0.90
  -1 -43  -2    3.80    1.00
   1  43   2    4.10    1.40
  -1  43  -2    5.80    1.30
   2 -43   2   39.30    1.90
  -2 -43  -2   34.00    2.30
  -2  43  -2   43.30    2.10
  -2  43  -2   43.70    2.20
   2  43   2   40.50    2.10
  -2 -44   2    0.20    0.80
   2  44  -2    0.20    0.60
  -1 -44   2  119.09    5.30
   1 -44  -2  114.59    5.30
  -1  44   2  120.79    5.40
   1  44  -2  115.59    5.30
   0 -44   2    7.80    1.30
   0 -44  -2    8.50    1.20
   0 -44  -2    4.70    2.10
   0  44  -2    8.70    1.20
   0  44  -2    7.30    1.90
   0  44   2    8.70    1.50
   1 -44   2    5.10    1.30
  -1 -44  -2    2.70    1.10
   1 -44   2    4.50    0.90
  -1 -44  -2    4.90    1.60
   1  44   2    4.90    1.30
  -1  44  -2    5.60    1.10
  -1  44  -2    4.70    1.20
  -1 -45   2    4.40    1.30
   1 -45  -2    6.00    1.00
  -1  45   2    7.70    1.40
   1  45  -2    5.80    1.00
   0 -45   2   17.40    1.50
   0 -45  -2   16.80    1.40
   0  45   2   17.00    1.60
   0  45  -2   14.90    2.00
   0  45  -2   15.80    1.30
   1 -45   2   59.69    2.90
  -1 -45  -2   59.89    3.00
  -1  45  -2   58.19    2.80
  -1  45  -2   59.19    2.90
   1  45   2   58.29    3.00
  -1 -46   2  143.79    6.00
   1 -46  -2  134.39    5.90
  -1  46   2  122.19    6.60
   1  46  -2  136.29    5.90
   0 -46   2   41.20    2.20
   0 -46  -2   38.70    2.10
   0  46   2   38.50    2.30
   0  46  -2   36.50    2.10
   1 -46   2   66.19    3.30
  -1  46  -2   70.69    3.20
  -1  46  -2   68.99    3.30
   1  46   2   72.09    3.40
  -1 -47   2   43.50    2.20
   1 -47  -2   41.30    2.10
   1  47  -2   33.40    2.40
  -1  47   2   42.40    2.30
   0 -47  -2    0.70    0.60
   0 -47   2    1.70    0.60
   0  47   2    1.90    0.80
   0  47  -2    1.10    0.70
   1 -47   2  111.09    4.80
   1  47   2  105.89    4.80
  -1  47  -2  104.99    4.80
  -1  47  -2  105.39    4.70
   0 -48  -2   14.50    1.20
   0  48  -2   15.00    1.20
   0  48   2   15.90    1.30
   4   0  -3    3.40    1.00
  -4   0   3    9.30    1.50
  -4   0   3    5.30    1.70
   4   0  -3    6.80    1.20
   3   0  -3    1.50    2.40
  -3   0   3    7.60    1.80
   3   0  -3    6.10    1.60
  -3   0   3    8.60    1.80
  -2   0   3    0.60    1.10
   2   0  -3    2.90    1.00
  -2   0   3    0.40    0.80
   1   0  -3  222.38    9.00
  -1   0   3  195.48    9.00
   0   0  -3   -0.30    0.50
   0   0   3   -0.40    0.50
   1   0   3  603.84   24.80
   1   0   3  564.94   24.80
   1   0   3  594.24   24.80
  -2   0  -3    0.00    0.90
   2   0   3    0.30    1.20
   3   0   3    8.30    1.70
   3   0   3    8.00    2.50
   3   0   3    8.90    1.80
   4   0   3    1.70    0.70
   4   0   3    1.90    0.80
   4   0   3    2.60    1.30
   4   0   3    4.70    1.30
   4  -1  -3  227.48    9.80
   4  -1  -3  239.18    9.70
  -4  -1   3  214.98    9.90
  -4  -1   3  204.28    9.80
   4   1  -3  240.98    9.70
  -4   1   3  224.28    9.90
   4   1  -3  219.28    9.80
  -4   1   3  221.08    9.90
   3  -1  -3  382.86   16.60
   3  -1  -3  363.96   16.50
  -3  -1   3  389.16   16.70
   3  -1  -3  347.67   16.90
  -3  -1   3  406.16   16.70
  -3   1   3  405.96   16.70
   3   1  -3  395.06   16.60
   3   1  -3  380.96   16.50
   3   1  -3  381.16   16.90
  -3   1   3  386.36   16.60
  -2  -1   3   35.80    2.30
   2  -1  -3   37.30    2.30
  -2  -1   3   33.60    2.10
  -2   1   3   37.60    2.10
   2   1  -3   35.60    2.30
  -2   1   3   37.40    2.40
  -1  -1   3   -0.10    0.50
   1  -1  -3   -0.50    0.60
   1   1  -3   -0.30    0.60
  -1   1   3   -0.10    0.50
   0  -1   3   83.29    3.70
   0  -1  -3   85.19    3.70
   0   1   3   87.39    3.80
   0   1  -3   85.19    3.80
   0   1   3   78.09    3.90
   1  -1   3  211.18    8.80
   1  -1   3  197.28    8.80
   1  -1   3  197.98    8.90
   1   1   3  198.08    9.00
   1   1   3  206.98    8.80
   1   1   3  207.88    8.80
   2  -1   3   86.79    4.40
  -2   1  -3   94.49    4.30
   2   1   3   84.29    4.40
   2   1   3   94.29    4.50
   3  -1   3   81.89    4.20
   3  -1   3   82.29    4.70
   3  -1   3   83.99    4.50
   3  -1   3   82.89    4.20
   3   1   3   79.59    4.60
   3   1   3   87.19    4.30
   3   1   3   79.59    4.50
   3   1   3   83.29    4.20
   4  -1   3   47.70    2.40
   4  -1   3   46.40    2.40
   4  -1   3   40.00    2.90
   4  -1   3   51.69    2.50
   4   1   3   43.60    2.60
   4   1   3   43.40    2.80
   4   1   3   46.50    2.40
  -4  -2   3   34.10    2.30
   4  -2  -3   35.10    2.10
  -4  -2   3   31.40    2.30
   4  -2  -3   35.60    2.10
   4   2  -3   34.10    2.10
  -4   2   3   31.40    2.70
  -4   2   3   38.60    2.40
   4   2  -3   37.40    2.10
   3  -2  -3  149.79    7.20
  -3  -2   3  172.08    7.40
  -3  -2   3  159.48    7.40
   3  -2  -3  145.29    7.90
   3  -2  -3  161.88    7.20
   3   2  -3  163.18    7.30
  -3   2   3  172.58    7.30
  -3   2   3  158.58    7.30
   3   2  -3  155.48    7.30
   3   2  -3  143.29    7.80
  -2  -2   3  220.08    9.70
  -2  -2   3  228.28    9.80
   2  -2  -3  226.48    9.80
  -2   2   3  223.98    9.70
   2   2  -3  224.58    9.80
  -2   2   3  215.78    9.80
   1  -2  -3   52.59    2.50
  -1  -2   3   52.29    2.50
  -1   2   3   48.80    2.50
   0  -2  -3   53.99    2.50
   0  -2   3   52.89    2.50
   0  -2   3   56.49    2.90
   0   2  -3   55.69    2.50
   0   2   3   49.40    2.50
   0   2   3   53.59    2.50
   1  -2   3  190.48    7.80
   1  -2   3  170.78    7.80
   1   2   3  180.48    7.80
   1   2   3  180.68    7.80
   1   2   3  173.68    7.80
   2  -2   3   23.30    2.00
   2   2   3   20.70    2.10
  -2   2  -3   26.10    1.80
   2   2   3   28.50    2.00
   3  -2   3  327.97   14.50
   3  -2   3  326.37   14.30
   3  -2   3  329.57   14.50
   3  -2   3  319.27   14.20
   3   2   3  319.47   14.50
   3   2   3  334.27   14.30
   3   2   3  340.77   14.60
   3   2   3  334.07   14.20
   4  -2   3  220.18   10.40
   4  -2   3  256.97   10.30
   4  -2   3  235.28   10.40
   4   2   3  241.98   10.50
   4   2   3  239.48   10.40
   4   2   3  246.98   10.40
  -4  -3   3    6.40    1.40
   4  -3  -3    6.90    1.60
   4  -3  -3    8.10    1.20
  -4  -3   3    7.00    1.80
   4   3  -3    5.40    1.10
   4   3  -3    6.30    1.20
  -3  -3   3  156.58    8.10
   3  -3  -3  174.28    7.70
  -3  -3   3  184.08    7.80
  -3  -3   3  155.48    7.80
   3  -3  -3  151.08    8.30
   3   3  -3  169.68    7.80
   3   3  -3  170.98    7.70
  -3   3   3  194.58    7.90
   3   3  -3  170.58    8.30
   2  -3  -3    0.50    1.00
  -2  -3   3    0.20    0.70
  -2  -3   3    1.20    1.00
  -2   3   3    0.70    0.80
   2   3  -3    2.10    1.00
  -2   3   3    2.20    1.20
  -1  -3   3   30.20    1.60
   1  -3  -3   31.60    1.70
  -1   3   3   28.90    1.60
   1   3  -3   30.20    1.70
   0  -3   3  216.38    9.00
   0  -3   3  207.98    8.80
   0  -3  -3  196.98    8.80
   0   3   3  191.18    8.80
   0   3  -3  214.98    8.80
   0   3   3  206.58    8.80
  -1  -3  -3  150.28    6.80
   1  -3   3  149.59    6.80
   1  -3   3  155.08    6.80
   1  -3   3  161.58    6.80
   1   3   3  155.88    6.80
   1   3   3  155.88    6.80
   2  -3   3   25.10    2.00
   2   3   3   29.70    2.80
  -2   3  -3   24.80    1.70
   2   3   3   25.10    2.20
   2   3   3   25.70    3.00
   3  -3   3    0.80    1.20
   3  -3   3    0.60    1.80
   3  -3   3    6.70    1.80
   3  -3   3    1.40    1.30
   3   3   3    3.90    1.50
   3   3   3    2.30    1.50
   3   3   3    1.80    1.60
   4  -3   3   26.90    1.70
   4  -3   3   28.50    1.70
   4  -3   3   25.50    1.90
   4   3   3   29.30    1.80
   4   3   3   29.40    1.70
   4   3   3   24.40    2.00
  -4  -4   3  129.19    6.80
   4  -4  -3  166.88    6.80
  -4  -4   3  148.79    6.90
  -4   4   3  170.48    7.00
   4   4  -3  141.29    6.70
   4   4  -3  165.58    6.80
  -4   4   3  140.09    7.00
  -3  -4   3  549.25   22.40
  -3  -4   3  516.35   22.30
  -3  -4   3  460.55   22.40
   3  -4  -3  527.45   22.20
  -3   4   3  501.15   22.20
   3   4  -3  509.35   22.20
   3   4  -3  521.35   23.00
   3   4  -3  515.75   22.20
  -3   4   3  570.74   22.30
  -2  -4   3   20.20    1.80
   2  -4  -3   21.40    1.80
  -2  -4   3   20.20    1.60
   2   4  -3   22.50    1.80
  -2   4   3   19.80    1.90
  -2   4   3   22.60    1.70
   1  -4  -3  233.98    9.50
  -1  -4   3  214.28    9.60
   1   4  -3  221.68    9.60
  -1   4   3  218.68    9.60
   0  -4  -3  222.38    9.80
   0  -4   3  228.98    9.90
   0   4  -3  243.18    9.90
   0   4   3  218.98    9.80
   0   4   3  237.88    9.80
  -1  -4  -3  240.88   10.50
   1  -4   3  250.97   10.50
   1  -4   3  257.57   10.50
   1  -4   3  235.08   10.60
   1   4   3  244.88   10.50
   1   4   3  237.28   10.60
   2  -4   3    0.20    1.10
   2   4   3    0.00    1.80
  -2   4  -3    0.30    0.80
   3  -4   3   15.90    1.80
   3  -4   3   18.90    2.00
   3  -4   3   14.30    3.00
   3  -4   3   19.10    2.30
   3   4   3   12.20    2.10
   3   4   3   13.70    2.00
   3   4   3   14.10    2.20
   3   4   3   11.60    2.60
   4  -4   3   12.60    1.20
   4  -4   3   13.60    1.20
   4  -4   3   12.80    1.50
   4   4   3    9.90    1.60
   4   4   3   11.10    1.50
   4   4   3   12.40    1.30
   4   4   3   13.00    1.40
  -4  -5   3    6.00    1.50
   4  -5  -3    4.50    1.20
  -4  -5   3    4.00    1.30
  -4   5   3    2.30    1.00
   4   5  -3    1.60    0.90
   4   5  -3    2.70    1.00
  -3  -5   3  520.55   23.10
  -3  -5   3  537.25   22.30
  -3  -5   3  578.84   22.40
   3  -5  -3  491.95   22.10
  -3   5   3  511.55   22.20
   3   5  -3  507.05   22.20
   3   5  -3  493.85   22.10
  -3   5   3  502.65   22.20
  -2  -5   3   19.10    1.60
   2  -5  -3   20.20    1.80
  -2  -5   3   20.00    1.80
  -2   5   3   19.40    2.00
   2   5  -3   19.80    1.70
  -2   5   3   20.10    1.60
   1  -5  -3  158.08    6.60
  -1  -5   3  148.19    6.60
  -1   5   3  152.58    6.50
   1   5  -3  149.39    6.60
  -1   5   3  144.79    6.60
   0  -5  -3    4.20    0.70
   0  -5   3    4.20    0.70
   0   5  -3    3.70    0.60
   0   5  -3    5.70    0.70
   0   5   3    4.10    0.60
   0   5   3    5.00    0.80
   1  -5   3  171.38    7.10
  -1  -5  -3  165.28    7.20
   1  -5   3  154.88    7.20
   1   5   3  151.28    7.30
   1   5   3  168.08    7.20
  -1   5  -3  166.88    7.10
  -2  -5  -3   49.70    3.30
   2  -5   3   53.19    3.00
   2   5   3   53.29    3.10
   2   5   3   54.99    3.60
  -2   5  -3   58.59    2.90
   3  -5   3  368.56   16.10
   3  -5   3  404.36   16.00
   3  -5   3  360.86   15.80
   3   5   3  370.86   15.80
   3   5   3  362.26   15.90
   3   5   3  346.97   16.10
   3   5   3  361.06   16.20
   4  -5   3   82.09    3.90
   4  -5   3   85.79    3.90
   4  -5   3   87.19    4.00
   4   5   3   85.39    4.10
   4   5   3   79.99    3.90
   4   5   3   86.99    4.10
   4   5   3   87.29    4.40
  -4  -6   3    1.50    1.20
   4  -6  -3    1.00    0.80
  -4  -6   3    0.50    1.00
  -4   6   3    1.50    1.00
   4   6  -3    0.70    0.90
   4   6  -3   -0.50    0.90
   3  -6  -3   11.30    1.70
  -3   6   3   14.90    2.10
   3   6  -3   10.90    1.90
   3   6  -3   10.00    2.00
  -3   6   3   10.90    1.90
   2  -6  -3  527.95   22.60
  -2  -6   3  521.05   22.70
  -2  -6   3  539.15   22.60
  -2   6   3  537.35   22.70
   2   6  -3  527.45   22.70
  -2   6   3  540.45   22.60
   1  -6  -3  367.76   14.70
  -1  -6   3  346.57   14.80
  -1   6   3  331.17   14.70
   1   6  -3  331.67   14.80
  -1   6   3  355.16   14.70
   0  -6   3    1.30    0.70
   0   6  -3    1.60    0.90
   0   6   3    1.20    0.40
   0   6   3    0.60    0.50
   1  -6   3  573.04   23.80
   1  -6   3  549.65   23.90
  -1  -6  -3  577.54   23.80
   1   6   3  546.55   23.90
  -1   6  -3  570.94   23.70
  -2  -6  -3   50.49    3.20
  -2   6  -3   61.29    3.00
   2   6   3   49.70    3.00
   2   6   3   47.90    3.50
  -3  -6  -3  156.88    8.10
   3  -6   3  153.08    6.70
   3  -6   3  146.39    7.00
   3  -6   3  160.78    6.80
   3   6   3  142.89    7.20
   3   6   3  141.59    7.10
   3   6   3  132.59    7.00
   3   6   3  146.99    6.80
   4  -6   3   54.89    2.70
   4  -6   3   55.99    2.70
   4  -6   3   50.49    2.80
   4   6   3   52.99    2.80
   4   6   3   50.19    2.90
   4   6   3   58.59    2.70
   4  -7  -3    6.60    1.10
  -4  -7   3    7.60    1.60
  -4  -7   3    8.80    1.50
   4   7  -3    4.20    1.20
   4   7  -3    6.90    1.30
  -4   7   3    9.40    1.50
  -3  -7   3  120.09    5.60
  -3   7   3  115.49    5.50
   3   7  -3  105.89    5.80
   2  -7  -3   23.90    2.00
  -2  -7   3   22.60    1.90
  -2  -7   3   22.00    1.60
   2   7  -3   24.40    1.90
  -2   7   3   21.90    1.70
  -2   7   3   23.70    2.10
  -1  -7   3  213.78    8.90
   1  -7  -3  175.18    9.10
   1   7  -3  206.48    9.00
  -1   7   3  205.88    8.90
  -1   7   3  222.58    8.80
   0   7   3 1212.38   54.29
   0   7   3 1389.16   54.29
   0   7  -3 1288.37   54.39
   1  -7   3  266.47   11.70
  -1  -7  -3  274.57   11.70
   1   7   3  266.07   11.70
  -1   7  -3  279.07   11.60
   2  -7   3   23.50    2.00
  -2  -7  -3   25.20    2.30
   2   7   3   23.20    2.70
   2   7   3   27.20    4.30
   2   7   3   24.00    2.00
   3  -7   3   22.20    1.90
  -3  -7  -3   18.80    3.70
   3  -7   3   19.30    2.00
   3  -7   3   17.70    2.20
   3   7   3   21.80    2.20
   3   7   3   21.20    2.40
   3   7   3   20.30    4.20
   3   7   3   22.60    2.80
   4  -7   3   32.70    1.80
   4  -7   3   30.10    1.80
   4  -7   3   32.50    1.90
   4   7   3   34.80    2.10
   4   7   3   27.80    1.80
   4   7   3   32.60    2.10
  -4  -8   3   95.79    5.30
   4  -8  -3  123.39    5.20
  -4  -8   3  118.39    5.40
   4   8  -3  104.59    5.20
   4   8  -3  121.09    5.20
  -4   8   3  124.29    5.50
  -3  -8   3   27.80    3.70
  -3  -8   3   30.10    2.30
  -3  -8   3   23.20    3.50
   3  -8  -3   29.70    2.20
   3   8  -3   25.90    2.50
  -3   8   3   31.80    2.60
  -3   8   3   31.50    2.40
  -2  -8   3  238.08   10.20
  -2  -8   3  236.88   10.20
  -2   8   3  239.68   10.10
  -2   8   3  219.28   10.20
   2   8  -3  228.98   10.30
  -1  -8   3  920.51   39.10
   1   8  -3  912.91   39.20
  -1   8   3  995.20   39.10
  -1   8   3  895.11   39.10
   0   8  -3  750.02   32.40
   0   8   3  731.73   32.40
   0   8   3  831.72   32.40
   1  -8   3  575.34   25.50
  -1  -8  -3  614.74   25.50
  -1   8  -3  592.64   25.40
   1   8   3  576.14   25.50
   1   8   3  657.83   26.20
  -2  -8  -3   50.89    3.10
   2  -8   3   50.29    3.10
   2  -8   3   54.39    3.20
   2  -8   3   49.10    2.90
   2  -8   3   50.99    3.80
   2   8   3   48.80    3.70
   2   8   3   51.39    2.90
  -2   8  -3   47.90    3.50
   2   8   3   44.20    3.40
   2   8   3   41.40    3.90
   3  -8   3   36.60    2.20
   3  -8   3   31.20    2.20
   3  -8   3   29.80    2.40
   3   8   3   30.20    2.40
   3   8   3   29.90    3.10
   3   8   3   31.40    2.70
   4  -8   3   28.00    1.80
   4  -8   3   29.20    1.70
   4  -8   3   29.90    1.70
   4   8   3   29.30    2.00
   4   8   3   26.90    1.70
   4   8   3   29.70    2.00
  -4  -9   3    4.50    1.50
   4  -9  -3    2.70    0.80
  -4  -9   3    4.90    1.40
   4   9  -3    2.90    1.00
   4   9  -3    3.00    0.90
  -4   9   3    5.40    1.50
   3  -9  -3  131.09    6.00
  -3  -9   3  131.39    6.30
  -3  -9   3  119.19    6.40
  -3  -9   3  128.39    6.20
  -3   9   3  138.09    6.30
  -3   9   3  138.39    6.30
   3   9  -3  128.89    6.20
   3   9  -3  132.49    6.20
  -2  -9   3   26.60    2.00
  -2  -9   3   27.70    1.90
   2   9  -3   25.50    2.20
  -2   9   3   28.60    2.00
  -2   9   3   27.20    2.10
  -1  -9   3   71.69    3.40
  -1   9   3   71.59    3.40
   1   9  -3   73.29    3.50
   0   9  -3    4.40    0.70
   0   9   3    5.10    0.80
   0   9   3    4.00    0.60
  -1  -9  -3  486.85   20.40
   1  -9   3  482.35   20.40
   1   9   3  464.65   20.50
  -1   9  -3  486.95   20.20
   1   9   3  476.45   20.40
   2  -9   3    1.10    1.20
   2  -9   3    2.60    1.60
   2  -9   3    1.50    1.50
  -2  -9  -3   -0.80    1.50
   2  -9   3   -0.20    1.70
   2   9   3    0.70    1.70
   2   9   3    0.10    1.10
   2   9   3    0.60    1.70
   2   9   3   -2.50    2.10
  -2   9  -3    0.90    1.00
   3  -9   3  218.88    9.90
   3  -9   3  232.08    9.90
   3  -9   3  227.88    9.90
   3  -9   3  226.48   10.10
   3   9   3  240.58   10.10
   3   9   3  231.48   10.40
   3   9   3  199.68   11.00
   3   9   3  225.38   10.40
   4  -9   3    2.10    0.70
   4  -9   3    1.10    0.70
   4  -9   3    1.90    0.60
   4   9   3    2.30    1.00
   4   9   3    4.00    1.20
   4   9   3    1.60    0.70
   4 -10  -3    1.30    0.70
  -4 -10   3   -0.20    1.10
  -4 -10   3    1.90    1.40
   4  10  -3    3.00    1.00
   4  10  -3    2.10    0.90
  -4  10   3    0.60    1.00
  -3 -10   3  218.78   10.00
   3 -10  -3  227.68    9.90
  -3 -10   3  214.08   10.10
   3  10  -3  224.68   10.00
  -3  10   3  230.28   10.00
   3  10  -3  224.38   10.00
  -3  10   3  232.98   10.10
  -2 -10   3  146.39    6.60
  -2 -10   3  149.59    6.70
  -2  10   3  140.29    6.70
   2  10  -3  145.29    6.90
  -2  10   3  151.78    6.60
  -1 -10   3  274.87   11.70
  -1  10   3  271.27   11.70
   1  10  -3  276.77   11.90
  -1  10   3  269.87   11.70
   0 -10   3  770.22   32.90
   0  10   3  808.42   32.90
   0  10   3  751.12   32.90
   0  10  -3  799.62   33.00
   1 -10   3  298.07   13.10
  -1 -10  -3  320.37   13.00
   1  10   3  299.87   13.20
  -1  10  -3  302.27   12.90
   1  10   3  293.67   13.00
   2 -10   3    0.30    1.80
   2 -10   3    1.00    1.50
   2 -10   3    0.80    1.20
   2 -10   3   -1.30    1.50
   2 -10   3    3.00    1.60
   2  10   3    1.10    1.90
   2  10   3    2.40    2.00
  -2  10  -3   -1.00    0.90
   2  10   3   -0.40    1.20
   2  10   3    0.20    2.00
   2  10   3    0.70    1.60
   3 -10   3    8.70    1.90
   3 -10   3    8.80    1.90
   3 -10   3   10.10    1.70
   3 -10   3    9.20    1.50
   3  10   3    8.40    2.00
   3  10   3    7.50    2.40
   3  10   3    8.40    1.80
   3  10   3    8.60    2.20
   4 -10   3    0.70    0.70
   4 -10   3   -0.30    0.60
   4 -10   3    0.30    0.60
   4  10   3    0.50    0.90
   4  10   3    1.20    0.70
   4  10   3    1.10    0.80
  -4 -11   3   -0.70    1.60
  -4 -11   3    0.50    1.10
   4 -11  -3    1.60    0.60
   4  11  -3    1.20    1.00
   4  11  -3    2.00    0.90
  -4  11   3    0.90    1.00
  -3 -11   3   48.70    2.80
  -3 -11   3   45.80    3.10
   3 -11  -3   45.00    2.60
  -3 -11   3   40.30    4.40
  -3  11   3   48.20    2.90
   3  11  -3   44.20    2.90
   3  11  -3   45.70    2.90
  -3  11   3   46.60    3.10
  -2 -11   3  178.98    8.10
  -2  11   3  176.28    8.00
  -2  11   3  171.98    8.10
   2  11  -3  193.98    8.80
  -1 -11   3  736.53   31.60
   1  11  -3  752.32   31.80
  -1  11   3  764.52   32.10
  -1  11   3  739.23   31.60
  -1  11   3  762.62   31.60
   0 -11   3 1425.96   58.79
   0  11  -3 1390.26   58.89
   0  11   3 1359.06   58.89
   0  11   3 1445.26   58.89
  -1 -11  -3    8.60    1.00
   1 -11   3    8.60    1.10
  -1  11  -3    7.60    0.90
   1  11   3   10.00    1.70
   1  11   3    7.10    1.10
   2 -11   3   15.30    1.90
  -2 -11  -3   19.40    2.20
   2 -11   3   15.80    2.20
   2 -11   3   16.80    2.20
   2 -11   3   15.60    2.10
   2 -11   3   18.20    2.70
   2  11   3   15.00    3.10
   2  11   3   18.20    2.60
   2  11   3   19.30    2.30
   2  11   3   19.40    3.00
   2  11   3   17.80    2.00
  -2  11  -3   16.00    1.60
   3 -11   3   51.59    2.80
   3 -11   3   48.90    3.00
   3 -11   3   47.30    2.90
   3 -11   3   49.90    2.80
   3  11   3   46.80    3.50
   3  11   3   50.79    3.10
   3  11   3   45.70    3.50
   3  11   3   49.10    3.30
   4 -11   3    9.50    0.90
   4 -11   3   10.30    1.10
   4  11   3    8.20    1.10
   4  11   3    9.40    1.40
   4  11   3   10.90    1.40
  -4 -12   3   87.79    4.80
   4 -12  -3  105.09    4.40
   4  12  -3  104.99    4.50
  -4  12   3   95.09    4.60
   4  12  -3   96.29    4.50
   3 -12  -3   63.19    3.40
  -3 -12   3   65.69    4.80
  -3 -12   3   71.99    3.60
  -3 -12   3   66.79    3.80
  -3  12   3   71.39    4.00
   3  12  -3   66.09    3.70
   3  12  -3   66.69    3.70
  -3  12   3   69.79    3.80
  -2 -12   3  202.38    8.90
  -2 -12   3  209.98    9.10
   2  12  -3  200.98    9.20
  -2  12   3  196.08    8.90
  -2  12   3  200.98    9.00
  -1 -12   3    2.70    0.80
   1  12  -3    5.20    1.10
  -1  12   3    2.90    0.80
  -1  12   3    3.10    0.70
  -1  12   3    4.40    1.50
   0 -12   3    2.60    0.80
   0  12   3    3.90    0.80
   0  12   3    2.00    0.70
   0  12  -3    2.90    0.70
   1 -12   3  122.09    5.60
  -1 -12  -3  124.49    5.60
  -1  12  -3  120.09    5.40
   1  12   3  122.39    5.60
   1  12   3  124.99    5.80
   2 -12   3  321.47   14.30
   2 -12   3  310.97   14.20
   2 -12   3  339.67   14.20
   2 -12   3  334.87   14.20
  -2 -12  -3  334.47   14.40
   2 -12   3  319.77   14.50
   2  12   3  348.27   14.50
   2  12   3  332.07   14.40
   2  12   3  301.97   14.60
  -2  12  -3  342.47   14.20
   2  12   3  330.57   14.50
   2  12   3  326.67   14.60
   3 -12   3   33.80    2.40
   3 -12   3   33.90    2.40
   3 -12   3   36.20    2.40
   3 -12   3   32.10    2.10
   3  12   3   34.40    2.80
   3  12   3   35.30    2.50
   3  12   3   31.40    3.20
   3  12   3   31.90    2.90
   4 -12   3   64.79    2.80
   4 -12   3   58.69    2.80
   4 -12   3   58.09    2.90
   4  12   3   58.69    2.90
   4  12   3   61.29    3.10
   4  12   3   62.09    3.10
   4 -13  -3   12.00    1.00
  -4 -13   3   10.20    1.50
   4  13  -3   12.50    1.20
  -4  13   3   10.40    1.40
  -3 -13   3    1.40    1.50
  -3 -13   3    1.70    1.20
  -3 -13   3    1.60    2.40
   3 -13  -3    1.70    1.00
   3  13  -3    1.10    1.30
  -3  13   3    2.50    1.20
   3  13  -3    1.10    1.40
  -3  13   3    2.30    1.80
  -2 -13   3  422.46   17.50
  -2 -13   3  396.86   17.60
  -2 -13   3  445.16   17.60
   2  13  -3  382.16   17.70
  -2  13   3  413.06   17.40
  -2  13   3  406.56   17.50
  -2  13   3  381.86   17.60
  -1 -13   3  151.68    6.40
   1  13  -3  150.38    6.60
  -1  13   3  132.39    6.50
  -1  13   3  145.19    6.40
  -1  13   3  143.09    6.40
   0 -13   3  138.89    6.10
   0  13   3  142.89    6.10
   0  13  -3  137.89    6.20
   0  13   3  135.99    6.10
   1 -13   3   32.30    2.00
  -1 -13  -3   33.10    1.90
  -1  13  -3   31.00    1.80
   1  13   3   33.20    1.90
   1  13   3   29.90    2.30
   2 -13   3    3.70    1.70
   2 -13   3    4.10    1.40
   2 -13   3    3.60    1.40
   2 -13   3    9.50    1.60
   2 -13   3    7.00    2.00
  -2 -13  -3    0.20    1.70
   2  13   3    3.70    1.40
  -2  13  -3    0.80    1.20
   2  13   3    4.20    1.80
   2  13   3    1.90    2.00
   2  13   3    4.30    2.10
   2  13   3    6.20    1.90
   3 -13   3   14.10    1.70
   3 -13   3   11.60    1.50
   3 -13   3   10.20    1.40
   3 -13   3   14.80    2.00
   3  13   3   10.50    1.90
   3  13   3   11.20    2.40
   3  13   3   10.10    2.20
   3  13   3   10.80    2.20
   4 -13   3    6.80    0.80
   4 -13   3    5.40    0.80
   4 -13   3    6.80    1.00
   4  13   3    6.30    1.00
   4  13   3    5.80    1.30
   4  13   3    7.30    1.20
   4 -14  -3   53.59    2.40
  -4 -14   3   50.29    2.70
  -4  14   3   46.00    2.60
   4  14  -3   46.00    2.50
  -3 -14   3   -0.90    1.10
   3 -14  -3    0.00    0.80
  -3 -14   3    1.30    2.20
  -3 -14   3    0.10    1.50
   3  14  -3    2.00    1.40
   3  14  -3    0.20    1.30
  -3  14   3    1.30    1.30
  -2 -14   3   11.90    2.50
  -2 -14   3   12.30    1.50
  -2 -14   3   10.60    2.30
  -2 -14   3   12.00    3.20
   2  14  -3    7.80    1.90
  -2  14   3   11.60    2.20
  -2  14   3    8.70    1.90
  -1 -14   3   56.79    2.80
  -1  14   3   52.29    3.00
  -1  14   3   55.69    2.70
  -1  14   3   57.79    2.80
   1  14  -3   57.19    3.00
   0 -14   3  576.24   23.70
   0  14   3  562.64   23.70
   0  14  -3  559.04   23.80
   0  14   3  577.14   23.70
   0  14   3  529.45   23.80
   1 -14   3  409.76   16.90
  -1 -14  -3  387.86   16.80
   1  14   3  392.56   16.90
   1  14   3  390.46   16.80
  -1  14  -3  379.96   16.60
   2 -14   3   49.00    3.20
   2 -14   3   49.99    3.10
  -2 -14  -3   55.19    3.30
   2 -14   3   47.80    3.00
   2 -14   3   50.19    3.50
   2 -14   3   52.69    2.90
   2  14   3   49.80    3.20
   2  14   3   49.70    3.50
   2  14   3   43.90    3.80
   2  14   3   52.19    3.20
   2  14   3   55.29    3.70
  -2  14  -3   52.49    3.00
   3 -14   3   14.40    1.70
   3 -14   3   14.80    1.50
   3 -14   3   17.10    1.70
   3 -14   3   17.30    1.90
   3  14   3   12.70    1.90
   3  14   3   13.40    2.20
   3  14   3   14.60    2.20
   3  14   3   11.60    2.40
   4 -14   3    2.70    0.70
   4 -14   3    1.30    0.70
   4 -14   3    2.70    0.90
   4  14   3    2.60    1.00
   4  14   3    1.40    0.80
  -4 -15   3   49.40    2.80
   4 -15  -3   56.49    2.50
   4  15  -3   51.29    2.60
  -4  15   3   49.40    2.70
  -3 -15   3   21.80    2.00
  -3 -15   3   21.20    3.30
  -3 -15   3   27.00    2.50
   3 -15  -3   24.20    1.80
  -3  15   3   27.40    2.40
   3  15  -3   24.20    2.30
   3  15  -3   26.10    2.30
  -2 -15   3    7.90    1.40
   2 -15  -3    7.80    2.20
  -2 -15   3    6.20    1.80
  -2 -15   3    6.60    2.40
  -2 -15   3    3.90    1.70
  -2 -15   3    6.70    1.90
   2  15  -3    3.60    1.50
  -2  15   3    6.40    1.90
  -2  15   3    5.30    1.60
  -1 -15   3   10.50    1.10
  -1 -15   3   12.10    2.90
  -1  15   3    9.80    1.20
  -1  15   3    9.70    1.10
  -1  15   3   10.40    1.70
   0 -15   3  662.83   27.30
   0  15   3  653.83   27.40
   0  15  -3  643.74   27.40
   0  15   3  660.63   27.40
   0  15   3  620.24   27.50
  -1 -15  -3    7.50    1.20
   1 -15   3    8.50    1.20
   1  15   3    7.40    1.60
   1  15   3    6.60    1.10
  -1  15  -3    7.80    1.00
   2 -15   3  107.49    5.10
   2 -15   3  106.19    5.30
   2 -15   3  100.89    5.30
  -2 -15  -3  107.39    5.40
   2 -15   3  104.69    5.00
   2 -15   3  102.39    5.00
  -2  15  -3  106.29    5.00
   2  15   3   92.89    5.60
   2  15   3  102.59    5.20
   2  15   3  109.39    5.50
   2  15   3  111.19    5.40
   2  15   3  102.59    5.50
   3 -15   3  157.48    7.00
   3 -15   3  160.08    7.20
   3 -15   3  156.78    7.00
   3 -15   3  156.28    7.00
   3  15   3  157.48    7.50
   3  15   3  150.58    7.50
   3  15   3  144.49    7.40
   3  15   3  170.38    7.20
   4 -15   3   36.70    1.80
   4 -15   3   33.90    1.90
   4 -15   3   34.00    1.80
   4  15   3   38.10    2.10
   4  15   3   37.10    2.30
   4  15   3   33.10    1.80
   4 -16  -3    5.60    0.80
  -4 -16   3    7.00    1.30
   4  16  -3    6.70    1.00
  -4  16   3    6.40    1.20
  -3 -16   3  131.59    6.20
  -3 -16   3  131.09    6.10
  -3 -16   3  120.09    6.80
   3 -16  -3  130.89    5.90
  -3  16   3  138.69    6.30
   3  16  -3  133.99    6.20
   3  16  -3  125.29    6.20
  -2 -16   3    1.30    1.50
  -2 -16   3    0.50    1.00
  -2 -16   3    0.00    2.30
   2 -16  -3    4.20    1.70
  -2 -16   3   -1.50    1.60
  -2 -16   3    1.30    1.70
  -2  16   3    1.90    1.90
   2  16  -3    0.40    1.40
  -2  16   3   -0.50    1.50
  -2  16   3    1.20    1.80
  -2  16   3    2.30    1.60
  -1 -16   3   24.90    1.60
  -1  16   3   20.90    2.10
  -1  16   3   22.20    1.70
   1  16  -3   26.60    1.90
  -1  16   3   25.50    1.60
   0 -16  -3   32.10    1.80
   0 -16   3   31.10    1.80
   0  16  -3   29.30    1.80
   0  16   3   29.40    2.10
   0  16   3   30.00    1.80
   0  16   3   29.50    1.80
  -1 -16  -3  239.08   10.20
   1 -16   3  234.58   10.30
   1  16   3  231.48   10.30
   1  16   3  228.28   10.20
   2 -16   3   97.99    4.80
  -2 -16  -3  100.89    5.10
   2 -16   3   92.59    5.10
   2 -16   3   98.69    5.10
   2 -16   3   98.69    4.80
   2 -16   3   95.79    4.70
   2  16   3  101.79    5.20
   2  16   3   96.69    5.50
   2  16   3   97.69    5.30
   2  16   3  100.99    5.00
   2  16   3  107.59    5.30
  -2  16  -3   97.19    4.80
   3 -16   3    0.40    1.00
   3 -16   3    1.30    1.10
   3 -16   3    2.00    1.00
   3 -16   3    0.00    0.90
   3  16   3    2.20    1.60
   3  16   3   -0.10    1.20
   3  16   3    1.30    1.30
   3  16   3    0.70    1.50
   4 -16   3    6.50    0.80
   4 -16   3    6.10    0.90
   4 -16   3    5.40    0.70
   4  16   3    6.50    1.10
   4  16   3    5.70    1.20
   4  16   3    5.20    0.90
  -4 -17   3   24.50    1.80
   4 -17  -3   29.00    1.50
   4  17  -3   26.80    1.60
  -4  17   3   25.50    1.80
  -3 -17   3    4.60    1.70
   3 -17  -3    2.30    1.00
  -3 -17   3    1.10    2.20
  -3 -17   3    3.00    1.60
  -3  17   3    2.90    1.40
   3  17  -3    8.10    2.00
   3  17  -3    1.90    1.40
  -2 -17   3    2.50    1.60
  -2 -17   3   -0.30    1.70
   2 -17  -3    3.00    1.50
  -2 -17   3    2.90    1.20
  -2 -17   3    1.30    1.50
  -2 -17   3    1.80    2.10
   2  17  -3    1.30    1.50
  -2  17   3    4.70    1.60
  -2  17   3    4.00    1.60
  -2  17   3    3.10    1.50
  -2  17   3    1.20    1.40
  -1 -17   3   96.09    4.40
  -1  17   3   91.69    4.40
  -1  17   3   89.69    4.60
   1  17  -3   98.79    4.70
  -1  17   3   98.19    4.40
   0 -17  -3   85.29    3.90
   0 -17   3   84.59    3.90
   0  17  -3   86.39    4.00
   0  17   3   82.59    4.10
   0  17   3   79.79    3.90
  -1 -17  -3  159.08    7.20
   1 -17   3  162.48    7.20
   1  17   3  157.28    7.20
   1  17   3  156.88    7.20
   2 -17   3  106.49    5.00
   2 -17   3  108.19    5.40
  -2 -17  -3  107.39    5.50
   2 -17   3  108.89    5.00
   2 -17   3  107.39    5.40
   2 -17   3  105.19    5.00
   2  17   3  106.19    5.50
   2  17   3  102.79    5.70
  -2  17  -3  101.99    5.10
   2  17   3   98.49    6.90
   2  17   3  107.49    5.60
   2  17   3  107.49    5.30
   2  17   3  101.49    5.50
   3 -17   3   28.40    1.90
   3 -17   3   28.50    2.10
   3 -17   3   29.00    2.00
   3 -17   3   25.50    1.90
   3  17   3   25.80    2.20
   3  17   3   29.10    2.60
   3  17   3   28.30    2.40
   3  17   3   28.20    2.70
  -4 -18   3    1.00    1.00
   4 -18  -3    1.40    0.60
  -4  18   3    1.50    0.90
   4  18  -3    0.90    0.70
  -3 -18   3   62.29    3.50
  -3 -18   3   62.09    4.30
   3 -18  -3   69.19    3.30
  -3 -18   3   70.49    3.80
  -3  18   3   68.49    3.70
   3  18  -3   68.49    3.70
   3  18  -3   61.39    3.60
  -2 -18   3   21.40    3.00
  -2 -18   3   19.70    1.90
  -2 -18   3   15.50    2.60
   2 -18  -3   18.00    2.50
  -2 -18   3   14.90    2.30
  -2 -18   3   20.30    2.20
  -2  18   3   17.30    2.50
  -2  18   3   17.10    2.90
  -2  18   3   18.50    2.30
  -2  18   3   14.90    2.20
   2  18  -3   18.20    2.50
  -1 -18   3   30.70    1.90
  -1  18   3   30.00    2.30
   1  18  -3   33.70    2.30
  -1  18   3   32.90    2.00
  -1  18   3   30.50    1.90
   0 -18  -3  179.78    7.50
   0 -18   3  172.38    7.40
   0  18   3  167.78    7.50
   0  18   3  159.48    7.60
   0  18  -3  164.08    7.50
   1 -18   3  427.66   18.30
  -1 -18  -3  402.26   18.20
   1  18   3  436.16   18.30
   1  18   3  433.46   18.30
   2 -18   3  147.29    6.70
   2 -18   3  151.78    6.70
   2 -18   3  151.28    7.10
  -2 -18  -3  146.19    7.20
   2 -18   3  144.49    7.00
   2 -18   3  147.29    6.70
   2  18   3  147.29    7.30
   2  18   3  146.39    7.90
   2  18   3  141.79    7.10
   2  18   3  156.48    7.00
   2  18   3  141.39    7.30
   2  18   3  152.68    7.10
  -2  18  -3  145.29    6.90
   3 -18   3   -1.30    0.90
   3 -18   3    1.10    1.00
   3 -18   3    1.50    1.00
   3 -18   3    3.30    0.90
   3  18   3    0.20    1.20
   3  18   3    1.20    1.50
   3  18   3    1.20    1.30
   3  18   3    3.00    1.60
   4 -19  -3    4.30    0.80
  -4 -19   3    4.50    1.30
  -4  19   3    5.80    1.20
   4  19  -3    4.30    0.90
   3 -19  -3   23.10    1.80
  -3 -19   3   21.20    3.00
  -3 -19   3   22.00    1.90
   3  19  -3   22.30    2.10
   3  19  -3   24.00    2.30
  -3  19   3   24.10    2.10
  -2 -19   3  441.86   18.60
  -2 -19   3  413.76   18.00
  -2 -19   3  411.76   18.00
  -2 -19   3  453.05   18.00
   2 -19  -3  400.06   18.20
  -2  19   3  398.76   18.10
  -2  19   3  405.46   18.00
  -2  19   3  426.96   18.10
   2  19  -3  405.36   18.30
  -1 -19   3    2.70    0.90
  -1  19   3    6.20    1.80
  -1  19   3    5.20    1.20
   1  19  -3    5.10    1.20
  -1  19   3    3.50    1.10
   0 -19  -3   15.90    1.40
   0  19   3   16.50    1.80
   0  19  -3   16.00    1.40
   0  19   3   16.40    1.40
   1  19   3   16.70    1.80
   2 -19   3  139.99    6.30
   2 -19   3  143.09    6.40
   2 -19   3  142.89    6.30
   2 -19   3  138.79    6.80
  -2 -19  -3  135.89    6.90
   2 -19   3  143.49    6.60
   2  19   3  125.29    6.90
   2  19   3  145.39    6.70
   2  19   3  140.49    6.80
   2  19   3  139.99    6.90
  -2  19  -3  132.09    6.60
   2  19   3  137.69    7.50
   2  19   3  135.79    6.80
   3 -19   3   10.60    1.40
   3 -19   3   10.80    1.30
   3 -19   3   12.70    1.30
   3 -19   3    9.60    1.60
   3  19   3   12.80    2.00
   3  19   3   14.30    1.80
   3  19   3   12.50    1.90
   3  19   3   12.70    2.20
  -4 -20   3   47.50    2.60
   4 -20  -3   49.20    2.40
  -4  20   3   44.10    2.50
   4  20  -3   46.60    2.30
   3 -20  -3   11.20    1.40
  -3 -20   3   10.10    1.60
  -3 -20   3   10.50    2.60
   3  20  -3    8.80    2.50
  -3  20   3    8.30    1.90
   3  20  -3   12.70    1.80
  -2 -20   3  154.98    7.50
  -2 -20   3  170.58    7.50
  -2 -20   3  166.68    7.60
  -2 -20   3  179.48    8.20
  -2  20   3  154.08    7.60
   2  20  -3  139.29    7.80
  -2  20   3  168.58    7.60
  -2  20   3  165.68    7.70
  -1 -20   3   11.70    1.40
   1 -20  -3   11.20    1.40
  -1  20   3   12.20    1.40
  -1  20   3   11.80    1.50
  -1  20   3   14.30    1.90
   1  20  -3   11.60    1.80
   0 -20  -3    3.40    1.10
   0  20  -3    2.40    0.80
   0  20   3    0.00    1.10
   0  20   3    1.80    0.80
   1 -20   3  107.29    4.90
   1 -20   3  102.19    4.80
  -1 -20  -3   97.49    4.80
   1 -20   3   96.09    5.00
   1  20   3   99.49    4.80
   1  20   3  101.59    4.90
  -1  20  -3   87.89    4.70
   1  20   3  100.29    7.20
   2 -20   3  388.06   17.80
   2 -20   3  414.76   17.70
  -2 -20  -3  399.56   18.00
   2 -20   3  405.46   17.60
   2 -20   3  426.36   17.70
   2 -20   3  422.56   18.10
   2  20   3  403.46   18.20
   2  20   3  423.16   18.10
   2  20   3  401.86   18.00
   2  20   3  440.16   18.00
   2  20   3  408.66   18.40
   3 -20   3    7.90    1.20
  -3 -20  -3    8.80    2.00
   3 -20   3    8.00    1.40
   3 -20   3    8.50    1.20
   3 -20   3    9.50    1.30
   3  20   3    8.20    1.70
   3  20   3    8.10    2.10
   3  20   3    8.50    1.70
   3  20   3    8.70    1.80
   4 -21  -3   50.79    2.40
  -4  21   3   49.99    2.60
   3 -21  -3    0.80    0.80
  -3 -21   3    2.10    1.20
  -3 -21   3    1.30    1.90
   3  21  -3    3.20    1.40
  -3  21   3    2.90    1.30
  -2 -21   3   22.60    4.50
  -2 -21   3   29.70    2.40
  -2 -21   3   28.20    2.40
  -2 -21   3   30.20    2.50
  -2 -21   3   26.60    3.00
  -2 -21   3   32.10    3.00
  -2  21   3   29.80    2.70
  -2  21   3   31.50    2.90
   2  21  -3   29.10    3.20
  -2  21   3   27.80    2.90
   1 -21  -3    6.20    1.50
  -1 -21   3    6.30    1.30
  -1  21   3    6.70    1.70
  -1  21   3    4.70    1.30
   1  21  -3    7.80    1.70
   0 -21  -3 1231.68   51.59
   0  21  -3 1195.98   51.69
   0  21   3 1234.68   51.59
   0  21   3 1247.68   51.69
   1 -21   3    0.80    1.30
   1 -21   3    2.20    1.40
   1 -21   3   -0.50    1.40
  -1 -21  -3    0.60    0.90
   1  21   3   -1.30    2.00
   1  21   3    1.50    1.30
   1  21   3    3.30    1.90
   1  21   3    0.40    1.80
  -1  21  -3    1.90    1.00
   1  21   3    0.00    1.10
   2 -21   3  123.09    5.70
   2 -21   3  118.09    5.70
   2 -21   3  123.89    5.80
   2 -21   3  122.79    6.10
   2  21   3  120.19    6.20
   2  21   3  119.79    6.30
   2  21   3  121.79    5.90
   2  21   3  123.39    6.70
   3 -21   3    4.50    1.10
   3 -21   3    5.30    1.20
  -3 -21  -3    5.70    1.80
   3 -21   3    4.80    1.20
   3 -21   3    4.70    1.40
   3  21   3    6.10    1.80
   3  21   3    6.10    1.80
   3  21   3    5.70    1.70
   4 -22  -3   23.30    1.30
   4  22  -3   22.50    1.30
  -4  22   3   20.60    1.50
   3 -22  -3   52.39    2.70
  -3 -22   3   47.60    2.90
  -3 -22   3   49.00    3.60
   3  22  -3   52.69    3.00
  -3  22   3   53.49    3.10
  -2 -22   3   13.10    2.20
  -2 -22   3   19.50    2.70
  -2 -22   3   17.90    2.70
  -2 -22   3   17.80    2.20
  -2 -22   3   18.20    2.10
  -2  22   3   15.80    2.80
   2  22  -3   14.80    3.10
  -2  22   3   16.80    2.50
  -2  22   3   15.10    2.30
   2  22  -3   17.70    3.50
  -1 -22   3   12.00    1.60
  -1 -22   3    9.00    3.00
  -1 -22   3   18.00    2.20
   1 -22  -3    9.10    1.70
   1  22  -3   12.90    1.90
  -1  22   3   11.30    2.60
  -1  22   3   10.30    1.50
  -1  22   3   13.90    2.00
  -1  22   3   13.00    2.30
   0 -22  -3  175.78    8.30
   0  22   3  190.68    8.40
   0  22   3  191.48    8.40
   0  22  -3  195.28    8.40
  -1 -22  -3    4.70    1.50
   1 -22   3    6.90    1.40
   1 -22   3    6.50    1.80
   1 -22   3    6.70    1.50
   1 -22   3    4.60    2.20
   1 -22   3    3.50    1.90
   1  22   3    4.60    1.90
   1  22   3    5.20    1.20
   1  22   3    4.60    1.40
   1  22   3    6.00    2.20
   1  22   3    4.90    1.90
  -1  22  -3    5.00    1.40
   2 -22   3   40.50    2.50
   2 -22   3   41.50    2.50
   2 -22   3   37.80    2.50
   2 -22   3   42.70    2.90
   2  22   3   44.20    2.80
   2  22   3   40.50    3.10
   2  22   3   38.80    3.60
   2  22   3   39.40    3.10
   3 -22   3    3.70    0.90
   3 -22   3    4.70    1.40
  -3 -22  -3    4.80    1.50
   3 -22   3    3.80    1.00
   3  22   3    5.30    1.40
   3  22   3    4.20    1.40
   3  22   3    5.40    1.60
   3  22   3    4.30    1.10
  -3 -23   3   22.10    1.90
   3 -23  -3   20.80    1.70
  -3 -23   3   23.50    2.60
  -3  23   3   24.30    2.10
   3  23  -3   24.40    2.00
  -2 -23   3  519.35   23.30
  -2 -23   3  543.45   23.10
  -2 -23   3  550.04   23.10
  -2 -23   3  562.44   23.60
  -2 -23   3  549.35   23.00
   2  23  -3  536.45   23.30
  -2  23   3  509.95   23.10
  -2  23   3  544.55   23.10
  -1 -23   3  419.36   17.40
  -1 -23   3  392.26   17.50
  -1 -23   3  398.06   17.30
   1 -23  -3  407.86   17.40
  -1 -23   3  414.86   18.00
  -1 -23   3  383.36   17.50
  -1 -23   3  372.96   17.40
   1  23  -3  423.16   17.50
  -1  23   3  400.36   17.50
  -1  23   3  411.96   17.30
  -1  23   3  385.66   17.40
  -1  23   3  418.56   17.30
   0 -23  -3    0.70    1.30
   0  23   3    1.90    1.00
   0  23  -3    1.00    1.00
   0  23   3    2.70    1.20
   1 -23   3   66.59    3.60
   1 -23   3   60.49    4.30
  -1 -23  -3   69.99    3.60
   1 -23   3   59.89    3.50
   1 -23   3   57.89    4.50
   1 -23   3   68.29    3.40
  -1  23  -3   65.79    3.50
   1  23   3   60.19    4.40
   1  23   3   68.49    3.50
   1  23   3   65.59    4.10
   1  23   3   69.29    4.30
   1  23   3   67.79    3.70
   2 -23   3    6.70    1.90
   2 -23   3    4.90    1.10
   2 -23   3    3.90    1.10
   2 -23   3    3.40    1.10
   2  23   3    6.70    1.70
   2  23   3    0.10    2.00
   2  23   3    4.70    2.00
   2  23   3    1.90    1.50
   2  23   3    1.10    1.50
   3 -23   3   83.99    4.00
   3 -23   3   79.49    4.00
   3 -23   3   96.69    4.10
  -3 -23  -3   78.99    4.40
   3 -23   3   86.69    4.10
   3  23   3   84.19    4.30
   3  23   3   90.69    4.20
   3  23   3   82.09    4.30
   3  23   3   92.49    4.70
  -3 -24   3   14.50    2.30
  -3 -24   3   14.40    1.70
   3  24  -3   14.20    1.60
  -2 -24   3   -0.90    2.20
  -2 -24   3    2.60    1.50
   2  24  -3    3.40    3.30
  -1 -24   3  747.33   33.70
  -1 -24   3  804.92   33.70
  -1 -24   3  819.62   33.70
  -1 -24   3  765.02   33.80
  -1 -24   3  842.12   34.30
  -1 -24   3  800.22   33.90
  -1  24   3  780.52   34.20
  -1  24   3  810.02   33.70
  -1  24   3  793.62   33.80
  -1  24   3  755.92   33.80
   1  24  -3  844.62   34.00
   0 -24   3   48.80    3.20
   0 -24   3   53.99    3.00
   0 -24  -3   54.39    2.90
   0 -24   3   46.10    3.70
   0 -24   3   47.60    3.30
   0  24   3   49.50    3.00
   0  24   3   51.99    2.90
   0  24   3   48.40    3.40
   0  24   3   52.39    3.90
   0  24   3   45.70    3.50
   0  24  -3   52.59    2.90
   1 -24   3  198.08    9.00
   1 -24   3  193.18    9.50
   1 -24   3  183.78    9.30
   1 -24   3  205.98    9.00
  -1 -24  -3  215.08    9.20
   1 -24   3  204.38    9.00
   1  24   3  201.38    9.30
   1  24   3  210.68    9.10
   1  24   3  201.88    9.60
   1  24   3  208.38    9.60
   1  24   3  204.28    9.30
  -1  24  -3  205.48    9.10
   2 -24   3  170.28    8.20
   2 -24   3  192.68    8.10
   2 -24   3  176.48    8.00
   2 -24   3  180.78    8.00
   2  24   3  189.28    8.30
   2  24   3  177.08    8.40
   2  24   3  180.48    8.80
   2  24   3  184.08    8.50
   3 -24   3    7.00    1.20
  -3 -24  -3    5.90    1.60
   3 -24   3    5.80    1.00
   3 -24   3    6.00    1.00
   3 -24   3    6.70    1.00
   3  24   3    4.10    1.10
   3  24   3    3.60    1.20
   3  24   3    5.80    1.40
   3  24   3    5.80    1.50
   3 -25  -3   13.70    1.40
  -3 -25   3   15.50    1.70
   3  25  -3   13.30    1.50
  -2 -25   3   49.80    3.50
  -2 -25   3   44.70    3.00
  -2 -25   3   46.30    2.90
  -2 -25   3   44.10    3.40
  -2  25   3   49.00    3.00
  -2  25   3   46.70    3.20
   2  25  -3   41.30    3.70
  -1 -25   3  350.66   16.10
  -1 -25   3  395.76   16.70
  -1 -25   3  360.46   16.30
  -1 -25   3  363.66   16.20
  -1 -25   3  372.26   16.10
  -1 -25   3  382.96   16.10
  -1  25   3  383.06   16.70
  -1  25   3  384.56   16.10
  -1  25   3  363.06   16.20
  -1  25   3  362.16   16.20
   1  25  -3  388.26   16.30
  -1  25   3  366.06   16.10
   0 -25  -3  198.18    8.90
   0 -25   3  207.78    8.90
   0 -25   3  187.18    8.90
   0 -25   3  193.78    8.90
   0 -25   3  195.18    9.10
   0  25   3  193.58    9.10
   0  25   3  193.38    9.00
   0  25  -3  208.98    9.00
   0  25   3  208.18    9.00
   0  25   3  208.28    9.50
   0  25   3  193.98    9.60
   0  25   3  197.08    9.00
   1 -25   3  191.08    9.20
   1 -25   3  179.98    9.00
  -1 -25  -3  203.88    8.90
   1 -25   3  196.28    8.70
   1 -25   3  185.58    8.60
   1 -25   3  197.58    8.60
   1  25   3  203.08    9.00
  -1  25  -3  196.98    8.80
   1  25   3  199.08    8.80
   1  25   3  196.78    9.30
   1  25   3  197.88    9.20
   1  25   3  190.58    9.00
   2 -25   3   18.40    1.70
   2 -25   3   20.70    2.10
   2 -25   3   19.40    1.70
   2 -25   3   20.90    1.70
   2  25   3   18.50    2.00
   2  25   3   18.50    2.30
   2  25   3   19.80    2.70
   3 -25   3   16.50    1.30
   3 -25   3   18.80    1.30
   3 -25   3   17.60    1.30
   3 -25   3   19.20    1.40
  -3 -25  -3   16.30    1.80
   3  25   3   20.20    1.80
   3  25   3   18.50    1.60
   3  25   3   15.40    1.80
  -3 -26   3   92.69    4.80
   3 -26  -3   92.79    4.30
  -3 -26   3   93.79    4.50
   3  26  -3   92.99    5.10
  -3  26   3   98.29    4.50
  -2 -26   3  180.98    8.50
  -2 -26   3  165.98    8.30
  -2 -26   3  183.88    8.00
   2  26  -3  184.88    8.40
  -2  26   3  165.38    8.10
  -2  26   3  169.98    8.00
  -1 -26   3  370.26   16.30
  -1 -26   3  398.16   16.80
  -1 -26   3  360.96   16.20
  -1 -26   3  381.36   16.30
  -1 -26   3  373.76   16.20
  -1  26   3  379.76   16.30
  -1  26   3  360.16   16.20
   1  26  -3  379.96   16.50
  -1  26   3  368.96   16.30
  -1  26   3  379.56   16.80
   0 -26   3    2.20    1.40
   0 -26   3   -0.60    1.30
   0 -26   3    3.10    1.30
   0 -26   3    2.70    1.50
   0 -26  -3    0.10    1.30
   0  26  -3    2.50    1.20
   0  26   3    3.20    1.10
   0  26   3    2.80    1.30
   0  26   3    5.70    2.30
   0  26   3    2.60    1.70
   0  26   3    1.40    2.30
   0  26   3    0.90    1.30
   1 -26   3   11.00    1.90
   1 -26   3   15.60    1.70
  -1 -26  -3   14.90    2.20
   1 -26   3   15.50    2.60
   1 -26   3   16.10    1.80
   1 -26   3   14.50    1.60
   1  26   3   15.20    2.50
   1  26   3   14.50    2.50
   1  26   3   15.60    1.90
   1  26   3   15.70    2.50
  -1  26  -3   15.80    2.10
   1  26   3   11.10    3.00
   2 -26   3  198.68    8.70
   2 -26   3  201.28    8.70
   2 -26   3  188.78    8.60
   2 -26   3  192.18    8.80
   2  26   3  211.18    9.10
   2  26   3  194.38    9.10
   2  26   3  191.78    9.00
   2  26   3  196.98    9.40
   3 -26   3    3.50    1.00
   3 -26   3    3.80    0.90
   3 -26   3    1.00    0.70
  -3 -26  -3    4.70    1.50
   3  26   3    2.30    1.00
   3  26   3    0.40    0.90
   3  26   3    1.60    1.00
   3 -27  -3   90.49    4.40
  -3 -27   3   93.49    4.60
  -3 -27   3   97.99    4.90
  -3  27   3  100.79    4.60
   3  27  -3   98.49    4.50
  -2 -27   3  331.37   14.30
  -2 -27   3  337.37   14.80
  -2  27   3  320.57   14.40
   2  27  -3  333.27   14.50
  -2  27   3  325.07   14.30
  -1 -27   3  601.84   25.10
  -1 -27   3  572.04   24.60
  -1 -27   3  549.35   24.50
  -1 -27   3  581.44   24.50
  -1 -27   3  585.94   24.80
  -1  27   3  582.14   24.60
   1  27  -3  581.64   24.90
  -1  27   3  564.14   24.60
  -1  27   3  567.34   25.00
  -1  27   3  576.94   24.60
   0 -27   3   32.60    2.60
   0 -27   3   29.20    3.00
   0 -27   3   35.90    2.30
   0 -27   3   31.90    2.40
   0 -27  -3   36.70    2.60
   0  27   3   32.20    2.40
   0  27   3   36.30    3.20
   0  27   3   35.40    3.00
   0  27   3   31.50    2.70
   0  27   3   33.00    3.60
   0  27   3   34.90    2.50
   0  27  -3   33.60    2.50
  -1 -27  -3   74.69    4.20
   1 -27   3   69.19    4.20
   1 -27   3   72.39    3.60
   1 -27   3   69.19    4.50
   1 -27   3   73.39    3.70
   1 -27   3   73.69    3.70
   1  27   3   78.39    3.90
   1  27   3   75.49    4.40
   1  27   3   69.49    4.50
  -1  27  -3   67.99    4.00
   1  27   3   72.29    4.20
   1  27   3   72.79    4.40
   2 -27   3   18.20    1.90
   2 -27   3   20.40    1.60
   2 -27   3   16.10    1.60
   2 -27   3   19.30    1.50
   2  27   3   18.20    2.30
   2  27   3   18.00    1.90
   2  27   3   22.00    2.60
   2  27   3   15.90    2.30
   3 -27   3  206.08    8.50
  -3 -27  -3  182.88    8.70
   3 -27   3  194.58    8.60
   3 -27   3  200.38    8.50
   3 -27   3  186.68    8.50
   3  27   3  211.98    8.80
   3  27   3  194.58    8.60
   3  27   3  204.38    8.70
  -3 -28   3    7.10    1.70
  -3 -28   3    7.10    1.80
  -3  28   3   11.00    1.60
   3  28  -3    8.40    1.20
  -2 -28   3   19.10    2.50
  -2 -28   3   16.60    1.80
  -2  28   3   17.30    2.30
   2  28  -3   18.10    2.60
  -2  28   3   18.70    2.30
  -1 -28   3   57.39    3.80
  -1 -28   3   60.49    4.10
  -1 -28   3   63.49    3.40
  -1 -28   3   67.29    3.40
  -1 -28   3   59.79    3.80
   1  28  -3   63.19    4.20
  -1  28   3   62.79    3.60
  -1  28   3   66.49    4.40
  -1  28   3   63.39    3.70
  -1  28   3   66.99    3.80
   0 -28   3   11.00    1.80
   0 -28   3    6.80    1.40
   0 -28   3   11.10    1.70
   0 -28   3    8.50    1.60
   0 -28  -3   10.60    2.20
   0  28   3   10.40    2.50
   0  28   3    9.00    2.00
   0  28   3   10.30    2.30
   0  28   3    9.40    2.10
   0  28   3    8.40    1.80
   0  28   3    9.20    2.00
   0  28  -3   11.30    2.00
   1 -28   3  109.39    5.60
   1 -28   3  109.49    5.20
  -1 -28  -3  111.99    5.70
   1 -28   3  105.29    5.30
   1 -28   3  111.59    5.80
   1 -28   3  113.99    5.20
   1  28   3  115.29    5.90
   1  28   3  118.19    5.40
   1  28   3  117.99    6.00
   1  28   3  104.69    5.60
   2 -28   3   28.00    2.10
   2 -28   3   26.80    1.80
   2 -28   3   27.30    1.90
   2 -28   3   30.60    1.80
   2  28   3   25.60    2.10
   2  28   3   28.90    2.40
   2  28   3   26.10    2.60
   2  28   3   25.20    2.50
   3 -28   3    2.70    0.70
   3 -28   3    0.80    0.50
   3 -28   3    0.50    0.60
   3 -28   3    1.10    0.60
  -3 -28  -3    0.80    1.10
   3  28   3    1.20    0.90
   3  28   3   -0.20    1.00
   3  28   3    0.60    0.90
  -3 -29   3   -0.40    1.20
  -3 -29   3   -0.30    1.60
   3  29  -3   -0.80    0.80
  -3  29   3   -0.10    1.10
  -2 -29   3   24.70    2.50
  -2 -29   3   22.50    1.90
   2 -29  -3   22.60    2.10
  -2  29   3   22.30    2.30
   2  29  -3   22.00    2.60
  -2  29   3   27.40    2.40
  -1 -29   3    1.90    1.10
  -1 -29   3    2.70    1.60
  -1 -29   3    3.30    1.20
  -1 -29   3    2.50    1.60
   1  29  -3    2.80    1.80
  -1  29   3    3.80    2.20
  -1  29   3    7.20    2.10
  -1  29   3    5.40    1.80
   0 -29   3   16.10    2.40
   0 -29   3   18.70    2.00
   0 -29   3   15.40    2.40
   0 -29   3   19.50    1.90
   0 -29  -3   20.20    2.70
   0  29   3   20.80    2.70
   0  29   3   20.50    3.20
   0  29   3   17.10    2.00
   0  29   3   17.70    2.40
   0  29   3   22.70    2.30
   0  29   3   14.90    2.50
   0  29  -3   19.50    2.50
   1 -29   3  208.58    9.50
   1 -29   3  218.38    9.50
   1 -29   3  225.08    9.50
   1 -29   3  217.48    9.90
   1 -29   3  209.18    9.70
   1  29   3  222.08   10.20
   1  29   3  222.68    9.70
   1  29   3  206.48    9.80
   1  29   3  215.88   10.00
   2 -29   3    2.40    0.90
   2 -29   3    6.20    1.20
   2 -29   3    3.70    0.90
   2 -29   3    4.50    1.50
   2  29   3    4.70    1.50
   2  29   3    2.40    1.30
   2  29   3    5.20    1.40
   2  29   3    4.70    2.10
  -3 -29  -3    9.70    1.50
   3 -29   3   10.40    0.90
   3 -29   3   10.00    0.90
   3 -29   3    9.00    0.90
   3 -29   3    9.90    1.00
   3  29   3   10.50    1.40
   3  29   3   10.30    1.40
   3  29   3    9.40    1.30
  -3 -30   3    0.40    1.10
   3  30  -3    0.30    0.80
  -3  30   3   -0.70    1.00
  -2 -30   3  367.36   15.50
  -2 -30   3  358.66   15.80
  -2 -30   3  362.06   16.00
   2 -30  -3  356.86   15.50
   2  30  -3  366.36   15.70
   2  30  -3  347.77   15.50
  -2  30   3  365.86   15.60
  -1 -30   3   72.29    4.20
  -1 -30   3   71.39    4.00
  -1 -30   3   71.99    4.40
  -1 -30   3   72.39    3.70
  -1  30   3   69.79    3.90
   1  30  -3   77.09    4.10
  -1  30   3   70.29    5.60
  -1  30   3   68.49    4.10
   0 -30   3  120.89    6.20
   0 -30   3  117.39    6.00
   0 -30   3  123.99    5.90
   0 -30   3  125.09    5.90
   0 -30  -3  144.79    7.00
   0  30   3  141.19    6.60
   0  30   3  127.79    6.50
   0  30   3  119.49    6.20
   0  30  -3  130.49    6.50
   0  30   3  128.39    6.50
   0  30   3  124.39    6.10
   0  30   3  128.99    6.00
  -1 -30  -3  114.29    5.90
   1 -30   3  117.99    5.50
   1 -30   3  117.19    5.50
   1 -30   3  123.09    5.50
   1 -30   3  117.19    5.80
   1 -30   3  119.29    6.00
   1  30   3  117.09    6.00
   1  30   3  125.49    6.20
   1  30   3  119.09    5.90
   1  30   3  124.79    5.70
   2 -30   3  216.78    9.10
   2 -30   3  215.48    9.10
   2 -30   3  208.28    9.20
   2 -30   3  204.08    9.10
   2  30   3  192.98    9.30
   2  30   3  214.18    9.70
   2  30   3  208.28    9.40
   2  30   3  214.98    9.50
   3 -30   3    3.70    0.80
  -3 -30  -3    3.20    1.30
   3 -30   3    4.80    0.80
   3 -30   3    4.70    0.70
   3 -30   3    4.00    0.70
   3  30   3    4.10    1.20
   3  30   3    3.00    1.10
   3  30   3    4.20    1.30
  -3 -31   3   24.10    1.90
   3  31  -3   23.70    1.50
  -2 -31   3  125.39    6.30
  -2 -31   3  130.89    6.40
   2 -31  -3  122.29    6.00
   2  31  -3  130.79    5.90
  -2  31   3  129.89    6.00
   2  31  -3  131.49    6.10
  -1 -31   3   17.20    2.30
  -1 -31   3   23.10    1.90
  -1 -31   3   20.20    2.50
  -1 -31   3   20.10    2.70
  -1  31   3   21.70    2.10
  -1  31   3   26.10    5.30
   1  31  -3   20.60    2.40
  -1  31   3   21.10    2.50
   0 -31   3   54.69    3.80
   0 -31   3   52.49    3.30
   0  31   3   54.79    3.40
   0  31   3   46.80    5.10
   0  31   3   46.30    4.10
   0  31   3   58.79    3.30
   1 -31   3   41.10    2.90
   1 -31   3   39.50    2.50
   1 -31   3   41.40    3.10
   1 -31   3   41.30    2.50
  -1 -31  -3   38.80    3.00
   1 -31   3   40.30    2.40
   1  31   3   36.20    3.00
   1  31   3   46.80    2.70
   1  31   3   39.90    3.20
   1  31   3   42.50    3.20
   2 -31   3  115.59    5.10
   2 -31   3  110.89    5.00
   2 -31   3  112.89    5.20
   2 -31   3  108.79    5.00
   2  31   3  105.19    5.20
   2  31   3  114.29    5.60
   2  31   3  114.89    5.50
   2  31   3  109.19    5.30
   3 -31   3   17.30    1.10
   3 -31   3   17.50    1.00
   3 -31   3   13.20    1.40
  -3 -31  -3   15.20    1.70
   3 -31   3   18.00    1.10
   3  31   3   16.40    1.50
   3  31   3   17.40    1.40
  -3 -32   3    8.50    1.40
   3  32  -3    7.90    1.00
   2 -32  -3   18.70    1.80
  -2 -32   3   17.20    2.20
  -2 -32   3   15.00    2.60
   2  32  -3   17.10    1.70
   2  32  -3   21.50    2.10
  -2  32   3   15.70    2.10
  -1 -32   3  173.48    8.10
  -1 -32   3  178.08    7.60
  -1 -32   3  165.48    7.70
  -1 -32   3  163.28    7.90
  -1  32   3  161.08    7.70
  -1  32   3  165.78    7.70
   1  32  -3  165.18    7.70
   0 -32   3    2.20    1.50
   0 -32   3    0.30    1.00
   0 -32   3    0.70    1.00
   0 -32   3    1.20    1.00
   0  32   3   -0.10    1.00
   0  32   3    0.90    1.60
   0  32   3    0.70    1.70
   0  32   3   -0.60    1.70
   0  32   3    1.00    1.60
   1 -32   3    4.60    1.50
   1 -32   3    1.40    1.20
   1 -32   3    2.90    1.00
   1 -32   3    3.70    1.10
  -1 -32  -3    2.20    1.20
   1  32   3    3.20    1.80
   1  32   3    2.30    1.40
   1  32   3    0.10    1.50
   1  32   3    1.50    1.60
   2 -32   3  102.79    4.40
   2 -32   3  100.39    4.50
   2 -32   3   97.19    4.40
   2  32   3   96.89    4.80
   2  32   3   91.59    4.60
   2  32   3   99.19    5.70
   2  32   3   89.49    4.80
   3 -32   3    8.60    0.80
   3 -32   3    8.70    0.80
   3 -32   3    8.50    0.90
   3 -32   3    8.50    0.80
   3  32   3    8.90    1.20
   3  32   3    8.20    1.30
  -3 -33   3   78.59    3.70
   3  33  -3   68.49    3.30
  -2 -33   3    2.20    1.40
  -2 -33   3    1.40    1.30
  -2  33   3    1.70    1.40
   2  33  -3    2.00    1.40
   2  33  -3    1.40    1.10
  -1 -33   3  231.88    9.90
  -1 -33   3  227.28   10.00
  -1 -33   3  228.28   10.40
   1  33  -3  234.28   10.00
  -1  33   3  221.88   10.00
  -1  33   3  228.38    9.90
  -1  33   3  191.68   10.30
   0 -33   3   21.80    1.80
   0 -33   3   19.00    2.00
   0 -33   3   18.40    2.20
   0 -33   3   19.50    1.70
   0 -33  -3   18.20    2.00
   0  33   3   20.40    2.70
   0  33   3   15.30    2.60
   0  33   3   20.30    2.40
   0  33   3   16.90    2.00
  -1 -33  -3  225.68    9.90
   1 -33   3  225.38    9.90
   1 -33   3  214.68    9.70
   1 -33   3  221.98    9.70
   1 -33   3  215.98    9.80
   1 -33   3  223.68    9.70
   1  33   3  213.48    9.80
   1  33   3  223.38   10.20
   1  33   3  213.98    9.90
   1  33   3  230.58   10.10
   2 -33   3  184.08    7.50
   2 -33   3  162.08    7.20
   2 -33   3  154.28    7.40
   2 -33   3  166.28    7.30
  -2 -33  -3  151.68    7.90
   2  33   3  164.28    7.70
   2  33   3  171.58    7.50
   2  33   3  167.78    7.40
   2  33   3  163.68    8.20
  -3 -34   3   76.59    3.70
   3  34  -3   70.39    3.30
  -2 -34   3   11.90    2.20
   2 -34  -3    7.90    1.50
  -2 -34   3   10.80    1.80
   2  34  -3   10.10    1.80
  -1 -34   3   87.59    4.50
   1 -34  -3   89.69    4.40
  -1 -34   3   97.99    4.40
  -1 -34   3   85.19    4.90
   1  34  -3   91.69    4.50
  -1  34   3   88.89    5.00
  -1  34   3   87.09    4.70
   0 -34   3   32.30    2.10
   0 -34   3   35.60    2.60
   0 -34   3   31.90    2.50
   0 -34   3   30.50    2.20
   0 -34  -3   32.40    2.40
   0  34   3   31.70    3.00
   0  34   3   33.20    2.90
   0  34   3   33.80    2.90
   1 -34   3   36.90    2.80
  -1 -34  -3   39.30    2.80
   1 -34   3   39.60    2.40
   1 -34   3   42.90    2.30
   1 -34   3   41.40    2.30
   1  34   3   39.40    2.90
   1  34   3   38.90    2.90
   1  34   3   37.60    2.60
  -1  34  -3   40.20    2.80
   1  34   3   43.00    3.00
   2 -34   3   58.89    2.80
   2 -34   3   55.29    2.90
   2 -34   3   58.39    2.70
   2 -34   3   54.39    2.70
  -2 -34  -3   50.89    3.50
   2  34   3   57.59    3.20
   2  34   3   56.99    3.10
   2  34   3   57.39    3.10
   3  35  -3   36.80    1.80
  -2 -35   3    7.40    1.50
   2 -35  -3    9.30    1.50
  -2 -35   3    8.60    2.10
   2  35  -3    7.50    1.30
   2  35  -3    7.30    1.60
  -1 -35   3   30.60    2.30
  -1 -35   3   27.20    2.70
   1 -35  -3   30.10    2.10
  -1 -35   3   31.90    2.10
  -1  35   3   36.30    3.10
   1  35  -3   29.90    2.20
   0 -35   3  132.19    6.10
   0 -35  -3  135.59    6.30
   0 -35   3  126.79    6.20
   0 -35   3  134.69    6.10
   0 -35   3  135.19    6.30
   0  35   3  134.59    6.70
   0  35   3  133.49    6.70
   0  35   3  138.99    6.50
  -1 -35  -3    3.50    1.20
   1 -35   3    4.70    1.20
   1 -35   3    6.30    1.20
   1 -35   3    5.00    1.50
   1 -35   3    3.80    1.10
   1  35   3    2.60    1.30
   1  35   3    6.90    2.00
  -1  35  -3    3.70    1.40
   1  35   3    9.80    2.40
   1  35   3    3.70    1.40
   2 -35   3  109.09    4.70
   2 -35   3  100.39    4.70
  -2 -35  -3  102.09    5.40
   2 -35   3  106.79    4.80
   2 -35   3  106.39    4.80
   2  35   3  115.89    5.20
   2  35   3  103.89    5.00
   2  35   3  104.49    5.00
  -2 -36   3    9.10    2.10
   2 -36  -3   12.20    1.50
  -2 -36   3   14.70    1.70
   2  36  -3   11.70    1.40
   2  36  -3   12.60    1.60
   1 -36  -3   45.40    2.60
  -1 -36   3   47.90    2.60
  -1 -36   3   46.10    2.80
  -1 -36   3   43.00    3.20
   1  36  -3   47.70    2.70
  -1  36   3   38.80    3.30
   0 -36  -3   15.50    1.70
   0 -36   3   15.70    1.60
   0 -36   3   11.30    2.10
   0 -36   3   15.00    2.00
   0 -36   3   12.50    1.60
   0  36   3   16.70    2.10
   0  36   3   15.60    2.30
   1 -36   3    4.00    1.10
  -1 -36  -3    7.30    2.10
   1 -36   3    3.90    1.10
   1 -36   3    3.90    0.90
   1 -36   3    2.90    1.00
   1  36   3    7.30    1.60
   1  36   3    4.20    1.40
  -1  36  -3    4.90    1.30
   1  36   3    6.80    1.90
   2 -36   3  125.09    5.80
   2 -36   3  140.39    5.80
  -2 -36  -3  124.69    6.10
  -2 -36  -3  133.89    6.50
   2 -36   3  135.79    5.90
  -2  36  -3  137.69    6.00
   2  36   3  136.99    6.10
   2  36   3  134.29    6.00
   2 -37  -3  197.58    8.60
  -2 -37   3  198.08    8.90
  -2 -37   3  185.98    8.70
   2  37  -3  205.68    8.60
   2  37  -3  194.38    8.50
   1 -37  -3    4.80    1.30
  -1 -37   3    6.90    1.60
  -1 -37   3    3.80    1.10
  -1 -37   3    4.50    2.00
   1  37  -3    5.80    1.50
  -1  37   3    4.10    1.60
   0 -37   3   15.90    1.50
   0 -37   3   15.30    1.90
   0 -37   3   15.80    2.10
   0 -37   3   14.50    1.50
   0 -37  -3   17.50    1.70
   0  37   3   14.70    2.10
   0  37   3   15.40    2.20
  -1 -37  -3   20.00    2.00
   1 -37   3   20.10    2.10
   1 -37   3   20.60    1.50
   1 -37   3   20.70    1.70
   1  37   3   18.50    2.10
   1  37   3   21.40    2.10
  -1  37  -3   20.10    2.10
   1  37   3   21.30    2.00
  -2 -37  -3   17.50    1.90
  -2 -37  -3   18.20    2.00
   2 -37   3   16.80    1.20
   2 -37   3   19.20    1.20
   2 -37   3   21.30    1.30
  -2  37  -3   20.50    1.50
   2  37   3   18.10    1.60
  -2 -38   3   48.60    2.70
   2 -38  -3   43.50    2.50
   2  38  -3   42.90    2.30
   2  38  -3   46.60    2.40
  -1 -38   3  173.68    7.60
   1 -38  -3  178.08    7.50
  -1 -38   3  157.08    7.80
   1  38  -3  172.48    7.50
  -1  38   3  162.18    7.70
   0 -38   3    0.40    0.90
   0 -38   3    0.80    0.80
   0 -38   3    0.80    1.90
   0 -38   3    0.30    0.80
   0 -38  -3    0.40    0.70
   0  38   3    2.50    1.40
   0  38   3    0.50    1.30
   1 -38   3  215.28    8.90
   1 -38   3  193.98    8.90
  -1 -38  -3  212.28    9.00
   1 -38   3  206.58    9.00
   1  38   3  211.48    9.20
   1  38   3  188.88   10.20
  -1  38  -3  204.78    9.00
  -2 -38  -3    6.30    1.40
   2 -38   3    7.90    1.30
  -2 -38  -3    6.10    2.00
   2 -38   3    7.90    0.80
   2 -38   3    9.00    1.00
   2  38   3    9.20    1.20
  -2  38  -3    9.70    1.20
  -2 -39   3    0.70    0.90
   2  39  -3    0.70    0.80
   2  39  -3    1.00    0.80
  -1 -39   3   21.70    1.80
   1 -39  -3   22.90    1.60
  -1 -39   3   20.10    2.10
  -1 -39   3   22.40    1.60
   1  39  -3   22.80    1.70
  -1  39   3   23.00    2.40
   0 -39  -3   75.39    3.70
   0 -39   3   75.29    3.90
   0 -39   3   75.09    3.60
   0 -39   3   73.09    3.70
   0  39   3   75.19    4.40
   1 -39   3  110.09    4.80
   1 -39   3  103.79    4.80
   1 -39   3  105.39    5.00
   1 -39   3  108.29    4.90
  -1 -39  -3  107.89    5.00
   1  39   3  112.39    5.20
  -1  39  -3  105.79    5.00
   1  39   3  103.89    5.20
   2 -39   3    1.40    0.50
   2 -39   3    2.10    0.70
   2 -39   3    2.40    0.70
  -2 -39  -3    1.40    1.00
  -2  39  -3    4.50    1.00
   2  39   3    2.30    0.70
   2 -40  -3   72.69    3.40
  -2 -40   3   73.69    3.50
   2  40  -3   76.09    3.40
   2  40  -3   60.69    3.20
  -1 -40   3  273.87   13.00
   1 -40  -3  297.27   12.80
  -1 -40   3  302.67   12.80
  -1 -40   3  301.37   12.70
  -1  40   3  305.47   12.90
   1  40  -3  300.07   12.80
   0 -40   3    4.20    0.90
   0 -40   3    4.70    1.00
   0 -40   3    3.80    1.30
   0 -40  -3    5.50    1.30
   0  40   3    4.00    1.60
   0  40   3    6.00    1.80
   0  40  -3    4.40    1.30
   1 -40   3    5.90    1.00
   1 -40   3    4.60    0.90
   1 -40   3    2.90    0.90
  -1 -40  -3    6.50    1.70
   1 -40   3    6.80    1.30
  -1 -40  -3    5.20    1.50
   1  40   3    5.50    1.20
   1  40   3    5.20    1.50
  -1  40  -3    4.70    1.60
  -2 -40  -3    0.00    0.90
   2 -40   3    0.00    0.60
   2 -40   3   -0.10    0.50
  -2  40  -3   -0.20    0.70
   2  40   3   -0.50    0.60
   2 -41  -3   12.20    1.40
  -2 -41   3    9.60    1.30
   2  41  -3    8.50    1.20
   2  41  -3   11.90    1.10
   1 -41  -3   29.90    1.80
  -1 -41   3   30.00    1.90
  -1 -41   3   28.90    1.70
  -1 -41   3   28.90    2.20
   1  41  -3   23.80    1.80
   1  41  -3   29.80    1.80
  -1  41   3   27.70    2.40
   0 -41  -3    5.00    1.20
   0 -41   3    5.40    1.30
   0 -41  -3    3.90    1.40
   0 -41   3    6.60    1.10
   0  41   3    5.30    1.60
   0  41  -3    5.80    1.20
   0  41   3    4.70    1.50
  -1 -41  -3   97.49    4.80
  -1 -41  -3   77.19    4.50
   1 -41   3   88.69    4.20
   1 -41   3   94.39    4.00
   1 -41   3   76.49    3.90
   1 -41   3   88.39    4.00
  -1  41  -3   84.39    4.20
   1  41   3   94.19    4.20
  -1 -42   3   89.19    4.00
  -1 -42   3   79.19    4.20
   1 -42  -3   84.49    3.90
  -1  42   3   83.09    4.40
   1  42  -3   86.49    3.90
   0 -42   3   37.90    2.20
   0 -42  -3   38.90    2.10
   0 -42   3   33.90    2.10
   0  42   3   39.30    2.60
   0  42  -3   38.50    2.10
   1 -42   3  120.19    5.90
   1 -42   3  144.39    6.10
  -1 -42  -3  115.09    6.10
   1 -42   3  135.29    5.60
   1  42   3  129.99    5.80
  -1 -43   3   70.39    3.20
  -1 -43   3   56.49    3.40
   1 -43  -3   66.59    3.10
   1  43  -3   69.69    3.10
   0 -43   3   13.50    1.40
   0 -43   3   16.00    1.40
   0 -43  -3   12.20    1.80
   0 -43  -3   17.60    1.30
   0  43  -3   16.80    1.30
   0  43   3   15.70    1.70
   1 -43   3   39.00    1.90
   1 -43   3   42.30    2.30
  -1 -43  -3   33.00    2.30
   1  43   3   41.50    2.20
   1 -44  -3   96.49    4.50
  -1 -44   3  107.69    4.60
   1  44  -3   98.49    4.50
   0 -44   3    1.70    0.60
   0 -44  -3    1.00    1.20
   0 -44  -3    1.10    0.60
   0  44  -3    1.60    0.70
   0  44   3    1.10    1.00
   1 -44   3    6.50    1.50
  -1  44  -3    8.00    1.20
   1  44   3    8.90    1.20
   1 -45  -3   79.49    3.70
  -1 -45   3   86.09    3.80
   1  45  -3   79.09    3.70
   0 -45   3   78.69    3.60
   0 -45  -3   73.99    3.60
   0  45  -3   78.59    3.50
   0  45   3   75.99    3.70
   0 -46   3  156.58    6.50
   0 -46  -3  148.89    6.40
   0  46  -3  146.69    6.40
   0  46   3  139.89    6.50
   4   0  -4   46.20    2.20
  -4   0   4   35.50    2.30
  -4   0   4   43.00    2.60
   3   0  -4    0.90    1.10
  -3   0   4    2.00    1.60
  -2   0   4  213.68    9.20
  -2   0   4  178.78    9.50
  -2   0   4  209.78    9.10
  -2   0   4  208.58    9.90
  -2   0   4  212.98    9.70
  -2   0   4  206.28    9.30
  -1   0   4    1.20    0.70
  -1   0   4    2.70    1.00
   1   0  -4   -0.40    1.00
   0   0   4   56.79    2.80
   0   0   4   53.79    3.10
   0   0  -4   56.29    2.80
   1   0   4    0.10    1.80
   1   0   4    0.40    1.10
  -1   0  -4   -0.60    0.90
   2   0   4   51.29    3.70
  -2   0  -4   53.79    3.40
   2   0   4   52.99    3.40
   3   0   4    5.90    1.70
   3   0   4    2.40    1.10
   4  -1  -4   19.00    1.30
  -4  -1   4   15.90    1.70
  -4  -1   4   16.60    1.70
  -4   1   4   14.30    1.50
  -4   1   4   17.50    1.90
   4   1  -4   18.10    1.30
   3  -1  -4   93.79    4.60
  -3  -1   4   89.69    5.00
  -3   1   4  101.09    5.00
   3   1  -4   97.59    4.70
  -2  -1   4  313.97   13.90
  -2  -1   4  319.47   14.20
  -2  -1   4  320.27   14.00
  -2  -1   4  314.87   14.50
  -2  -1   4  336.47   13.90
  -2  -1   4  303.07   14.20
  -2   1   4  331.87   13.90
  -2   1   4  322.37   14.60
   2   1  -4  326.57   14.10
  -2   1   4  332.37   13.90
  -2   1   4  311.17   13.90
  -2   1   4  306.07   14.20
  -2   1   4  316.77   14.10
  -1  -1   4  393.36   16.80
  -1  -1   4  382.76   16.80
  -1   1   4  393.66   16.80
  -1   1   4  400.66   16.80
   1   1  -4  391.96   16.80
   0  -1   4  134.49    5.90
   0  -1   4  134.59    6.20
   0   1   4  128.09    5.90
   0   1   4  135.79    6.20
   0   1  -4  132.99    5.90
   1  -1   4   27.40    2.10
  -1  -1  -4   27.20    1.90
   1  -1   4   26.10    2.10
   1   1   4   26.80    2.00
  -1   1  -4   29.70    1.90
   1   1   4   26.60    2.70
   2  -1   4   71.79    4.20
   2  -1   4   67.89    3.90
  -2  -1  -4   65.09    3.80
  -2   1  -4   66.69    3.80
   2   1   4   60.99    4.40
   2   1   4   71.19    3.90
   2   1   4   68.09    4.30
   3  -1   4  108.89    5.20
   3  -1   4  108.59    5.10
   3   1   4  108.49    5.40
   3   1   4  105.09    5.30
   3   1   4  110.49    5.20
   4  -2  -4   23.20    1.40
  -4  -2   4   24.70    1.90
  -4   2   4   17.00    1.60
   4   2  -4   23.90    1.40
  -4   2   4   21.20    2.00
   3  -2  -4  283.37   12.40
  -3  -2   4  280.07   12.60
   3   2  -4  281.67   12.40
  -3   2   4  290.17   12.60
  -2  -2   4 1494.25   62.39
  -2  -2   4 1496.95   62.39
  -2  -2   4 1456.95   62.49
  -2  -2   4 1446.76   62.79
  -2  -2   4 1546.55   62.39
  -2  -2   4 1448.76   62.49
  -2   2   4 1484.55   62.29
  -2   2   4 1422.66   62.39
  -2   2   4 1469.35   62.39
   2   2  -4 1500.35   62.49
  -2   2   4 1503.15   62.89
  -2   2   4 1457.05   62.49
  -2   2   4 1554.44   62.39
  -1  -2   4   11.90    1.60
  -1  -2   4   11.50    1.20
  -1   2   4   12.90    1.20
  -1   2   4   11.60    1.60
   1   2  -4   10.50    1.60
   0  -2   4  121.19    5.90
   0  -2   4  129.79    5.60
   0   2  -4  124.69    5.60
   0   2   4  125.69    5.80
   0   2   4  124.39    5.60
   1  -2   4    0.40    1.10
  -1  -2  -4    0.80    0.90
   1   2   4    1.60    1.20
   1   2   4    2.10    1.60
  -1   2  -4    1.10    0.90
  -2  -2  -4  118.19    5.70
   2  -2   4  120.39    6.10
   2  -2   4  121.29    5.70
  -2   2  -4  113.49    5.70
   2   2   4  121.19    6.10
   2   2   4  113.69    6.00
   2   2   4  113.39    5.80
   3  -2   4    5.20    1.60
   3  -2   4    3.20    1.10
   3   2   4    1.30    1.10
   3   2   4    3.10    1.20
   3   2   4    2.00    1.50
   4  -3  -4    1.40    0.60
  -4  -3   4    0.50    1.10
  -4  -3   4    0.10    1.20
  -4   3   4   -0.80    1.40
   4   3  -4    0.50    0.70
  -4   3   4    0.10    0.90
   3  -3  -4   51.19    2.80
  -3  -3   4   50.59    3.40
  -3   3   4   49.00    3.20
   3   3  -4   49.30    2.90
   3   3  -4   47.80    3.00
  -2  -3   4   39.50    2.50
  -2  -3   4   34.10    2.70
  -2  -3   4   38.90    3.70
  -2  -3   4   36.20    3.60
  -2   3   4   33.80    3.30
  -2   3   4   33.40    2.70
  -2   3   4   39.20    3.00
  -2   3   4   37.60    2.50
  -2   3   4   38.10    2.40
  -2   3   4   33.60    3.50
   2   3  -4   35.50    3.00
  -1  -3   4   38.70    2.20
  -1  -3   4   39.60    2.40
   1   3  -4   40.30    2.40
  -1   3   4   39.10    2.40
  -1   3   4   40.00    2.20
   0  -3   4  112.89    4.90
   0  -3   4  106.09    5.20
   0   3   4  105.89    4.90
   0   3  -4  107.19    4.90
   0   3   4  105.79    5.10
  -1  -3  -4   33.20    2.10
  -1   3  -4   33.40    2.10
   1   3   4   34.30    2.70
  -1   3  -4   30.90    2.00
   1   3   4   32.10    2.30
   2  -3   4    1.60    1.80
  -2  -3  -4   -0.40    1.50
   2  -3   4    4.00    1.50
   2  -3   4   -1.00    2.10
   2   3   4    1.20    1.70
   2   3   4    0.90    1.70
  -2   3  -4   -0.10    1.60
   2   3   4    1.20    1.60
   3  -3   4    1.30    1.30
   3  -3   4    5.30    1.70
   3  -3   4    6.50    1.50
   3   3   4    1.90    1.50
   3   3   4    7.20    1.80
   3   3   4    4.10    1.20
   4  -4  -4    0.70    0.70
  -4  -4   4    2.00    1.10
  -4  -4   4    2.00    1.30
  -4   4   4   -0.90    1.70
   4   4  -4    0.40    0.60
  -4   4   4    0.20    0.90
   3  -4  -4    5.00    1.30
  -3  -4   4    3.00    1.80
  -3  -4   4    2.50    1.40
   3   4  -4    3.90    1.50
  -3   4   4    7.50    2.00
   3   4  -4    3.40    1.10
  -3   4   4    2.60    1.20
  -2  -4   4  242.78   10.30
  -2  -4   4  225.88   10.60
  -2  -4   4  229.38   10.30
  -2  -4   4  219.58   10.80
  -2  -4   4  232.28   10.20
  -2   4   4  228.38   10.30
  -2   4   4  235.08   10.40
  -2   4   4  224.78   10.90
   2   4  -4  225.68   10.40
  -2   4   4  241.48   10.30
  -2   4   4  223.58   10.60
  -2   4   4  238.88   10.20
  -1  -4   4  241.08   10.60
  -1  -4   4  241.08   10.60
  -1   4   4  248.98   10.60
   1   4  -4  244.98   10.60
  -1   4   4  239.88   10.60
   0  -4   4    4.40    1.50
   0  -4   4    3.30    0.90
   0   4   4    5.60    0.90
   0   4   4    5.10    1.40
   0   4  -4    3.50    1.00
  -1  -4  -4   61.49    3.20
  -1   4  -4   61.99    3.20
   1   4   4   66.19    3.70
   1   4   4   62.79    3.40
   2  -4   4  284.17   12.20
   2  -4   4  265.27   11.90
   2  -4   4  270.67   11.90
   2   4   4  257.27   12.10
   2   4   4  276.97   12.20
   2   4   4  269.47   12.00
   2   4   4  290.07   12.30
  -2   4  -4  261.87   12.00
   2   4   4  261.37   12.10
   3  -4   4    2.80    1.00
   3  -4   4    0.90    1.30
   3  -4   4   -1.10    1.10
   3   4   4    0.30    1.10
   3   4   4    1.70    1.10
   3   4   4    1.30    1.40
  -4  -5   4    6.30    1.50
   4  -5  -4    5.40    1.00
  -4  -5   4    6.40    1.30
  -4   5   4    5.70    1.30
   4   5  -4    6.40    1.00
  -3  -5   4   58.29    3.90
   3  -5  -4   61.09    3.20
  -3  -5   4   57.69    3.30
   3   5  -4   60.39    3.30
   3   5  -4   59.79    3.30
  -3   5   4   65.69    3.60
  -3   5   4   59.29    3.30
  -2  -5   4  301.47   12.90
  -2  -5   4  275.97   13.20
  -2  -5   4  285.87   13.40
  -2  -5   4  295.97   12.90
  -2  -5   4  289.07   12.90
  -2   5   4  305.27   12.90
  -2   5   4  296.67   13.00
  -2   5   4  296.57   13.20
   2   5  -4  291.77   13.10
  -2   5   4  296.07   12.90
  -2   5   4  304.27   12.80
  -2   5   4  287.17   13.50
  -1  -5   4  713.03   30.30
  -1  -5   4  730.83   30.40
  -1   5   4  715.43   30.40
   1   5  -4  705.73   30.40
  -1   5   4  722.63   30.30
   0  -5   4    0.90    0.70
   0  -5   4    0.60    1.50
   0   5  -4    0.90    0.70
   0   5   4    1.00    1.00
   0   5   4    1.30    0.60
  -1  -5  -4   71.49    3.60
   1   5   4   71.79    3.90
   1   5   4   72.39    3.80
  -1   5  -4   73.99    3.60
   2  -5   4   94.79    4.60
   2  -5   4   93.59    5.00
   2  -5   4   89.09    4.60
   2   5   4   96.99    5.20
  -2   5  -4   87.29    4.80
   2   5   4   96.29    5.00
   2   5   4   87.09    4.90
   2   5   4   93.69    5.10
   2   5   4   89.49    5.00
   3  -5   4   52.59    2.80
   3  -5   4   49.40    3.00
   3  -5   4   50.89    2.90
   3   5   4   49.99    2.80
   3   5   4   52.79    3.00
   3   5   4   50.39    3.20
  -4  -6   4   17.30    1.60
   4  -6  -4   18.80    1.20
   4   6  -4   15.90    1.30
  -4   6   4   16.60    1.50
   4   6  -4   19.20    1.90
  -3  -6   4  112.69    5.90
  -3  -6   4  114.39    5.60
  -3  -6   4  110.29    6.20
   3  -6  -4  124.39    5.40
  -3  -6   4  113.69    5.50
   3   6  -4  119.39    5.50
   3   6  -4  123.99    5.50
  -3   6   4  110.39    5.60
  -3   6   4  115.89    5.50
  -2  -6   4  108.39    6.10
  -2  -6   4  110.39    6.10
  -2  -6   4  115.09    5.40
  -2  -6   4  111.49    5.40
  -2  -6   4  113.19    5.50
  -2   6   4  113.29    5.50
  -2   6   4  114.39    5.40
  -2   6   4  118.79    5.50
  -2   6   4  115.89    5.60
  -2   6   4  106.79    6.20
   2   6  -4  116.89    5.70
  -2   6   4  106.39    5.90
   2   6  -4  112.39    5.80
  -1  -6   4   65.79    3.30
  -1  -6   4   68.89    3.50
  -1   6   4   66.79    3.30
  -1   6   4   61.49    3.30
   1   6  -4   64.99    3.40
   0  -6   4  114.09    6.50
   0  -6   4  129.39    5.70
   0   6  -4  128.59    5.70
   0   6   4  125.09    5.60
   0   6   4  127.69    5.80
  -1  -6  -4    6.00    1.30
   1   6   4    7.50    1.80
   1   6   4    8.90    1.60
  -1   6  -4    7.60    1.30
   2  -6   4   24.00    2.20
   2  -6   4   16.80    3.30
   2  -6   4   19.30    2.30
   2  -6   4   20.50    2.80
   2   6   4   22.70    2.70
   2   6   4   21.00    2.70
   2   6   4   20.50    3.20
   2   6   4   21.40    2.70
  -2   6  -4   19.90    2.70
   2   6   4   24.00    3.00
   3  -6   4    5.80    1.50
   3  -6   4    8.20    1.40
   3  -6   4    8.20    1.50
   3   6   4    7.70    1.70
   3   6   4    6.80    1.70
   3   6   4    8.20    2.00
   4  -7  -4   41.80    2.10
  -4  -7   4   40.20    2.40
   4   7  -4   47.90    2.30
  -4   7   4   39.80    2.30
   4   7  -4   38.20    2.10
  -3  -7   4   25.90    2.20
  -3  -7   4   25.30    2.00
   3  -7  -4   26.20    1.90
  -3  -7   4   24.70    3.20
   3   7  -4   28.50    2.10
   3   7  -4   26.50    2.20
  -3   7   4   25.00    2.10
  -3   7   4   28.00    2.20
  -2  -7   4   32.00    3.60
  -2  -7   4   34.50    3.20
  -2  -7   4   33.50    2.60
  -2  -7   4   33.80    2.40
  -2  -7   4   34.40    2.40
  -2   7   4   31.60    3.20
  -2   7   4   38.60    2.50
  -2   7   4   33.20    3.70
  -2   7   4   36.10    2.30
   2   7  -4   33.90    3.00
  -2   7   4   30.60    2.70
   2   7  -4   28.40    3.10
  -2   7   4   34.40    2.70
  -1  -7   4    8.20    1.20
  -1  -7   4    9.60    1.70
  -1   7   4    8.60    1.10
  -1   7   4   11.60    1.40
   1   7  -4   10.40    1.60
   0  -7   4  655.13   27.40
   0   7   4  663.73   27.40
   0   7   4  633.24   27.40
   0   7  -4  645.04   27.40
   0   7   4  641.64   27.50
  -1  -7  -4   51.69    2.90
   1   7   4   53.79    3.10
  -1   7  -4   53.89    2.90
   1   7   4   52.79    3.10
   2  -7   4  177.18    8.70
   2  -7   4  185.48    8.20
   2  -7   4  182.98    8.50
   2  -7   4  179.88    8.20
  -2   7  -4  165.78    8.30
   2   7   4  197.08    8.60
   2   7   4  180.68    8.50
   2   7   4  168.68    8.50
   2   7   4  199.08    8.70
   3  -7   4    0.30    1.10
   3  -7   4   -1.30    1.00
   3  -7   4    2.40    1.00
   3   7   4    0.60    1.00
   3   7   4    0.00    1.30
   3   7   4    2.60    1.10
   4  -8  -4   24.00    1.40
  -4  -8   4   22.80    1.70
  -4   8   4   23.80    1.60
   4   8  -4   24.50    1.70
   4   8  -4   21.90    1.50
   3  -8  -4   46.30    2.60
  -3  -8   4   45.00    2.70
  -3  -8   4   45.70    2.80
  -3  -8   4   42.80    3.60
   3   8  -4   48.30    2.70
  -3   8   4   43.10    2.80
   3   8  -4   43.90    2.70
  -3   8   4   45.30    2.80
  -2  -8   4    7.10    2.70
  -2  -8   4    5.60    1.40
  -2  -8   4    6.20    1.70
  -2  -8   4    6.40    1.70
  -2  -8   4    6.80    1.60
   2   8  -4    8.50    2.00
  -2   8   4    7.30    2.10
  -2   8   4    5.50    1.50
  -2   8   4    7.70    3.30
  -2   8   4    7.20    1.60
  -2   8   4   10.10    1.60
  -2   8   4    5.70    1.50
   2   8  -4    7.00    1.90
  -1  -8   4  347.37   14.90
  -1  -8   4  334.97   14.80
  -1   8   4  335.77   14.80
  -1   8   4  355.26   14.80
   1   8  -4  343.67   14.90
   0  -8   4   13.30    1.30
   0   8   4   12.50    1.20
   0   8   4   15.50    1.50
   0   8   4   14.60    1.50
   0   8  -4   14.80    1.40
  -1  -8  -4  686.13   28.90
  -1   8  -4  661.83   28.90
   1   8   4  690.73   29.00
   1   8   4  685.53   28.90
   2  -8   4  324.27   14.50
   2  -8   4  322.37   14.00
   2  -8   4  321.87   14.00
   2  -8   4  324.27   14.30
   2   8   4  333.47   14.30
   2   8   4  329.87   14.40
   2   8   4  332.77   14.40
   2   8   4  301.67   14.40
   3  -8   4    3.50    1.00
   3  -8   4    5.40    1.60
   3  -8   4    1.70    1.00
   3   8   4    4.70    1.40
   3   8   4    2.20    1.50
   3   8   4    5.70    1.60
   4  -9  -4    8.50    0.90
  -4  -9   4    7.70    1.30
  -4   9   4    7.60    1.20
   4   9  -4    7.90    1.30
   4   9  -4    4.90    1.10
  -3  -9   4  147.79    7.70
  -3  -9   4  150.88    7.10
   3  -9  -4  164.68    7.00
  -3  -9   4  154.58    7.20
   3   9  -4  162.28    7.10
   3   9  -4  152.88    7.10
  -3   9   4  156.38    7.20
  -3   9   4  156.98    7.10
  -2  -9   4  496.75   20.50
  -2  -9   4  482.75   20.50
  -2  -9   4  470.55   20.60
  -2  -9   4  472.35   20.50
   2  -9  -4  475.35   20.40
  -2  -9   4  453.35   20.80
  -2  -9   4  484.05   21.00
  -2   9   4  487.85   20.50
  -2   9   4  477.55   21.10
  -2   9   4  488.65   20.50
   2   9  -4  500.25   20.60
   2   9  -4  475.35   20.80
  -2   9   4  465.75   20.60
  -2   9   4  463.05   20.70
  -1  -9   4    9.00    1.80
  -1  -9   4   11.30    1.30
   1   9  -4    9.70    1.60
  -1   9   4    8.70    1.30
  -1   9   4    7.40    1.40
   0  -9   4    3.90    1.10
   0   9   4    5.00    1.00
   0   9  -4    4.50    1.10
   0   9   4    4.50    1.00
   0   9   4    6.50    1.30
   2  -9   4   60.89    3.50
   2  -9   4   56.69    3.30
   2  -9   4   67.79    5.80
   2  -9   4   53.99    3.70
   2  -9   4   59.79    3.20
   2   9   4   63.39    4.10
   2   9   4   59.49    3.80
   2   9   4   66.19    3.80
   2   9   4   51.69    5.30
   3  -9   4    4.90    1.40
   3  -9   4    5.50    1.30
   3  -9   4    6.90    1.60
   3   9   4    5.60    1.60
   3   9   4    4.40    1.40
  -4 -10   4   32.70    2.20
   4 -10  -4   40.50    1.90
  -4  10   4   36.80    2.10
   4  10  -4   43.30    2.10
   4  10  -4   39.70    2.00
  -3 -10   4   23.20    3.00
  -3 -10   4   23.00    2.10
  -3 -10   4   23.20    1.90
   3 -10  -4   24.10    1.80
   3  10  -4   25.60    2.10
  -3  10   4   22.30    2.10
  -3  10   4   23.20    2.10
  -2 -10   4  223.38   10.50
  -2 -10   4  224.98   10.70
  -2 -10   4  234.08   10.10
  -2 -10   4  231.78   10.10
   2 -10  -4  219.08   10.00
  -2 -10   4  226.08   10.20
  -2 -10   4  215.98   10.10
  -2  10   4  228.48   10.00
   2  10  -4  232.28   10.40
  -2  10   4  229.68   10.10
  -2  10   4  227.38   10.10
  -2  10   4  218.68   10.30
  -2  10   4  221.88   10.70
  -1 -10   4   98.49    4.60
  -1 -10   4   98.49    4.80
  -1  10   4   95.69    4.70
  -1  10   4   98.29    4.60
   1  10  -4   97.39    4.80
   0 -10   4  162.28    7.20
   0  10   4  163.58    7.20
   0  10   4  160.48    7.20
   0  10  -4  160.18    7.20
   0  10   4  159.78    7.20
  -1 -10  -4  792.02   33.90
   1  10   4  871.01   34.50
   1  10   4  791.62   34.00
   1  10   4  730.03   34.10
  -1  10  -4  825.62   34.40
   2 -10   4  145.99    6.60
   2 -10   4  144.99    6.70
   2 -10   4  142.19    7.00
   2 -10   4  141.89    6.70
   2  10   4  153.18    7.00
   2  10   4  148.59    7.30
   2  10   4  141.49    7.10
   3 -10   4    4.80    1.50
   3 -10   4    2.90    0.90
   3  10   4    1.60    1.40
   3  10   4    2.40    1.10
   3  10   4    2.00    1.10
   4 -11  -4   18.70    1.10
  -4  11   4   16.80    1.50
   4  11  -4   17.10    1.40
   4  11  -4   19.80    1.40
  -3 -11   4   47.30    3.60
   3 -11  -4   56.99    2.70
  -3 -11   4   49.30    3.00
  -3 -11   4   49.20    2.90
  -3  11   4   49.20    3.00
  -3  11   4   48.60    2.90
   3  11  -4   53.89    3.00
  -2 -11   4   18.30    2.20
  -2 -11   4   19.70    3.50
  -2 -11   4   21.00    2.00
  -2 -11   4   19.40    2.10
  -2 -11   4   20.10    3.10
   2 -11  -4   18.30    2.20
  -2 -11   4   21.40    2.40
   2  11  -4   17.30    2.90
  -2  11   4   19.10    2.60
  -2  11   4   18.50    3.10
  -2  11   4   16.90    2.50
  -2  11   4   24.30    1.90
  -2  11   4   22.10    2.30
  -1 -11   4   48.50    3.10
  -1 -11   4   44.80    2.90
  -1  11   4   41.70    2.60
   1  11  -4   43.30    2.70
  -1  11   4   46.50    2.70
   0 -11   4  255.17   10.90
   0  11   4  244.28   10.90
   0  11   4  251.47   11.00
   0  11   4  256.27   11.00
   0  11  -4  249.58   11.00
  -1 -11  -4  127.59    5.70
   1 -11   4  108.79    5.80
   1 -11   4  123.69    5.80
   1  11   4  115.89    6.60
   1  11   4  123.59    5.80
  -1  11  -4  121.89    5.60
   1  11   4  130.49    5.80
   1  11   4  114.39    6.20
   2  11   4   91.09    4.80
  -3 -11  -4   29.80    3.00
   3 -11   4   30.60    2.10
   3 -11   4   27.40    2.40
   3  11   4   29.80    2.10
   3  11   4   32.70    3.20
   3  11   4   27.50    2.20
   3  11   4   26.10    3.10
  -4 -12   4    1.20    0.90
   4  12  -4    2.30    0.90
  -4  12   4    0.80    0.70
   4  12  -4    1.30    0.80
  -3 -12   4   14.50    2.60
  -3 -12   4   19.20    2.00
   3 -12  -4   21.00    1.60
  -3 -12   4   18.30    1.80
  -3  12   4   18.20    1.90
   3  12  -4   21.30    1.90
  -3  12   4   22.40    1.90
  -2 -12   4   22.70    2.40
  -2 -12   4   20.20    2.20
  -2 -12   4   25.80    2.20
   2 -12  -4   21.50    2.30
  -2 -12   4   22.60    3.10
  -2 -12   4   27.20    2.40
  -2 -12   4   24.10    3.40
  -2  12   4   24.80    2.70
  -2  12   4   24.70    2.50
  -2  12   4   23.50    2.40
  -2  12   4   25.60    2.00
   2  12  -4   23.70    3.10
  -1 -12   4  283.07   12.70
  -1 -12   4  317.57   13.60
  -1 -12   4  284.87   12.70
  -1  12   4  285.77   12.60
  -1  12   4  281.57   13.10
   0 -12   4   40.60    2.30
   0  12   4   39.00    2.40
   0  12   4   41.10    2.30
   0  12  -4   41.00    2.40
   0  12   4   41.00    2.50
   1 -12   4   10.10    2.50
  -1 -12  -4   11.80    1.60
   1 -12   4   10.50    2.10
   1 -12   4   14.40    2.30
   1  12   4   13.80    1.70
   1  12   4   18.20    2.70
  -1  12  -4    9.70    1.50
   1  12   4   14.30    3.10
   1  12   4   14.30    1.90
   2 -12   4   45.50    3.00
   2 -12   4   48.20    3.30
   2 -12   4   47.00    2.80
   2 -12   4   50.99    2.80
   2  12   4   53.39    3.30
   2  12   4   52.39    3.50
   2  12   4   48.70    3.60
  -3 -12  -4    9.50    2.50
   3 -12   4    5.30    1.80
   3 -12   4    3.70    1.00
   3  12   4    2.50    1.90
   3  12   4    2.40    1.10
   4 -13  -4  191.18    8.30
   4  13  -4  188.88    8.30
  -4  13   4  221.08    8.70
   4  13  -4  178.68    8.40
   3 -13  -4  351.86   13.80
  -3 -13   4  296.07   13.90
  -3 -13   4  312.17   14.00
  -3 -13   4  313.57   14.30
   3  13  -4  342.97   13.90
  -3  13   4  324.47   14.00
  -3  13   4  307.47   13.90
  -2 -13   4   10.30    3.20
  -2 -13   4    9.30    2.60
  -2 -13   4    9.10    1.80
   2 -13  -4    7.80    1.60
  -2 -13   4    7.70    1.90
  -2 -13   4    8.80    2.10
  -2 -13   4    7.10    1.50
  -2  13   4    5.70    1.40
  -2  13   4   10.00    2.30
  -2  13   4    7.00    1.60
   2  13  -4   11.50    2.90
  -2  13   4   10.60    2.10
  -1 -13   4  334.57   15.00
  -1 -13   4  307.97   14.60
  -1 -13   4  319.07   14.50
  -1 -13   4  344.27   14.40
  -1  13   4  326.57   14.60
   1  13  -4  344.77   14.50
  -1  13   4  362.56   14.60
  -1  13   4  339.47   14.40
  -1  13   4  310.57   14.50
   0 -13   4  294.87   12.80
   0  13   4  300.17   12.90
   0  13  -4  288.07   12.90
   0  13   4  303.27   12.90
   0  13   4  296.17   12.90
   1 -13   4  253.37   12.50
  -1 -13  -4  295.17   12.60
   1 -13   4  287.87   12.40
   1 -13   4  271.97   12.50
   1  13   4  298.07   12.60
  -1  13  -4  295.77   12.50
   1  13   4  292.47   13.10
   1  13   4  297.27   12.60
   1  13   4  283.97   12.70
   2 -13   4  125.89    6.00
   2 -13   4  136.49    6.00
   2 -13   4  118.79    6.40
   2 -13   4  129.89    6.00
   2  13   4  129.09    6.50
   2  13   4  134.59    6.50
   2  13   4  134.69    6.30
   3 -13   4   97.89    5.30
   3 -13   4  124.49    5.30
   3 -13   4  112.49    5.30
   3 -13   4  113.89    5.50
  -3 -13  -4  123.99    5.90
   3  13   4  112.59    5.40
   3  13   4  116.49    5.70
   3  13   4  129.19    5.80
   3  13   4  125.89    5.80
   4 -14  -4   23.60    1.30
   4  14  -4   21.10    1.40
  -4  14   4   24.40    1.50
  -3 -14   4    8.50    2.30
  -3 -14   4   10.50    1.60
   3 -14  -4    9.10    1.30
  -3 -14   4    9.00    1.70
  -3  14   4   11.50    1.70
  -3  14   4    6.80    1.80
   3  14  -4    8.20    1.60
  -2 -14   4    0.60    1.40
  -2 -14   4    1.90    1.80
  -2 -14   4    2.90    1.40
  -2 -14   4    1.50    1.40
  -2 -14   4    1.80    1.80
   2 -14  -4    3.70    1.40
  -2 -14   4    4.30    1.60
   2  14  -4    3.10    2.20
  -2  14   4    0.80    1.20
  -2  14   4    2.50    1.40
  -2  14   4    1.30    1.10
  -1 -14   4  184.28    8.30
  -1 -14   4  183.98    8.80
  -1 -14   4  169.48    8.50
  -1 -14   4  185.68    8.10
  -1 -14   4  176.08    8.30
  -1 -14   4  173.88    8.20
  -1  14   4  175.68    8.30
  -1  14   4  184.78    8.10
   1  14  -4  181.58    8.30
  -1  14   4  195.28    8.40
  -1  14   4  183.88    8.40
  -1  14   4  181.98    8.70
   0 -14   4   22.30    1.80
   0  14   4   22.90    1.90
   0  14   4   21.50    1.80
   0  14  -4   19.50    1.70
   0  14   4   22.20    2.10
   1 -14   4  259.97   11.30
   1 -14   4  235.08   11.30
   1 -14   4  254.77   11.30
  -1 -14  -4  262.17   11.40
   1  14   4  268.17   11.40
  -1  14  -4  251.97   11.30
   1  14   4  270.47   12.00
   1  14   4  263.47   11.50
   1  14   4  259.87   11.60
   2 -14   4   55.09    3.20
   2 -14   4   54.69    3.60
   2 -14   4   61.09    3.10
   2 -14   4   55.99    3.10
   2  14   4   59.39    3.70
   2  14   4   61.19    3.80
   2  14   4   62.89    3.50
   3 -14   4    2.20    0.90
   3 -14   4    0.60    1.00
   3 -14   4    2.10    0.70
  -3 -14  -4    6.00    1.90
   3 -14   4    3.70    1.00
   3  14   4    1.50    1.00
   3  14   4    3.00    1.70
   3  14   4    1.20    1.10
   3  14   4    1.60    1.20
   3 -15  -4    0.10    0.90
  -3 -15   4    2.50    1.20
  -3 -15   4    2.30    1.10
  -3 -15   4   -0.50    1.60
   3  15  -4    0.40    1.20
  -3  15   4    1.00    1.10
  -3  15   4    0.90    1.40
  -2 -15   4    6.20    2.00
   2 -15  -4    2.80    1.50
  -2 -15   4    1.30    1.70
  -2 -15   4    4.70    1.90
  -2 -15   4    3.60    1.40
  -2 -15   4    3.20    1.50
  -2 -15   4    3.80    1.50
  -2  15   4    6.50    2.00
  -2  15   4    3.20    1.20
   2  15  -4    3.40    2.50
  -2  15   4    7.60    2.30
  -1 -15   4   56.09    3.00
  -1 -15   4   51.19    3.30
  -1 -15   4   52.49    3.40
  -1 -15   4   53.39    3.70
  -1 -15   4   55.79    3.90
  -1  15   4   56.89    3.50
   1  15  -4   53.89    3.20
  -1  15   4   53.99    3.00
  -1  15   4   52.99    3.80
  -1  15   4   51.69    3.30
  -1  15   4   54.99    3.00
   0 -15  -4   12.30    1.40
   0 -15   4   10.90    2.20
   0  15   4   13.20    1.60
   0  15   4   10.50    2.70
   0  15   4   11.50    1.90
   0  15   4   11.20    1.40
   0  15  -4   12.30    1.50
   1 -15   4  142.09    6.50
   1 -15   4  126.09    6.60
  -1 -15  -4  144.19    6.60
   1 -15   4  144.19    6.40
   1  15   4  145.79    6.60
   1  15   4  140.79    6.80
   1  15   4  145.59    7.20
   1  15   4  148.49    6.70
  -1  15  -4  141.39    6.50
   1  15   4  131.69    7.30
   2 -15   4    2.30    1.10
   2 -15   4    2.00    1.20
   2 -15   4    2.20    1.60
   2 -15   4    1.60    1.00
   2  15   4    0.90    1.50
   2  15   4    1.60    1.40
   2  15   4    0.80    1.50
   3 -15   4    2.90    0.80
   3 -15   4    2.50    0.70
   3 -15   4    4.20    1.30
  -3 -15  -4    3.00    1.80
   3 -15   4    1.70    1.00
   3  15   4    2.00    1.70
   3  15   4    2.90    1.20
   3  15   4    2.40    1.00
   3  15   4    2.80    1.00
  -3 -16   4    7.80    1.70
  -3 -16   4    8.20    1.50
   3 -16  -4    8.60    1.30
  -3 -16   4    9.80    2.20
   3  16  -4    9.50    1.50
  -3  16   4   10.90    1.70
  -2 -16   4  192.58    9.20
  -2 -16   4  188.98    9.40
  -2 -16   4  211.88    9.10
  -2 -16   4  198.88    9.70
  -2 -16   4  210.88    9.30
  -2  16   4  218.88    9.10
  -2  16   4  197.58    9.20
  -2  16   4  201.88    9.20
  -1 -16   4    5.40    2.20
  -1 -16   4    3.90    1.40
  -1 -16   4    3.60    1.40
  -1 -16   4    5.20    1.60
  -1 -16   4    0.70    1.50
  -1  16   4    3.90    1.20
  -1  16   4    2.30    1.10
  -1  16   4    4.40    1.40
  -1  16   4    2.90    1.90
  -1  16   4    4.00    1.20
   1  16  -4    6.50    1.80
   0 -16   4    9.90    1.60
   0 -16   4    6.70    1.90
   0 -16   4    8.50    2.70
   0 -16  -4    7.50    1.30
   0  16   4    9.00    2.20
   0  16  -4    5.60    1.40
   0  16   4    9.10    1.60
   0  16   4    9.90    2.30
   0  16   4    8.50    1.60
   0  16   4    5.90    2.50
   1 -16   4    1.30    1.40
  -1 -16  -4    1.60    1.30
   1 -16   4   -0.40    1.00
   1 -16   4    1.70    1.40
   1  16   4    1.50    1.60
  -1  16  -4    0.40    1.10
   1  16   4   -0.30    1.40
   1  16   4   -2.00    2.20
   1  16   4    1.40    1.10
   1  16   4    0.70    1.60
   2 -16   4  247.98   11.10
   2 -16   4  247.68   11.10
   2 -16   4  263.17   11.10
   2 -16   4  256.87   11.40
   2  16   4  252.57   11.50
   2  16   4  254.37   11.50
   2  16   4  270.27   11.50
   3 -16   4    1.00    0.70
   3 -16   4    0.50    0.70
   3 -16   4    0.40    0.80
   3 -16   4    1.10    0.90
  -3 -16  -4    1.80    1.60
   3  16   4    1.40    1.00
   3  16   4    0.30    1.00
   3  16   4    1.60    1.10
  -3 -17   4   43.20    2.60
   3 -17  -4   44.50    2.50
  -3 -17   4   46.90    2.80
  -3 -17   4   43.40    3.20
   3  17  -4   46.60    2.60
   3  17  -4   42.30    2.60
  -3  17   4   46.80    2.60
  -2 -17   4    2.70    1.50
  -2 -17   4    3.30    1.40
  -2 -17   4    3.50    2.10
  -2 -17   4    2.30    1.80
  -2  17   4    3.20    1.30
  -2  17   4    3.10    1.30
  -1 -17   4   50.89    4.00
  -1 -17   4   51.39    3.00
  -1 -17   4   52.09    3.10
  -1 -17   4   51.29    3.60
  -1 -17   4   51.29    3.20
  -1  17   4   51.59    2.90
   1  17  -4   56.39    3.20
  -1  17   4   49.50    2.90
  -1  17   4   51.69    3.80
  -1  17   4   47.70    3.30
  -1  17   4   49.10    3.20
   0 -17   4   85.99    6.20
   0 -17   4   72.79    4.00
   0 -17   4   74.59    4.40
   0 -17  -4   76.09    3.80
   0 -17   4   75.09    3.90
   0  17  -4   75.89    3.90
   0  17   4   71.19    4.20
   0  17   4   70.59    4.20
   0  17   4   76.99    4.00
   0  17   4   78.69    4.60
   0  17   4   75.79    3.90
  -1 -17  -4   12.10    2.00
   1 -17   4   12.30    1.60
   1 -17   4   12.20    1.80
   1 -17   4   11.50    2.10
   1  17   4   12.80    1.70
   1  17   4   15.80    2.30
   1  17   4    8.70    2.10
   1  17   4   15.50    2.70
   1  17   4   11.60    3.30
  -1  17  -4   13.00    1.70
   2 -17   4   26.20    2.50
   2 -17   4   25.60    1.90
   2 -17   4   21.50    1.70
   2 -17   4   22.60    1.90
   2  17   4   20.90    2.40
   2  17   4   25.20    2.20
   2  17   4   20.00    4.50
   2  17   4   24.30    2.60
   3 -17   4   61.39    3.00
   3 -17   4   63.49    3.20
   3 -17   4   62.09    3.00
   3 -17   4   62.39    3.00
   3  17   4   69.59    3.40
   3  17   4   63.69    3.60
   3  17   4   53.79    3.10
   3  17   4   63.39    3.40
   3 -18  -4    2.70    1.00
  -3 -18   4    7.10    1.50
   3  18  -4    5.40    1.10
  -3  18   4    5.00    1.50
   3  18  -4    3.60    1.10
  -2 -18   4   73.39    4.50
  -2 -18   4   64.29    3.80
  -2 -18   4   71.39    4.00
  -2 -18   4   76.29    3.90
  -2 -18   4   69.59    4.40
  -2  18   4   77.69    3.90
  -2  18   4   72.09    4.10
  -2  18   4   70.49    3.90
  -1 -18   4  243.98   11.10
  -1 -18   4  256.47   11.10
  -1 -18   4  256.67   11.70
  -1 -18   4  254.17   11.00
  -1 -18   4  244.38   11.30
  -1  18   4  245.58   11.20
  -1  18   4  249.48   11.10
  -1  18   4  249.18   11.00
  -1  18   4  254.97   11.70
  -1  18   4  249.58   11.10
   1  18  -4  255.67   11.30
   0 -18   4   47.40    4.80
   0 -18   4   41.70    2.90
   0 -18   4   43.40    2.80
   0 -18   4   43.60    3.40
   0 -18  -4   48.60    2.70
   0  18   4   48.10    3.40
   0  18   4   46.30    2.70
   0  18   4   46.90    3.20
   0  18   4   42.20    2.90
   0  18   4   42.40    3.00
   0  18  -4   43.50    2.70
  -1 -18  -4   58.19    3.40
   1 -18   4   56.89    3.40
   1 -18   4   61.09    3.10
   1 -18   4   60.59    3.30
   1  18   4   65.19    4.00
  -1  18  -4   59.69    3.40
   1  18   4   56.69    3.60
   1  18   4   60.69    3.30
   1  18   4   54.29    4.30
   1  18   4   59.69    3.70
   2 -18   4    1.60    1.10
   2 -18   4    3.40    1.00
   2 -18   4    2.90    1.40
   2 -18   4    2.90    1.00
   2  18   4    2.90    1.40
   2  18   4    3.80    1.50
   2  18   4    3.60    1.50
   2  18   4    2.90    2.30
   3 -18   4    9.90    1.20
   3 -18   4   10.60    1.20
  -3 -18  -4    8.40    1.80
   3 -18   4    9.60    0.90
   3  18   4    6.40    1.40
   3  18   4    6.80    1.50
   3  18   4    8.50    1.60
   3  18   4    8.50    1.80
  -3 -19   4  178.98    8.20
  -3 -19   4  183.88    8.50
   3 -19  -4  174.08    8.00
  -3 -19   4  184.28    8.20
   3  19  -4  202.58    8.80
   3  19  -4  180.08    8.10
  -2 -19   4   10.60    1.90
  -2 -19   4    9.20    2.40
  -2 -19   4    6.30    1.70
  -2 -19   4   11.30    2.00
  -2 -19   4   11.10    1.80
  -2  19   4   10.60    1.90
  -2  19   4    9.40    1.90
  -2  19   4    9.30    2.10
  -1 -19   4  182.28    8.40
  -1 -19   4  188.48    8.90
  -1 -19   4  177.38    8.60
  -1 -19   4  178.88    8.20
  -1 -19   4  183.08    8.40
   1 -19  -4  194.58    8.40
  -1  19   4  177.38    8.30
  -1  19   4  188.48    8.90
  -1  19   4  183.28    8.40
   1  19  -4  181.48    8.50
  -1  19   4  184.38    8.30
  -1  19   4  179.48    8.20
   0 -19  -4   10.50    1.70
   0 -19   4   12.10    2.40
   0 -19   4   10.50    1.50
   0 -19   4    7.10    3.50
   0 -19   4   11.50    1.70
   0  19   4   10.90    2.20
   0  19   4   11.20    1.60
   0  19   4    7.20    2.00
   0  19  -4   10.00    1.60
   0  19   4    9.10    2.10
   0  19   4   10.10    2.30
   1 -19   4  148.49    6.90
   1 -19   4  154.48    7.70
   1 -19   4  151.88    6.80
  -1 -19  -4  151.98    7.10
   1 -19   4  144.99    6.90
   1  19   4  148.59    7.20
   1  19   4  154.78    7.20
  -1  19  -4  152.48    7.10
   1  19   4  158.48    7.60
   1  19   4  142.69    7.50
   1  19   4  149.88    7.00
   2 -19   4   65.09    3.30
   2 -19   4   65.39    3.70
   2 -19   4   63.39    3.30
   2 -19   4   66.89    3.30
   2  19   4   67.59    3.80
   2  19   4   64.19    3.90
   2  19   4   64.89    4.40
   3 -19   4  283.07   12.80
   3 -19   4  293.57   12.70
   3 -19   4  292.87   12.70
   3 -19   4  306.47   12.80
  -3 -19  -4  294.87   13.00
   3  19   4  317.87   13.00
   3  19   4  299.77   13.00
   3  19   4  306.97   13.00
   3 -20  -4   15.80    1.40
  -3 -20   4   15.20    1.70
  -3 -20   4   14.00    2.00
  -3  20   4   16.00    1.80
   3  20  -4   15.80    1.60
   3  20  -4   14.80    1.60
  -2 -20   4   90.99    4.80
  -2 -20   4  100.29    5.20
  -2 -20   4   93.99    4.70
  -2 -20   4   92.49    5.20
  -2 -20   4   98.19    4.80
  -2  20   4   93.89    4.70
  -2  20   4   90.49    4.70
  -2  20   4   92.19    4.80
  -1 -20   4   74.19    4.30
  -1 -20   4   68.69    4.50
  -1 -20   4   81.19    4.20
  -1 -20   4   73.59    4.70
   1 -20  -4   78.09    4.20
  -1 -20   4   84.89    4.00
   1  20  -4   74.09    4.40
  -1  20   4   84.59    4.00
  -1  20   4   81.19    4.70
  -1  20   4   76.59    4.20
  -1  20   4   78.29    4.10
   0 -20  -4  160.88    7.00
   0 -20   4  135.99    7.00
   0 -20   4  150.38    6.80
   0 -20   4  143.09    6.80
   0 -20   4  140.39    7.10
   0  20   4  147.49    7.00
   0  20  -4  154.18    7.00
   0  20   4  154.38    7.40
   0  20   4  150.78    7.10
   0  20   4  151.18    6.90
   0  20   4  153.88    7.00
   1 -20   4   81.39    5.00
  -1 -20  -4   77.99    4.50
   1 -20   4   88.59    4.10
   1 -20   4   84.39    4.20
   1 -20   4   81.99    4.20
   1  20   4   90.29    4.90
   1  20   4   86.39    4.50
   1  20   4   87.39    4.80
   1  20   4   86.89    4.30
  -1  20  -4   83.19    4.50
   1  20   4   79.59    5.10
   2 -20   4   48.80    2.70
   2 -20   4   48.90    2.70
   2 -20   4   49.40    3.10
   2 -20   4   49.80    2.60
   2  20   4   47.80    3.00
   2  20   4   49.70    3.30
   2  20   4   48.20    3.80
   2  20   4   49.90    3.10
  -3 -20  -4    5.80    1.60
   3 -20   4    5.70    0.90
   3 -20   4    5.30    0.80
   3 -20   4    5.00    1.20
   3  20   4    3.10    1.30
   3  20   4    5.20    1.30
  -3 -21   4   44.80    2.70
  -3 -21   4   45.20    2.90
   3 -21  -4   45.00    2.40
   3  21  -4   47.00    2.50
  -3  21   4   48.40    2.50
   3  21  -4   46.40    2.60
  -2 -21   4    9.00    1.70
  -2 -21   4   11.60    2.40
  -2 -21   4   13.50    1.70
  -2 -21   4   10.40    3.10
  -2 -21   4   13.80    2.00
  -2  21   4   11.70    1.80
  -2  21   4   14.00    2.00
  -2  21   4   10.70    2.00
  -1 -21   4   77.69    4.60
  -1 -21   4   89.59    5.10
   1 -21  -4   78.29    4.50
  -1 -21   4   90.19    4.40
  -1 -21   4   86.79    4.20
  -1 -21   4   72.59    4.70
  -1  21   4   88.89    4.90
  -1  21   4   88.59    4.40
  -1  21   4   78.09    5.40
  -1  21   4   84.89    4.40
  -1  21   4   85.49    4.20
   1  21  -4   87.49    4.80
   0 -21   4    2.00    1.30
   0 -21   4    6.10    1.60
   0 -21   4    6.30    1.50
   0 -21   4    5.70    1.30
   0 -21  -4    4.60    1.40
   0  21   4    3.00    1.10
   0  21   4    4.70    1.40
   0  21  -4    5.30    1.70
   0  21   4    3.60    1.50
   0  21   4    5.30    1.60
   0  21   4    4.00    1.10
   1 -21   4    2.70    1.10
   1 -21   4    2.30    1.20
   1 -21   4    0.60    1.70
   1 -21   4    3.70    1.20
  -1 -21  -4    2.30    1.80
   1  21   4    0.20    2.20
   1  21   4    2.50    1.70
  -1  21  -4    1.90    1.50
   1  21   4    2.50    1.10
   1  21   4    3.10    2.90
   1  21   4    6.60    2.00
   2 -21   4   24.10    2.40
   2 -21   4   25.90    1.80
   2 -21   4   24.70    1.70
   2 -21   4   25.60    1.80
   2  21   4   24.20    2.50
   2  21   4   28.20    3.00
   2  21   4   24.60    2.10
   2  21   4   28.00    2.30
   3 -21   4   10.50    1.10
   3 -21   4    8.90    0.90
  -3 -21  -4    9.60    1.60
   3 -21   4    8.70    1.20
   3 -21   4   10.70    1.00
   3  21   4    6.50    1.30
   3  21   4   11.20    1.40
  -3 -22   4   12.30    1.80
  -3 -22   4   11.80    2.60
   3 -22  -4   12.70    1.30
  -3  22   4   15.20    1.50
   3  22  -4   11.60    1.60
   3  22  -4   12.50    1.30
  -2 -22   4    8.90    1.60
  -2 -22   4   14.20    2.00
  -2 -22   4   13.50    2.40
  -2 -22   4   10.60    2.20
  -2  22   4   11.20    1.90
  -2  22   4   13.10    1.80
  -1 -22   4  291.37   13.20
  -1 -22   4  302.37   12.90
  -1 -22   4  295.87   13.00
  -1 -22   4  280.07   13.20
   1 -22  -4  273.67   13.10
  -1  22   4  324.97   13.00
  -1  22   4  307.47   13.50
  -1  22   4  301.17   13.40
  -1  22   4  302.77   13.00
   1  22  -4  290.47   13.30
  -1  22   4  300.47   13.10
   0 -22  -4   85.19    4.40
   0 -22   4   86.29    4.10
   0 -22   4   80.69    4.20
   0 -22   4   78.49    4.50
   0 -22   4   71.79    4.30
   0  22   4   82.79    4.50
   0  22   4   78.19    4.20
   0  22   4   86.89    4.70
   0  22   4   86.59    4.20
   0  22  -4   81.69    4.30
   0  22   4   78.19    4.30
   1 -22   4  462.35   21.80
   1 -22   4  522.75   22.00
   1  22   4  527.05   22.40
   2 -22   4   27.30    1.90
   2 -22   4   26.50    1.80
   2 -22   4   26.80    1.70
   2 -22   4   28.30    2.30
   2  22   4   24.70    2.80
   2  22   4   24.80    2.40
   2  22   4   26.60    2.10
   2  22   4   24.30    2.20
  -3 -22  -4    2.00    1.20
   3 -22   4    1.20    0.70
   3 -22   4    1.00    0.60
   3 -22   4    0.60    0.60
   3 -22   4    0.90    0.50
   3  22   4   -1.00    0.80
   3  22   4    0.20    0.80
  -3 -23   4   47.30    2.80
   3  23  -4   47.10    2.50
  -3  23   4   48.10    2.50
   3  23  -4   46.10    2.60
  -2 -23   4   29.90    2.70
  -2 -23   4   32.20    2.50
  -2 -23   4   29.70    2.20
  -2  23   4   31.40    2.50
  -2  23   4   28.90    2.30
  -1 -23   4   20.60    1.90
  -1 -23   4   22.40    2.10
  -1 -23   4   19.60    2.80
  -1  23   4   24.30    2.10
  -1  23   4   24.00    2.80
  -1  23   4   22.50    2.20
  -1  23   4   21.30    2.10
   0 -23   4   12.60    2.00
   0 -23  -4   14.50    2.20
   0 -23   4   13.60    1.90
   0 -23   4   14.30    1.70
   0  23   4   16.60    1.80
   0  23  -4   17.30    2.20
   0  23   4   10.30    2.00
   0  23   4   15.50    2.40
   0  23   4   12.60    2.60
   0  23   4   16.10    2.20
   1 -23   4   83.29    4.00
   1 -23   4   78.89    4.00
   1 -23   4   75.29    4.80
   1 -23   4   81.99    4.00
   1  23   4   91.39    4.20
   1  23   4   79.89    5.00
   1  23   4   80.99    4.30
   1  23   4   84.39    4.70
   2 -23   4    7.80    1.20
   2 -23   4    5.30    1.90
   2 -23   4    6.50    1.20
   2 -23   4    6.90    1.10
   2  23   4    3.70    1.70
   2  23   4    7.00    1.50
   2  23   4    7.40    1.70
   2  23   4    4.90    1.40
  -3 -23  -4   87.29    4.40
   3 -23   4   96.79    4.10
   3 -23   4   86.59    4.10
   3 -23   4   87.69    4.20
   3 -23   4   94.09    4.10
   3  23   4   97.29    4.30
   3  23   4   97.79    4.30
  -3 -24   4   23.00    2.00
  -3  24   4   27.00    1.70
   3  24  -4   23.60    1.60
  -2 -24   4    5.40    2.00
  -2 -24   4    6.30    1.30
  -2 -24   4    3.60    1.50
  -2 -24   4    8.50    1.90
  -2  24   4    5.30    1.60
  -2  24   4    5.10    1.80
  -1 -24   4   14.50    2.80
  -1 -24   4   14.70    1.70
  -1 -24   4    9.70    2.50
  -1 -24   4   14.80    2.80
  -1  24   4   13.30    3.10
  -1  24   4   14.80    2.20
  -1  24   4   19.40    1.90
   0 -24   4   57.79    3.40
   0 -24   4   60.09    3.30
   0 -24  -4   64.39    3.90
   0 -24   4   60.59    3.20
   0 -24   4   59.59    3.80
   0  24   4   60.19    3.50
   0  24   4   61.39    3.60
   0  24   4   62.39    3.30
   0  24  -4   57.49    3.70
   0  24   4   66.99    4.00
   0  24   4   57.79    4.00
   1 -24   4  207.58    9.10
   1 -24   4  207.48    9.10
   1 -24   4  202.08    9.60
   1 -24   4  199.78    9.10
   1  24   4  194.48    9.70
   1  24   4  221.88    9.30
   1  24   4  214.08    9.80
   1  24   4  213.08    9.40
   2 -24   4   39.80    2.20
   2 -24   4   40.10    2.10
   2 -24   4   38.50    2.60
   2 -24   4   40.00    2.20
   2  24   4   40.20    3.00
   2  24   4   37.80    2.80
   2  24   4   37.60    2.40
   2  24   4   39.20    2.60
   3 -24   4    3.70    0.70
   3 -24   4    4.70    1.00
   3 -24   4    4.50    0.70
  -3 -24  -4    5.40    1.40
   3  24   4    3.50    1.10
   3  24   4    4.20    1.00
  -3 -25   4   18.70    1.80
   3  25  -4   16.10    1.30
  -3  25   4   17.20    1.50
  -2 -25   4   57.89    3.80
  -2 -25   4   64.29    3.50
  -2 -25   4   62.69    3.20
  -2 -25   4   56.49    3.80
  -2  25   4   61.79    3.30
  -2  25   4   60.79    3.40
  -1 -25   4   92.29    4.50
  -1 -25   4   86.79    4.30
  -1 -25   4   96.59    5.20
  -1 -25   4   81.39    4.70
  -1  25   4   90.89    4.50
  -1  25   4   87.79    4.50
  -1  25   4   87.69    5.00
  -1  25   4   94.29    4.50
   1  25  -4   87.09    5.00
   0 -25   4 1589.54   68.09
   0 -25   4 1610.14   68.19
   0  25   4 1533.75   68.69
   0  25   4 1681.93   68.19
   0  25   4 1688.93   68.09
   1 -25   4   20.50    1.80
   1 -25   4   19.10    1.80
   1 -25   4   20.80    1.70
   1  25   4   19.90    2.50
   1  25   4   21.10    2.10
   1  25   4   22.90    1.90
   2 -25   4   49.40    2.50
   2 -25   4   47.80    2.50
   2 -25   4   48.30    2.50
   2  25   4   44.90    2.80
   2  25   4   43.80    2.70
   2  25   4   51.39    3.00
   2  25   4   50.19    3.40
   3 -25   4    0.10    0.60
   3 -25   4   -0.20    0.60
   3 -25   4    0.30    0.50
   3 -25   4    0.70    0.50
  -3 -25  -4    1.40    1.10
   3  25   4    0.40    0.70
   3  25   4   -1.00    0.70
  -3 -26   4   18.30    1.70
   3  26  -4   18.50    1.30
  -3  26   4   17.70    1.60
  -2 -26   4   76.69    3.80
  -2 -26   4   72.19    4.20
  -2 -26   4   66.29    4.20
  -2 -26   4   70.29    3.60
  -2  26   4   73.99    3.70
  -2  26   4   71.89    3.80
  -1 -26   4  204.88    9.60
  -1 -26   4  198.48    9.20
  -1 -26   4  203.48    9.10
  -1 -26   4  206.18    9.00
  -1  26   4  200.08    9.00
  -1  26   4  206.88    9.10
  -1  26   4  199.88    9.10
  -1  26   4  208.18    9.60
   1  26  -4  194.78    9.20
   0 -26   4   60.09    3.80
   0 -26   4   57.89    3.40
   0 -26   4   58.19    3.30
   0 -26   4   64.39    3.20
   0  26   4   63.09    3.50
   0  26   4   61.69    3.50
   0  26   4   70.39    3.40
   0  26   4   66.89    3.90
   1 -26   4   20.90    1.70
   1 -26   4   11.70    2.80
   1 -26   4   17.50    1.60
   1 -26   4   18.60    1.70
   1  26   4   23.10    2.40
   1  26   4   17.00    2.90
   1  26   4   20.70    1.90
   1  26   4   18.30    2.10
   2 -26   4   30.50    2.20
   2 -26   4   31.40    1.90
   2 -26   4   34.60    1.90
   2 -26   4   32.90    1.80
   2  26   4   29.40    2.10
   2  26   4   31.80    2.40
   2  26   4   30.50    2.20
   2  26   4   28.80    2.80
   3 -26   4    4.60    0.70
   3 -26   4    4.50    0.70
   3 -26   4    5.20    0.90
   3 -26   4    5.00    0.80
   3  26   4    3.20    0.90
   3  26   4    3.40    1.00
  -3 -27   4  126.79    5.90
   3  27  -4  121.99    5.60
  -3  27   4  132.39    5.60
  -2 -27   4   55.89    3.00
  -2 -27   4   46.00    3.50
  -2 -27   4   58.19    3.20
  -2 -27   4   56.89    3.50
  -2  27   4   57.99    3.10
   2  27  -4   57.49    3.10
  -2  27   4   59.09    3.20
  -1 -27   4    4.60    1.20
  -1 -27   4    4.80    1.30
  -1 -27   4    1.90    1.20
  -1 -27   4    3.60    1.90
  -1  27   4    5.30    1.50
   1  27  -4    4.40    1.80
  -1  27   4    5.50    2.20
  -1  27   4    6.60    1.70
   0 -27   4    4.70    1.20
   0 -27   4    4.10    1.00
   0 -27   4    3.90    1.20
   0  27   4    5.30    1.70
   0  27   4    4.50    1.30
   0  27   4    6.00    2.00
   0  27   4    3.00    1.20
   1 -27   4   54.49    3.70
   1 -27   4   55.39    2.90
   1 -27   4   55.99    3.00
   1 -27   4   55.79    2.90
   1  27   4   56.59    3.30
   1  27   4   51.69    3.80
   1  27   4   57.49    3.50
   2 -27   4  163.78    7.00
   2 -27   4  136.39    6.90
   2 -27   4  167.78    6.80
   2  27   4  140.49    6.90
   2  27   4  171.08    7.40
   2  27   4  148.19    7.30
  -3 -28   4   79.69    3.60
   3  28  -4   70.59    3.30
  -3  28   4   62.39    3.30
  -2 -28   4   31.60    2.40
  -2 -28   4   23.00    3.40
  -2 -28   4   32.30    2.00
  -2 -28   4   28.60    3.20
  -2  28   4   27.30    2.20
  -2  28   4   30.70    2.10
   2  28  -4   32.60    2.10
  -1 -28   4  389.36   16.50
  -1 -28   4  376.16   16.00
  -1 -28   4  384.76   16.10
  -1 -28   4  380.26   16.20
  -1  28   4  332.07   16.30
  -1  28   4  373.66   16.10
  -1  28   4  368.26   16.10
   1  28  -4  378.86   16.10
  -1  28   4  374.16   16.50
   0 -28   4   52.49    2.90
   0 -28   4   48.50    3.30
   0 -28   4   52.39    3.00
   0 -28   4   52.99    2.90
   0  28   4   54.19    3.50
   0  28   4   58.19    3.10
   0  28   4   53.49    3.10
   0  28   4   54.29    3.20
   1 -28   4  158.38    7.20
  -1 -28  -4  174.58    7.70
   1 -28   4  165.38    7.60
   1 -28   4  164.98    7.20
   1 -28   4  154.88    7.10
   1  28   4  153.08    7.70
   1  28   4  160.68    7.40
   1  28   4  162.58    7.70
   1  28   4  154.98    7.30
   2 -28   4  107.59    4.80
   2 -28   4   98.49    4.90
   2 -28   4  104.89    4.80
   2 -28   4  111.39    4.80
   2  28   4  103.29    5.00
   2  28   4  105.19    5.00
   2  28   4  105.19    5.20
   2  28   4  113.49    5.20
  -3 -29   4   83.19    4.30
  -3  29   4   88.09    3.80
   3  29  -4   73.89    3.70
  -2 -29   4    3.40    1.30
  -2 -29   4    3.10    1.30
  -2  29   4    2.00    1.30
   2  29  -4    3.80    1.00
  -1 -29   4   -0.40    1.60
  -1 -29   4    0.40    1.00
  -1 -29   4   -0.70    1.10
   1  29  -4   -0.60    1.50
  -1  29   4    2.30    1.60
  -1  29   4    1.90    1.40
  -1  29   4    1.10    0.80
  -1  29   4    1.30    1.10
   0 -29   4  135.49    6.40
   0 -29   4  132.79    6.20
   0 -29   4  135.89    6.10
   0 -29   4  127.89    6.10
   0  29   4  139.39    6.70
   0  29   4  139.59    6.70
   0  29   4  131.89    6.30
   0  29   4  136.09    6.30
   1 -29   4   70.19    3.50
   1 -29   4   67.09    4.10
   1 -29   4   72.19    3.50
   1 -29   4   69.89    3.40
  -1 -29  -4   74.99    4.00
   1  29   4   66.89    3.60
   1  29   4   70.69    4.20
   1  29   4   70.29    4.00
   1  29   4   72.79    3.80
   2 -29   4    0.90    0.60
   2 -29   4    0.60    0.60
   2 -29   4    1.30    0.70
   2 -29   4    1.50    0.90
   2  29   4    0.20    1.00
   2  29   4    1.50    1.00
   2  29   4    0.20    1.10
   2  29   4    1.20    0.90
  -3 -30   4   83.29    3.60
  -3  30   4   74.59    3.40
   3  30  -4   62.39    3.30
  -2 -30   4  112.99    5.30
   2 -30  -4  108.69    5.20
  -2 -30   4  121.49    5.50
  -2  30   4  118.79    5.30
  -2  30   4  112.29    5.30
  -1 -30   4    3.50    1.20
  -1 -30   4    4.60    1.30
  -1 -30   4    6.10    2.00
  -1  30   4    7.00    1.50
  -1  30   4    4.30    1.20
  -1  30   4    7.80    2.20
   1  30  -4    7.00    2.00
   0 -30   4   38.10    2.40
   0 -30   4   35.80    2.70
   0 -30   4   41.00    2.50
   0 -30   4   42.00    2.30
   0  30   4   43.40    3.00
   0  30   4   39.90    2.60
   0  30   4   40.70    2.60
   0  30   4   40.40    2.70
   1 -30   4    8.10    1.50
   1 -30   4    9.80    1.40
  -1 -30  -4   10.40    2.10
   1 -30   4   12.70    1.20
   1  30   4   13.80    1.90
   1  30   4   11.20    1.50
   1  30   4    7.80    2.30
   1  30   4    8.60    1.70
   2 -30   4    0.30    1.00
   2 -30   4    1.20    0.60
   2 -30   4    0.60    0.70
   2 -30   4    1.40    0.60
   2  30   4    1.10    0.90
   2  30   4    0.60    0.90
   2  30   4    0.50    1.00
   2  30   4   -0.40    1.00
  -2 -31   4    2.30    1.10
  -2 -31   4    3.10    1.30
  -2 -31   4    2.10    1.10
   2 -31  -4    2.20    0.80
   2  31  -4    3.30    0.90
  -2  31   4    3.10    1.00
  -1 -31   4   94.99    4.40
  -1 -31   4   91.09    4.90
  -1 -31   4   91.99    4.30
  -1 -31   4   83.89    4.50
  -1  31   4   91.59    4.40
   1  31  -4   87.19    4.50
  -1  31   4   90.09    4.40
  -1  31   4   90.69    4.90
   0 -31   4   94.39    4.60
   0 -31   4   96.29    4.80
   0 -31   4   97.09    4.50
   0 -31   4   93.99    4.50
   0  31   4   99.29    5.10
   0  31   4   92.19    4.60
   0  31   4   95.39    4.70
   0  31   4   94.99    4.70
   1 -31   4   12.30    1.20
   1 -31   4   10.60    1.30
   1 -31   4    8.10    2.20
   1 -31   4    8.90    1.30
   1  31   4   11.30    1.80
   1  31   4    6.00    2.20
   1  31   4    9.60    1.50
   1  31   4   11.70    1.70
   2 -31   4    0.70    0.60
   2 -31   4    0.70    0.60
   2 -31   4    0.60    0.60
   2 -31   4    1.10    0.90
   2  31   4    0.30    0.90
   2  31   4    0.50    1.10
   2  31   4    1.10    0.90
   2  31   4    0.40    1.00
   2 -32  -4   24.20    1.70
  -2 -32   4   25.20    1.90
  -2 -32   4   21.80    2.10
   2  32  -4   21.40    1.60
  -2  32   4   24.10    1.80
  -1 -32   4   90.09    4.50
  -1 -32   4   87.99    4.30
  -1 -32   4   90.39    4.70
  -1 -32   4   90.49    4.20
  -1  32   4   85.59    4.30
   1  32  -4   86.79    4.30
  -1  32   4   82.99    4.80
  -1  32   4   89.09    4.30
   0 -32   4   74.99    4.00
   0 -32   4   77.59    3.70
   0 -32   4   73.29    3.80
   0 -32   4   79.69    3.70
   0  32   4   72.39    3.90
   0  32   4   74.99    3.90
   0  32   4   75.09    4.20
   0  32   4   80.59    3.90
   1 -32   4   35.50    2.60
  -1 -32  -4   29.10    2.80
   1 -32   4   38.50    2.00
   1 -32   4   36.10    2.10
   1 -32   4   32.90    2.00
   1  32   4   38.10    2.60
   1  32   4   35.10    2.30
   1  32   4   31.00    2.20
   2 -32   4   17.60    1.20
   2 -32   4   17.30    1.10
  -2 -32  -4   15.70    1.80
   2 -32   4   15.30    1.10
   2  32   4   16.90    1.60
   2  32   4   17.40    1.60
   2  32   4   18.00    1.60
  -2  32  -4   19.10    2.10
   2 -33  -4   70.79    3.50
  -2 -33   4   71.19    3.70
  -2 -33   4   72.09    3.70
   2  33  -4   75.39    3.40
  -2  33   4   72.79    3.50
  -1 -33   4  126.39    5.90
  -1 -33   4  128.69    5.70
  -1 -33   4  127.29    6.20
  -1  33   4  111.29    6.10
  -1  33   4  121.99    5.70
  -1  33   4  129.49    5.80
   1  33  -4  124.09    5.90
   0 -33   4  188.78    8.20
   0 -33   4  184.78    8.30
   0 -33   4  185.98    8.10
   0 -33   4  188.18    8.20
   0  33   4  188.98    8.30
   0  33   4  171.18    8.30
   0  33   4  188.78    8.60
   0  33   4  185.98    8.30
  -1 -33  -4   30.70    3.30
   1 -33   4   35.60    2.60
   1 -33   4   39.30    2.00
   1  33   4   33.80    2.30
   1  33   4   34.40    2.30
   1  33   4   38.40    2.60
   1  33   4   36.30    2.50
   2 -33   4    1.70    0.50
   2 -33   4    0.10    0.50
  -2 -33  -4    0.20    1.00
   2 -33   4    0.00    0.60
   2  33   4    0.80    0.90
   2  33   4    0.70    1.00
   2  33   4   -0.10    0.80
  -2  33  -4   -0.40    1.00
  -2 -34   4  357.16   14.80
  -2 -34   4  339.57   14.90
   2 -34  -4  326.57   14.70
   2  34  -4  341.67   14.70
  -2  34   4  358.46   14.70
  -1 -34   4    2.70    1.00
  -1 -34   4    5.80    1.50
   1 -34  -4    3.70    1.20
  -1 -34   4    3.20    0.90
  -1 -34   4    4.50    1.80
   1  34  -4    5.70    1.50
  -1  34   4    5.80    1.50
  -1  34   4    4.50    1.30
  -1  34   4    4.70    1.50
   0 -34   4   95.89    4.30
   0 -34   4   95.39    4.40
   0 -34   4   93.99    4.30
   0 -34  -4   96.79    4.40
   0 -34   4   94.99    4.50
   0  34   4   91.99    4.50
   0  34   4   85.29    5.30
   0  34   4   96.69    4.80
   0  34   4   76.99    4.50
   1 -34   4   15.90    1.20
   1 -34   4   16.70    1.30
   1 -34   4   15.70    1.20
   1 -34   4   11.90    1.90
   1  34   4   15.70    1.70
   1  34   4   14.10    2.00
   1  34   4   15.50    1.70
   1  34   4   15.00    1.70
   2 -34   4   40.80    1.90
  -2 -34  -4   32.70    2.40
   2 -34   4   37.50    1.90
   2 -34   4   38.90    1.90
   2  34   4   40.70    2.20
   2  34   4   37.40    2.20
   2  34   4   39.10    2.20
  -2 -35   4    5.60    1.30
  -2 -35   4    5.20    1.70
   2 -35  -4    6.90    1.20
  -2  35   4    5.70    1.40
   2  35  -4    5.60    1.00
   1 -35  -4   11.00    1.30
  -1 -35   4   11.50    1.20
  -1 -35   4   11.70    1.60
  -1 -35   4    9.70    1.80
  -1 -35   4   12.50    1.60
  -1  35   4   10.00    1.60
  -1  35   4    8.30    2.00
   1  35  -4   10.70    1.50
   0 -35   4  207.28    8.60
   0 -35   4  184.78    8.90
   0 -35   4  208.68    8.90
   0 -35   4  197.78    8.60
   0 -35  -4  214.78    9.20
   0  35   4  191.58    8.70
   0  35   4  171.48    9.10
   1 -35   4   10.60    1.00
   1 -35   4    8.90    1.70
   1 -35   4   11.00    1.10
   1 -35   4    9.00    1.20
   1  35   4    9.40    1.50
   1  35   4    8.50    2.60
   1  35   4   11.00    1.80
   1  35   4    9.90    1.60
   2 -35   4    0.60    0.50
  -2 -35  -4    0.80    1.00
   2 -35   4    0.10    0.50
   2 -35   4    1.10    0.80
   2  35   4    1.50    0.90
   2  35   4    0.40    0.80
  -2 -36   4   16.60    1.40
  -2 -36   4   13.40    1.90
   2 -36  -4   16.80    1.40
   2  36  -4   13.70    1.10
  -1 -36   4  105.49    4.80
  -1 -36   4  108.29    4.80
   1 -36  -4  103.89    4.70
  -1 -36   4   97.29    4.70
  -1 -36   4   99.79    5.00
  -1  36   4  100.69    4.80
   1  36  -4  104.99    4.80
   0 -36   4    0.20    0.90
   0 -36  -4    0.90    0.70
   0 -36   4    1.20    0.70
   0 -36   4    0.60    0.70
   0 -36   4    2.00    0.70
   0  36   4    0.80    1.10
   0  36   4    1.30    1.00
   0  36   4    2.40    2.10
   1 -36   4   15.00    1.80
   1 -36   4   16.40    1.20
   1 -36   4   19.30    1.20
   1 -36   4   18.70    1.30
   1  36   4   18.40    1.80
   1  36   4   15.70    1.50
   1  36   4   15.90    1.80
   1  36   4   17.60    1.60
   2 -36   4   41.50    2.00
   2 -36   4   45.40    1.90
   2 -36   4   40.80    2.00
  -2 -36  -4   36.80    2.30
   2  36   4   43.30    2.20
   2 -37  -4    1.60    0.70
  -2 -37   4    2.40    1.10
   2  37  -4    3.00    0.70
  -1 -37   4  185.68    7.60
  -1 -37   4  168.98    7.80
  -1 -37   4  180.08    7.70
   1 -37  -4  171.08    7.60
  -1  37   4  160.58    7.60
   1  37  -4  175.28    7.60
   0 -37   4   20.00    1.50
   0 -37   4   17.60    1.30
   0 -37  -4   19.30    1.50
   0 -37   4   19.50    1.40
   0 -37   4   19.40    1.70
   0  37  -4   17.20    1.50
   0  37   4   15.90    1.70
   0  37   4   18.00    1.80
   1 -37   4    0.70    0.60
   1 -37   4    0.60    0.60
   1 -37   4    0.70    0.90
   1 -37   4    0.40    0.80
   1  37   4    1.10    1.30
   1  37   4   -0.60    0.80
   1  37   4    1.30    1.00
   1  37   4    0.50    1.00
  -2 -38   4    0.70    0.80
   2 -38  -4    1.20    1.00
   2  38  -4    0.30    0.60
  -1 -38   4   26.90    1.60
   1 -38  -4   27.20    1.70
  -1 -38   4   26.30    1.80
  -1 -38   4   26.40    2.00
   1  38  -4   26.60    1.80
   0 -38   4   16.50    1.20
   0 -38  -4   15.50    1.40
   0 -38   4   18.20    1.50
   0 -38   4   16.70    1.40
   0  38   4   14.40    1.60
   0  38   4   14.50    1.70
   0  38  -4   16.60    1.40
   1 -38   4   12.90    1.70
   1 -38   4   12.80    1.10
   1 -38   4   10.60    0.90
   1 -38   4    8.90    0.90
   1  38   4   10.90    1.50
   1  38   4    8.20    1.60
   1  38   4    8.70    1.20
  -1 -39   4   96.99    4.20
  -1 -39   4   82.39    4.30
   1 -39  -4   92.19    4.10
  -1 -39   4   83.09    4.00
   1  39  -4   94.29    4.10
   0 -39   4  285.87   13.40
   0 -39  -4  336.87   13.50
   0 -39   4  334.47   13.60
   0 -39   4  326.17   13.50
   0  39  -4  328.37   13.50
   0  39   4  287.87   13.70
   1 -39   4    0.40    0.50
  -1 -39  -4   -0.10    0.80
   1 -39   4   -0.10    1.10
   1 -39   4    1.20    0.60
   1 -39   4   -0.80    1.00
   1  39   4    0.60    0.90
   1  39   4    0.10    0.70
  -1 -40   4   70.69    3.20
  -1 -40   4   62.79    3.00
   1 -40  -4   66.09    3.10
   1  40  -4   60.79    3.00
   1  40  -4   67.29    3.30
   0 -40   4    3.20    1.10
   0 -40  -4    3.10    1.00
   0 -40   4    2.60    0.70
   0 -40   4    2.60    1.00
   0  40  -4    3.80    1.00
   0  40   4    2.80    1.20
   1 -40   4   57.49    2.50
   1 -40   4   59.09    2.90
  -1 -40  -4   44.90    3.00
   1  40   4   54.89    2.80
  -1 -41   4    9.60    1.10
   1  41  -4    9.40    1.10
   1  41  -4    6.70    0.90
   0 -41  -4   12.40    1.60
   0 -41   4   15.60    1.30
   0 -41  -4   17.20    1.20
   0 -41   4   13.90    1.20
   0  41   4   11.90    1.40
   0  41  -4   16.30    1.20
   0 -42  -4   74.19    3.30
   0 -42   4   65.89    3.30
   0 -42   4   73.99    3.30
   0  42  -4   75.99    3.30
  -3   0   5   51.59    3.00
  -3   0   5   52.09    2.80
  -2   0   5    0.70    1.10
  -2   0   5   -0.20    1.00
  -2   0   5    0.00    1.10
  -2   0   5   -1.00    1.50
  -2   0   5    2.00    1.90
  -1   0   5 1865.81   76.79
  -1   0   5 1813.22   77.19
  -1   0   5 1846.52   76.79
  -1   0   5 1854.51   76.89
  -1   0   5 1763.12   76.69
   0   0   5    1.40    1.10
   2   0   5    2.40    1.80
   3   0   5   21.20    1.70
  -3  -1   5   68.49    3.50
  -3  -1   5   71.99    3.80
  -3   1   5   67.39    3.60
  -3   1   5   68.39    3.50
  -2  -1   5   75.59    3.80
  -2  -1   5   76.09    4.10
  -2  -1   5   69.89    4.30
  -2  -1   5   71.89    3.80
  -2   1   5   75.59    3.80
  -2   1   5   76.59    4.10
  -2   1   5   69.39    4.40
  -2   1   5   74.79    4.20
  -2   1   5   71.39    3.80
  -1  -1   5  602.14   26.40
  -1  -1   5  585.54   25.90
  -1  -1   5  635.84   26.00
  -1  -1   5  624.14   26.10
  -1  -1   5  616.54   26.00
  -1   1   5  603.24   26.50
  -1   1   5  585.84   25.90
  -1   1   5  607.34   26.00
  -1   1   5  609.44   26.00
  -1   1   5  627.64   26.20
   0  -1   5   67.49    3.60
   0  -1   5   68.29    3.90
   0  -1   5   68.19    3.60
   0  -1   5   66.89    4.30
   0   1   5   70.89    4.30
   0   1   5   71.59    3.60
   0   1   5   66.69    3.90
   0   1   5   68.59    3.60
   1   1   5   65.29    3.80
   2  -1   5   -2.00    1.90
   2   1   5    2.00    1.70
   3  -1   5   59.49    3.40
   3  -1   5   69.69    3.40
   3   1   5   68.69    3.40
  -3  -2   5    9.90    2.90
  -3  -2   5    2.50    1.00
  -3  -2   5    0.50    1.50
  -3   2   5    1.80    1.20
  -3   2   5    0.90    0.90
  -2  -2   5  129.79    6.10
  -2  -2   5  140.59    6.20
  -2  -2   5  128.09    6.30
  -2  -2   5  129.99    6.60
  -2   2   5  131.39    6.70
  -2   2   5  133.19    6.20
  -2   2   5  128.29    6.30
  -2   2   5  130.39    6.10
  -2   2   5  126.99    6.30
  -1  -2   5   22.10    2.10
  -1  -2   5   24.40    2.00
  -1  -2   5   24.90    2.40
  -1  -2   5   25.40    2.80
  -1  -2   5   19.30    2.10
  -1   2   5   27.50    2.20
  -1   2   5   20.60    2.40
  -1   2   5   25.70    2.70
  -1   2   5   23.70    3.10
  -1   2   5   27.30    2.40
  -1   2   5   29.80    2.00
   0  -2   5  131.99    6.10
   0  -2   5  137.39    6.70
   0  -2   5  126.29    6.40
   0  -2   5  132.79    6.10
   0   2   5  132.79    6.70
   0   2   5  132.19    6.40
   0   2   5  130.59    6.10
   0   2   5  133.39    6.20
   1   2   5    2.00    1.50
   2   2   5   25.80    2.70
   3  -2   5    9.30    1.60
   3  -2   5   10.50    1.30
   3   2   5   12.90    1.50
  -3  -3   5   88.89    4.90
  -3  -3   5   94.39    4.50
   3  -3  -5   97.09    4.50
  -3   3   5   93.59    4.60
  -3   3   5   96.49    4.50
  -2  -3   5   64.69    4.10
  -2  -3   5   68.89    3.60
  -2  -3   5   67.49    3.80
  -2  -3   5   67.69    3.60
  -2   3   5   65.69    3.80
  -2   3   5   63.99    3.60
  -2   3   5   69.29    3.50
  -2   3   5   67.29    4.10
  -2   3   5   66.09    4.00
  -1  -3   5  201.48    9.30
  -1  -3   5  209.58    9.50
  -1  -3   5  208.18    9.30
  -1  -3   5  215.58    9.80
  -1  -3   5  207.78    9.30
  -1   3   5  219.28    9.80
  -1   3   5  207.98    9.40
  -1   3   5  200.78    9.50
  -1   3   5  197.18    9.30
  -1   3   5  215.28    9.30
  -1   3   5  203.58    9.30
   0  -3   5  718.43   30.10
   0  -3   5  726.03   30.00
   0  -3   5  711.63   30.00
   0  -3   5  727.13   30.50
   0  -3   5  669.43   29.90
   0   3   5  707.93   30.00
   0   3   5  687.13   30.10
   0   3   5  702.03   30.40
   0   3   5  702.03   30.00
  -1  -3  -5    0.90    2.30
   1   3   5   -0.80    1.90
   1   3   5    0.60    1.40
   2   3   5   19.50    2.70
   2   3   5   15.70    2.60
   3  -3   5    6.40    1.20
   3  -3   5    6.10    1.60
   3   3   5    8.80    1.40
  -3  -4   5   18.40    2.40
   3  -4  -5   21.80    1.50
  -3  -4   5   19.40    1.70
  -3   4   5   19.90    1.60
  -3   4   5   20.70    1.90
  -2  -4   5    6.90    1.90
  -2  -4   5    7.10    1.50
  -2  -4   5    3.20    1.50
  -2  -4   5    5.90    1.60
  -2   4   5    5.00    1.70
  -2   4   5    2.80    1.10
  -2   4   5    3.20    1.30
  -2   4   5    4.70    1.70
  -1  -4   5    1.50    1.10
  -1  -4   5    2.50    1.20
  -1  -4   5    1.40    1.30
  -1  -4   5    1.10    1.50
  -1  -4   5    1.10    1.10
  -1   4   5    2.40    1.40
  -1   4   5    4.00    1.70
  -1   4   5    4.50    1.30
  -1   4   5    3.00    1.50
  -1   4   5    2.40    1.00
   0  -4   5  332.37   15.10
   0  -4   5  353.76   15.30
   0  -4   5  359.06   15.60
   0  -4   5  351.96   15.10
   0  -4   5  354.26   15.10
   0   4   5  348.47   15.10
   0   4   5  350.76   15.10
   0   4   5  323.07   15.10
   0   4   5  352.06   15.20
   0   4   5  351.86   15.50
  -1  -4  -5   40.10    3.30
   1   4   5   49.80    3.70
   1   4   5   44.20    3.50
   1   4   5   46.40    2.90
   2   4   5    7.00    1.80
   2   4   5    6.20    1.70
   3  -4   5    6.10    1.30
   3  -4   5    4.80    1.40
   3   4   5    4.20    1.30
  -3  -5   5   65.99    4.00
   3  -5  -5   75.39    3.40
  -3  -5   5   72.09    3.60
  -3   5   5   68.29    3.70
   3   5  -5   78.09    3.80
  -3   5   5   69.79    3.50
  -2  -5   5   49.50    2.80
  -2  -5   5   47.70    3.40
  -2  -5   5   46.70    3.10
  -2  -5   5   49.50    2.90
  -2   5   5   47.30    3.50
  -2   5   5   45.10    3.10
  -2   5   5   49.20    2.80
  -2   5   5   47.20    3.20
  -2   5   5   50.39    2.90
  -1  -5   5  451.65   19.90
  -1  -5   5  478.75   20.50
  -1  -5   5  469.75   20.10
  -1  -5   5  475.55   19.90
  -1  -5   5  454.15   20.00
  -1   5   5  461.65   20.00
  -1   5   5  472.15   20.50
  -1   5   5  471.75   20.00
  -1   5   5  458.15   20.10
  -1   5   5  456.35   20.00
   0  -5   5    1.90    1.20
   0  -5   5    2.20    1.80
   0  -5   5    0.90    1.40
   0  -5   5    1.90    1.30
   0  -5   5    2.00    1.40
   0   5   5    2.20    1.30
   0   5   5    3.10    1.70
   0   5   5    1.80    1.20
   0   5   5    1.90    0.90
   0   5   5    3.50    1.10
  -1  -5  -5   74.19    4.70
   1   5   5   87.99    4.40
   1   5   5   84.59    4.70
   1   5   5   88.99    5.10
   2   5   5   -0.50    1.60
   2   5   5   -1.00    1.40
   3  -5   5   85.89    4.10
   3  -5   5   87.79    4.10
   3   5   5   87.79    4.10
  -3  -6   5   23.60    1.80
  -3  -6   5   24.30    2.40
   3  -6  -5   25.10    1.60
  -3   6   5   25.00    2.00
   3   6  -5   26.80    1.70
  -3   6   5   23.60    1.80
  -2  -6   5  115.19    5.80
  -2  -6   5  116.39    5.50
  -2  -6   5  113.59    6.10
  -2  -6   5  120.79    5.60
  -2   6   5  123.99    5.60
  -2   6   5  109.89    6.00
  -2   6   5  115.79    5.70
  -2   6   5  119.09    5.50
  -2   6   5  113.49    5.70
  -1  -6   5  130.49    6.80
  -1  -6   5  135.39    6.40
  -1  -6   5  124.19    6.20
  -1  -6   5  138.99    6.10
  -1  -6   5  126.19    6.10
  -1   6   5  125.09    6.10
  -1   6   5  132.79    6.40
  -1   6   5  127.29    6.30
  -1   6   5  131.89    6.10
  -1   6   5  132.99    6.70
   0  -6   5    7.10    2.00
   0  -6   5    9.00    1.80
   0  -6   5    8.90    2.70
   0  -6   5    7.00    2.10
   0   6   5    7.00    1.40
   0   6   5    5.10    2.00
   0   6   5    8.50    1.70
   0   6   5    5.10    1.60
   0   6   5    5.00    1.20
  -1  -6  -5   68.69    4.40
   1   6   5   82.19    4.80
   1   6   5   81.69    4.10
   1   6   5   75.59    4.40
   2  -6   5  105.99    5.50
   2   6   5  128.39    6.00
   2   6   5  124.89    5.80
   3  -6   5   24.60    1.60
   3  -6   5   19.80    1.80
   3   6   5   26.70    1.70
   3   6   5   25.00    2.00
  -3  -7   5    3.60    1.40
  -3  -7   5    3.70    1.20
   3  -7  -5    3.60    0.80
  -3   7   5    2.40    0.90
  -3   7   5    6.60    1.40
   3   7  -5    5.90    1.10
  -2  -7   5   44.60    3.00
  -2  -7   5   48.60    2.60
  -2  -7   5   39.20    3.20
  -2  -7   5   40.30    2.60
   2  -7  -5   40.70    2.60
  -2   7   5   39.00    2.80
  -2   7   5   41.20    3.10
  -2   7   5   37.30    2.90
  -2   7   5   40.60    2.50
  -1  -7   5  156.38    7.50
  -1  -7   5  164.98    7.70
  -1  -7   5  165.58    7.50
  -1  -7   5  157.58    7.40
  -1  -7   5  166.68    8.10
  -1   7   5  171.98    8.00
  -1   7   5  161.88    7.60
  -1   7   5  159.18    7.50
  -1   7   5  164.08    7.70
  -1   7   5  165.28    7.40
   0  -7   5  207.78    9.40
   0  -7   5  199.78    9.20
   0  -7   5  198.98    9.20
   0  -7   5  214.68    9.80
   0   7   5  200.28    9.30
   0   7   5  206.18    9.40
   0   7   5  207.68    9.20
   0   7   5  210.58    9.20
   0   7   5  204.58    9.60
  -1  -7  -5    4.60    3.00
   1   7   5    5.10    1.80
   1   7   5    6.90    1.80
   1   7   5    7.10    1.70
   2  -7   5  115.59    5.80
   2   7   5  130.49    6.10
   2   7   5  127.59    6.10
   2   7   5  130.89    6.30
   3  -7   5    1.00    0.90
   3   7   5    1.70    0.90
   3   7   5    1.20    1.40
   3  -8  -5    1.40    0.70
  -3  -8   5    3.40    1.40
  -3  -8   5    2.30    1.00
   3   8  -5    2.60    0.80
  -3   8   5    3.50    1.10
  -3   8   5    2.00    0.90
  -2  -8   5    3.40    1.20
  -2  -8   5    1.60    1.50
  -2  -8   5    0.20    1.10
   2  -8  -5    1.90    1.20
  -2  -8   5    1.90    1.10
  -2   8   5    1.60    1.00
  -2   8   5    1.70    1.40
  -2   8   5    0.90    0.90
  -2   8   5    1.30    1.30
  -1  -8   5  283.87   12.50
  -1  -8   5  280.87   12.30
  -1  -8   5  282.67   12.80
  -1  -8   5  288.77   12.30
  -1  -8   5  267.47   12.40
  -1   8   5  273.17   12.40
  -1   8   5  275.07   12.80
  -1   8   5  283.17   12.40
  -1   8   5  290.27   12.30
  -1   8   5  286.77   12.50
   0  -8   5    3.90    1.30
   0  -8   5    3.50    1.70
   0  -8   5    1.70    1.10
   0  -8   5    3.20    1.70
   0   8   5    2.70    1.00
   0   8   5    3.00    1.30
   0   8   5    4.00    1.60
   0   8   5    1.10    1.30
   0   8   5    3.40    1.10
   1  -8   5    9.40    2.20
   1   8   5    9.60    2.40
   1   8   5   10.30    2.20
   1   8   5   11.10    1.80
   2  -8   5   28.40    2.20
   2  -8   5   29.70    2.10
   2   8   5   33.90    2.50
   2   8   5   29.10    2.50
   2   8   5   33.90    3.00
   3  -8   5   44.00    2.20
   3   8   5   39.70    2.40
   3  -9  -5  134.99    5.80
  -3  -9   5  126.99    6.30
  -3  -9   5  124.99    6.00
  -3   9   5  129.19    6.00
  -3   9   5  133.59    6.00
   3   9  -5  141.79    6.00
   2  -9  -5    9.30    1.80
  -2  -9   5   10.00    1.70
  -2  -9   5    9.80    2.10
  -2  -9   5   12.40    2.10
  -2  -9   5   11.90    1.70
  -2   9   5   11.10    1.90
  -2   9   5   16.20    2.00
  -2   9   5    8.00    2.10
  -2   9   5   12.10    1.50
   2   9  -5   11.60    2.80
  -1  -9   5  162.78    7.50
  -1  -9   5  160.48    7.80
  -1  -9   5  162.78    7.30
  -1  -9   5  159.98    7.30
  -1  -9   5  154.58    7.30
  -1   9   5  160.68    7.20
  -1   9   5  159.48    7.70
  -1   9   5  159.38    7.40
  -1   9   5  155.48    7.30
   1   9  -5  138.49    8.30
  -1   9   5  159.88    7.30
   0  -9   5  112.69    6.00
   0  -9   5  113.69    5.60
   0  -9   5  107.09    5.30
   0   9   5  107.89    5.50
   0   9  -5  113.39    6.20
   0   9   5  104.79    5.40
   0   9   5  119.59    5.90
   0   9   5  111.99    5.50
   0   9   5  113.19    5.30
   1  -9   5  135.59    7.30
   1   9   5  157.28    6.70
   1   9   5  143.39    7.90
   1   9   5  134.29    7.90
   2  -9   5   -0.40    1.10
   2  -9   5   -1.40    1.00
   2   9   5   -0.80    1.50
   2   9   5    1.10    1.20
   2   9   5    0.20    1.50
   3  -9   5  213.78    9.40
   3   9   5  236.08    9.50
   3   9   5  198.88    9.70
  -3 -10   5    7.00    1.80
   3 -10  -5    8.90    1.10
  -3 -10   5   11.00    1.40
  -3  10   5   11.90    1.50
  -3  10   5   12.20    1.50
   3  10  -5    9.20    1.10
   3  10  -5   10.40    1.40
   2 -10  -5  122.69    5.70
  -2 -10   5  125.69    6.30
  -2 -10   5  124.69    5.80
  -2 -10   5  117.49    6.00
  -2  10   5  124.59    5.90
   2  10  -5  123.19    5.80
  -2  10   5  113.29    6.20
  -2  10   5  130.29    5.80
  -2  10   5  124.69    5.90
  -1 -10   5   88.49    4.30
  -1 -10   5   80.89    4.20
  -1 -10   5   82.09    4.50
  -1 -10   5   86.39    4.90
  -1 -10   5   76.79    4.40
  -1  10   5   81.29    4.30
   1  10  -5   77.89    5.00
  -1  10   5   83.69    4.10
  -1  10   5   84.89    4.40
  -1  10   5   85.09    4.70
  -1  10   5   78.99    4.30
   0 -10   5   62.49    4.20
   0 -10   5   60.59    3.70
   0 -10   5   56.49    3.20
   0  10   5   59.39    3.90
   0  10   5   61.59    3.50
   0  10   5   56.09    3.60
   0  10  -5   54.19    3.80
   0  10   5   62.19    3.20
   0  10   5   62.49    3.40
   1 -10   5   43.00    3.00
   1 -10   5   47.40    2.90
   1  10   5   50.89    2.90
   1  10   5   51.29    3.60
   1  10   5   47.30    3.20
   2 -10   5   14.50    1.80
   2 -10   5   21.00    1.60
   2  10   5   18.90    2.10
   2  10   5   22.10    2.60
   2  10   5   26.30    2.10
   3 -10   5   23.50    1.80
   3  10   5   25.50    1.80
   3  10   5   30.20    2.50
  -3 -11   5   25.90    1.90
   3 -11  -5   26.60    1.70
  -3 -11   5   27.60    2.30
   3  11  -5   29.90    1.80
  -3  11   5   28.50    1.90
   3  11  -5   28.50    1.90
  -3  11   5   28.70    1.90
  -2 -11   5   13.30    1.70
  -2 -11   5   12.40    2.40
   2 -11  -5   13.60    1.90
  -2 -11   5   12.50    2.10
  -2 -11   5   12.00    1.70
  -2  11   5   12.80    2.40
  -2  11   5   12.50    1.90
  -2  11   5   13.90    1.90
   2  11  -5   11.10    2.00
  -1 -11   5    4.60    1.40
  -1 -11   5    3.20    1.80
  -1 -11   5    0.80    1.20
  -1 -11   5    2.30    1.10
  -1 -11   5    2.30    2.30
  -1 -11   5    3.10    1.70
  -1  11   5    3.80    1.30
  -1  11   5    1.50    1.20
  -1  11   5    3.90    1.70
  -1  11   5    1.70    1.00
  -1  11   5    2.40    1.00
   1  11  -5    4.50    2.30
   0 -11   5  452.05   19.70
   0 -11   5  436.56   19.80
   0 -11   5  482.45   20.40
   0 -11   5  462.65   20.00
   0  11   5  493.45   20.40
   0  11   5  462.55   19.90
   0  11   5  469.45   19.90
   0  11  -5  449.95   20.00
   0  11   5  465.25   20.00
   0  11   5  451.45   19.90
   1 -11   5    4.50    1.40
   1 -11   5    6.70    1.50
   1  11   5    4.90    1.60
   1  11   5    8.20    2.20
   1  11   5    7.90    2.10
   2 -11   5  103.89    4.50
   2 -11   5   95.79    4.60
   2  11   5   97.69    4.80
   2  11   5  103.69    5.10
   2  11   5   93.49    4.90
   3 -11   5   13.20    1.40
   3 -11   5   11.70    1.10
  -3 -12   5   17.80    1.90
  -3 -12   5   19.10    1.70
   3 -12  -5   17.60    1.40
   3  12  -5   19.30    1.40
  -3  12   5   20.00    1.60
   3  12  -5   21.20    1.60
  -3  12   5   22.30    2.20
  -2 -12   5  628.84   26.90
  -2 -12   5  636.64   27.00
  -2 -12   5  604.54   26.80
   2 -12  -5  603.54   26.70
  -2 -12   5  653.03   27.30
  -2  12   5  646.84   26.90
  -2  12   5  615.64   27.20
  -2  12   5  611.94   26.90
  -2  12   5  647.24   26.80
   2  12  -5  657.13   26.80
  -1 -12   5    3.60    1.80
  -1 -12   5    3.10    1.20
  -1 -12   5    1.90    1.50
  -1 -12   5    3.60    1.60
  -1 -12   5    2.00    1.10
  -1  12   5    2.80    1.00
   1  12  -5    1.40    3.00
  -1  12   5    1.70    1.30
  -1  12   5    2.30    1.00
  -1  12   5    3.70    1.30
   0 -12   5   74.29    4.10
   0 -12   5   79.29    4.00
   0 -12   5   79.89    4.90
   0 -12  -5   78.89    4.20
   0 -12   5   75.89    4.40
   0  12   5   78.89    4.20
   0  12   5   81.19    4.20
   0  12   5   80.89    4.00
   0  12   5   76.79    4.20
   0  12  -5   74.89    4.60
   0  12   5   79.79    4.60
   1 -12   5    1.30    1.30
   1 -12   5    2.30    1.30
   1  12   5    1.60    1.40
   1  12   5    2.20    1.40
   1  12   5    0.30    1.10
   2 -12   5  298.27   12.90
   2 -12   5  311.57   12.80
   2 -12   5  266.27   12.80
   2  12   5  323.27   13.20
   2  12   5  306.97   13.00
   2  12   5  285.77   13.00
   3 -12   5   20.30    1.30
   3 -12   5   20.90    1.70
   3 -12   5   22.50    1.40
   3  12   5   21.20    2.20
   3  12   5   19.30    1.70
   3 -13  -5    2.20    0.70
  -3 -13   5    1.70    1.20
   3  13  -5    2.90    0.80
  -3  13   5    3.30    1.20
  -3  13   5    3.90    1.20
   3  13  -5    6.40    1.20
  -2 -13   5    2.20    1.10
  -2 -13   5    1.90    1.10
  -2 -13   5    2.20    1.50
  -2 -13   5    3.20    1.30
  -2  13   5    2.70    1.00
   2  13  -5    4.40    1.50
  -2  13   5    2.70    1.60
  -2  13   5    4.10    1.40
  -2  13   5    2.50    1.10
  -1 -13   5   19.50    4.00
  -1  13   5   28.10    1.90
  -1  13   5   16.30    3.70
   0 -13   5   17.30    2.00
   0 -13   5   20.10    3.10
   0 -13   5   17.60    2.50
   0 -13   5   19.00    2.10
   0 -13  -5   16.70    2.20
   0  13   5   18.10    2.40
   0  13   5   19.60    1.70
   0  13   5   18.90    2.10
   0  13  -5   15.90    2.80
   0  13   5   18.00    2.10
   1 -13   5    2.00    1.30
   1 -13   5    2.40    1.20
   1  13   5    1.30    1.30
   1  13   5    1.40    1.40
   1  13   5    1.20    1.00
   2 -13   5    8.70    1.20
   2 -13   5   14.70    2.90
   2 -13   5    9.30    1.40
   2  13   5    9.70    1.60
   2  13   5    6.20    1.60
   2  13   5    8.10    1.70
   3 -13   5   18.20    1.20
   3 -13   5   16.20    1.60
   3 -13   5   16.20    1.20
   3  13   5   15.40    1.40
   3  13   5   17.60    1.50
  -3 -14   5  112.39    5.30
   3 -14  -5  117.59    5.20
  -3 -14   5  117.99    5.60
  -3  14   5  115.09    5.40
   3  14  -5  115.89    5.20
   3  14  -5  117.19    5.20
  -3  14   5  120.19    5.30
  -2 -14   5   14.80    2.10
  -2 -14   5   15.50    1.60
  -2 -14   5   15.20    1.80
  -2 -14   5   14.80    2.20
  -2  14   5   14.40    2.50
  -2  14   5   13.70    1.60
  -2  14   5   12.80    1.80
   2  14  -5   15.90    1.90
  -2  14   5   15.60    2.00
  -1 -14   5   78.29    4.00
  -1 -14   5   77.09    4.50
  -1 -14   5   77.59    3.90
  -1 -14   5   71.09    4.20
  -1  14   5   77.09    4.50
  -1  14   5   74.79    4.00
  -1  14   5   75.19    4.10
  -1  14   5   81.29    3.90
   0 -14   5   11.20    2.30
   0 -14   5    6.80    2.10
   0 -14   5    7.30    1.40
   0 -14   5    7.10    1.40
   0  14   5    7.10    1.40
   0  14   5    7.00    2.10
   0  14   5   10.00    1.90
   0  14  -5    9.10    2.70
   0  14   5    6.70    1.80
   1 -14   5  224.58   10.30
   1 -14   5  247.38   10.30
   1  14   5  233.88   10.50
   1  14   5  232.28   10.90
   1  14   5  240.28   10.40
   2 -14   5   44.30    2.30
   2 -14   5   42.60    2.60
   2  14   5   40.90    2.60
   2  14   5   40.40    2.60
   3 -14   5    3.60    0.90
   3 -14   5    4.10    1.00
   3 -14   5    2.20    1.00
   3  14   5    3.60    1.10
   3 -15  -5  201.58    8.90
  -3 -15   5  209.48    9.00
  -3 -15   5  199.98    9.20
  -3  15   5  213.78    9.00
   3  15  -5  202.38    8.90
   3  15  -5  207.58    8.90
  -3  15   5  209.78    9.10
  -2 -15   5   48.80    2.80
  -2 -15   5   44.40    2.80
  -2 -15   5   51.19    3.30
  -2 -15   5   50.49    3.20
   2  15  -5   51.79    2.90
  -2  15   5   46.00    3.40
  -2  15   5   46.90    2.80
  -2  15   5   47.90    2.80
  -2  15   5   47.90    3.00
  -1 -15   5  131.99    6.20
  -1 -15   5  129.89    6.20
  -1 -15   5  127.99    6.40
  -1 -15   5  132.09    6.70
  -1  15   5  138.39    6.80
  -1  15   5  139.89    6.20
  -1  15   5  132.59    6.30
  -1  15   5  130.09    6.20
   0 -15   5  225.58   10.70
   1 -15   5    5.40    1.30
   1 -15   5    5.00    1.20
   1  15   5    4.80    1.40
   1  15   5    2.60    1.40
   1  15   5    5.10    1.40
   2 -15   5   39.70    2.20
   2 -15   5   36.20    2.40
   2  15   5   36.10    2.50
   2  15   5   42.10    2.50
   2  15   5   35.50    2.70
   3 -15   5   48.20    2.40
   3 -15   5   51.29    2.40
   3  15   5   49.90    2.60
   3  15   5   53.39    2.50
  -3 -16   5   -1.00    1.00
   3 -16  -5    0.10    0.80
  -3 -16   5    0.50    1.10
  -3  16   5    0.00    0.70
   3  16  -5    1.50    0.70
   3  16  -5    1.20    0.80
  -3  16   5    2.10    1.30
  -2 -16   5   26.90    2.40
  -2 -16   5   23.50    1.90
  -2 -16   5   23.20    2.10
  -2 -16   5   24.00    2.30
  -2  16   5   24.80    2.00
  -2  16   5   23.30    2.20
  -2  16   5   22.80    1.90
  -2  16   5   22.50    2.70
   2  16  -5   22.20    2.00
  -1 -16   5   43.30    3.30
  -1 -16   5   42.90    2.60
  -1 -16   5   44.80    2.70
  -1 -16   5   43.80    3.10
  -1  16   5   41.70    2.80
  -1  16   5   43.40    2.60
  -1  16   5   43.50    2.70
  -1  16   5   46.20    3.30
   0 -16   5    0.50    1.10
   0 -16   5    1.10    1.10
   0 -16   5    1.00    1.20
   0 -16   5   -0.40    2.10
   0  16   5    2.00    0.90
   0  16   5    1.90    1.20
   0  16   5    1.90    1.30
   0  16   5    0.50    0.90
   1 -16   5    0.20    1.10
   1 -16   5    1.80    1.00
   1  16   5    1.90    1.20
   1  16   5    1.10    1.00
   1  16   5    1.70    1.40
   2 -16   5   20.30    1.70
   2 -16   5   18.50    1.50
   2  16   5   19.50    1.90
   2  16   5   23.60    1.80
   3 -16   5   11.20    1.00
   3 -16   5    8.40    0.90
   3  16   5   10.80    1.20
  -3 -17   5   43.00    2.50
   3  17  -5   42.00    2.20
  -3  17   5   40.30    2.20
   3  17  -5   46.00    2.20
  -2 -17   5    3.80    1.10
  -2 -17   5    6.00    1.80
  -2 -17   5    3.30    1.20
  -2 -17   5    4.10    1.50
  -2  17   5    3.20    1.00
  -2  17   5    2.40    1.60
   2  17  -5    4.30    1.30
  -2  17   5    3.70    1.20
  -2  17   5    5.70    1.70
  -1 -17   5   15.50    2.40
  -1 -17   5   16.70    1.80
  -1 -17   5   18.40    1.80
  -1 -17   5   18.40    2.20
  -1  17   5   16.60    2.00
  -1  17   5   17.10    2.20
  -1  17   5   18.40    1.90
  -1  17   5   19.50    1.70
   0 -17   5  178.88    8.30
   0 -17   5  183.38    8.20
   0 -17   5  184.68    9.00
   0 -17   5  179.98    8.50
   0  17   5  186.08    8.40
   0  17   5  184.98    8.30
   0  17   5  187.48    8.80
   0  17   5  191.58    8.30
   1 -17   5   19.10    1.90
   1 -17   5   20.10    2.50
   1 -17   5   20.90    1.70
   1  17   5   21.30    1.90
   1  17   5   20.30    2.10
   1  17   5   20.90    2.40
   2 -17   5   49.60    2.60
   2 -17   5   52.29    2.70
   2 -17   5   49.80    2.50
   2  17   5   55.79    3.10
   2  17   5   52.39    2.90
   3  17   5   55.59    2.70
  -3 -18   5   59.69    3.10
   3  18  -5   59.59    2.90
   3  18  -5   61.19    2.80
  -3  18   5   58.09    2.90
  -2 -18   5   45.60    2.90
  -2 -18   5   44.40    3.10
  -2 -18   5   46.80    2.60
  -2 -18   5   40.70    2.80
   2  18  -5   43.70    2.60
  -2  18   5   43.00    3.30
  -2  18   5   41.50    2.60
  -2  18   5   45.90    2.80
  -2  18   5   44.30    2.60
  -1 -18   5   49.30    2.80
  -1 -18   5   49.90    3.50
  -1 -18   5   49.50    3.20
  -1 -18   5   47.80    2.90
  -1  18   5   54.19    2.90
  -1  18   5   51.09    2.90
  -1  18   5   50.99    3.50
  -1  18   5   49.30    3.10
   0 -18   5   11.90    3.20
   0 -18   5    9.40    1.50
   0 -18   5   10.00    1.70
   0 -18   5   10.40    2.30
   0  18   5   10.70    1.80
   0  18   5   14.00    2.10
   0  18   5   13.90    1.60
   0  18   5   11.80    1.90
   1 -18   5  172.08    8.00
   1 -18   5  188.28    9.30
   1 -18   5  181.28    8.10
   1 -18   5  192.78    8.00
   1  18   5  176.58    8.40
   1  18   5  180.58    8.60
   1  18   5  179.78    8.20
   2 -18   5  109.69    4.80
   2 -18   5  107.49    4.70
   2 -18   5   98.09    4.80
   2  18   5  104.79    5.00
   2  18   5  112.09    5.60
   2  18   5  100.29    5.20
  -3 -19   5    0.90    0.90
  -3 -19   5    2.20    1.40
   3  19  -5    1.90    0.70
  -3  19   5    2.80    0.70
   3  19  -5    3.80    0.80
  -2 -19   5   18.40    2.10
  -2 -19   5   19.20    1.70
  -2 -19   5   15.70    2.00
  -2  19   5   17.00    1.90
  -2  19   5   19.40    1.70
  -2  19   5   16.40    1.70
   2  19  -5   20.30    1.70
  -1 -19   5   14.30    2.10
  -1 -19   5   16.20    1.70
  -1 -19   5   16.10    1.70
  -1 -19   5   17.00    2.40
  -1  19   5   17.20    1.90
  -1  19   5   14.60    1.80
  -1  19   5   17.00    1.70
  -1  19   5   14.00    2.20
   0 -19   5    6.00    1.60
   0 -19   5    6.10    2.30
   0 -19   5    5.90    2.10
   0 -19   5    5.90    1.40
   0  19   5    5.90    1.90
   0  19   5    3.60    1.20
   0  19   5    6.40    1.40
   0  19   5    6.30    1.90
   1 -19   5    1.40    1.70
   1 -19   5    7.00    1.70
   1 -19   5    7.00    1.20
   1 -19   5    7.20    1.40
   1  19   5    6.00    1.30
   1  19   5    4.90    1.90
   1  19   5    4.80    1.20
   2 -19   5    8.60    1.30
   2 -19   5    7.30    1.00
   2 -19   5    7.80    1.10
   2  19   5    7.10    1.30
   2  19   5    8.20    1.40
  -3 -20   5    2.80    1.20
   3  20  -5    4.80    0.90
   3  20  -5    3.10    0.90
  -3  20   5    3.40    0.90
  -2 -20   5  328.17   14.60
  -2 -20   5  338.77   14.30
  -2 -20   5  338.97   14.40
  -2  20   5  337.97   14.30
  -2  20   5  330.37   14.40
  -2  20   5  303.37   14.30
   2  20  -5  340.47   14.30
  -1 -20   5   49.50    2.80
  -1 -20   5   50.79    3.50
  -1 -20   5   49.10    2.80
  -1 -20   5   45.50    3.10
  -1  20   5   46.20    2.90
  -1  20   5   52.59    2.90
  -1  20   5   52.49    3.30
   0 -20   5   12.60    2.20
   0 -20   5   14.50    1.70
   0 -20   5   14.40    1.60
   0 -20   5   18.90    3.20
   0  20   5   14.30    2.10
   0  20   5   17.50    2.00
   0  20   5   16.60    1.70
   0  20   5   15.40    1.80
   1 -20   5   38.20    2.50
   1 -20   5   38.20    2.30
   1 -20   5   41.10    2.20
   1 -20   5   39.00    3.20
   1  20   5   37.40    2.40
   1  20   5   38.50    2.60
   1  20   5   41.30    2.80
   2 -20   5   51.29    2.50
   2 -20   5   51.99    2.50
   2 -20   5   53.39    2.60
   2  20   5   53.19    2.80
   2  20   5   50.79    2.80
   2  20   5   44.90    3.10
  -3  21   5   34.40    1.70
   3  21  -5   27.10    2.00
   3  21  -5   29.70    1.70
  -2 -21   5    5.70    1.40
  -2 -21   5    5.50    1.70
  -2  21   5    4.00    1.40
   2  21  -5    5.10    1.10
  -2  21   5    2.60    1.20
  -2  21   5    6.30    1.30
  -1 -21   5   48.60    2.70
  -1 -21   5   48.20    3.40
  -1 -21   5   41.50    3.00
  -1 -21   5   51.79    2.80
  -1  21   5   48.30    2.80
  -1  21   5   48.10    2.90
  -1  21   5   48.90    2.70
  -1  21   5   48.60    3.30
   0 -21   5  266.27   11.40
   0 -21   5  263.17   11.70
   0 -21   5  264.87   11.50
   0  21   5  254.67   12.00
   0  21   5  257.57   11.60
   0  21   5  263.87   11.60
   0  21   5  276.07   11.60
   1 -21   5    1.40    0.90
   1 -21   5    0.70    1.40
   1 -21   5    0.20    0.80
   1 -21   5    1.00    1.10
   1  21   5    1.70    1.30
   1  21   5    1.70    1.10
   1  21   5    1.30    0.90
   2 -21   5  119.19    5.50
   2 -21   5  122.89    5.40
   2 -21   5  125.39    5.50
   2  21   5  124.39    5.70
   2  21   5  125.29    5.90
   2  21   5  129.39    6.40
   2  21   5  120.49    5.60
   3  22  -5   22.90    1.40
   3  22  -5   25.40    1.40
  -3  22   5   24.20    1.40
  -2 -22   5   48.70    3.00
  -2 -22   5   41.70    2.70
  -2  22   5   42.30    2.70
  -2  22   5   46.40    2.50
  -2  22   5   46.30    2.80
  -1 -22   5   12.40    1.50
  -1 -22   5    9.50    2.00
  -1 -22   5   12.30    2.20
  -1 -22   5   11.80    1.50
  -1  22   5   12.60    2.00
  -1  22   5   12.50    1.60
  -1  22   5   13.40    1.70
  -1  22   5   13.00    1.70
   0 -22   5   12.60    1.60
   0 -22   5   12.50    1.40
   0 -22   5    7.50    1.90
   0  22   5   10.40    1.60
   0  22   5   10.40    1.60
   0  22   5   10.50    1.90
   0  22   5   11.70    1.80
   1 -22   5  110.99    5.20
   1 -22   5  113.79    5.20
   1 -22   5  113.39    5.70
   1 -22   5  118.39    5.10
   1  22   5  119.69    5.40
   1  22   5  111.39    5.70
   1  22   5  103.39    5.30
   2 -22   5    8.00    1.00
   2 -22   5   10.90    1.10
   2 -22   5    9.60    1.00
   2  22   5    9.30    1.30
   2  22   5    7.40    1.80
   2  22   5    8.80    1.40
   3  23  -5  188.18    8.80
   3  23  -5  200.08    8.70
  -3  23   5  227.98    8.80
  -2 -23   5    5.40    1.60
  -2 -23   5    7.00    1.30
  -2  23   5    5.60    1.70
  -2  23   5    9.00    1.40
  -2  23   5    7.20    1.40
   2  23  -5    6.90    1.20
  -1 -23   5    5.00    1.10
  -1 -23   5    4.80    1.60
  -1 -23   5    2.60    1.10
  -1 -23   5    6.40    1.40
  -1  23   5    4.50    1.50
  -1  23   5    5.40    1.80
  -1  23   5    6.10    1.40
  -1  23   5    5.30    1.50
   0 -23   5   12.80    1.40
   0 -23   5    7.80    1.90
   0 -23   5   11.80    1.50
   0  23   5   11.70    1.90
   0  23   5   10.60    1.40
   0  23   5   14.00    1.80
   0  23   5   13.40    1.70
   1 -23   5   29.40    2.00
   1 -23   5   26.60    1.70
   1 -23   5   28.70    1.80
   1  23   5   28.90    2.10
   1  23   5   24.00    1.90
   1  23   5   29.90    2.30
   2 -23   5   41.00    2.10
   2 -23   5   38.20    2.10
   2 -23   5   42.50    2.00
   2  23   5   33.10    2.70
   2  23   5   43.10    2.60
   2  23   5   41.60    2.30
   2  23   5   42.40    2.40
  -2 -24   5   67.59    3.70
  -2 -24   5   68.09    3.30
  -2 -24   5   67.59    3.50
  -2  24   5   66.99    3.30
  -2  24   5   64.69    3.60
  -2  24   5   66.19    3.40
   2  24  -5   68.69    3.30
  -1 -24   5   47.50    2.90
  -1 -24   5   48.80    2.70
  -1 -24   5   48.40    3.20
  -1 -24   5   47.60    2.60
  -1  24   5   43.80    3.10
  -1  24   5   44.10    2.70
  -1  24   5   46.30    2.70
  -1  24   5   46.10    2.70
   0 -24   5    4.50    1.00
   0 -24   5    2.90    1.10
   0 -24   5    4.30    1.00
   0  24   5    1.40    0.80
   0  24   5    1.90    1.00
   0  24   5    1.60    1.20
   0  24   5    3.50    1.10
   1 -24   5  471.65   19.40
   1 -24   5  458.55   19.50
   1 -24   5  451.05   19.30
   1  24   5  463.55   19.50
   1  24   5  457.65   19.80
   1  24   5  431.06   19.50
   2 -24   5   99.39    4.60
   2 -24   5  101.89    4.60
   2 -24   5  105.89    4.60
   2  24   5  109.39    4.80
   2  24   5  104.09    5.10
   2  24   5  106.99    4.80
   2  24   5  102.59    4.90
  -2 -25   5   10.10    1.50
  -2 -25   5   12.30    1.30
  -2 -25   5    7.10    1.60
  -2  25   5   11.30    1.40
  -2  25   5   10.10    1.20
   2  25  -5   11.20    1.20
  -1 -25   5    5.10    1.20
  -1 -25   5    3.60    1.10
  -1 -25   5    6.60    1.30
  -1  25   5    3.70    1.30
  -1  25   5    4.20    1.00
  -1  25   5    6.30    1.50
  -1  25   5    6.20    1.40
   0 -25   5   15.10    1.40
   0 -25   5   12.10    1.30
   0  25   5   11.70    1.60
   0  25   5   10.40    1.40
   0  25   5   10.10    1.80
   0  25   5   10.30    1.60
   1 -25   5   25.60    1.50
   1 -25   5   23.90    1.70
   1 -25   5   24.90    1.70
   1  25   5   23.30    1.80
   1  25   5   24.70    2.10
   1  25   5   24.00    1.90
   2 -25   5   65.89    3.10
   2 -25   5   71.09    3.10
   2 -25   5   66.59    3.10
   2  25   5   74.09    3.30
   2  25   5   65.29    3.50
   2  25   5   71.49    3.40
   2  25   5   62.99    3.60
  -2 -26   5  297.27   13.30
  -2 -26   5  319.37   13.10
  -2 -26   5  293.17   13.00
  -2  26   5  310.47   13.00
  -2  26   5  307.87   13.10
   2  26  -5  296.57   13.00
  -1 -26   5   14.50    1.30
  -1 -26   5   15.50    2.10
  -1 -26   5   14.60    1.50
  -1 -26   5   12.40    1.80
  -1  26   5   13.80    1.50
  -1  26   5   12.60    1.50
  -1  26   5   13.30    1.60
  -1  26   5   11.30    1.90
   0 -26   5   11.40    1.90
   0 -26   5   14.70    1.40
   0 -26   5   16.10    1.50
   0  26   5   14.10    1.60
   0  26   5   18.90    1.70
   0  26   5   13.80    1.50
   0  26   5   16.10    1.90
   1 -26   5  191.18    8.90
   1 -26   5  205.48    9.20
   1 -26   5  217.68    9.10
   1  26   5  223.58    9.20
   1  26   5  195.18    9.10
   2 -26   5  174.68    7.90
   2 -26   5  181.98    7.90
   2 -26   5  182.68    7.90
   2  26   5  188.78    8.00
   2  26   5  184.28    8.00
   2  26   5  190.28    8.10
   2  26   5  185.08    8.10
  -2 -27   5    2.50    0.80
  -2 -27   5    3.30    1.00
  -2  27   5    2.80    0.80
   2  27  -5    3.50    0.80
  -2  27   5    2.00    0.70
  -1 -27   5  149.09    6.60
  -1 -27   5  154.28    6.70
  -1 -27   5  152.98    6.90
  -1  27   5  152.18    6.80
  -1  27   5  152.08    6.70
  -1  27   5  136.79    6.70
   0 -27   5  279.57   11.80
   0 -27   5  284.57   12.00
   0 -27   5  285.47   11.90
   0  27   5  270.37   11.90
   0  27   5  254.07   11.90
   0  27   5  266.17   12.20
   0  27   5  279.37   11.90
   1 -27   5   66.99    3.20
   1 -27   5   68.49    3.10
   1 -27   5   64.19    3.60
   1 -27   5   65.59    3.20
   1  27   5   65.29    3.30
   1  27   5   65.29    3.40
   1  27   5   71.19    3.70
   2 -27   5   75.69    3.60
  -2 -27  -5   73.29    3.80
   2 -27   5   68.49    3.30
   2 -27   5   75.19    3.40
   2  27   5   74.79    3.60
   2  27   5   77.99    3.50
   2  27   5   77.29    3.60
   2  27   5   75.69    3.60
  -2 -28   5    6.90    1.20
  -2 -28   5    5.20    1.40
  -2 -28   5    7.70    1.10
  -2  28   5    5.90    1.30
   2  28  -5    8.20    1.00
  -2  28   5    8.90    1.10
  -1 -28   5    0.70    1.30
  -1 -28   5    0.80    1.00
  -1  28   5    0.50    1.10
  -1  28   5   -0.10    1.10
   0 -28   5    4.60    1.10
   0 -28   5    5.50    1.10
   0 -28   5    1.70    0.90
   0 -28   5    4.00    0.90
   0  28   5    7.40    1.40
   0  28   5    4.20    1.30
   0  28   5    5.60    1.40
   0  28   5    3.00    1.10
   1 -28   5   32.10    1.70
   1 -28   5   30.20    1.60
   1 -28   5   29.00    1.70
   1 -28   5   23.10    2.30
   1  28   5   31.00    1.90
   1  28   5   31.20    2.20
   1  28   5   28.70    1.90
   2 -28   5   10.40    0.90
   2 -28   5   10.20    0.90
  -2 -28  -5   11.00    1.70
   2 -28   5    9.50    0.80
   2  28   5   11.60    1.50
   2  28   5    8.90    1.20
   2  28   5   10.00    1.10
  -2 -29   5   18.20    1.40
   2 -29  -5   18.50    1.40
  -2 -29   5   19.60    1.50
  -2 -29   5   16.20    1.70
   2  29  -5   18.50    1.30
  -2  29   5   19.60    1.50
  -2  29   5   18.20    1.40
  -1 -29   5   58.29    2.90
  -1 -29   5   60.59    2.90
  -1 -29   5   62.29    3.10
  -1 -29   5   59.59    3.30
  -1  29   5   57.99    3.00
  -1  29   5   57.39    3.00
  -1  29   5   54.19    3.30
  -1  29   5   56.39    3.30
   0 -29   5  102.79    5.20
   0 -29   5   88.79    4.30
   0  29   5   95.09    4.50
   0  29   5   90.39    4.50
   1 -29   5   24.30    1.40
   1 -29   5   21.60    1.40
   1 -29   5   24.10    1.50
   1 -29   5   17.10    2.30
   1  29   5   20.70    1.60
   1  29   5   20.90    1.70
   1  29   5   23.20    1.80
  -2 -29  -5    9.40    1.70
   2 -29   5   12.30    0.90
   2 -29   5   11.20    0.90
   2 -29   5   10.80    0.80
   2  29   5   11.80    1.10
  -2 -30   5  411.86   17.20
  -2 -30   5  424.16   17.30
  -2 -30   5  413.86   17.50
  -2  30   5  406.36   17.30
   2  30  -5  385.16   17.30
  -1 -30   5   20.80    1.90
  -1 -30   5   19.70    1.40
  -1 -30   5   21.50    1.50
  -1 -30   5   22.20    1.80
  -1  30   5   21.60    2.00
  -1  30   5   20.50    1.60
  -1  30   5   17.90    1.90
  -1  30   5   20.50    1.60
   0 -30   5    4.40    0.90
   0 -30   5    1.80    0.80
   0 -30   5    5.00    1.20
   0 -30   5    3.00    0.80
   0  30   5    2.70    1.10
   0  30   5    3.40    0.80
   0  30   5    4.10    1.30
   0  30   5    4.20    0.90
   1 -30   5    4.70    0.80
   1 -30   5    6.00    0.90
   1 -30   5    4.80    0.90
   1  30   5    3.40    1.10
   1  30   5    2.90    0.80
   1  30   5    4.60    1.20
  -2 -31   5   24.50    1.70
   2 -31  -5   25.70    1.60
  -2 -31   5   27.80    1.90
  -2 -31   5   25.60    1.60
   2  31  -5   26.90    1.50
  -2  31   5   29.30    2.10
  -1 -31   5   32.70    2.10
  -1 -31   5   31.20    2.30
  -1 -31   5   34.20    1.90
  -1 -31   5   35.00    1.80
  -1  31   5   33.20    2.00
  -1  31   5   30.00    2.30
  -1  31   5   34.30    2.00
   0 -31   5    1.70    0.70
   0 -31   5    1.90    0.80
   0 -31   5    4.50    1.00
   0  31   5    2.40    0.80
   0  31  -5    3.90    1.20
   0  31   5    2.50    0.70
   0  31   5    3.10    1.10
   0  31   5    2.00    1.00
   1 -31   5   36.80    1.90
   1 -31   5   38.50    2.00
   1 -31   5   40.30    2.00
   1  31   5   38.90    2.10
   1  31   5   39.40    2.20
   1  31   5   36.70    2.30
   2 -32  -5    6.70    1.10
  -2 -32   5    7.20    1.00
  -2 -32   5    8.30    1.40
  -2  32   5    9.50    1.00
   2  32  -5    7.40    0.80
  -1 -32   5  231.98    9.60
  -1 -32   5  206.18    9.50
  -1 -32   5  230.38    9.70
  -1 -32   5  230.08    9.80
  -1  32   5  225.48    9.60
  -1  32   5  222.08    9.60
  -1  32   5  203.98    9.80
   0 -32   5    4.40    1.30
   0 -32   5    5.70    0.80
   0 -32  -5    6.10    1.10
   0 -32   5    3.70    1.00
   0  32   5    5.60    1.20
   0  32   5    4.40    1.30
   0  32   5    4.90    1.50
   0  32  -5    6.30    1.50
   1 -32   5  197.08    9.10
   1 -32   5  210.78    9.10
   1 -32   5  220.78    9.10
   1  32   5  221.88    9.30
   1  32   5  216.18    9.20
   1  32   5  212.88    9.40
  -1 -33   5  284.67   12.20
  -1 -33   5  283.87   12.00
   1 -33  -5  282.47   12.00
  -1 -33   5  257.87   12.00
  -1 -33   5  295.67   12.10
  -1  33   5  281.27   12.00
   0 -33  -5   62.29    3.00
   0 -33   5   60.59    2.80
   0 -33   5   61.89    2.90
   0 -33   5   63.79    3.10
   0  33   5   53.99    3.10
   0  33  -5   58.39    3.00
   0  33   5   63.09    3.00
   0  33   5   58.89    3.20
   1 -33   5    1.50    0.70
   1 -33   5    2.90    0.70
   1 -33   5    3.60    0.80
   1  33   5    2.90    1.00
   1  33   5    2.00    1.10
   1  33   5    3.60    1.00
   1 -34  -5    1.30    0.50
  -1 -34   5    2.10    1.20
  -1 -34   5    1.50    0.60
  -1 -34   5    1.10    0.60
  -1 -34   5    2.20    0.70
  -1  34   5    0.60    1.20
  -1  34   5    2.10    0.80
   0 -34   5    2.10    0.70
   0 -34  -5    1.80    0.60
   0 -34   5    1.90    0.60
   0 -34   5    2.60    0.60
   0  34  -5    4.80    1.20
   0  34   5    5.20    1.40
   0  34   5    3.70    1.00
   0  34   5    2.90    0.80
   1 -34   5   93.29    4.10
   1 -34   5   91.49    4.10
   1 -34   5   93.69    4.10
   1  34   5   89.89    4.30
   1  34   5   94.89    4.20
  -1 -35   5   30.10    2.10
   1 -35  -5   34.20    1.70
  -1 -35   5   28.60    1.60
  -1 -35   5   33.90    1.80
   0 -35   5  191.88    7.90
   0 -35   5  186.28    7.80
   0 -35  -5  194.78    7.90
   0 -35   5  158.78    7.80
   0  35  -5  182.18    7.80
   0  35   5  187.48    7.90
   0  35   5  166.28    8.00
   1 -35   5    0.50    0.40
   1 -35   5    0.90    0.50
   1  35   5    0.50    0.70
   1  35   5    1.40    0.70
  -1 -36   5   11.80    1.10
  -1 -36   5   15.60    1.30
   1 -36  -5   14.00    1.50
  -1 -36   5   17.50    1.40
  -1  36   5   16.60    1.40
   0 -36   5   37.30    1.90
   0 -36  -5   35.30    2.00
   0 -36   5   31.00    2.10
   0 -36   5   31.10    1.70
   0  36   5   34.00    1.80
   0  36  -5   33.20    1.90
   0  36   5   28.00    1.90
   0 -37   5    3.10    1.00
   0 -37  -5    1.30    0.50
   0 -37   5    1.10    0.50
   0 -37   5    0.40    0.60
   0  37  -5    2.10    1.10
   0  37   5    1.40    0.80
   0  37   5    1.00    0.80
  -3   0   6    1.70    0.90
  -2   0   6    5.90    1.20
  -2   0   6    5.60    2.00
  -2   0   6    7.50    1.30
  -1   0   6   -0.70    0.70
  -1   0   6    0.50    0.90
  -1   0   6    0.40    1.10
  -1   0   6    0.50    1.20
   0   0   6  275.97   12.30
   0   0   6  268.67   11.90
   0   0   6  270.57   12.00
   3  -1  -6   47.30    2.30
  -3  -1   6   46.10    2.40
   3   1  -6   47.60    2.50
  -3   1   6   46.40    2.40
  -2  -1   6    2.10    0.90
  -2  -1   6    1.90    1.40
  -2  -1   6    2.10    0.90
  -2   1   6    2.20    0.90
  -2   1   6    1.70    1.00
  -1  -1   6   65.59    3.90
  -1  -1   6   70.79    3.50
  -1  -1   6   68.89    3.60
  -1  -1   6   68.39    3.60
  -1   1   6   68.29    3.70
  -1   1   6   64.49    3.90
  -1   1   6   65.69    3.50
  -1   1   6   69.99    3.60
   0  -1   6  762.32   32.90
   0  -1   6  756.42   32.80
   0  -1   6  770.22   33.20
   0   1   6  796.02   33.00
   0   1   6  801.52   33.30
   0   1   6  770.92   32.90
   3  -2  -6   34.60    1.70
  -3  -2   6   33.90    2.00
   3   2  -6   31.70    1.80
  -3   2   6   35.80    2.00
  -2  -2   6  366.36   16.40
   2  -2  -6  390.76   16.40
  -2  -2   6  404.26   17.10
  -2  -2   6  364.76   17.30
  -2  -2   6  389.16   16.40
  -2   2   6  405.66   17.10
  -2   2   6  367.86   16.50
  -1  -2   6   13.10    1.70
  -1  -2   6   12.90    1.60
  -1  -2   6   11.80    1.60
  -1  -2   6   11.30    2.00
  -1   2   6   12.40    1.50
  -1   2   6   13.60    1.60
  -1   2   6   11.00    1.80
   0  -2   6   69.29    3.80
   0  -2   6   63.49    3.60
   0  -2   6   68.49    3.60
   0   2   6   65.49    3.50
   0   2   6   62.99    3.80
   0   2   6   66.39    3.50
   3  -3  -6    0.20    0.50
  -3  -3   6    0.10    0.90
   3   3  -6    0.30    0.50
  -3   3   6   -0.40    1.00
  -2  -3   6   34.10    2.50
   2  -3  -6   32.10    1.90
  -2  -3   6   31.20    2.00
  -2  -3   6   30.40    2.00
  -2   3   6   31.40    2.30
  -2   3   6   30.30    2.00
  -1  -3   6    1.00    1.20
  -1  -3   6    0.10    1.10
  -1  -3   6    1.90    1.00
  -1  -3   6    0.70    0.70
  -1   3   6    0.30    0.70
  -1   3   6    1.30    1.00
  -1   3   6    1.70    1.00
   0  -3   6    3.20    0.90
   0  -3   6    1.70    1.10
   0  -3   6    4.00    1.30
   0   3   6    4.90    1.60
   0   3   6    2.90    1.00
   0   3   6    2.80    0.90
   1   3   6  489.75   22.10
  -3  -4   6   62.79    3.00
   3  -4  -6   62.39    2.80
   3   4  -6   57.19    2.80
  -3   4   6   61.59    3.00
  -2  -4   6   12.70    1.40
   2  -4  -6   13.00    1.40
  -2  -4   6   13.60    1.40
  -2  -4   6   15.30    1.60
  -2   4   6   15.20    1.60
  -2   4   6   13.40    1.80
  -2   4   6   13.10    2.00
  -2   4   6   15.60    1.40
  -1  -4   6  110.49    5.60
  -1  -4   6  106.39    5.20
  -1  -4   6  108.49    5.20
  -1  -4   6  113.89    5.10
  -1   4   6  105.69    5.10
  -1   4   6  109.29    5.20
  -1   4   6  105.59    5.50
   0  -4   6   74.49    3.90
   0  -4   6   74.29    4.20
   0   4   6   79.19    4.30
   0   4   6   73.19    3.80
   0   4   6   73.59    3.90
   1   4   6  213.78    9.80
   1   4   6  229.18   10.30
   3  -5  -6  172.68    7.10
  -3  -5   6  168.18    7.80
  -3   5   6  167.58    7.20
   3   5  -6  152.38    7.20
  -2  -5   6   24.30    1.80
  -2  -5   6   27.10    1.80
  -2  -5   6   23.10    1.90
   2  -5  -6   28.40    1.80
  -2   5   6   24.80    1.70
  -2   5   6   25.90    2.00
  -2   5   6   24.10    2.00
  -2   5   6   24.30    1.80
  -1  -5   6   20.30    2.10
  -1  -5   6   19.00    1.90
  -1  -5   6   20.10    1.80
  -1  -5   6   20.20    1.80
  -1   5   6   20.60    2.00
  -1   5   6   18.40    1.80
  -1   5   6   19.40    1.60
  -1   5   6   18.70    2.30
   0  -5   6   49.20    2.90
   0  -5   6   52.79    3.00
   0  -5   6   50.69    3.20
   0   5   6   52.89    3.00
   0   5   6   48.40    3.20
   0   5   6   49.20    2.80
   1   5   6    7.70    1.80
   1   5   6    9.20    2.20
  -3  -6   6   17.80    1.90
   3  -6  -6   22.00    1.30
  -2  -6   6   25.60    1.80
  -2  -6   6   26.30    1.90
  -2  -6   6   28.30    3.00
  -2  -6   6   27.00    1.80
   2  -6  -6   26.10    1.80
  -2   6   6   27.10    2.00
  -2   6   6   25.30    2.10
  -2   6   6   26.20    1.90
  -2   6   6   27.20    1.80
  -1  -6   6    1.20    0.70
  -1  -6   6    2.90    1.20
  -1  -6   6    1.10    1.20
  -1  -6   6    0.70    0.90
  -1   6   6    0.80    0.80
  -1   6   6    3.80    1.50
  -1   6   6    1.90    0.80
  -1   6   6    1.50    0.90
   0  -6   6    6.90    1.50
   0  -6   6    9.50    1.60
   0  -6   6    6.20    1.80
   0   6   6    7.80    1.40
   0   6   6   10.00    2.10
   0   6   6    9.20    1.80
   0   6   6    8.30    1.60
   1   6   6    5.60    1.70
   1   6   6    8.10    2.10
  -3  -7   6   16.00    1.60
   3  -7  -6   19.00    1.20
   3   7  -6   20.20    1.20
  -2  -7   6    4.30    1.30
  -2  -7   6    4.10    1.20
  -2  -7   6    3.40    0.90
  -2  -7   6    4.50    1.40
   2  -7  -6    3.00    1.00
  -2   7   6    2.30    1.00
  -2   7   6    3.20    0.80
  -2   7   6    4.60    1.40
  -2   7   6    4.20    1.10
  -1  -7   6    3.00    0.80
  -1  -7   6    1.60    1.20
  -1  -7   6    1.60    1.20
  -1  -7   6    2.30    0.90
  -1   7   6    0.90    1.00
  -1   7   6    6.30    1.90
  -1   7   6    1.40    0.80
  -1   7   6    1.50    0.90
   0  -7   6  517.45   22.30
   0  -7   6  547.55   22.60
   0  -7   6  516.05   22.10
   0   7   6  524.85   22.20
   0   7   6  534.05   22.60
   0   7   6  512.75   22.30
   0   7   6  488.05   22.20
   1   7   6   21.70    3.20
   1   7   6   21.90    2.00
  -3  -8   6    9.30    1.50
   3   8  -6   10.20    0.80
  -3   8   6    8.70    1.30
  -2  -8   6  102.79    5.00
  -2  -8   6   97.79    4.70
  -2  -8   6  102.09    4.60
  -2  -8   6  104.39    4.80
  -2   8   6  100.99    4.70
  -2   8   6   98.69    4.70
  -2   8   6  102.39    4.70
  -2   8   6   92.69    4.90
  -1  -8   6   53.29    2.90
  -1  -8   6   54.29    3.10
  -1  -8   6   53.29    3.30
  -1  -8   6   52.29    3.10
  -1   8   6   56.69    3.20
  -1   8   6   50.49    2.80
  -1   8   6   53.19    3.00
  -1   8   6   58.29    3.40
   0  -8   6   26.90    2.50
   0  -8   6   22.40    2.00
   0  -8   6   25.00    2.00
   0   8   6   22.50    1.80
   0   8   6   27.50    2.40
   0   8   6   23.10    2.30
   0   8   6   25.10    2.00
   1   8   6  308.97   13.40
  -3  -9   6    0.40    1.20
   3   9  -6    0.60    0.50
  -3   9   6    0.80    0.80
  -2  -9   6   75.49    3.60
  -2  -9   6   69.99    3.80
  -2  -9   6   72.19    3.40
  -2  -9   6   68.29    3.50
  -2   9   6   68.89    3.60
  -2   9   6   73.29    3.50
  -2   9   6   70.69    3.80
  -2   9   6   68.49    3.50
  -1  -9   6   16.00    1.50
  -1  -9   6   12.40    2.00
  -1  -9   6   13.80    1.60
  -1  -9   6   12.10    1.80
  -1   9   6   14.30    1.60
  -1   9   6   13.70    1.80
  -1   9   6   11.00    1.30
  -1   9   6   13.50    1.90
   0  -9   6    0.10    0.80
   0  -9   6    1.30    1.30
   0  -9   6   -1.00    1.00
   0   9   6   -0.20    0.80
   0   9   6   -0.30    1.10
   0   9   6    0.40    0.90
   0   9   6    2.20    1.40
   1   9   6   33.10    2.20
  -2 -10   6   11.40    1.50
  -2 -10   6   11.80    1.20
  -2 -10   6    9.80    1.40
  -2 -10   6   10.80    1.50
  -2  10   6   11.50    1.30
  -2  10   6   10.70    1.40
  -2  10   6   10.10    1.60
  -2  10   6    9.70    1.40
  -1 -10   6   76.89    3.90
  -1 -10   6   75.29    3.70
  -1 -10   6   75.99    4.10
  -1  10   6   68.39    3.70
  -1  10   6   76.19    3.80
  -1  10   6   77.99    3.90
  -1  10   6   74.09    4.10
   0 -10   6   67.79    4.00
   0 -10   6   67.29    3.60
   0 -10   6   65.89    3.40
   0  10   6   67.69    3.80
   0  10   6   68.49    3.60
   0  10   6   62.49    3.40
   0  10   6   67.89    3.60
   1  10   6  120.79    6.30
   1  10   6  127.69    5.80
   1  10   6  131.89    6.60
  -2 -11   6    0.60    0.70
  -2 -11   6    0.10    0.90
  -2 -11   6   -0.10    0.70
  -2 -11   6    0.10    1.30
  -2  11   6    0.10    0.70
  -2  11   6    0.10    0.90
  -2  11   6    0.10    1.00
  -2  11   6    1.80    0.90
  -1 -11   6   54.49    3.30
  -1 -11   6   48.20    2.70
  -1 -11   6   54.19    3.00
  -1  11   6   54.29    2.90
  -1  11   6   52.89    3.30
  -1  11   6   55.99    3.00
  -1  11   6   46.50    2.80
   0 -11   6   35.90    2.40
   0 -11   6   36.20    2.80
   0 -11   6   33.50    2.20
   0  11   6   35.70    2.50
   0  11   6   35.80    2.30
   0  11   6   29.60    2.20
   0  11   6   34.50    2.60
   1 -11   6   44.70    2.50
   1  11   6   43.40    2.80
   1  11   6   43.10    2.60
   1  11   6   44.40    2.90
   2  11   6   24.60    2.60
  -2 -12   6   65.39    3.20
  -2 -12   6   62.89    3.10
  -2 -12   6   61.99    3.40
  -2 -12   6   63.59    3.20
  -2  12   6   62.09    3.10
  -2  12   6   65.39    3.10
  -2  12   6   57.99    3.40
  -2  12   6   64.59    3.20
  -1 -12   6  161.08    7.10
  -1 -12   6  159.98    7.40
  -1 -12   6  154.38    6.90
  -1  12   6  161.38    7.00
  -1  12   6  158.58    7.00
  -1  12   6  148.49    7.30
  -1  12   6  135.39    6.90
   0 -12   6    9.60    1.60
   0 -12   6   11.00    1.50
   0 -12   6   11.40    2.20
   0  12   6   11.80    1.70
   0  12   6   14.40    1.90
   0  12   6   13.40    1.60
   0  12   6   10.00    1.40
   1 -12   6   46.10    2.50
   1  12   6   49.00    2.70
   1  12   6   41.00    2.60
   1  12   6   44.80    2.90
  -2 -13   6    1.90    1.00
  -2 -13   6    2.20    0.70
  -2 -13   6    1.00    1.20
  -2 -13   6    2.00    0.80
  -2  13   6    2.20    1.00
  -2  13   6    3.40    1.20
  -2  13   6    3.10    1.00
  -2  13   6    4.40    1.20
  -1 -13   6  293.27   12.80
  -1 -13   6  291.47   12.70
  -1 -13   6  297.47   13.10
  -1  13   6  297.27   13.10
  -1  13   6  303.37   12.70
  -1  13   6  295.17   12.80
  -1  13   6  273.77   12.70
   0 -13   6   98.89    5.10
   0 -13   6   94.19    4.60
   0 -13   6   94.99    4.40
   0  13   6   92.59    4.60
   0  13   6   82.69    4.40
   0  13   6   95.99    4.90
   0  13   6   96.69    4.60
   1 -13   6    0.90    1.00
   1  13   6    1.50    1.00
   1  13   6    0.10    1.10
   1  13   6    0.80    1.00
  -2 -14   6   40.10    2.50
  -2 -14   6   42.50    2.40
  -2 -14   6   40.30    2.20
  -2  14   6   40.20    2.30
  -2  14   6   40.30    2.20
  -2  14   6   39.90    2.50
  -2  14   6   41.10    2.20
  -1 -14   6  134.29    6.20
  -1 -14   6  132.99    6.10
  -1 -14   6  138.29    6.50
  -1  14   6  138.69    6.20
  -1  14   6  125.59    6.10
  -1  14   6  141.09    6.20
  -1  14   6  132.89    6.50
   0 -14   6  132.59    6.10
   0 -14   6  134.89    6.20
   0 -14   6  144.09    6.70
   0  14   6  136.39    6.20
   0  14   6  138.49    6.20
   0  14   6  121.99    6.10
   0  14   6  131.89    6.50
   1 -14   6   66.19    3.20
   1  14   6   61.49    3.20
   1  14   6   61.89    3.50
   1  14   6   63.99    3.30
   2  14   6   22.60    2.10
  -2 -15   6   11.80    1.40
  -2 -15   6   12.20    1.40
  -2 -15   6   13.00    1.10
  -2  15   6   11.30    1.20
  -2  15   6   10.30    1.60
  -2  15   6   12.40    1.30
  -2  15   6   13.20    1.70
  -1 -15   6    6.30    1.10
  -1 -15   6    8.40    1.40
  -1 -15   6    8.00    1.70
  -1  15   6   10.50    1.40
  -1  15   6    7.40    1.60
  -1  15   6    4.80    1.40
  -1  15   6    8.60    1.20
   0 -15   6    1.00    0.80
   0 -15   6    1.00    2.30
   0 -15   6    1.10    0.90
   0  15   6    3.50    1.50
   0  15   6    0.90    0.80
   0  15   6    1.60    1.10
   0  15   6    1.00    0.80
   1 -15   6    6.00    1.30
   1 -15   6    7.00    1.80
   1  15   6    7.10    1.50
   1  15   6    5.60    1.30
   1  15   6    7.70    1.40
   2  15   6    8.50    1.20
  -2 -16   6  382.66   16.60
  -2 -16   6  398.26   16.90
  -2 -16   6  402.36   16.70
  -2  16   6  339.47   16.70
  -2  16   6  404.96   16.70
  -2  16   6  401.06   16.70
  -2  16   6  404.86   16.60
  -1 -16   6    0.50    0.80
  -1 -16   6    1.30    1.30
  -1 -16   6    0.30    0.70
  -1 -16   6    1.00    1.30
  -1  16   6   -0.60    0.80
  -1  16   6    0.70    1.10
  -1  16   6    0.90    1.00
  -1  16   6   -0.10    0.70
   0 -16   6    7.80    1.50
   0 -16   6   10.00    2.10
   0 -16   6    9.60    1.50
   0 -16   6    7.30    1.30
   0  16   6    8.70    1.40
   0  16   6    5.30    1.20
   0  16   6    9.70    1.50
   0  16   6   11.80    1.60
   1 -16   6    2.80    0.90
   1 -16   6    2.50    0.90
   1  16   6    3.50    1.00
   1  16   6    3.30    1.40
   1  16   6    3.40    1.00
   2  16   6   73.99    3.50
  -2 -17   6    4.70    1.20
  -2 -17   6    5.20    0.90
  -2  17   6    5.50    1.40
  -2  17   6    3.90    1.00
  -2  17   6    5.80    1.10
  -2  17   6    6.20    1.10
  -1 -17   6    1.30    0.90
  -1 -17   6    1.10    1.00
  -1 -17   6    1.20    1.10
  -1  17   6   -0.30    0.80
  -1  17   6   -0.90    1.00
  -1  17   6    0.30    1.00
   0 -17   6   21.40    1.60
   0 -17   6   20.20    1.50
   0 -17   6   18.80    2.40
   0 -17   6   18.60    1.80
   0  17   6   15.30    1.50
   0  17   6   25.50    1.80
   0  17   6   22.80    2.40
   0  17   6   19.40    1.90
   1 -17   6   49.50    2.50
   1 -17   6   50.19    2.60
   1  17   6   47.80    2.90
   1  17   6   53.09    2.70
   1  17   6   51.19    2.70
   2  17   6   42.90    2.30
  -2 -18   6    0.80    0.80
  -2 -18   6    0.20    0.60
  -2 -18   6    1.50    0.60
  -2  18   6    1.30    0.60
  -2  18   6    0.20    0.60
  -2  18   6    0.10    0.90
   2  18  -6   -0.50    1.40
  -2  18   6    2.00    1.50
  -1 -18   6   12.70    1.60
  -1 -18   6   14.80    1.70
  -1 -18   6   15.60    1.50
  -1 -18   6   15.90    1.30
  -1  18   6   14.40    1.40
  -1  18   6   14.90    1.60
  -1  18   6   14.10    1.40
  -1  18   6   13.00    1.60
   0 -18   6   56.29    2.60
   0  18   6   45.40    2.60
   0  18   6   45.60    3.10
   0  18   6   47.10    2.90
   0  18   6   54.19    3.00
   1 -18   6   22.80    1.50
   1 -18   6   23.00    1.50
   1  18   6   21.60    1.70
   1  18   6   23.70    1.70
   1  18   6   20.50    1.80
   2  18   6    4.10    1.10
  -2 -19   6    2.40    0.70
  -2 -19   6    4.40    0.80
  -2 -19   6    3.50    1.00
  -2  19   6    4.10    1.10
  -2  19   6    2.30    1.50
   2  19  -6    4.90    1.00
  -2  19   6    5.30    1.20
  -2  19   6    4.70    0.90
  -1 -19   6  234.78    9.90
  -1 -19   6  234.38   10.00
  -1 -19   6  231.18    9.90
  -1 -19   6  235.18   10.20
  -1  19   6  220.08   10.00
  -1  19   6  229.68    9.90
  -1  19   6  217.98   10.20
  -1  19   6  224.88   10.00
   0 -19   6    6.00    1.20
   0 -19   6    5.50    1.10
   0  19   6    7.50    1.40
   0  19   6    6.90    1.30
   0  19   6    5.60    1.10
   1 -19   6   31.20    1.80
   1 -19   6   32.40    1.80
   1  19   6   32.30    2.00
   1  19   6   31.10    2.10
   1  19   6   31.70    2.00
   2  19   6    4.00    1.10
  -2 -20   6  179.48    7.90
  -2 -20   6  184.58    7.80
  -2 -20   6  176.38    7.70
   2  20  -6  180.48    7.70
  -2  20   6  170.38    7.80
  -2  20   6  177.88    7.80
  -2  20   6  173.98    7.70
  -1 -20   6   13.90    1.20
  -1 -20   6   13.80    1.70
  -1 -20   6   14.10    1.30
  -1  20   6   12.80    1.30
  -1  20   6   12.70    1.30
  -1  20   6   11.90    1.50
  -1  20   6   12.50    1.30
   0 -20   6    5.20    1.10
   0 -20   6    5.30    1.10
   0  20   6    5.60    1.30
   0  20   6    5.00    1.10
   0  20   6    3.90    1.20
   0  20   6    5.60    1.40
   1 -20   6   23.10    1.50
   1 -20   6   24.50    1.50
   1  20   6   23.70    1.80
   1  20   6   24.30    1.80
   1  20   6   24.10    1.60
  -2 -21   6   30.80    1.90
  -2 -21   6   32.40    1.70
   2  21  -6   30.80    1.70
  -2  21   6   29.60    1.80
  -2  21   6   30.10    1.70
  -1 -21   6  104.29    4.90
  -1 -21   6  106.39    4.80
  -1 -21   6  106.29    5.10
  -1 -21   6  103.89    4.80
  -1  21   6  107.69    4.90
  -1  21   6  104.19    5.10
  -1  21   6  107.99    4.90
  -1  21   6  108.69    4.90
   0 -21   6    5.60    1.00
   0 -21   6    2.20    0.70
   0  21   6    3.80    1.20
   0  21   6    4.00    1.20
   0  21   6    3.50    1.10
   0  21   6    3.50    1.10
   1 -21   6    0.90    0.70
   1 -21   6    1.40    0.70
   1  21   6    1.10    0.90
   1  21   6    1.00    0.90
   1  21   6    1.10    0.70
  -2 -22   6   69.19    3.10
  -2 -22   6   68.19    3.20
  -2 -22   6   69.09    3.30
   2  22  -6   67.39    3.10
  -2  22   6   66.19    3.10
  -2  22   6   60.99    3.20
  -1 -22   6   67.89    3.20
  -1 -22   6   70.99    3.60
  -1 -22   6   67.49    3.40
  -1 -22   6   68.29    3.20
  -1  22   6   68.99    3.30
  -1  22   6   63.59    3.50
  -1  22   6   68.09    3.30
   0 -22   6    2.30    0.70
   0 -22   6    3.60    0.80
   0  22   6    1.90    0.80
   0  22   6    2.70    0.80
   0  22   6    2.00    0.80
   0  22   6    1.10    0.70
   1 -22   6   64.59    3.00
   1 -22   6   64.49    3.00
   1  22   6   66.89    3.20
   1  22   6   64.19    3.20
   1  22   6   64.59    3.30
  -2 -23   6   12.70    1.10
  -2 -23   6   11.90    1.30
  -2 -23   6   14.10    1.50
  -2  23   6   16.50    1.30
   2  23  -6   15.40    1.10
  -1 -23   6  153.98    6.90
  -1 -23   6  162.88    7.00
  -1 -23   6  164.78    7.10
  -1 -23   6  160.08    7.20
  -1  23   6  158.48    7.00
  -1  23   6  152.68    7.20
  -1  23   6  158.78    7.00
  -1  23   6  161.48    7.00
   0 -23   6   25.60    1.50
   0 -23   6   22.60    1.70
   0 -23   6   22.70    1.50
   0  23   6   22.60    1.70
   0  23   6   23.00    1.80
   0  23   6   22.90    1.60
   0  23   6   24.50    1.60
   1 -23   6    2.70    0.60
   1 -23   6    4.20    0.80
   1  23   6    2.20    0.80
   1  23   6    2.30    0.80
   1  23   6    2.90    0.70
  -2 -24   6   34.40    1.90
  -2 -24   6   32.80    1.80
  -2 -24   6   30.80    1.70
  -2  24   6   34.00    1.80
  -2  24   6   31.90    1.70
   2  24  -6   31.30    1.70
  -1 -24   6   35.00    2.10
  -1 -24   6   38.50    2.30
  -1 -24   6   37.20    2.00
  -1 -24   6   38.90    2.00
  -1  24   6   35.90    2.30
  -1  24   6   40.10    2.10
  -1  24   6   40.00    2.10
  -1  24   6   37.50    2.20
   0 -24   6    4.00    1.10
   0 -24   6    6.00    0.90
   0 -24   6    5.00    1.00
   0  24   6    5.90    1.20
   0  24   6    6.60    1.10
   0  24   6    7.50    1.20
   0  24   6    6.90    1.10
   1 -24   6   10.70    1.00
   1  24   6   10.90    1.20
   1  24   6   11.20    1.20
   1  24   6   10.30    1.10
  -1 -25   6   62.69    3.10
  -1 -25   6   64.89    2.90
  -1 -25   6   63.59    3.20
  -1 -25   6   61.89    2.90
  -1  25   6   62.09    3.00
  -1  25   6   66.49    3.00
  -1  25   6   63.79    3.10
  -1  25   6   54.19    3.20
   0 -25   6   91.29    4.10
   0 -25   6   84.29    4.10
   0 -25   6   86.89    4.00
   0  25   6   86.69    4.30
   0  25   6   89.19    4.10
   0  25   6   89.09    4.10
   0  25   6   90.29    4.10
   1 -25   6    7.40    0.80
   1 -25   6    7.60    0.80
   1  25   6    7.70    1.00
   1  25   6    7.40    1.20
   1  25   6    7.30    1.20
  -1 -26   6   10.80    1.20
  -1 -26   6   12.60    1.70
  -1 -26   6   13.40    1.10
  -1 -26   6   14.90    1.10
  -1  26   6   13.50    1.50
  -1  26   6   15.80    1.20
  -1  26   6   16.20    1.20
  -1  26   6   15.20    1.40
   0 -26   6   43.30    2.10
   0 -26   6   39.30    2.20
   0 -26   6   43.40    2.10
   0  26   6   43.00    2.30
   0  26   6   39.50    2.30
   0  26   6   40.10    2.20
   0  26   6   42.80    2.20
   1 -26   6   16.20    1.10
   1 -26   6   18.70    1.10
   1  26   6   19.50    1.50
   1  26   6   20.00    1.40
   1  26   6   20.10    1.30
  -1 -27   6   28.20    1.70
  -1 -27   6   30.70    2.00
  -1 -27   6   32.80    1.70
  -1 -27   6   32.60    1.80
  -1  27   6   33.00    2.10
  -1  27   6   33.70    1.80
  -1  27   6   32.60    1.80
   0 -27   6   55.69    2.70
   0 -27   6   53.79    2.60
   0 -27   6   56.89    2.80
   0  27   6   59.19    2.80
   0  27   6   55.59    2.80
   0  27   6   56.49    2.90
   0  27   6   58.29    2.80
   1 -27   6    0.10    0.50
   1 -27   6    0.30    0.50
   1  27   6    0.80    0.70
   1  27   6   -0.30    0.50
  -1 -28   6  104.49    4.50
  -1 -28   6   97.29    4.60
  -1 -28   6  103.29    4.50
  -1  28   6   97.99    4.40
  -1  28   6   86.69    4.50
  -1  28   6  105.39    4.40
   1  28  -6  100.39    4.40
   0 -28  -6    8.50    1.20
   0 -28   6    5.60    1.50
   0 -28   6    9.20    0.80
   0  28   6    9.50    1.10
   0  28   6    9.90    1.30
   0  28   6    9.60    1.10
   0  28   6    8.60    1.00
  -1 -29   6   92.29    4.00
  -1 -29   6   90.29    4.00
   1 -29  -6   87.49    4.00
  -1  29   6   89.59    4.00
  -1  29   6   88.39    4.00
   1  29  -6   88.99    3.90
   0 -29   6   54.69    2.50
   0 -29  -6   57.99    2.70
   0 -29   6   55.69    2.60
   0  29   6   50.49    2.80
   0  29   6   56.39    2.70
   0 -30   6    1.30    0.50
   0 -30   6    0.30    0.50
   0 -30   6    0.80    0.40
   0 -30  -6    2.90    0.90
   0  30   6    0.90    0.60
   0  30   6    1.10    0.70
  -2   0   7    0.20    0.50
  -2   0   7    0.30    0.60
  -1   0   7  232.08   10.10
  -1   0   7  228.28    9.90
  -1   0   7  224.28    9.90
   0   0   7    0.90    0.60
   0   0   7    0.60    0.90
  -2  -1   7    4.30    0.90
  -2  -1   7    3.20    0.90
  -2   1   7    5.20    0.90
  -2   1   7    4.20    0.90
  -1  -1   7   92.69    4.40
  -1  -1   7   97.79    4.60
  -1  -1   7   97.19    4.40
  -1   1   7   93.99    4.40
  -1   1   7   95.79    4.60
  -1   1   7   92.89    4.40
   0  -1   7   17.00    1.60
   0  -1   7   18.00    1.40
   0   1   7   18.80    1.60
   0   1   7   17.60    1.40
  -2  -2   7   35.80    2.00
  -2  -2   7   40.30    2.00
  -2   2   7   37.60    2.00
  -2   2   7   38.60    2.00
  -1  -2   7   66.49    3.40
  -1  -2   7   67.69    3.20
  -1  -2   7   66.79    3.40
  -1   2   7   71.29    3.30
  -1   2   7   62.09    3.40
  -1   2   7   66.69    3.20
   0  -2   7    0.90    0.60
   0  -2   7    0.90    0.80
   0   2   7    1.00    0.60
   0   2   7    1.20    0.80
  -2  -3   7   17.30    1.20
  -2  -3   7   16.70    1.20
  -2   3   7   15.80    1.30
  -2   3   7   16.10    1.20
  -1  -3   7   47.20    2.40
  -1  -3   7   45.70    2.60
  -1   3   7   46.80    2.40
  -1   3   7   50.29    2.50
  -1   3   7   46.90    2.60
   0  -3   7   70.29    3.40
   0  -3   7   71.39    3.60
   0   3   7   71.09    3.40
   0   3   7   69.69    3.60
  -2  -4   7    7.80    0.90
  -2  -4   7    6.30    0.90
  -2   4   7    6.00    0.90
  -2   4   7    8.20    0.90
   2   4  -7    8.50    1.10
  -1  -4   7   11.90    1.20
  -1  -4   7   12.10    1.10
  -1   4   7   13.10    1.30
  -1   4   7   10.50    1.10
  -1   4   7   11.80    1.30
   0  -4   7   19.30    1.40
   0  -4   7   19.30    1.70
   0   4   7   18.00    1.40
   0   4   7   17.70    1.90
   0   4   7   17.90    1.50
  -1  -5   7   53.79    2.60
  -1  -5   7   52.09    2.80
  -1   5   7   52.19    2.60
  -1   5   7   51.89    2.80
  -1   5   7   53.59    2.70
   0  -5   7    1.10    0.90
   0  -5   7    0.60    0.60
   0   5   7    0.30    0.60
   0   5   7    0.70    1.10
   0   5   7    0.40    0.80
  -1  -6   7    1.30    0.60
  -1  -6   7    1.30    0.50
  -1  -6   7    2.20    0.90
  -1   6   7    1.40    0.40
  -1   6   7    1.20    0.80
  -1   6   7    1.50    0.70
   0  -6   7    1.90    0.60
   0  -6   7    1.20    0.90
   0   6   7    0.80    1.10
   0   6   7    0.50    0.80
   0   6   7    1.90    0.60
  -1  -7   7   95.59    4.30
  -1  -7   7   97.39    4.50
  -1  -7   7   95.19    4.20
  -1   7   7   89.69    4.50
  -1   7   7   92.09    4.30
  -1   7   7   95.89    4.40
   0  -7   7   21.40    1.70
   0  -7   7   21.40    1.50
   0   7   7   20.10    1.70
   0   7   7   19.40    1.50
   0   7   7   20.20    1.60
  -1  -8   7   34.70    1.90
  -1  -8   7   36.50    2.10
  -1  -8   7   33.20    1.90
  -1   8   7   33.80    1.90
  -1   8   7   34.30    2.10
  -1   8   7   34.80    2.00
   0  -8   7    9.30    1.10
   0  -8   7    9.10    1.90
   0   8   7    9.20    1.10
   0   8   7    9.40    1.40
   0   8   7    8.50    1.10
  -1  -9   7   95.29    4.40
  -1  -9   7  101.59    4.40
  -1  -9   7   95.89    4.60
  -1   9   7   94.59    4.60
  -1   9   7   99.09    4.50
  -1   9   7   97.99    4.40
   0  -9   7   11.60    1.20
   0  -9   7   12.00    1.50
   0   9   7   11.60    1.20
   0   9   7   13.50    1.40
   0   9   7   13.10    1.20
  -1 -10   7   32.80    1.80
  -1 -10   7   34.40    1.80
  -1 -10   7   34.10    2.00
  -1  10   7   35.50    1.90
  -1  10   7   34.30    1.80
  -1  10   7   31.10    2.00
   0 -10   7   34.40    2.00
   0 -10   7   42.30    2.80
   0  10   7   33.90    2.10
   0  10   7   33.50    2.00
   0  10   7   34.10    2.10
  -1 -11   7    0.40    0.60
  -1 -11   7   -0.10    0.60
  -1  11   7    0.20    0.80
  -1  11   7    0.10    0.40
  -1  11   7    0.40    0.60
   0 -11   7   -0.20    0.60
   0  11   7    0.80    0.60
   0  11   7    1.30    0.90
   0  11   7    0.40    0.70
  -1 -12   7    2.10    0.60
  -1 -12   7    2.40    0.80
  -1  12   7    1.60    0.60
  -1  12   7    2.40    0.80
  -1  12   7    2.30    0.90
  -1  12   7    1.50    0.70
   0 -12   7   35.60    2.00
   0 -12   7   36.50    2.00
   0  12   7   37.10    2.20
   0  12   7   38.60    2.20
   0  12   7   38.30    2.20
  -1 -13   7   20.50    1.40
  -1 -13   7   26.00    1.40
  -1 -13   7   23.60    1.80
  -1  13   7   25.10    1.70
  -1  13   7   26.30    1.50
  -1  13   7   24.30    1.60
  -1  13   7   24.00    1.50
   0 -13   7    8.10    1.10
   0  13   7    6.20    1.10
   0  13   7    9.80    1.30
   0  13   7    6.50    1.20
   0  13   7    6.50    1.10
  -1 -14   7   45.50    2.40
  -1 -14   7   48.70    2.20
  -1 -14   7   45.00    2.30
  -1  14   7   47.50    2.30
  -1  14   7   45.60    2.40
  -1  14   7   46.30    2.40
  -1  14   7   45.60    2.30
   0 -14   7  140.59    6.00
   0 -14   7  129.89    5.90
   0  14   7  140.09    6.00
   0  14   7  131.49    5.90
   0  14   7  135.09    6.10
   0  14   7  137.49    6.00
  -1 -15   7  153.28    6.60
  -1 -15   7  150.38    6.80
  -1 -15   7  165.88    6.90
  -1  15   7  153.48    6.70
  -1  15   7  146.59    6.70
   0 -15   7  105.39    4.70
   0 -15   7  106.79    4.80
   0  15   7  106.49    4.90
   0  15   7  108.69    4.80
   0  15   7  111.09    4.80
   0  15   7  110.09    4.90
  -1 -16   7   43.80    2.10
  -1 -16   7   37.80    2.00
  -1 -16   7   40.80    1.90
  -1  16   7   41.20    2.00
  -1  16   7   38.10    2.10
  -1  16   7   40.40    2.10
   0 -16   7    0.90    0.60
   0  16   7    0.00    1.10
   0  16   7    0.60    0.60
   0  16   7    0.70    0.70
   0  16   7    0.40    0.80
   0 -17   7   68.89    3.10
   0 -17   7   64.69    3.10
   0  17   7   65.99    3.20
   0  17   7   70.49    3.10
   0  17   7   69.29    3.30
   0 -18   7   48.60    2.40
   0 -18   7   52.99    2.50
   0  18   7   52.89    2.60
   0  18   7   54.69    2.50
_computing_structure_solution     'SHELXT 2014/4 (Sheldrick, 2014)'
;
_shelx_hkl_checksum              77677
_shelx_res_file
;
    SKM155_0m_a.res created by SHELXL-2014/7
TITL SKM155_0m_a.res in P2(1)/n
CELL  1.54178   3.9098  40.7555   6.0917   90.000   93.748   90.000
ZERR    4.000   0.0001   0.0015   0.0002    0.000    0.001    0.000
LATT 1
SYMM 1/2-X, 1/2+Y, 1/2-Z
SFAC C  H  N  O  S  Cl
UNIT 40  24  4  8  4  4
REM Old TITL SKM155_0m in P2(1)/n
REM SHELXT solution in P2(1)/n
REM R1 0.098,  Rweak 0.006,  Alpha 0.022,  Orientation as input
REM Formula found by SHELXT:  C10 N O2 S Cl
L.S. 5
ACTA 138
BOND $H
CONF
EQIV $1 x+1/2, -y+1/2, z-1/2
HTAB N1 O2_$1
FMAP 2
PLAN 5
SIZE 0.096 0.132 0.357
TEMP -123
WGHT    0.039900    0.731900
FVAR       0.56495
CL1   6    0.107182    0.471508    0.794601    11.00000    0.03893    0.02590 =
         0.02624   -0.00617    0.00508    0.00532
S1    5    0.420072    0.310991    0.309384    11.00000    0.03088    0.01825 =
         0.01872    0.00075    0.00752   -0.00121
O1    4    0.893088    0.338693   -0.193286    11.00000    0.03949    0.02355 =
         0.02288    0.00108    0.01289   -0.00360
O2    4    0.448820    0.250531    0.146444    11.00000    0.05399    0.01825 =
         0.03003    0.00082    0.01467   -0.00521
N1    3    0.678301    0.291704   -0.050756    11.00000    0.03360    0.01768 =
         0.01980   -0.00126    0.00803   -0.00113
AFIX   3
H1    2    0.754629    0.277787   -0.153630    11.00000   -1.20000
AFIX   0
C1    1    0.475624    0.396106    0.319364    11.00000    0.02206    0.01872 =
         0.01865    0.00063   -0.00042    0.00026
C2    1    0.501051    0.429732    0.276098    11.00000    0.02774    0.02117 =
         0.01918    0.00236    0.00306   -0.00187
AFIX  43
H2    2    0.598861    0.436723    0.145263    11.00000   -1.20000
AFIX   0
C3    1    0.386842    0.453012    0.419722    11.00000    0.03171    0.01616 =
         0.02388    0.00076    0.00033   -0.00076
AFIX  43
H3    2    0.402929    0.475753    0.387736    11.00000   -1.20000
AFIX   0
C4    1    0.248865    0.442465    0.610708    11.00000    0.02361    0.02307 =
         0.02115   -0.00355    0.00013    0.00275
C5    1    0.219282    0.409459    0.659434    11.00000    0.02536    0.02527 =
         0.01906    0.00136    0.00427   -0.00049
AFIX  43
H5    2    0.123583    0.402744    0.791601    11.00000   -1.20000
AFIX   0
C6    1    0.330782    0.386263    0.513337    11.00000    0.02617    0.01873 =
         0.02093    0.00205    0.00204   -0.00064
AFIX  43
H6    2    0.308800    0.363565    0.544998    11.00000   -1.20000
AFIX   0
C7    1    0.602303    0.373545    0.157551    11.00000    0.02306    0.02228 =
         0.01778    0.00312    0.00305   -0.00086
AFIX  43
H7    2    0.711370    0.384124    0.041994    11.00000   -1.20000
AFIX   0
C8    1    0.594607    0.340919    0.140458    11.00000    0.02174    0.02171 =
         0.01587    0.00106    0.00266   -0.00021
C9    1    0.740421    0.324948   -0.053150    11.00000    0.02482    0.02095 =
         0.01877   -0.00026    0.00239    0.00055
C10   1    0.516364    0.279228    0.122783    11.00000    0.03090    0.02253 =
         0.02026    0.00099    0.00394   -0.00109
HKLF 4
REM  SKM155_0m_a.res in P2(1)/n
REM R1 =  0.0342 for    1815 Fo > 4sig(Fo)  and  0.0354 for all    1885 data
REM    136 parameters refined using      0 restraints
END
WGHT      0.0399      0.7349
REM Highest difference peak  0.215,  deepest hole -0.374,  1-sigma level  0.072
Q1    1   0.4695  0.4136  0.3018  11.00000  0.05    0.22
Q2    1   0.9207  0.3388  0.2577  11.00000  0.05    0.21
Q3    1   0.4773  0.2822 -0.1786  11.00000  0.05    0.21
Q4    1   0.3682  0.4946  0.1472  11.00000  0.05    0.20
Q5    1   0.1849  0.3113  0.2269  11.00000  0.05    0.20
;
_shelx_res_checksum              77784
loop_
_symmetry_equiv_pos_as_xyz
'x, y, z'
'-x+1/2, y+1/2, -z+1/2'
'-x, -y, -z'
'x-1/2, -y-1/2, z-1/2'
loop_
_atom_site_type_symbol
_atom_site_label
_atom_site_fract_x
_atom_site_fract_y
_atom_site_fract_z
_atom_site_U_iso_or_equiv
_atom_site_adp_type
_atom_site_calc_flag
_atom_site_occupancy
Cl Cl1 0.10718(14) 0.47151(2) 0.79460(8) 0.03023(16) Uani d 1
S S1 0.42007(12) 0.31099(2) 0.30938(7) 0.02236(15) Uani d 1
O O1 0.8931(4) 0.33869(3) -0.1933(2) 0.0282(3) Uani d 1
O O2 0.4488(4) 0.25053(3) 0.1464(2) 0.0336(4) Uani d 1
N N1 0.6783(4) 0.29170(4) -0.0508(3) 0.0234(4) Uani d 1
H H1 0.7546 0.2778 -0.1536 0.028 Uiso d 1
C C1 0.4756(5) 0.39611(4) 0.3194(3) 0.0199(4) Uani d 1
C C2 0.5011(5) 0.42973(5) 0.2761(3) 0.0226(4) Uani d 1
H H2 0.5989 0.4367 0.1453 0.027 Uiso calc 1
C C3 0.3868(5) 0.45301(5) 0.4197(3) 0.0240(4) Uani d 1
H H3 0.4029 0.4758 0.3877 0.029 Uiso calc 1
C C4 0.2489(5) 0.44247(5) 0.6107(3) 0.0227(4) Uani d 1
C C5 0.2193(5) 0.40946(5) 0.6594(3) 0.0231(4) Uani d 1
H H5 0.1236 0.4027 0.7916 0.028 Uiso calc 1
C C6 0.3308(5) 0.38626(5) 0.5133(3) 0.0219(4) Uani d 1
H H6 0.3088 0.3636 0.5450 0.026 Uiso calc 1
C C7 0.6023(5) 0.37354(5) 0.1576(3) 0.0210(4) Uani d 1
H H7 0.7114 0.3841 0.0420 0.025 Uiso calc 1
C C8 0.5946(5) 0.34092(4) 0.1405(3) 0.0197(4) Uani d 1
C C9 0.7404(5) 0.32495(5) -0.0532(3) 0.0215(4) Uani d 1
C C10 0.5164(5) 0.27923(5) 0.1228(3) 0.0245(4) Uani d 1
loop_
_atom_site_aniso_label
_atom_site_aniso_U_11
_atom_site_aniso_U_22
_atom_site_aniso_U_33
_atom_site_aniso_U_12
_atom_site_aniso_U_13
_atom_site_aniso_U_23
Cl1 0.0389(3) 0.0259(3) 0.0262(3) 0.00532(19) 0.0051(2) -0.00617(17)
S1 0.0309(3) 0.0182(2) 0.0187(3) -0.00121(17) 0.00752(18) 0.00075(15)
O1 0.0395(8) 0.0235(7) 0.0229(7) -0.0036(6) 0.0129(6) 0.0011(5)
O2 0.0540(10) 0.0182(7) 0.0300(8) -0.0052(6) 0.0147(7) 0.0008(6)
N1 0.0336(9) 0.0177(8) 0.0198(8) -0.0011(6) 0.0080(7) -0.0013(6)
C1 0.0221(9) 0.0187(9) 0.0187(9) 0.0003(7) -0.0004(7) 0.0006(7)
C2 0.0277(9) 0.0212(9) 0.0192(9) -0.0019(7) 0.0031(7) 0.0024(7)
C3 0.0317(10) 0.0162(9) 0.0239(10) -0.0008(7) 0.0003(8) 0.0008(7)
C4 0.0236(9) 0.0231(9) 0.0211(9) 0.0028(7) 0.0001(7) -0.0035(7)
C5 0.0254(9) 0.0253(9) 0.0191(9) -0.0005(7) 0.0043(7) 0.0014(7)
C6 0.0262(9) 0.0187(9) 0.0209(9) -0.0006(7) 0.0020(7) 0.0021(7)
C7 0.0231(9) 0.0223(9) 0.0178(9) -0.0009(7) 0.0030(7) 0.0031(7)
C8 0.0217(9) 0.0217(9) 0.0159(9) -0.0002(7) 0.0027(7) 0.0011(7)
C9 0.0248(9) 0.0210(9) 0.0188(9) 0.0006(7) 0.0024(7) -0.0003(7)
C10 0.0309(10) 0.0225(10) 0.0203(9) -0.0011(8) 0.0039(8) 0.0010(7)
loop_
_atom_type_symbol
_atom_type_description
_atom_type_scat_dispersion_real
_atom_type_scat_dispersion_imag
_atom_type_scat_source
C C 0.0181 0.0091 'International Tables Vol C Tables 4.2.6.8 and 6.1.1.4'
H H 0.0000 0.0000 'International Tables Vol C Tables 4.2.6.8 and 6.1.1.4'
N N 0.0311 0.0180 'International Tables Vol C Tables 4.2.6.8 and 6.1.1.4'
O O 0.0492 0.0322 'International Tables Vol C Tables 4.2.6.8 and 6.1.1.4'
S S 0.3331 0.5567 'International Tables Vol C Tables 4.2.6.8 and 6.1.1.4'
Cl Cl 0.3639 0.7018 'International Tables Vol C Tables 4.2.6.8 and 6.1.1.4'
loop_
_geom_angle_atom_site_label_1
_geom_angle_atom_site_label_2
_geom_angle_atom_site_label_3
_geom_angle
C8 S1 C10 91.39(9)
C10 N1 C9 117.76(16)
C10 N1 H1 119.4
C9 N1 H1 122.7
C2 C1 C6 118.44(17)
C2 C1 C7 117.29(17)
C6 C1 C7 124.27(17)
C3 C2 C1 121.47(18)
C3 C2 H2 119.3
C1 C2 H2 119.3
C4 C3 C2 118.59(17)
C4 C3 H3 120.7
C2 C3 H3 120.7
C3 C4 C5 121.69(17)
C3 C4 Cl1 119.15(15)
C5 C4 Cl1 119.16(15)
C4 C5 C6 119.36(18)
C4 C5 H5 120.3
C6 C5 H5 120.3
C5 C6 C1 120.44(17)
C5 C6 H6 119.8
C1 C6 H6 119.8
C8 C7 C1 132.41(17)
C8 C7 H7 113.8
C1 C7 H7 113.8
C7 C8 C9 119.25(16)
C7 C8 S1 130.70(15)
C9 C8 S1 110.01(13)
O1 C9 N1 123.94(17)
O1 C9 C8 125.93(17)
N1 C9 C8 110.12(15)
O2 C10 N1 124.62(18)
O2 C10 S1 124.78(15)
N1 C10 S1 110.60(14)
loop_
_geom_bond_atom_site_label_1
_geom_bond_atom_site_label_2
_geom_bond_distance
Cl1 C4 1.7447(19)
S1 C8 1.7619(18)
S1 C10 1.779(2)
O1 C9 1.211(2)
O2 C10 1.210(2)
N1 C10 1.365(2)
N1 C9 1.377(2)
N1 H1 0.9099
C1 C2 1.400(3)
C1 C6 1.402(3)
C1 C7 1.458(3)
C2 C3 1.384(3)
C2 H2 0.9500
C3 C4 1.383(3)
C3 H3 0.9500
C4 C5 1.384(3)
C5 C6 1.388(3)
C5 H5 0.9500
C6 H6 0.9500
C7 C8 1.334(3)
C7 H7 0.9500
C8 C9 1.493(2)
loop_
_geom_hbond_atom_site_label_D
_geom_hbond_atom_site_label_H
_geom_hbond_atom_site_label_A
_geom_hbond_site_symmetry_A
_geom_hbond_distance_DH
_geom_hbond_distance_HA
_geom_hbond_distance_DA
_geom_hbond_angle_DHA
N1 H1 O2 4_665 0.91 1.87 2.782(2) 175
loop_
_geom_torsion_atom_site_label_1
_geom_torsion_atom_site_label_2
_geom_torsion_atom_site_label_3
_geom_torsion_atom_site_label_4
_geom_torsion
C6 C1 C2 C3 0.0(3)
C7 C1 C2 C3 179.82(18)
C1 C2 C3 C4 0.8(3)
C2 C3 C4 C5 -0.8(3)
C2 C3 C4 Cl1 179.45(15)
C3 C4 C5 C6 0.0(3)
Cl1 C4 C5 C6 179.82(15)
C4 C5 C6 C1 0.7(3)
C2 C1 C6 C5 -0.7(3)
C7 C1 C6 C5 179.44(18)
C2 C1 C7 C8 -174.5(2)
C6 C1 C7 C8 5.3(3)
C1 C7 C8 C9 178.05(19)
C1 C7 C8 S1 0.7(3)
C10 S1 C8 C7 174.7(2)
C10 S1 C8 C9 -2.85(15)
C10 N1 C9 O1 177.09(19)
C10 N1 C9 C8 -2.6(2)
C7 C8 C9 O1 6.0(3)
S1 C8 C9 O1 -176.14(17)
C7 C8 C9 N1 -174.27(17)
S1 C8 C9 N1 3.6(2)
C9 N1 C10 O2 -179.3(2)
C9 N1 C10 S1 0.5(2)
C8 S1 C10 O2 -178.7(2)
C8 S1 C10 N1 1.49(15)

_cod_database_fobs_code 1543532
