#------------------------------------------------------------------------------
#$Date: 2016-06-18 04:39:45 +0300 (Sat, 18 Jun 2016) $
#$Revision: 183684 $
#$URL: file:///home/coder/svn-repositories/cod/cif/1/54/34/1543472.cif $
#------------------------------------------------------------------------------
#
# This file is available in the Crystallography Open Database (COD),
# http://www.crystallography.net/. The original data for this entry
# were provided by IUCr Journals, http://journals.iucr.org/.
#
# The file may be used within the scientific community so long as
# proper attribution is given to the journal article from which the
# data were obtained.
#
data_1543472
loop_
_publ_author_name
'Khalid, Karrouchi'
'Tachallait, Hamza'
'Khalid, Bougrin'
'Mague, Joel T.'
'Ramli, Youssef'
_publ_section_title
;
 Ethyl
 2-[(5<i>Z</i>)-5-(4-methylbenzylidene)-2,4-dioxo-1,3-thiazolidin-3-yl]acetate
;
_journal_coeditor_code           HB4050
_journal_issue                   6
_journal_name_full               IUCrData
_journal_page_first              x160851
_journal_paper_doi               10.1107/S2414314616008518
_journal_volume                  1
_journal_year                    2016
_chemical_formula_iupac          'C15 H15 N O4 S'
_chemical_formula_moiety         'C15 H15 N O4 S'
_chemical_formula_sum            'C15 H15 N O4 S'
_chemical_formula_weight         305.34
_chemical_name_systematic
;
Ethyl
2-[(5<i>Z</i>)-5-(4-methylbenzylidene)-2,4-dioxo-1,3-thiazolidin-3-yl]acetate
;
_space_group_crystal_system      triclinic
_space_group_IT_number           2
_space_group_name_Hall           '-P 1'
_space_group_name_H-M_alt        'P -1'
_symmetry_space_group_name_Hall  '-P 1'
_symmetry_space_group_name_H-M   'P -1'
_atom_sites_solution_hydrogens   mixed
_atom_sites_solution_primary     direct
_atom_sites_solution_secondary   difmap
_audit_creation_method           SHELXL-2014/7
_cell_angle_alpha                87.3540(10)
_cell_angle_beta                 82.3810(10)
_cell_angle_gamma                85.2830(10)
_cell_formula_units_Z            2
_cell_length_a                   4.73100(10)
_cell_length_b                   11.9082(3)
_cell_length_c                   13.2907(4)
_cell_measurement_reflns_used    5760
_cell_measurement_temperature    150.(2)
_cell_measurement_theta_max      74.5161
_cell_measurement_theta_min      3.3571
_cell_volume                     739.17(3)
_computing_cell_refinement
;
<i>SAINT</i> (Bruker, 2016)
;
_computing_data_collection
;
<i>APEX3</i> (Bruker, 2016)
;
_computing_data_reduction
;
<i>SAINT</i>  (Bruker, 2016) and <i>CELL_NOW</i> (Sheldrick,
2008)
;
_computing_molecular_graphics
;
<i>DIAMOND</i> (Brandenburg & Putz, 2012)
;
_computing_publication_material
;
<i>SHELXTL</i> (Sheldrick, 2008)
;
_computing_structure_refinement
;
<i>SHELXL2014</i> (Sheldrick, 2015b)
;
_computing_structure_solution
;
<i>SHELXT</i> (Sheldrick, 2015a)
;
_diffrn_ambient_temperature      150(2)
_diffrn_detector_area_resol_mean 10.4167
_diffrn_measured_fraction_theta_full 0.972
_diffrn_measured_fraction_theta_max 0.938
_diffrn_measurement_device_type  'Bruker D8 VENTURE PHOTON 100 CMOS'
_diffrn_measurement_method       '\w scans'
_diffrn_radiation_monochromator  mirror
_diffrn_radiation_type           CuK\a
_diffrn_radiation_wavelength     1.54178
_diffrn_reflns_av_R_equivalents  0.0256
_diffrn_reflns_limit_h_max       5
_diffrn_reflns_limit_h_min       -5
_diffrn_reflns_limit_k_max       14
_diffrn_reflns_limit_k_min       -14
_diffrn_reflns_limit_l_max       12
_diffrn_reflns_limit_l_min       -15
_diffrn_reflns_number            11328
_diffrn_reflns_theta_full        67.000
_diffrn_reflns_theta_max         74.507
_diffrn_reflns_theta_min         3.727
_exptl_absorpt_coefficient_mu    2.088
_exptl_absorpt_correction_T_max  0.85
_exptl_absorpt_correction_T_min  0.54
_exptl_absorpt_correction_type   multi-scan
_exptl_absorpt_process_details
;
(<i>TWINABS</i>; Sheldrick, 2009)
;
_exptl_crystal_colour            colourless
_exptl_crystal_density_diffrn    1.372
_exptl_crystal_density_method    'not measured'
_exptl_crystal_description       column
_exptl_crystal_F_000             320
_exptl_crystal_size_max          0.190
_exptl_crystal_size_mid          0.080
_exptl_crystal_size_min          0.080
_refine_diff_density_max         0.223
_refine_diff_density_min         -0.274
_refine_ls_extinction_method     none
_refine_ls_goodness_of_fit_ref   1.067
_refine_ls_hydrogen_treatment    constr
_refine_ls_matrix_type           full
_refine_ls_number_parameters     192
_refine_ls_number_reflns         2825
_refine_ls_number_restraints     0
_refine_ls_restrained_S_all      1.067
_refine_ls_R_factor_all          0.0391
_refine_ls_R_factor_gt           0.0366
_refine_ls_shift/su_max          0.001
_refine_ls_shift/su_mean         0.000
_refine_ls_structure_factor_coef Fsqd
_refine_ls_weighting_details
'w=1/[\s^2^(Fo^2^)+(0.0496P)^2^+0.2900P] where P=(Fo^2^+2Fc^2^)/3'
_refine_ls_weighting_scheme      calc
_refine_ls_wR_factor_gt          0.0943
_refine_ls_wR_factor_ref         0.0956
_reflns_number_gt                2648
_reflns_number_total             2825
_reflns_threshold_expression     'I > 2\s(I)'
_cod_data_source_file            hb4050sup1.cif
_cod_data_source_block           I
_cod_database_code               1543472
_shelx_space_group_comment
;
The symmetry employed for this shelxl refinement is uniquely defined
by the following loop, which should always be used as a source of
symmetry information in preference to the above space-group names.
They are only intended as comments.
;
_shelx_estimated_absorpt_t_min   0.692
_shelx_estimated_absorpt_t_max   0.851
_shelx_hkl_file
;
   1   0   0  217.10    5.96
   2   0   0    0.50    0.17
   3   0   0  147.38    3.44
   4   0   0    2.74    0.20
   5   0   0    5.65    0.24
  -5   1   0    8.32    0.30
  -4   1   0    2.88    0.20
  -3   1   0   37.14    0.94
  -2   1   0   24.70    0.96
  -1   1   0  700.16   19.15
   0   1   0  260.07    7.13
   1   1   0  376.20   10.32
   2   1   0   73.50    1.62
   3   1   0    0.19    0.17
   4   1   0    1.61    0.24
   5   1   0    0.09    0.16
  -5   2   0    0.39    0.17
  -4   2   0    1.09    0.17
  -3   2   0    6.33    0.37
  -2   2   0    2.81    0.25
  -1   2   0   51.65    1.43
   0   2   0   16.58    0.47
   1   2   0   46.81    1.30
   2   2   0  155.55    4.08
   3   2   0   63.60    1.57
   4   2   0   21.64    0.61
   5   2   0   36.19    0.91
  -5   3   0    0.53    0.17
  -4   3   0    2.11    0.20
  -3   3   0   63.89    1.28
  -2   3   0   19.27    0.56
  -1   3   0    7.68    0.34
   0   3   0   63.32    1.75
   1   3   0  455.33   12.51
   2   3   0    8.92    0.24
   3   3   0    0.93    0.15
   4   3   0   32.10    0.85
   5   3   0   23.19    0.96
  -5   4   0   20.51    0.72
  -4   4   0   13.70    0.59
  -3   4   0   26.46    0.72
  -2   4   0   82.39    3.25
  -1   4   0   31.33    0.89
   0   4   0  330.04   12.85
   1   4   0   54.25    1.52
   2   4   0    1.70    0.12
   3   4   0    5.58    0.34
   4   4   0    1.14    0.22
   5   4   0    0.95    0.20
  -5   5   0    6.77    0.30
  -4   5   0   27.05    0.61
  -3   5   0    3.49    0.28
  -2   5   0  132.01    2.40
  -1   5   0  102.36    2.85
   0   5   0   49.22    1.39
   1   5   0   58.86    1.66
   2   5   0  379.78    9.95
   3   5   0  119.32    4.33
   4   5   0   43.94    1.71
   5   5   0   15.04    0.66
  -5   6   0    1.46    0.14
  -4   6   0    3.80    0.20
  -3   6   0   19.98    0.58
  -2   6   0   20.13    0.45
  -1   6   0    2.53    0.26
   0   6   0    0.22    0.09
   1   6   0   38.53    1.08
   2   6   0   42.83    1.20
   3   6   0   51.62    1.96
   4   6   0    0.78    0.24
   5   6   0    2.62    0.25
  -4   7   0    3.92    0.18
  -3   7   0    1.53    0.23
  -2   7   0   25.09    0.67
  -1   7   0   21.58    0.64
   0   7   0   24.29    1.08
   1   7   0   80.16    2.77
   2   7   0   15.49    0.48
   3   7   0    2.24    0.19
   4   7   0   41.82    1.11
   5   7   0   42.36    1.60
  -4   8   0   10.37    0.26
  -3   8   0   13.35    0.44
  -2   8   0    2.08    0.22
  -1   8   0    0.30    0.18
   0   8   0    1.60    0.21
   1   8   0    0.55    0.27
   2   8   0   37.58    1.01
   3   8   0    8.39    0.33
   4   8   0    5.58    0.25
  -4   9   0    1.75    0.13
  -3   9   0   13.74    0.34
  -2   9   0   36.23    0.92
  -1   9   0  267.82    4.86
   0   9   0  117.08    2.71
   1   9   0    3.66    0.24
   2   9   0    1.83    0.24
   3   9   0    6.65    0.30
   4   9   0    0.34    0.20
  -3  10   0    6.09    0.20
  -2  10   0   31.74    0.82
  -1  10   0  180.68    3.39
   0  10   0   80.06    1.90
   1  10   0   26.82    0.72
   2  10   0   24.68    1.07
   3  10   0    0.51    0.24
   4  10   0    8.12    0.37
  -3  11   0    8.90    0.28
  -2  11   0   12.29    0.39
  -1  11   0  100.73    1.93
   0  11   0    0.41    0.18
   1  11   0    4.57    0.25
   2  11   0   55.25    1.98
   3  11   0    4.15    0.28
   4  11   0    2.70    0.20
  -3  12   0    7.86    0.24
  -2  12   0    7.99    0.27
  -1  12   0    6.88    0.23
   0  12   0    1.16    0.17
   1  12   0    0.52    0.20
   2  12   0    0.87    0.28
   3  12   0   12.86    0.53
  -2  13   0    1.98    0.13
  -1  13   0   19.63    0.52
   0  13   0   15.58    0.36
   1  13   0   12.18    0.37
   2  13   0   12.87    0.54
   3  13   0    3.98    0.22
  -1  14   0    0.54    0.13
   0  14   0   12.30    0.35
   1  14   0    9.24    0.41
   2  14   0    1.12    0.15
  -2 -14   1    0.67    0.16
  -1 -14   1    0.84    0.15
   0 -14   1    4.31    0.26
   1 -14   1    0.06    0.16
  -3 -13   1    0.08    0.16
  -2 -13   1    0.24    0.20
  -1 -13   1   10.74    0.34
   0 -13   1    6.20    0.21
   1 -13   1    8.49    0.28
   2 -13   1    4.43    0.18
  -3 -12   1   66.86    2.30
  -2 -12   1   52.27    1.85
  -1 -12   1    8.43    0.31
   0 -12   1   19.60    0.45
   1 -12   1    3.43    0.21
   2 -12   1    8.84    0.29
   3 -12   1    0.18    0.14
  -4 -11   1    1.33    0.16
  -3 -11   1    8.64    0.42
  -2 -11   1   40.97    1.02
  -1 -11   1    0.37    0.21
   0 -11   1    6.68    0.25
   1 -11   1    6.89    0.26
   2 -11   1    7.05    0.29
   3 -11   1    9.70    0.30
  -4 -10   1    2.59    0.20
  -3 -10   1    8.56    0.44
  -2 -10   1    1.28    0.20
  -1 -10   1   35.61    0.91
   0 -10   1  250.21    4.65
   1 -10   1    7.75    0.27
   2 -10   1   38.52    0.97
   3 -10   1    0.20    0.14
  -4  -9   1    0.34    0.17
  -3  -9   1    7.27    0.31
  -2  -9   1   34.56    0.99
  -1  -9   1   34.56    1.30
   0  -9   1    2.40    0.22
   1  -9   1   31.54    0.68
   2  -9   1   79.56    1.86
   3  -9   1    4.80    0.20
   4  -9   1    0.91    0.13
  -4  -8   1   11.26    0.38
  -3  -8   1    0.36    0.22
  -2  -8   1   44.11    1.17
  -1  -8   1   17.62    0.75
   0  -8   1   38.22    0.95
   1  -8   1  140.72    3.23
   2  -8   1   21.02    0.59
   3  -8   1    2.50    0.18
   4  -8   1    6.12    0.24
  -4  -7   1   22.00    0.64
  -3  -7   1   52.21    1.99
  -2  -7   1   19.74    0.57
  -1  -7   1    8.35    0.33
   0  -7   1   27.07    1.20
   1  -7   1   21.30    0.81
   2  -7   1   23.29    0.63
   3  -7   1   38.18    0.77
   4  -7   1   10.69    0.29
  -5  -6   1   11.76    0.55
  -4  -6   1    3.53    0.21
  -3  -6   1    0.42    0.30
  -2  -6   1   11.79    0.54
  -1  -6   1   51.58    1.42
   0  -6   1  127.15    5.00
   1  -6   1   37.99    1.59
   2  -6   1   24.15    0.66
   3  -6   1    0.53    0.24
   4  -6   1   41.76    1.02
   5  -6   1   25.05    0.82
  -5  -5   1   30.99    1.22
  -4  -5   1    1.06    0.35
  -3  -5   1    4.89    0.33
  -2  -5   1  401.31   10.49
  -1  -5   1   37.66    0.86
   0  -5   1   88.36    2.46
   1  -5   1    7.35    0.28
   2  -5   1  559.69   13.82
   3  -5   1    2.22    0.25
   4  -5   1    0.33    0.18
   5  -5   1    1.14    0.14
  -5  -4   1   15.86    0.70
  -4  -4   1    3.73    0.31
  -3  -4   1   17.51    0.53
  -2  -4   1   48.54    1.10
  -1  -4   1   12.03    0.37
   0  -4   1  135.53    3.73
   1  -4   1    1.76    0.11
   2  -4   1   65.62    1.47
   3  -4   1    2.72    0.22
   4  -4   1    9.27    0.36
   5  -4   1    2.50    0.20
  -5  -3   1   17.50    0.75
  -4  -3   1   19.80    0.86
  -3  -3   1    1.16    0.17
  -2  -3   1    7.00    0.20
  -1  -3   1    4.14    0.15
   0  -3   1   34.76    0.98
   1  -3   1   66.07    1.83
   2  -3   1    4.50    0.27
   3  -3   1   21.10    0.49
   4  -3   1   91.06    2.18
   5  -3   1   36.94    1.22
  -5  -2   1   31.98    1.27
  -4  -2   1   91.88    1.81
  -3  -2   1   29.56    0.82
  -2  -2   1   37.61    0.84
  -1  -2   1  168.12    4.62
   0  -2   1    3.17    0.11
   1  -2   1    0.20    0.06
   2  -2   1  178.83    4.69
   3  -2   1   42.70    1.07
   4  -2   1   11.90    0.40
   5  -2   1    0.80    0.15
  -5  -1   1    0.59    0.18
  -4  -1   1    3.96    0.21
  -3  -1   1    5.03    0.21
  -2  -1   1   14.37    0.60
  -1  -1   1  603.74   16.52
   0  -1   1    0.17    0.02
   1  -1   1   14.15    0.41
   2  -1   1  155.24    3.38
   3  -1   1  128.37    3.01
   4  -1   1    1.77    0.19
   5  -1   1    7.74    0.28
  -5   0   1    3.28    0.20
  -4   0   1    6.51    0.26
  -3   0   1    5.54    0.25
  -2   0   1   32.93    1.24
   1   0   1   26.79    0.75
   2   0   1    3.03    0.11
   3   0   1    0.53    0.24
   4   0   1    8.56    0.33
   5   0   1   15.19    0.44
  -5   1   1    1.03    0.17
  -4   1   1    9.93    0.36
  -3   1   1   26.68    1.06
  -2   1   1   23.63    0.92
   0   1   1  124.20    3.42
   1   1   1   25.16    0.71
   2   1   1   18.64    0.44
   3   1   1   15.19    0.45
   4   1   1   19.03    0.55
   5   1   1   12.07    0.37
  -5   2   1    5.74    0.30
  -4   2   1   27.63    0.75
  -3   2   1    9.39    0.32
  -2   2   1    0.17    0.27
  -1   2   1   45.81    1.26
   0   2   1  686.31   18.81
   1   2   1  480.70   13.21
   2   2   1    1.50    0.11
   3   2   1  139.47    3.25
   4   2   1    0.48    0.18
   5   2   1    2.90    0.18
  -5   3   1    3.75    0.24
  -4   3   1   14.93    0.46
  -3   3   1   16.71    0.51
  -1   3   1   29.19    0.82
   0   3   1  184.37    5.07
   1   3   1  264.72    7.29
   2   3   1   39.14    0.89
   3   3   1   23.68    0.65
   4   3   1   73.69    1.78
   5   3   1    6.94    0.27
  -5   4   1    6.26    0.30
  -4   4   1    6.19    0.29
  -3   4   1   72.18    1.69
  -2   4   1   54.71    2.16
  -1   4   1    2.43    0.11
   0   4   1    8.61    0.27
   1   4   1  104.54    2.89
   2   4   1    3.15    0.14
   3   4   1    1.22    0.17
   4   4   1   38.72    0.99
   5   4   1   28.46    1.14
  -5   5   1    0.00    0.12
  -4   5   1    1.04    0.19
  -3   5   1    3.58    0.27
  -2   5   1    0.33    0.21
  -1   5   1    0.07    0.06
   0   5   1   19.39    0.82
   1   5   1  262.66    7.22
   2   5   1    2.93    0.18
   3   5   1    5.90    0.36
   4   5   1   19.44    0.59
   5   5   1   53.38    2.01
  -5   6   1    0.58    0.11
  -4   6   1    4.57    0.23
  -3   6   1  121.76    2.78
  -2   6   1   32.02    0.67
  -1   6   1   24.61    0.76
   0   6   1    0.80    0.13
   1   6   1  348.74   13.54
   2   6   1   13.31    0.42
   3   6   1   10.70    0.38
   4   6   1  135.00    3.34
   5   6   1    8.59    0.45
  -4   7   1    1.07    0.15
  -3   7   1   13.08    0.43
  -2   7   1    1.53    0.17
  -1   7   1    9.51    0.26
   0   7   1    4.76    0.36
   1   7   1    0.97    0.27
   2   7   1   18.37    0.55
   3   7   1   42.29    1.12
   4   7   1   26.12    0.73
   5   7   1    9.82    0.50
  -4   8   1    0.77    0.13
  -3   8   1   12.98    0.42
  -2   8   1   29.95    0.56
  -1   8   1    8.95    0.28
   0   8   1   37.29    0.77
   1   8   1  103.31    1.96
   2   8   1   43.83    1.60
   3   8   1   15.00    0.48
   4   8   1   22.64    0.65
  -4   9   1    6.79    0.22
  -3   9   1    1.30    0.18
  -2   9   1    7.51    0.32
  -1   9   1   25.09    0.55
   0   9   1    6.47    0.29
   1   9   1    2.71    0.19
   2   9   1    0.84    0.30
   3   9   1    8.74    0.46
   4   9   1    2.19    0.22
  -3  10   1   12.04    0.29
  -2  10   1   83.02    1.61
  -1  10   1    0.03    0.19
   0  10   1   38.30    0.97
   1  10   1    4.14    0.25
   2  10   1    3.43    0.31
   3  10   1    0.63    0.21
   4  10   1   17.37    0.67
  -3  11   1   17.73    0.37
  -2  11   1   17.01    0.49
  -1  11   1  147.35    2.78
   0  11   1    7.91    0.33
   1  11   1    3.54    0.24
   2  11   1   59.03    2.10
   3  11   1    5.91    0.33
   4  11   1    2.28    0.20
  -3  12   1    4.40    0.17
  -2  12   1    0.49    0.16
  -1  12   1    2.68    0.16
   0  12   1    1.47    0.17
   1  12   1    2.96    0.19
   2  12   1    0.95    0.21
   3  12   1    3.82    0.25
  -2  13   1    0.42    0.14
  -1  13   1    4.17    0.17
   0  13   1    1.85    0.14
   1  13   1    9.85    0.33
   2  13   1   35.12    1.27
   3  13   1   23.31    0.84
  -1  14   1    9.80    0.28
   0  14   1   12.96    0.30
   1  14   1    2.66    0.21
   2  14   1    0.00    0.18
  -2 -14   2   11.56    0.46
  -1 -14   2    0.34    0.18
   0 -14   2   49.53    1.57
   1 -14   2    0.56    0.16
  -2 -13   2    9.57    0.42
  -1 -13   2   36.29    0.89
   0 -13   2   13.68    0.41
   1 -13   2   12.17    0.35
   2 -13   2    6.71    0.22
  -3 -12   2    0.59    0.14
  -2 -12   2    0.60    0.17
  -1 -12   2    1.64    0.18
   0 -12   2    1.73    0.17
   1 -12   2    2.19    0.19
   2 -12   2    3.42    0.18
   3 -12   2    1.27    0.17
  -4 -11   2   14.33    0.54
  -3 -11   2   26.80    1.00
  -2 -11   2   17.08    0.49
  -1 -11   2    8.36    0.32
   0 -11   2    0.91    0.18
   1 -11   2   58.50    1.40
   2 -11   2   26.28    0.68
   3 -11   2   17.87    0.47
  -4 -10   2    4.27    0.24
  -3 -10   2   89.18    3.07
  -2 -10   2    1.14    0.24
  -1 -10   2    3.24    0.22
   0 -10   2  278.59    5.16
   1 -10   2    1.08    0.21
   2 -10   2    5.44    0.27
   3 -10   2    0.69    0.19
  -4  -9   2    0.63    0.15
  -3  -9   2    6.03    0.28
  -2  -9   2   20.42    0.62
  -1  -9   2  107.69    3.70
   0  -9   2   97.68    2.34
   1  -9   2    0.92    0.21
   2  -9   2   59.35    1.42
   3  -9   2   13.22    0.33
   4  -9   2    0.94    0.14
  -4  -8   2    6.94    0.28
  -3  -8   2    9.50    0.36
  -2  -8   2    2.70    0.22
  -1  -8   2   80.89    2.04
   0  -8   2  140.17    4.76
   1  -8   2    9.75    0.36
   2  -8   2   72.95    1.72
   3  -8   2   52.16    1.01
   4  -8   2    3.19    0.17
  -4  -7   2    0.46    0.20
  -3  -7   2   26.45    0.74
  -2  -7   2   24.50    0.67
  -1  -7   2    1.52    0.17
   1  -7   2   10.04    0.36
   2  -7   2    7.17    0.31
   3  -7   2    2.92    0.20
   4  -7   2   22.06    0.58
  -5  -6   2   21.75    0.81
  -4  -6   2   33.22    1.34
  -3  -6   2   26.95    0.74
  -2  -6   2   17.48    0.51
  -1  -6   2   92.85    2.48
   0  -6   2   18.18    0.56
   1  -6   2  162.86    6.40
   2  -6   2   36.45    0.91
   3  -6   2   27.81    0.60
   4  -6   2   12.50    0.39
   5  -6   2   26.29    0.85
  -5  -5   2    6.49    0.27
  -4  -5   2    0.64    0.18
  -3  -5   2    9.94    0.38
  -2  -5   2    0.70    0.18
  -1  -5   2    0.51    0.08
   0  -5   2  123.22    3.42
   1  -5   2   80.13    2.25
   2  -5   2   98.76    2.52
   3  -5   2   55.41    1.08
   4  -5   2    3.99    0.24
   5  -5   2    7.83    0.33
  -5  -4   2   13.37    0.60
  -4  -4   2   37.65    1.49
  -3  -4   2  192.43    3.70
  -2  -4   2  336.96    7.29
  -1  -4   2  170.81    3.73
   0  -4   2    6.05    0.21
   1  -4   2  287.36    7.88
   2  -4   2   58.46    1.67
   3  -4   2   16.80    0.41
   4  -4   2    9.65    0.30
   5  -4   2    5.90    0.29
  -5  -3   2    0.17    0.27
  -4  -3   2    0.86    0.23
  -3  -3   2    9.07    0.29
  -2  -3   2  273.21    5.91
  -1  -3   2   90.61    2.50
   0  -3   2   21.66    0.62
   1  -3   2  342.15    9.39
   2  -3   2  177.15    6.90
   3  -3   2    0.77    0.16
   4  -3   2   22.23    0.52
   5  -3   2   35.85    1.18
  -5  -2   2    0.31    0.28
  -4  -2   2   12.74    0.36
  -3  -2   2    3.49    0.19
  -2  -2   2   50.79    1.37
  -1  -2   2    2.97    0.11
   0  -2   2    8.83    0.27
   1  -2   2   36.14    1.02
   2  -2   2   66.58    2.63
   3  -2   2   66.51    1.31
   4  -2   2   14.93    0.47
   5  -2   2    1.52    0.16
  -5  -1   2   25.37    1.03
  -4  -1   2  112.26    2.19
  -3  -1   2   30.59    0.57
  -2  -1   2   15.60    0.64
  -1  -1   2  519.05   14.21
   0  -1   2  282.11    7.77
   1  -1   2   14.82    0.43
   2  -1   2    0.94    0.09
   3  -1   2   13.14    0.41
   4  -1   2    6.26    0.27
   5  -1   2    1.94    0.16
  -5   0   2    4.22    0.22
  -4   0   2   19.12    0.46
  -3   0   2    3.29    0.17
  -2   0   2   36.34    1.36
   0   0   2  105.30    4.10
   1   0   2    0.09    0.04
   2   0   2  181.75    4.99
   3   0   2   30.37    0.79
   4   0   2    4.55    0.24
   5   0   2   32.25    0.83
  -5   1   2    0.98    0.20
  -4   1   2    1.93    0.16
  -3   1   2    2.20    0.18
  -2   1   2    5.01    0.29
   0   1   2   21.93    0.61
   1   1   2  319.88   12.46
   2   1   2  500.54   10.86
   3   1   2   16.85    0.49
   4   1   2   53.62    1.33
   5   1   2    0.39    0.15
  -5   2   2    0.41    0.18
  -4   2   2   59.08    1.02
  -3   2   2   19.02    0.46
  -2   2   2  158.57    5.64
  -1   2   2    3.09    0.14
   0   2   2  943.91   25.84
   1   2   2  311.00    8.56
   2   2   2   38.36    1.05
   3   2   2    6.54    0.27
   4   2   2    4.48    0.24
   5   2   2   28.38    0.74
  -5   3   2    9.55    0.39
  -4   3   2    1.36    0.20
  -3   3   2    1.21    0.26
  -1   3   2    0.09    0.03
   0   3   2   33.92    0.95
   1   3   2   75.12    2.08
   2   3   2   25.05    0.71
   3   3   2  107.25    2.52
   4   3   2   29.92    0.79
   5   3   2    1.84    0.16
  -5   4   2   11.85    0.45
  -4   4   2    3.89    0.23
  -3   4   2    2.11    0.32
  -1   4   2   60.08    1.67
   0   4   2  393.77   10.82
   1   4   2   70.22    1.96
   2   4   2   14.55    0.38
   3   4   2   25.02    0.67
   4   4   2   10.09    0.35
   5   4   2    2.92    0.19
  -5   5   2    0.35    0.12
  -4   5   2   54.25    1.26
  -3   5   2   90.34    1.74
  -2   5   2    1.23    0.18
  -1   5   2  149.55    4.13
   0   5   2  156.71    4.32
   1   5   2   25.75    0.77
   2   5   2   68.65    1.86
   3   5   2    2.67    0.18
   4   5   2   27.76    0.74
   5   5   2    9.99    0.49
  -5   6   2    3.54    0.19
  -4   6   2   15.51    0.44
  -3   6   2  147.96    2.79
  -2   6   2    2.19    0.19
  -1   6   2    0.69    0.14
   0   6   2  143.51    5.63
   1   6   2  295.92   11.51
   2   6   2    9.54    0.34
   3   6   2   30.08    0.65
   4   6   2   40.58    1.08
   5   6   2    9.01    0.45
  -4   7   2    0.61    0.14
  -3   7   2    0.37    0.21
  -2   7   2   15.52    0.39
  -1   7   2   12.38    0.30
   0   7   2    3.46    0.25
   1   7   2   11.11    0.53
   2   7   2    1.45    0.20
   3   7   2    0.21    0.23
   4   7   2   23.95    0.68
   5   7   2    0.91    0.26
  -4   8   2    1.90    0.14
  -3   8   2    1.00    0.23
  -2   8   2   19.29    0.46
  -1   8   2    0.07    0.18
   0   8   2    1.18    0.17
   1   8   2    5.46    0.24
   2   8   2   32.45    1.22
   3   8   2   27.24    0.77
   4   8   2   22.14    0.63
  -4   9   2    9.38    0.27
  -3   9   2   32.77    0.83
  -2   9   2   37.09    0.67
  -1   9   2   11.53    0.32
   0   9   2   28.25    0.52
   1   9   2   60.92    1.20
   2   9   2    0.94    0.29
   3   9   2    2.99    0.28
   4   9   2    8.25    0.40
  -3  10   2    2.32    0.14
  -2  10   2   62.17    1.23
  -1  10   2   97.07    1.82
   0  10   2    2.60    0.23
   1  10   2    1.04    0.18
   2  10   2    3.30    0.30
   3  10   2    0.80    0.27
   4  10   2    4.24    0.28
  -3  11   2    0.85    0.11
  -2  11   2   61.52    1.21
  -1  11   2  139.93    2.58
   0  11   2   49.02    1.22
   1  11   2   30.25    0.80
   2  11   2    7.72    0.44
   3  11   2   23.16    0.90
   4  11   2   18.50    0.69
  -2  12   2   38.18    0.92
  -1  12   2   15.81    0.38
   0  12   2    8.77    0.33
   1  12   2   79.56    1.88
   2  12   2    3.37    0.27
   3  12   2    0.49    0.16
  -2  13   2    2.89    0.15
  -1  13   2    1.58    0.12
   0  13   2    0.99    0.14
   1  13   2    5.08    0.25
   2  13   2   10.32    0.47
   3  13   2    0.44    0.21
  -1  14   2   16.30    0.42
   0  14   2   19.02    0.40
   1  14   2   14.12    0.57
   2  14   2   19.32    0.72
  -1 -14   3    0.49    0.24
   0 -14   3   14.34    0.52
   1 -14   3   17.37    0.60
  -2 -13   3    0.01    0.20
  -1 -13   3   11.47    0.34
   0 -13   3    1.20    0.19
   1 -13   3   12.39    0.35
   2 -13   3    8.50    0.25
  -3 -12   3    9.46    0.40
  -2 -12   3   17.08    0.47
  -1 -12   3   23.13    0.61
   0 -12   3   22.19    0.61
   1 -12   3    2.57    0.20
   2 -12   3    4.38    0.20
  -3 -11   3    7.34    0.36
  -2 -11   3    6.91    0.27
  -1 -11   3   38.12    0.96
   0 -11   3    5.79    0.24
   1 -11   3   43.94    1.08
   2 -11   3    0.00    0.17
   3 -11   3    4.46    0.19
  -4 -10   3    0.67    0.13
  -3 -10   3   12.26    0.42
  -2 -10   3    1.66    0.25
  -1 -10   3    1.80    0.28
   0 -10   3   18.19    0.45
   1 -10   3   11.18    0.39
   2 -10   3   31.81    0.82
   3 -10   3    7.30    0.27
  -4  -9   3    2.37    0.16
  -3  -9   3    0.28    0.21
  -2  -9   3    3.93    0.25
  -1  -9   3  134.99    3.36
   0  -9   3   51.33    1.29
   1  -9   3   88.70    2.06
   2  -9   3    7.01    0.32
   3  -9   3    0.62    0.16
   4  -9   3   13.67    0.53
  -4  -8   3   10.44    0.35
  -3  -8   3   16.51    0.52
  -2  -8   3   44.35    0.92
  -1  -8   3    1.34    0.21
   0  -8   3  159.70    3.75
   1  -8   3  105.21    2.41
   2  -8   3    7.98    0.33
   3  -8   3    1.16    0.18
   4  -8   3    1.50    0.14
  -4  -7   3    0.78    0.15
  -3  -7   3   14.49    0.46
  -2  -7   3    4.00    0.23
  -1  -7   3   38.29    0.97
   0  -7   3  111.62    4.04
   1  -7   3   52.88    1.26
   2  -7   3   93.27    2.08
   3  -7   3   54.34    1.06
   4  -7   3   27.12    0.68
  -5  -6   3   12.62    0.40
  -4  -6   3    2.17    0.26
  -3  -6   3   19.13    0.56
  -2  -6   3   37.85    0.96
  -1  -6   3    0.24    0.14
   0  -6   3    2.04    0.19
   1  -6   3    5.62    0.28
   2  -6   3    1.61    0.19
   3  -6   3    1.25    0.20
   4  -6   3    0.25    0.16
   5  -6   3    1.97    0.15
  -5  -5   3    2.65    0.18
  -4  -5   3   21.17    0.92
  -3  -5   3    3.31    0.22
  -2  -5   3    1.18    0.15
  -1  -5   3    0.28    0.08
   0  -5   3    6.84    0.22
   1  -5   3   89.54    2.40
   2  -5   3   18.52    0.45
   3  -5   3   50.98    1.04
   4  -5   3   90.06    2.06
   5  -5   3    8.07    0.33
  -5  -4   3    0.81    0.23
  -4  -4   3    0.42    0.26
  -3  -4   3   95.15    1.88
  -2  -4   3   14.72    0.47
  -1  -4   3    9.28    0.31
   0  -4   3   31.43    0.91
   1  -4   3  544.68   11.82
   2  -4   3    1.62    0.26
   3  -4   3   13.69    0.36
   4  -4   3    7.99    0.27
   5  -4   3    3.04    0.21
  -5  -3   3   14.99    0.66
  -4  -3   3   21.80    0.65
  -3  -3   3   80.30    1.60
  -2  -3   3   56.69    1.26
  -1  -3   3  114.38    2.50
   0  -3   3    9.37    0.30
   1  -3   3    7.20    0.25
   2  -3   3    0.04    0.14
   3  -3   3    1.07    0.16
   4  -3   3    1.22    0.16
   5  -3   3    9.14    0.40
  -5  -2   3    2.93    0.29
  -4  -2   3    0.38    0.19
  -3  -2   3    1.05    0.16
  -2  -2   3   19.42    0.78
  -1  -2   3    7.16    0.23
   0  -2   3   15.59    0.46
   1  -2   3   58.57    1.64
   2  -2   3   71.79    2.85
   3  -2   3   22.44    0.51
   4  -2   3   62.39    1.25
   5  -2   3   50.89    1.24
  -5  -1   3    3.36    0.32
  -4  -1   3   25.04    0.49
  -3  -1   3   71.68    1.22
  -2  -1   3   77.75    2.82
  -1  -1   3   10.17    0.30
   0  -1   3   52.70    1.47
   1  -1   3  153.44    5.96
   2  -1   3   57.34    1.62
   3  -1   3    1.47    0.15
   4  -1   3    2.98    0.19
   5  -1   3    1.55    0.39
  -5   0   3   10.18    0.65
  -4   0   3    1.06    0.17
  -3   0   3   60.23    1.22
  -2   0   3  343.38   12.14
   0   0   3  107.95    4.33
   1   0   3  144.19    5.61
   2   0   3  131.76    3.64
   3   0   3    0.13    0.15
   4   0   3   14.76    0.46
   5   0   3    2.62    0.17
  -5   1   3    0.00    0.22
  -4   1   3    1.87    0.19
  -3   1   3    5.66    0.23
  -2   1   3   11.33    0.51
   0   1   3    0.19    0.04
   1   1   3  259.37   10.13
   2   1   3    2.11    0.13
   3   1   3    0.03    0.16
   4   1   3    7.89    0.31
   5   1   3   21.83    0.59
  -5   2   3    0.84    0.18
  -4   2   3   14.67    0.37
  -3   2   3   75.57    1.51
  -2   2   3  132.51    4.73
   0   2   3  723.49   19.85
   1   2   3  695.21   27.06
   2   2   3   50.86    1.38
   3   2   3  130.77    3.06
   4   2   3    0.05    0.17
   5   2   3    5.69    0.23
  -5   3   3    6.99    0.31
  -4   3   3    8.00    0.27
  -3   3   3    8.98    0.35
  -1   3   3  255.06    6.99
   0   3   3    7.88    0.25
   1   3   3  223.68    6.14
   2   3   3  177.67    4.68
   3   3   3    0.78    0.15
   4   3   3   46.20    1.16
   5   3   3   19.43    0.54
  -5   4   3    1.57    0.16
  -4   4   3   24.41    0.54
  -3   4   3    0.32    0.21
  -2   4   3    1.29    0.20
  -1   4   3  120.21    3.31
   0   4   3  121.33    3.35
   1   4   3    1.87    0.12
   2   4   3  102.46    2.73
   3   4   3  158.62    3.70
   4   4   3    2.89    0.20
   5   4   3    0.91    0.14
  -5   5   3    1.26    0.14
  -4   5   3    2.58    0.19
  -3   5   3   31.10    0.83
  -2   5   3   14.72    0.37
  -1   5   3   19.65    0.60
   0   5   3   51.14    1.45
   1   5   3   98.18    2.75
   2   5   3    5.63    0.26
   3   5   3   32.08    0.69
   4   5   3    0.08    0.19
   5   5   3    1.60    0.18
  -4   6   3    5.50    0.23
  -3   6   3    0.25    0.20
  -2   6   3   19.95    0.46
  -1   6   3    0.71    0.14
   0   6   3  150.28    5.90
   1   6   3  106.35    4.22
   2   6   3   40.56    1.06
   3   6   3   72.86    1.44
   4   6   3   30.74    0.80
   5   6   3    1.80    0.24
  -4   7   3   58.49    1.32
  -3   7   3   13.66    0.37
  -2   7   3    0.57    0.18
  -1   7   3    7.81    0.22
   0   7   3  268.55    5.36
   1   7   3   13.14    0.42
   2   7   3    1.45    0.21
   3   7   3  238.19    4.54
   4   7   3   16.40    0.74
   5   7   3   22.34    0.97
  -4   8   3    1.07    0.12
  -3   8   3    1.41    0.18
  -2   8   3   19.98    0.47
  -1   8   3   11.34    0.32
   0   8   3    8.82    0.23
   1   8   3    0.26    0.19
   2   8   3   17.73    0.43
   3   8   3  107.30    2.69
   4   8   3   59.96    1.53
  -4   9   3    1.17    0.12
  -3   9   3    0.20    0.16
  -2   9   3    0.10    0.14
  -1   9   3    3.57    0.21
   0   9   3   31.12    0.57
   1   9   3   93.11    1.77
   2   9   3   26.55    0.73
   3   9   3    0.84    0.24
   4   9   3    5.17    0.35
  -3  10   3   27.66    0.69
  -2  10   3   43.41    0.89
  -1  10   3    4.97    0.22
   0  10   3    1.41    0.19
   1  10   3    5.77    0.24
   2  10   3   21.83    0.63
   3  10   3    0.08    0.26
   4  10   3    8.79    0.41
  -3  11   3    8.68    0.21
  -2  11   3    0.81    0.15
  -1  11   3    0.68    0.17
   0  11   3    3.72    0.21
   1  11   3    0.79    0.25
   2  11   3    8.35    0.45
   3  11   3   21.36    0.83
  -2  12   3   79.06    1.50
  -1  12   3   31.69    0.66
   0  12   3    4.68    0.25
   1  12   3   74.35    2.62
   2  12   3   24.79    0.96
   3  12   3    5.25    0.29
  -2  13   3    0.52    0.15
  -1  13   3    0.41    0.12
   0  13   3    1.95    0.14
   1  13   3    0.47    0.19
   2  13   3    0.00    0.21
   3  13   3    6.64    0.31
  -1  14   3    0.10    0.14
   0  14   3    2.55    0.15
   1  14   3   16.22    0.63
   2  14   3    3.13    0.20
  -1 -14   4    7.41    0.33
   0 -14   4    2.29    0.18
  -2 -13   4    0.40    0.21
  -1 -13   4   47.66    1.13
   0 -13   4    3.79    0.24
   1 -13   4    5.10    0.21
   2 -13   4   13.03    0.36
  -3 -12   4    0.40    0.18
  -2 -12   4   18.15    0.48
  -1 -12   4    5.54    0.24
   0 -12   4   16.94    0.66
   1 -12   4   15.48    0.44
   2 -12   4    4.76    0.20
  -3 -11   4    7.94    0.37
  -2 -11   4    0.62    0.18
  -1 -11   4    0.62    0.18
   0 -11   4    1.00    0.23
   1 -11   4    0.23    0.20
   2 -11   4    3.95    0.21
   3 -11   4    2.22    0.16
  -4 -10   4    1.22    0.14
  -3 -10   4   10.80    0.37
  -2 -10   4   89.38    2.26
  -1 -10   4   38.28    1.42
   0 -10   4  144.25    3.31
   1 -10   4    1.52    0.22
   2 -10   4   18.21    0.52
   3 -10   4    0.53    0.19
  -4  -9   4   24.68    0.68
  -3  -9   4    0.79    0.16
  -2  -9   4   46.47    1.23
  -1  -9   4  517.39   12.56
   0  -9   4    0.41    0.31
   1  -9   4   46.37    1.14
   2  -9   4   13.71    0.44
   3  -9   4    0.40    0.20
   4  -9   4   15.67    0.58
  -4  -8   4    4.83    0.22
  -3  -8   4    8.87    0.27
  -2  -8   4    8.70    0.33
  -1  -8   4   31.52    0.87
   0  -8   4    7.35    0.30
   1  -8   4   60.29    1.44
   2  -8   4    3.38    0.24
   3  -8   4    6.18    0.24
   4  -8   4    2.41    0.16
  -4  -7   4    5.31    0.23
  -3  -7   4    0.15    0.20
  -2  -7   4    3.34    0.22
  -1  -7   4   55.77    1.37
   1  -7   4   25.99    0.58
   2  -7   4    7.82    0.33
   3  -7   4   30.61    0.65
   4  -7   4   43.67    1.03
  -4  -6   4   16.85    0.76
  -3  -6   4    5.19    0.26
  -2  -6   4    6.64    0.28
  -1  -6   4   19.57    0.55
   0  -6   4   39.62    1.12
   1  -6   4    5.02    0.27
   2  -6   4   11.83    0.41
   3  -6   4   13.24    0.42
   4  -6   4    2.51    0.18
   5  -6   4    0.19    0.13
  -4  -5   4    8.92    0.36
  -3  -5   4   59.30    1.21
  -2  -5   4   64.12    1.28
  -1  -5   4   32.07    0.91
   0  -5   4  146.26    3.87
   1  -5   4  107.27    2.87
   2  -5   4   57.34    0.99
   3  -5   4    0.20    0.18
   4  -5   4    9.20    0.32
   5  -5   4    2.54    0.17
  -5  -4   4    0.78    0.22
  -4  -4   4    2.56    0.21
  -3  -4   4   76.03    1.52
  -2  -4   4   10.40    0.29
  -1  -4   4    8.85    0.25
   0  -4   4  179.36    3.90
   1  -4   4  864.34   22.56
   2  -4   4  154.24    3.18
   3  -4   4   33.76    0.72
   4  -4   4    4.68    0.21
   5  -4   4    2.33    0.19
  -5  -3   4    2.09    0.27
  -4  -3   4   36.25    0.77
  -3  -3   4   22.44    0.52
  -2  -3   4   55.30    1.43
  -1  -3   4  193.73    4.21
   0  -3   4   45.86    1.04
   1  -3   4   88.63    1.96
   2  -3   4   45.76    1.73
   3  -3   4   26.10    0.58
   4  -3   4    2.21    0.16
   5  -3   4   41.94    1.04
  -5  -2   4   11.19    0.56
  -4  -2   4    0.16    0.17
  -3  -2   4   44.82    0.93
  -2  -2   4    7.27    0.37
  -1  -2   4  160.01    3.48
   0  -2   4  285.24    7.82
   1  -2   4   14.20    0.44
   2  -2   4    8.46    0.32
   3  -2   4  150.56    2.86
   4  -2   4   61.84    1.23
   5  -2   4    1.33    0.15
  -5  -1   4    1.58    0.36
  -4  -1   4    6.79    0.24
  -3  -1   4    0.78    0.15
  -2  -1   4    8.59    0.41
  -1  -1   4  197.50    5.41
   0  -1   4    3.63    0.17
   1  -1   4  331.04   12.82
   2  -1   4   52.47    1.19
   3  -1   4    4.26    0.19
   4  -1   4   21.97    0.50
   5  -1   4   27.80    0.72
  -4   0   4   60.72    1.04
  -3   0   4   58.10    1.18
  -2   0   4  304.55   10.78
  -1   0   4  473.47   12.97
   0   0   4   99.05    3.86
   1   0   4   87.44    3.44
   2   0   4    8.64    0.32
   3   0   4    8.69    0.26
   4   0   4    4.55    0.21
   5   0   4   12.20    0.38
  -4   1   4   19.56    0.40
  -3   1   4    2.80    0.18
  -2   1   4   52.66    1.94
   0   1   4  145.28    3.99
   1   1   4  201.52    5.54
   2   1   4   60.01    1.71
   3   1   4   48.70    0.98
   4   1   4   44.17    1.12
   5   1   4   24.22    0.64
  -5   2   4    0.74    0.23
  -4   2   4    2.29    0.18
  -3   2   4    9.35    0.29
  -2   2   4  848.39   29.86
  -1   2   4   11.50    0.34
   0   2   4   67.92    2.66
   1   2   4  355.06   13.89
   2   2   4   56.35    1.61
   3   2   4   62.82    1.24
   4   2   4    0.29    0.16
   5   2   4   10.37    0.33
  -5   3   4   11.69    0.44
  -4   3   4   21.46    0.48
  -3   3   4    0.13    0.20
  -2   3   4    0.53    0.19
  -1   3   4   65.74    2.57
   0   3   4  137.76    3.79
   1   3   4    6.33    0.44
   2   3   4  196.24    5.17
   3   3   4    2.36    0.16
   4   3   4   27.44    0.73
   5   3   4   44.64    1.10
  -5   4   4    0.54    0.16
  -4   4   4    0.09    0.15
  -3   4   4    1.64    0.21
  -2   4   4    1.23    0.17
  -1   4   4    0.25    0.08
   0   4   4    2.35    0.13
   1   4   4    5.52    0.22
   2   4   4    0.21    0.12
   3   4   4   30.96    0.66
   4   4   4    6.71    0.27
   5   4   4    0.12    0.14
  -4   5   4   17.06    0.40
  -3   5   4    9.52    0.36
  -2   5   4   14.82    0.37
  -1   5   4  282.71   10.97
   0   5   4  122.20    3.40
   1   5   4   93.48    3.71
   2   5   4  211.66    7.53
   3   5   4   11.13    0.37
   4   5   4    8.15    0.30
   5   5   4    0.74    0.17
  -4   6   4    5.05    0.21
  -3   6   4   16.00    0.44
  -2   6   4   14.53    0.37
  -1   6   4    0.59    0.22
   0   6   4   58.66    2.38
   1   6   4   30.67    1.32
   2   6   4   19.19    0.39
   3   6   4   38.21    0.81
   4   6   4   49.19    1.21
   5   6   4   17.96    0.76
  -4   7   4   31.77    0.75
  -3   7   4   21.82    0.51
  -2   7   4   18.08    0.43
  -1   7   4    8.37    0.23
   0   7   4  182.53    2.89
   1   7   4   53.57    1.05
   2   7   4   11.60    0.32
   3   7   4   75.22    1.49
   4   7   4   22.05    0.61
  -4   8   4    0.63    0.11
  -3   8   4    0.41    0.18
  -2   8   4    0.70    0.16
  -1   8   4    7.16    0.21
   0   8   4    0.60    0.16
   1   8   4    1.28    0.17
   2   8   4    1.44    0.18
   3   8   4    5.98    0.28
  -4   9   4    0.07    0.11
  -3   9   4   11.10    0.30
  -2   9   4    5.74    0.22
  -1   9   4    1.40    0.17
   0   9   4   13.11    0.30
   1   9   4    4.69    0.21
   2   9   4   31.25    0.66
   3   9   4   79.69    2.77
  -3  10   4   16.26    0.44
  -2  10   4   42.55    0.74
  -1  10   4   34.93    0.72
   0  10   4   54.96    0.94
   1  10   4   21.61    0.49
   2  10   4    1.06    0.21
   3  10   4    3.84    0.30
  -3  11   4   18.00    0.37
  -2  11   4    3.13    0.16
  -1  11   4    9.95    0.28
   0  11   4    2.20    0.22
   1  11   4    0.00    0.29
   2  11   4    0.96    0.23
   3  11   4    4.42    0.29
  -2  12   4   15.48    0.35
  -1  12   4    2.26    0.15
   0  12   4   26.02    0.69
   1  12   4   12.83    0.59
   2  12   4   22.89    0.90
   3  12   4   25.76    0.95
  -2  13   4    0.73    0.13
  -1  13   4    0.16    0.12
   0  13   4   19.98    0.44
   1  13   4    0.17    0.22
   2  13   4    4.37    0.27
   3  13   4    5.23    0.27
  -1  14   4    0.82    0.16
   0  14   4    0.03    0.14
   1  14   4    3.91    0.24
   2  14   4    3.76    0.22
  -1 -13   5   35.35    1.15
   0 -13   5    5.85    0.29
   1 -13   5    2.49    0.19
  -2 -12   5    1.27    0.13
  -1 -12   5    0.09    0.17
   0 -12   5    1.62    0.22
   1 -12   5    6.57    0.25
   2 -12   5   15.27    0.41
  -2 -11   5   22.26    0.58
  -1 -11   5   18.90    0.52
   0 -11   5   21.00    0.79
   1 -11   5   16.60    0.48
   2 -11   5   20.08    0.53
   3 -11   5    7.78    0.34
  -3 -10   5    0.28    0.19
  -2 -10   5    2.42    0.20
  -1 -10   5    1.84    0.28
   0 -10   5   36.59    1.27
   1 -10   5   16.01    0.49
   2 -10   5    6.43    0.28
   3 -10   5    0.69    0.18
  -4  -9   5    7.32    0.33
  -3  -9   5   16.45    0.50
  -2  -9   5   23.63    0.69
  -1  -9   5   39.63    1.07
   0  -9   5    7.06    0.54
   1  -9   5    1.83    0.23
   2  -9   5   12.31    0.41
   3  -9   5   21.78    0.58
   4  -9   5    9.47    0.38
  -4  -8   5    0.04    0.16
  -3  -8   5   21.76    0.49
  -2  -8   5  170.15    3.99
  -1  -8   5   12.10    0.33
   0  -8   5   60.92    2.30
   1  -8   5    4.43    0.24
   2  -8   5    0.53    0.23
   3  -8   5   13.00    0.44
   4  -8   5    2.21    0.20
  -4  -7   5   12.40    0.39
  -3  -7   5   20.55    0.58
  -2  -7   5    6.93    0.29
  -1  -7   5   56.54    1.40
   0  -7   5  178.05    6.39
   1  -7   5    5.52    0.30
   2  -7   5    9.50    0.37
   3  -7   5   35.59    0.89
   4  -7   5    3.47    0.18
  -4  -6   5    6.38    0.26
  -3  -6   5    4.03    0.23
  -2  -6   5    1.33    0.18
  -1  -6   5   64.73    1.58
   0  -6   5   43.37    1.09
   1  -6   5    7.46    0.32
   2  -6   5   61.55    1.24
   3  -6   5  188.49    3.56
   4  -6   5   33.72    0.82
  -5  -5   5   10.66    0.45
  -4  -5   5    8.84    0.32
  -3  -5   5    7.27    0.25
  -2  -5   5   11.45    0.31
  -1  -5   5    5.90    0.22
   0  -5   5   20.07    0.61
   1  -5   5   41.34    1.58
   2  -5   5    1.89    0.24
   3  -5   5   88.65    2.04
   4  -5   5   19.72    0.46
   5  -5   5    2.12    0.16
  -5  -4   5    1.31    0.20
  -4  -4   5   10.59    0.36
  -3  -4   5   38.30    0.82
  -2  -4   5    0.19    0.15
  -1  -4   5    4.15    0.18
   0  -4   5   19.87    0.88
   1  -4   5  150.12    3.98
   2  -4   5   17.29    0.53
   3  -4   5   15.31    0.46
   4  -4   5   81.60    1.59
   5  -4   5   18.58    0.64
  -4  -3   5   63.18    1.27
  -3  -3   5   25.25    0.57
  -2  -3   5    2.95    0.22
  -1  -3   5    7.71    0.23
   0  -3   5 1000.00   21.67
   1  -3   5   41.09    1.14
   2  -3   5   21.32    0.62
   3  -3   5   97.39    2.22
   4  -3   5    2.82    0.17
   5  -3   5   12.03    0.36
  -4  -2   5   30.03    0.66
  -3  -2   5    4.76    0.20
  -2  -2   5  240.07    4.59
  -1  -2   5  118.19    2.59
   0  -2   5   15.37    0.38
   1  -2   5   15.72    0.40
   2  -2   5   51.25    1.93
   3  -2   5    0.36    0.19
   4  -2   5    2.57    0.17
   5  -2   5    1.18    0.13
  -4  -1   5   13.26    0.35
  -3  -1   5   21.79    0.51
  -2  -1   5   19.03    0.44
  -1  -1   5   61.05    1.63
   0  -1   5   27.81    1.14
   1  -1   5  101.59    2.71
   2  -1   5  167.79    4.43
   3  -1   5   74.87    1.72
   4  -1   5   24.43    0.55
   5  -1   5   29.29    0.76
  -4   0   5    1.08    0.18
  -3   0   5    9.71    0.29
  -2   0   5   20.35    0.47
  -1   0   5    8.04    0.21
   0   0   5  126.65    5.08
   1   0   5  141.11    3.73
   2   0   5   13.28    0.43
   3   0   5    3.08    0.17
   4   0   5   35.08    0.74
   5   0   5    3.25    0.18
  -4   1   5    1.26    0.16
  -3   1   5  126.77    2.48
  -2   1   5    3.36    0.23
  -1   1   5  142.45    3.91
   0   1   5    1.71    0.10
   1   1   5  188.14    5.18
   2   1   5   73.04    2.92
   3   1   5   11.98    0.32
   4   1   5   57.76    1.16
   5   1   5    5.59    0.23
  -4   2   5    6.69    0.23
  -3   2   5    7.47    0.31
  -2   2   5  402.11    7.27
  -1   2   5   84.09    2.32
   0   2   5    6.32    0.31
   1   2   5   24.62    1.19
   2   2   5   12.94    0.63
   3   2   5   15.34    0.38
   4   2   5    7.14    0.24
   5   2   5   17.14    0.48
  -4   3   5    5.39    0.21
  -3   3   5   11.84    0.40
  -2   3   5    2.04    0.18
  -1   3   5   19.67    0.58
   0   3   5   36.61    1.48
   1   3   5  135.06    5.49
   2   3   5  395.94   15.38
   3   3   5    5.78    0.21
   4   3   5    0.90    0.16
   5   3   5    2.52    0.16
  -4   4   5    0.16    0.14
  -3   4   5    0.15    0.18
  -2   4   5   86.66    1.63
  -1   4   5    7.25    0.39
   0   4   5   39.18    1.59
   1   4   5  527.99   20.45
   2   4   5  148.06    3.49
   3   4   5   88.49    1.72
   4   4   5   60.24    1.47
   5   4   5   25.91    0.67
  -4   5   5    0.15    0.12
  -3   5   5    7.35    0.31
  -2   5   5   10.98    0.31
  -1   5   5   28.82    0.60
   0   5   5    1.91    0.25
   1   5   5    4.03    0.33
   2   5   5   24.30    0.53
   3   5   5    4.00    0.19
   4   5   5    5.64    0.25
   5   5   5    0.80    0.14
  -4   6   5   16.77    0.37
  -3   6   5    0.30    0.19
  -2   6   5    2.04    0.17
  -1   6   5   97.09    1.58
   0   6   5   56.84    1.11
   1   6   5    0.99    0.18
   2   6   5    0.11    0.18
   3   6   5    1.03    0.16
   4   6   5    0.79    0.18
   5   6   5    7.80    0.27
  -4   7   5    0.50    0.12
  -3   7   5    5.71    0.27
  -2   7   5    1.37    0.16
  -1   7   5  130.29    2.10
   0   7   5   31.51    0.57
   1   7   5   19.06    0.44
   2   7   5  184.71    3.42
   3   7   5    7.69    0.23
   4   7   5   19.63    0.55
  -4   8   5    5.00    0.17
  -3   8   5   23.60    0.52
  -2   8   5    8.30    0.26
  -1   8   5   45.41    0.79
   0   8   5    0.50    0.16
   1   8   5    2.28    0.17
   2   8   5  105.01    1.99
   3   8   5    0.02    0.19
   4   8   5   26.81    0.92
  -3   9   5    1.34    0.15
  -2   9   5    1.28    0.15
  -1   9   5    1.73    0.17
   0   9   5    0.75    0.16
   1   9   5   25.33    0.55
   2   9   5   28.44    0.61
   3   9   5   32.44    0.82
  -3  10   5    1.05    0.14
  -2  10   5    0.64    0.13
  -1  10   5   18.29    0.43
   0  10   5   34.37    0.62
   1  10   5    2.19    0.17
   2  10   5    5.94    0.23
   3  10   5   20.75    0.83
  -3  11   5   34.85    0.78
  -2  11   5   39.38    0.79
  -1  11   5    8.40    0.25
   0  11   5    0.29    0.17
   1  11   5    0.70    0.18
   2  11   5    0.22    0.21
   3  11   5    4.39    0.31
  -2  12   5   19.14    0.40
  -1  12   5    0.89    0.11
   0  12   5    1.00    0.14
   1  12   5    8.29    0.44
   2  12   5    6.37    0.36
   3  12   5   13.23    0.54
  -1  13   5    4.08    0.15
   0  13   5   97.57    3.33
   1  13   5   38.41    1.38
   2  13   5   12.79    0.52
   0  14   5    9.43    0.28
   1  14   5    0.54    0.20
  -1 -13   6    6.74    0.30
   0 -13   6   42.46    1.36
   1 -13   6   19.79    0.67
  -2 -12   6   52.03    1.21
  -1 -12   6    3.25    0.24
   0 -12   6   13.92    0.55
   1 -12   6    3.03    0.24
   2 -12   6    3.06    0.17
  -3 -11   6    2.74    0.19
  -2 -11   6    3.29    0.17
  -1 -11   6    4.66    0.23
   0 -11   6    1.61    0.24
   1 -11   6   15.82    0.45
   2 -11   6   23.88    0.60
   3 -11   6    3.80    0.22
  -3 -10   6    8.90    0.31
  -2 -10   6   11.96    0.40
  -1 -10   6   12.41    0.44
   0 -10   6   11.73    0.52
   1 -10   6    2.41    0.22
   2 -10   6    0.84    0.21
   3 -10   6    3.93    0.25
  -4  -9   6    0.40    0.18
  -3  -9   6    8.47    0.31
  -2  -9   6    7.79    0.32
  -1  -9   6  170.68    4.21
   0  -9   6    0.68    0.50
   1  -9   6   12.26    0.42
   2  -9   6    6.37    0.29
   3  -9   6    6.13    0.34
   4  -9   6    9.33    0.37
  -4  -8   6    0.44    0.17
  -3  -8   6    3.80    0.16
  -2  -8   6  387.98    8.93
  -1  -8   6   88.44    1.76
   0  -8   6  153.16    5.54
   1  -8   6   26.13    0.60
   2  -8   6   19.47    0.56
   3  -8   6   56.33    1.94
   4  -8   6    0.78    0.15
  -4  -7   6    4.23    0.19
  -3  -7   6   10.93    0.36
  -2  -7   6    0.38    0.19
  -1  -7   6   86.95    2.10
   0  -7   6   35.54    1.41
   1  -7   6   19.61    0.60
   2  -7   6    2.07    0.20
   3  -7   6    0.31    0.30
   4  -7   6    0.65    0.22
  -4  -6   6    0.43    0.16
  -3  -6   6    0.24    0.19
  -2  -6   6    6.95    0.29
  -1  -6   6    0.73    0.20
   0  -6   6   17.35    0.51
   1  -6   6   38.46    1.03
   2  -6   6   15.35    0.41
   3  -6   6   32.62    0.83
   4  -6   6   20.88    0.54
  -4  -5   6    2.97    0.19
  -3  -5   6    9.51    0.28
  -2  -5   6    5.42    0.21
  -1  -5   6   82.51    1.63
   0  -5   6   19.82    0.56
   1  -5   6    4.06    0.24
   2  -5   6   83.67    2.09
   3  -5   6    8.65    0.33
   4  -5   6    1.43    0.15
   5  -5   6    6.37    0.27
  -4  -4   6   11.79    0.37
  -3  -4   6   12.69    0.34
  -2  -4   6    0.98    0.18
  -1  -4   6   40.54    0.88
   0  -4   6    0.51    0.12
   1  -4   6   48.45    1.83
   2  -4   6   18.26    0.55
   3  -4   6   76.68    1.78
   4  -4   6   39.99    0.83
   5  -4   6    1.29    0.12
  -5  -3   6    1.10    0.19
  -4  -3   6   13.30    0.34
  -3  -3   6    0.56    0.17
  -2  -3   6    6.74    0.23
  -1  -3   6   87.54    1.94
   0  -3   6  346.42    9.07
   1  -3   6  147.12    3.90
   2  -3   6   51.05    1.31
   3  -3   6   18.35    0.52
   4  -3   6   35.37    0.75
   5  -3   6   11.95    0.36
  -4  -2   6    8.43    0.26
  -3  -2   6   19.60    0.47
  -2  -2   6    0.34    0.15
  -1  -2   6    0.44    0.11
   0  -2   6    1.11    0.11
   1  -2   6   14.51    0.63
   2  -2   6    8.79    0.34
   3  -2   6    0.60    0.21
   4  -2   6   64.57    1.28
   5  -2   6   13.97    0.40
  -4  -1   6    0.16    0.16
  -3  -1   6   19.30    0.47
  -2  -1   6    9.96    0.29
  -1  -1   6   18.03    0.53
   0  -1   6   92.15    2.46
   1  -1   6    4.03    0.20
   2  -1   6   24.19    0.73
   3  -1   6  133.74    3.00
   4  -1   6   15.12    0.38
   5  -1   6    8.45    0.29
  -4   0   6   10.02    0.29
  -3   0   6    0.45    0.16
  -2   0   6   19.53    0.46
  -1   0   6   11.75    0.30
   0   0   6   29.00    0.83
   1   0   6   46.81    1.07
   2   0   6    6.50    0.28
   3   0   6    2.79    0.20
   4   0   6   15.61    0.39
   5   0   6    3.10    0.17
  -4   1   6    0.96    0.18
  -3   1   6  225.41    4.33
  -2   1   6  351.38    6.69
  -1   1   6   93.97    2.06
   0   1   6    3.06    0.16
   1   1   6    7.29    0.23
   2   1   6    2.15    0.30
   3   1   6    0.56    0.15
   4   1   6    1.72    0.15
   5   1   6    1.07    0.13
  -4   2   6    2.52    0.16
  -3   2   6   90.28    2.13
  -2   2   6   88.45    1.97
  -1   2   6   16.78    0.50
   0   2   6   87.84    2.45
   1   2   6    4.96    0.33
   2   2   6   19.48    0.91
   3   2   6   67.40    1.33
   4   2   6   83.34    1.63
   5   2   6    0.58    0.12
  -4   3   6    0.79    0.13
  -3   3   6  114.08    2.66
  -2   3   6   29.12    0.62
  -1   3   6   32.29    1.31
   0   3   6  216.15    8.42
   1   3   6    6.72    0.43
   2   3   6   87.83    1.99
   3   3   6    0.92    0.14
   4   3   6    1.41    0.15
   5   3   6    2.20    0.15
  -4   4   6    0.16    0.12
  -3   4   6    8.52    0.33
  -2   4   6    0.23    0.18
  -1   4   6   24.13    0.53
   0   4   6    7.06    0.40
   1   4   6    2.86    0.29
   2   4   6   15.16    0.36
   3   4   6   35.16    0.94
   4   4   6   43.07    0.88
   5   4   6   11.36    0.34
  -4   5   6    0.32    0.12
  -3   5   6    3.75    0.23
  -2   5   6   31.22    0.66
  -1   5   6   14.98    0.38
   0   5   6   13.38    0.35
   1   5   6  161.55    3.58
   2   5   6   81.19    1.57
   3   5   6    2.46    0.16
   4   5   6    0.46    0.18
   5   5   6    6.46    0.23
  -4   6   6   14.42    0.32
  -3   6   6    9.55    0.34
  -2   6   6   25.54    0.56
  -1   6   6   46.89    0.81
   0   6   6   74.10    1.23
   1   6   6   76.27    1.45
   2   6   6    1.88    0.18
   3   6   6   20.52    0.47
   4   6   6    1.29    0.19
   5   6   6    0.77    0.17
  -4   7   6    0.05    0.10
  -3   7   6   13.74    0.42
  -2   7   6    9.94    0.29
  -1   7   6   36.36    0.65
   0   7   6   84.31    1.38
   1   7   6    8.76    0.27
   2   7   6   69.69    1.34
   3   7   6   30.90    0.78
   4   7   6   14.20    0.43
  -4   8   6    0.01    0.10
  -3   8   6    0.24    0.16
  -2   8   6   14.30    0.36
  -1   8   6   87.49    1.44
   0   8   6    0.97    0.16
   1   8   6    7.26    0.24
   2   8   6  177.34    3.29
   3   8   6   40.93    0.83
   4   8   6    6.50    0.33
  -3   9   6    3.69    0.18
  -2   9   6    0.59    0.14
  -1   9   6    1.18    0.17
   0   9   6   13.29    0.30
   1   9   6    0.37    0.17
   2   9   6   53.45    1.06
   3   9   6    3.03    0.19
  -3  10   6    1.97    0.15
  -2  10   6    1.39    0.11
  -1  10   6    3.63    0.19
   0  10   6   25.57    0.48
   1  10   6   16.21    0.39
   2  10   6   21.23    0.48
   3  10   6   13.86    0.41
  -2  11   6   12.29    0.29
  -1  11   6   25.85    0.54
   0  11   6    2.89    0.18
   1  11   6    0.52    0.15
   2  11   6   17.50    0.40
   3  11   6   29.80    1.09
  -2  12   6    1.33    0.13
  -1  12   6    1.81    0.11
   0  12   6    0.02    0.16
   1  12   6    0.46    0.20
   2  12   6   19.87    0.78
   3  12   6   21.74    0.81
  -1  13   6    0.58    0.12
   0  13   6    0.77    0.17
   1  13   6    9.59    0.43
   2  13   6    7.36    0.35
   0  14   6    2.38    0.19
   1  14   6    3.98    0.23
   0 -13   7   48.31    1.52
  -2 -12   7   22.65    0.75
  -1 -12   7   11.39    0.44
   0 -12   7    1.09    0.17
   1 -12   7    0.57    0.21
  -2 -11   7    0.54    0.15
  -1 -11   7    3.70    0.26
   0 -11   7    5.27    0.32
   1 -11   7    3.11    0.25
   2 -11   7   13.45    0.37
  -3 -10   7    1.80    0.17
  -2 -10   7    4.01    0.22
  -1 -10   7    5.22    0.29
   0 -10   7   10.86    0.49
   1 -10   7   54.80    1.30
   2 -10   7   11.85    0.36
   3 -10   7    0.45    0.20
  -3  -9   7   32.89    0.87
  -2  -9   7    4.83    0.24
  -1  -9   7   32.60    0.90
   0  -9   7   16.07    0.76
   1  -9   7   37.00    0.79
   2  -9   7    0.02    0.20
   3  -9   7    0.00    0.20
  -4  -8   7    4.17    0.22
  -3  -8   7    0.89    0.11
  -2  -8   7   12.51    0.33
  -1  -8   7   23.81    0.54
   0  -8   7    7.85    0.50
   1  -8   7    0.43    0.22
   2  -8   7    5.37    0.28
   3  -8   7   17.31    0.70
   4  -8   7    8.34    0.35
  -4  -7   7    9.25    0.30
  -3  -7   7   62.89    1.53
  -2  -7   7   67.91    1.66
  -1  -7   7  238.61    5.58
   0  -7   7   22.68    0.98
   1  -7   7    4.21    0.28
   2  -7   7   88.95    1.75
   3  -7   7    1.00    0.20
   4  -7   7    0.39    0.19
  -4  -6   7    6.89    0.25
  -3  -6   7    0.79    0.19
  -2  -6   7   72.47    1.77
  -1  -6   7   21.91    0.61
   0  -6   7    0.76    0.22
   1  -6   7    3.86    0.33
   2  -6   7    4.21    0.27
   3  -6   7    9.85    0.50
   4  -6   7    3.79    0.18
  -4  -5   7    0.19    0.16
  -3  -5   7    3.14    0.20
  -2  -5   7   19.77    0.47
  -1  -5   7   11.06    0.31
   0  -5   7   21.17    0.59
   1  -5   7   69.37    1.75
   2  -5   7  101.44    2.51
   3  -5   7   39.22    0.96
   4  -5   7   14.87    0.36
  -4  -4   7   17.54    0.49
  -3  -4   7    6.33    0.22
  -2  -4   7    0.37    0.16
  -1  -4   7   89.37    1.76
   0  -4   7  151.76    3.57
   1  -4   7    6.15    0.30
   2  -4   7   26.64    0.76
   3  -4   7   13.26    0.42
   4  -4   7   33.10    0.69
   5  -4   7    5.70    0.19
  -4  -3   7    0.15    0.13
  -3  -3   7    1.74    0.15
  -2  -3   7   22.60    0.52
  -1  -3   7   80.13    1.58
   0  -3   7    1.72    0.36
   1  -3   7   11.77    0.56
   2  -3   7   21.34    0.63
   3  -3   7  180.62    4.01
   4  -3   7    0.26    0.14
   5  -3   7    1.17    0.12
  -4  -2   7    1.83    0.14
  -3  -2   7   15.15    0.39
  -2  -2   7   61.33    1.24
  -1  -2   7  244.82    5.68
   0  -2   7    3.53    0.26
   2  -2   7  323.73    6.05
   3  -2   7   40.34    0.98
   4  -2   7  152.64    2.89
   5  -2   7    0.28    0.11
  -4  -1   7    0.29    0.15
  -3  -1   7   28.71    0.64
  -2  -1   7    3.07    0.18
  -1  -1   7    1.00    0.15
   0  -1   7   28.55    0.82
   1  -1   7    1.49    0.19
   2  -1   7   58.66    1.16
   3  -1   7   18.40    0.51
   4  -1   7    0.65    0.16
   5  -1   7    3.79    0.18
  -4   0   7    0.99    0.15
  -3   0   7    2.31    0.18
  -2   0   7    0.28    0.17
  -1   0   7  100.44    2.67
   0   0   7  390.45    8.53
   1   0   7   62.91    1.72
   2   0   7   14.23    0.36
   3   0   7  110.87    2.50
   4   0   7   51.98    1.05
   5   0   7    4.18    0.19
  -4   1   7    2.83    0.18
  -3   1   7    0.99    0.20
  -2   1   7    7.69    0.25
  -1   1   7    1.52    0.35
   0   1   7   26.44    0.63
   1   1   7    3.12    0.19
   2   1   7    1.91    0.16
   3   1   7    8.75    0.31
   4   1   7    1.99    0.15
   5   1   7    1.35    0.13
  -4   2   7   46.22    1.12
  -3   2   7   36.67    0.94
  -2   2   7   66.91    1.28
  -1   2   7    1.59    0.24
   0   2   7    6.01    0.23
   1   2   7  109.96    2.95
   2   2   7   33.52    0.82
   3   2   7   47.04    0.96
   4   2   7   23.68    0.53
   5   2   7    0.03    0.11
  -4   3   7    3.09    0.15
  -3   3   7  294.32    6.67
  -2   3   7   26.76    0.58
  -1   3   7    2.96    0.20
   0   3   7  168.12    6.59
   1   3   7   97.47    3.89
   2   3   7   10.74    0.34
   3   3   7   17.16    0.41
   4   3   7   40.48    0.83
   5   3   7   11.34    0.34
  -4   4   7    2.08    0.13
  -3   4   7   10.68    0.37
  -2   4   7    5.46    0.22
  -1   4   7   40.41    0.71
   0   4   7    2.78    0.20
   1   4   7   46.54    1.13
   2   4   7   12.47    0.32
   3   4   7    1.71    0.15
   4   4   7    9.25    0.27
   5   4   7    0.25    0.13
  -4   5   7    0.06    0.10
  -3   5   7    1.59    0.18
  -2   5   7   16.97    0.41
  -1   5   7    3.91    0.18
   0   5   7   28.76    0.61
   1   5   7   11.57    0.31
   2   5   7  154.99    2.93
   3   5   7  126.44    2.42
   4   5   7   33.31    0.70
   5   5   7    6.92    0.24
  -4   6   7    0.06    0.10
  -3   6   7    6.40    0.27
  -2   6   7   55.69    1.10
  -1   6   7    7.07    0.21
   0   6   7    6.86    0.24
   1   6   7   58.63    1.15
   2   6   7   70.14    1.63
   3   6   7   64.80    1.28
   4   6   7    0.68    0.16
   5   6   7    3.67    0.21
  -4   7   7    8.61    0.24
  -3   7   7    0.18    0.15
  -2   7   7    8.25    0.26
  -1   7   7   28.23    0.53
   0   7   7    5.56    0.23
   1   7   7    3.24    0.18
   2   7   7   64.59    1.26
   3   7   7   51.17    1.21
   4   7   7   13.14    0.51
  -3   8   7    0.68    0.16
  -2   8   7    8.91    0.27
  -1   8   7   26.24    0.50
   0   8   7   41.50    0.73
   1   8   7  141.13    2.64
   2   8   7    1.93    0.17
   3   8   7   73.62    1.69
   4   8   7   17.80    0.63
  -3   9   7    4.09    0.18
  -2   9   7   52.80    0.89
  -1   9   7    1.38    0.16
   0   9   7    0.36    0.16
   1   9   7   89.07    1.70
   2   9   7    1.07    0.16
   3   9   7   15.82    0.45
   4   9   7    0.18    0.26
  -3  10   7    0.00    0.10
  -2  10   7    2.89    0.13
  -1  10   7    0.96    0.14
   0  10   7    3.19    0.17
   1  10   7   24.52    0.54
   2  10   7   31.32    0.65
   3  10   7    0.88    0.18
  -2  11   7    0.95    0.11
  -1  11   7    9.22    0.25
   0  11   7    4.52    0.22
   1  11   7    0.77    0.13
   2  11   7   17.96    0.40
  -1  12   7    3.27    0.12
   0  12   7    1.63    0.15
   1  12   7    3.09    0.18
   2  12   7    6.33    0.33
  -1  13   7    7.55    0.24
   0  13   7    0.31    0.20
   1  13   7    8.29    0.38
   2  13   7   13.81    0.54
  -1 -12   8   18.66    0.64
   0 -12   8   19.40    0.67
   1 -12   8   44.46    1.41
  -2 -11   8    0.00    0.17
  -1 -11   8    2.78    0.22
   0 -11   8    4.44    0.27
   1 -11   8    0.00    0.20
   2 -11   8    3.13    0.28
  -2 -10   8    0.12    0.22
  -1 -10   8    3.51    0.39
   0 -10   8   12.32    0.42
   1 -10   8   16.28    0.64
   2 -10   8   18.98    0.50
   3 -10   8   16.76    0.60
  -3  -9   8    9.85    0.42
  -2  -9   8   31.69    0.86
  -1  -9   8   20.37    0.90
   0  -9   8    2.41    0.31
   1  -9   8    8.91    0.29
   2  -9   8    5.52    0.26
   3  -9   8    0.37    0.18
  -3  -8   8    1.86    0.15
  -2  -8   8   11.83    0.31
  -1  -8   8    8.17    0.26
   0  -8   8    8.62    0.52
   1  -8   8    0.50    0.22
   2  -8   8   10.57    0.37
   3  -8   8    8.21    0.39
   4  -8   8   16.88    0.60
  -4  -7   8    1.58    0.15
  -3  -7   8  124.29    2.93
  -2  -7   8    0.02    0.16
  -1  -7   8   63.69    1.57
   0  -7   8   63.06    2.40
   1  -7   8   13.96    0.48
   2  -7   8   70.09    1.77
   3  -7   8    8.21    0.32
   4  -7   8   13.96    0.53
  -4  -6   8    5.60    0.19
  -3  -6   8    0.24    0.16
  -2  -6   8    8.00    0.31
  -1  -6   8   22.03    0.62
   0  -6   8   19.13    0.56
   1  -6   8   13.36    0.47
   2  -6   8    8.04    0.35
   3  -6   8    7.63    0.41
   4  -6   8   19.40    0.72
  -4  -5   8    0.17    0.15
  -3  -5   8    0.10    0.16
  -2  -5   8    0.93    0.17
  -1  -5   8    2.50    0.20
   0  -5   8   31.78    0.84
   1  -5   8   10.71    0.41
   2  -5   8  115.40    2.84
   3  -5   8   10.10    0.49
   4  -5   8    1.49    0.13
  -4  -4   8    0.80    0.14
  -3  -4   8    5.04    0.20
  -2  -4   8   39.76    0.84
  -1  -4   8   40.24    0.84
   0  -4   8   88.20    2.13
   1  -4   8   59.59    1.52
   2  -4   8    5.76    0.29
   3  -4   8    3.98    0.23
   4  -4   8    0.00    0.13
  -4  -3   8   28.38    0.73
  -3  -3   8    0.99    0.16
  -2  -3   8   11.33    0.32
  -1  -3   8    1.29    0.15
   0  -3   8   32.77    0.85
   1  -3   8   12.57    0.43
   2  -3   8   48.85    1.27
   3  -3   8   38.15    0.94
   4  -3   8   33.85    0.71
   5  -3   8   16.78    0.41
  -4  -2   8    5.42    0.19
  -3  -2   8    2.22    0.16
  -2  -2   8    4.85    0.20
  -1  -2   8  299.05    5.69
   0  -2   8   51.46    1.94
   1  -2   8    1.18    0.22
   2  -2   8   40.33    0.84
   3  -2   8   24.39    0.64
   4  -2   8    0.40    0.14
   5  -2   8    1.81    0.12
  -4  -1   8    0.81    0.13
  -3  -1   8   19.22    0.46
  -2  -1   8   10.56    0.30
  -1  -1   8   26.04    0.58
   0  -1   8   25.32    1.02
   1  -1   8   36.75    0.97
   2  -1   8    0.68    0.18
   3  -1   8   68.37    1.59
   4  -1   8    3.74    0.17
   5  -1   8    4.01    0.15
  -4   0   8   17.81    0.48
  -3   0   8    6.18    0.23
  -2   0   8    1.07    0.17
  -1   0   8   14.43    0.37
   0   0   8    4.97    0.25
   1   0   8  103.40    3.76
   2   0   8   77.53    1.51
   3   0   8    0.23    0.17
   4   0   8   21.81    0.50
   5   0   8    9.59    0.25
  -4   1   8    9.61    0.30
  -3   1   8    8.69    0.33
  -2   1   8    6.16    0.23
  -1   1   8  147.95    2.86
   0   1   8   86.31    2.33
   1   1   8    8.02    0.31
   2   1   8   11.99    0.32
   3   1   8  109.10    2.47
   4   1   8    0.74    0.15
   5   1   8    1.02    0.12
  -4   2   8   24.84    0.63
  -3   2   8   38.81    0.99
  -2   2   8   43.08    1.03
  -1   2   8    0.48    0.19
   0   2   8    0.00    0.15
   1   2   8   83.12    2.11
   2   2   8    0.14    0.17
   3   2   8   22.13    0.51
   4   2   8    7.33    0.23
   5   2   8    0.10    0.11
  -4   3   8    4.14    0.18
  -3   3   8   15.48    0.47
  -2   3   8   42.71    0.86
  -1   3   8   50.56    0.99
   0   3   8    5.73    0.22
   1   3   8   70.32    1.66
   2   3   8   78.60    1.80
   3   3   8   64.24    1.28
   4   3   8   10.74    0.29
   5   3   8   24.47    0.63
  -4   4   8   33.72    0.82
  -3   4   8    1.43    0.18
  -2   4   8    0.12    0.15
  -1   4   8   38.70    0.68
   0   4   8   18.71    0.44
   1   4   8  101.71    2.35
   2   4   8    3.02    0.17
   3   4   8    1.94    0.18
   4   4   8    0.23    0.14
   5   4   8    0.47    0.11
  -4   5   8    1.19    0.10
  -3   5   8    1.76    0.17
  -2   5   8   42.87    0.87
  -1   5   8    6.97    0.21
   0   5   8   33.41    0.70
   1   5   8    5.92    0.25
   2   5   8    0.02    0.17
   3   5   8   32.09    0.69
   4   5   8   11.48    0.30
   5   5   8    0.09    0.13
  -4   6   8    2.06    0.16
  -3   6   8    3.13    0.18
  -2   6   8   17.00    0.41
  -1   6   8   13.64    0.31
   0   6   8   39.84    0.81
   1   6   8  122.50    2.30
   2   6   8   31.74    0.79
   3   6   8    5.99    0.26
   4   6   8   16.60    0.40
   5   6   8   17.70    0.59
  -3   7   8    8.47    0.28
  -2   7   8   23.81    0.53
  -1   7   8   12.77    0.29
   0   7   8   28.57    0.62
   1   7   8   20.48    0.47
   2   7   8    0.25    0.17
   3   7   8    0.43    0.18
   4   7   8    0.92    0.17
  -3   8   8    0.62    0.13
  -2   8   8   26.89    0.57
  -1   8   8    9.86    0.25
   0   8   8    0.30    0.16
   1   8   8   73.84    1.43
   2   8   8   51.23    1.02
   3   8   8   14.97    0.43
   4   8   8   58.29    1.81
  -3   9   8    0.07    0.15
  -2   9   8    6.76    0.18
  -1   9   8    4.77    0.20
   0   9   8    4.88    0.20
   1   9   8   87.83    1.68
   2   9   8   38.51    0.78
   3   9   8   11.21    0.34
   4   9   8    0.25    0.20
  -2  10   8    4.73    0.17
  -1  10   8    2.65    0.15
   0  10   8    0.73    0.13
   1  10   8   15.54    0.38
   2  10   8    1.17    0.13
   3  10   8    6.83    0.24
  -2  11   8    5.16    0.19
  -1  11   8    5.12    0.17
   0  11   8    2.02    0.16
   1  11   8   15.66    0.36
   2  11   8    9.19    0.24
  -1  12   8    0.91    0.09
   0  12   8    0.66    0.13
   1  12   8    4.50    0.19
   2  12   8   31.93    1.14
   0  13   8    1.64    0.13
   1  13   8    7.28    0.34
   0 -12   9    6.79    0.29
  -1 -11   9    0.50    0.18
   0 -11   9    1.56    0.19
   1 -11   9   15.30    0.56
  -1 -10   9    0.59    0.42
   0 -10   9   11.48    0.39
   1 -10   9   14.68    0.58
   2 -10   9    1.77    0.24
  -3  -9   9    1.11    0.34
  -2  -9   9    3.69    0.21
  -1  -9   9   10.87    0.57
   0  -9   9   21.32    0.93
   1  -9   9   11.81    0.40
   2  -9   9    7.37    0.37
   3  -9   9   12.40    0.47
  -3  -8   9   15.14    0.44
  -2  -8   9   85.59    1.68
  -1  -8   9    1.27    0.39
   0  -8   9   14.00    0.68
   1  -8   9    4.25    0.27
   2  -8   9    3.64    0.30
   3  -8   9    5.70    0.29
  -3  -7   9   51.17    1.02
  -2  -7   9    6.27    0.25
  -1  -7   9    4.56    0.23
   0  -7   9    8.51    0.51
   1  -7   9    4.29    0.27
   2  -7   9    5.00    0.27
   3  -7   9    2.89    0.20
   4  -7   9   15.37    0.56
  -3  -6   9    6.10    0.23
  -2  -6   9   49.50    1.23
  -1  -6   9  100.64    2.40
   0  -6   9  117.89    2.82
   1  -6   9  142.45    3.47
   2  -6   9   11.22    0.40
   3  -6   9    8.25    0.41
   4  -6   9    1.13    0.15
  -4  -5   9    0.75    0.19
  -3  -5   9   17.28    0.49
  -2  -5   9   11.12    0.37
  -1  -5   9   48.26    1.21
   0  -5   9   96.00    2.31
   1  -5   9    1.45    0.44
   2  -5   9   27.28    0.77
   3  -5   9   42.34    1.49
   4  -5   9   15.83    0.47
  -4  -4   9    1.76    0.16
  -3  -4   9    2.55    0.15
  -2  -4   9   13.48    0.35
  -1  -4   9    0.59    0.17
   0  -4   9    0.68    0.17
   1  -4   9  129.54    3.17
   2  -4   9   44.17    1.17
   3  -4   9    0.47    0.30
   4  -4   9    2.54    0.14
  -4  -3   9    0.22    0.16
  -3  -3   9    1.59    0.14
  -2  -3   9   30.50    0.67
  -1  -3   9   97.45    1.92
   0  -3   9   45.98    1.16
   1  -3   9   24.79    0.71
   2  -3   9    3.48    0.23
   3  -3   9    0.99    0.19
   4  -3   9    4.33    0.17
  -4  -2   9    4.41    0.17
  -3  -2   9    0.86    0.15
  -2  -2   9   27.50    0.62
  -1  -2   9    1.79    0.22
   0  -2   9   72.51    1.76
   1  -2   9   54.33    1.39
   2  -2   9  129.67    3.17
   3  -2   9   41.65    1.01
   4  -2   9    0.92    0.12
   5  -2   9    0.32    0.13
  -4  -1   9   10.27    0.30
  -3  -1   9    0.98    0.19
  -2  -1   9   86.09    1.71
  -1  -1   9   12.61    0.34
   0  -1   9   27.77    0.75
   1  -1   9  125.01    3.04
   2  -1   9   55.20    1.11
   3  -1   9  242.22    5.35
   4  -1   9    1.76    0.13
   5  -1   9    2.88    0.14
  -4   0   9    2.84    0.15
  -3   0   9    1.08    0.16
  -2   0   9    6.40    0.24
  -1   0   9    7.61    0.26
   0   0   9   13.99    0.49
   1   0   9   12.34    0.41
   2   0   9  127.14    2.44
   3   0   9   13.80    0.42
   4   0   9   14.98    0.37
   5   0   9   21.33    0.45
  -4   1   9    7.24    0.23
  -3   1   9    5.84    0.26
  -2   1   9    1.10    0.23
  -1   1   9   41.07    0.87
   0   1   9   71.97    1.80
   1   1   9   30.47    0.65
   2   1   9   23.61    0.53
   3   1   9   22.89    0.61
   4   1   9    9.69    0.27
   5   1   9    1.80    0.13
  -4   2   9   32.94    0.79
  -3   2   9   29.88    0.78
  -2   2   9    2.36    0.21
  -1   2   9    4.53    0.22
   0   2   9   11.99    0.30
   1   2   9   10.17    0.32
   2   2   9   23.90    0.62
   3   2   9    0.16    0.14
   4   2   9    0.52    0.14
   5   2   9    3.02    0.15
  -4   3   9    0.72    0.11
  -3   3   9    9.49    0.33
  -2   3   9   41.80    0.84
  -1   3   9    4.03    0.26
   0   3   9  115.82    2.18
   1   3   9    6.64    0.28
   2   3   9   35.60    0.88
   3   3   9   49.57    1.00
   4   3   9    5.50    0.19
   5   3   9    7.11    0.29
  -4   4   9   36.70    0.87
  -3   4   9   10.59    0.34
  -2   4   9   38.96    0.94
  -1   4   9  110.22    2.05
   0   4   9   54.59    1.08
   1   4   9   69.21    1.62
   2   4   9   20.63    0.47
   3   4   9   38.22    1.02
   4   4   9   27.19    0.58
   5   4   9    0.77    0.12
  -3   5   9    0.75    0.13
  -2   5   9    0.34    0.13
  -1   5   9    0.30    0.16
   0   5   9   48.79    1.19
   1   5   9    0.98    0.22
   2   5   9   24.95    0.67
   3   5   9   11.14    0.31
   4   5   9    0.15    0.13
   5   5   9    0.40    0.13
  -3   6   9    4.60    0.20
  -2   6   9    5.14    0.20
  -1   6   9    1.42    0.15
   0   6   9   13.89    0.36
   1   6   9   15.11    0.38
   2   6   9    4.14    0.25
   3   6   9   27.06    0.69
   4   6   9   14.48    0.40
  -3   7   9   11.28    0.33
  -2   7   9   32.38    0.66
  -1   7   9   30.18    0.55
   0   7   9   66.38    1.30
   1   7   9    0.85    0.18
   2   7   9    1.90    0.23
   3   7   9    0.29    0.28
   4   7   9    0.17    0.13
  -3   8   9    9.57    0.28
  -2   8   9    0.86    0.12
  -1   8   9    4.00    0.17
   0   8   9    1.50    0.15
   1   8   9   20.62    0.47
   2   8   9   42.96    1.04
   3   8   9    0.06    0.14
   4   8   9    4.11    0.22
  -2   9   9    7.72    0.21
  -1   9   9    1.84    0.15
   0   9   9   89.50    1.71
   1   9   9   20.62    0.47
   2   9   9   83.54    1.59
   3   9   9   43.38    1.01
   4   9   9    0.93    0.17
  -2  10   9    1.10    0.13
  -1  10   9    8.74    0.24
   0  10   9   25.42    0.54
   1  10   9   12.75    0.32
   2  10   9   15.65    0.36
   3  10   9    0.20    0.13
  -1  11   9   13.38    0.37
   0  11   9    8.18    0.27
   1  11   9    6.17    0.19
   2  11   9    3.02    0.13
  -1  12   9    0.43    0.17
   0  12   9    0.07    0.11
   1  12   9   19.32    0.49
  -1 -11  10    6.70    0.28
   0 -11  10   13.05    0.48
  -2 -10  10   10.42    0.39
  -1 -10  10    2.86    0.21
   0 -10  10    3.44    0.24
   1 -10  10   10.33    0.43
  -2  -9  10    3.28    0.34
  -1  -9  10    4.18    0.32
   0  -9  10   31.59    1.27
   1  -9  10    7.36    0.30
   2  -9  10    2.17    0.24
  -2  -8  10   22.83    0.64
  -1  -8  10    0.87    0.26
   0  -8  10    0.77    0.33
   1  -8  10   16.71    0.51
   2  -8  10    7.38    0.38
   3  -8  10    3.63    0.22
  -3  -7  10    6.45    0.19
  -2  -7  10    0.19    0.13
  -1  -7  10    6.91    0.27
   0  -7  10    0.00    0.30
   1  -7  10   20.48    0.60
   2  -7  10   31.42    0.85
   3  -7  10   16.97    0.49
  -3  -6  10    2.31    0.14
  -2  -6  10   36.08    0.93
  -1  -6  10    0.41    0.18
   0  -6  10    1.74    0.20
   1  -6  10   55.68    1.43
   2  -6  10    0.54    0.24
   3  -6  10   11.25    0.48
   4  -6  10   18.85    0.67
  -3  -5  10    5.04    0.21
  -2  -5  10   37.41    0.96
  -1  -5  10   26.75    0.73
   0  -5  10    0.57    0.22
   1  -5  10    3.76    0.26
   2  -5  10    0.55    0.24
   3  -5  10   17.45    0.69
   4  -5  10   21.12    0.76
  -3  -4  10    0.01    0.14
  -2  -4  10    0.33    0.15
  -1  -4  10    0.09    0.17
   0  -4  10    4.57    0.25
   1  -4  10   24.35    0.70
   2  -4  10   10.09    0.38
   3  -4  10    6.35    0.37
   4  -4  10    2.45    0.16
  -4  -3  10    0.50    0.15
  -3  -3  10   12.84    0.32
  -2  -3  10   52.23    1.07
  -1  -3  10   76.70    1.53
   0  -3  10   77.92    1.90
   1  -3  10    3.56    0.25
   2  -3  10    5.34    0.27
   3  -3  10    9.13    0.46
   4  -3  10   10.40    0.27
  -4  -2  10    1.15    0.15
  -3  -2  10   16.03    0.39
  -2  -2  10    5.75    0.22
  -1  -2  10    8.55    0.28
   0  -2  10    1.09    0.25
   1  -2  10   59.16    1.51
   2  -2  10  120.22    2.96
   3  -2  10    6.14    0.26
   4  -2  10   54.00    1.06
  -4  -1  10    1.78    0.11
  -3  -1  10   14.30    0.36
  -2  -1  10   58.41    1.19
  -1  -1  10   10.43    0.31
   0  -1  10   24.52    0.68
   1  -1  10   69.91    1.76
   2  -1  10   42.36    0.88
   3  -1  10    6.81    0.27
   4  -1  10    2.22    0.13
   5  -1  10    0.06    0.15
  -4   0  10    0.84    0.09
  -3   0  10    0.23    0.15
  -2   0  10    3.94    0.20
  -1   0  10   44.23    0.93
   0   0  10    0.37    0.37
   1   0  10    0.40    0.24
   2   0  10  135.20    2.59
   3   0  10    0.35    0.17
   4   0  10    1.18    0.12
   5   0  10    2.88    0.16
  -4   1  10    3.61    0.14
  -3   1  10    6.02    0.24
  -2   1  10    3.18    0.22
  -1   1  10    3.38    0.21
   0   1  10    1.55    0.27
   1   1  10   39.70    0.82
   2   1  10   37.89    0.93
   3   1  10   36.47    0.90
   4   1  10   16.54    0.38
   5   1  10    8.70    0.33
  -4   2  10    2.13    0.12
  -3   2  10   11.32    0.36
  -2   2  10   45.34    1.13
  -1   2  10   34.12    0.88
   0   2  10   25.35    0.67
   1   2  10   26.60    0.59
   2   2  10   51.25    1.21
   3   2  10    7.63    0.24
   4   2  10    1.40    0.12
   5   2  10    0.04    0.12
  -4   3  10   13.05    0.34
  -3   3  10    1.13    0.14
  -2   3  10    6.32    0.23
  -1   3  10    2.28    0.19
   0   3  10    3.08    0.21
   1   3  10    6.25    0.33
   2   3  10    6.30    0.26
   3   3  10    2.64    0.16
   4   3  10    0.80    0.13
   5   3  10    3.64    0.18
  -3   4  10    0.04    0.14
  -2   4  10    1.06    0.15
  -1   4  10    0.26    0.17
   0   4  10   18.97    0.45
   1   4  10   15.94    0.47
   2   4  10   92.56    1.83
   3   4  10   25.79    0.57
   4   4  10   36.28    0.74
  -3   5  10    8.73    0.28
  -2   5  10   39.42    0.79
  -1   5  10    0.52    0.16
   0   5  10   61.70    1.21
   1   5  10    6.24    0.27
   2   5  10    0.33    0.18
   3   5  10    1.20    0.15
   4   5  10    1.73    0.14
  -3   6  10    7.83    0.25
  -2   6  10    0.87    0.14
  -1   6  10    0.35    0.14
   0   6  10    0.94    0.16
   1   6  10   29.97    0.64
   2   6  10   37.42    0.93
   3   6  10    4.24    0.21
   4   6  10    0.00    0.12
  -3   7  10    5.41    0.19
  -2   7  10    2.08    0.13
  -1   7  10   20.99    0.41
   0   7  10   42.48    0.87
   1   7  10    3.29    0.18
   2   7  10    0.39    0.18
   3   7  10   53.45    1.25
   4   7  10   39.50    0.91
  -2   8  10   11.04    0.26
  -1   8  10   16.80    0.39
   0   8  10    4.70    0.20
   1   8  10   23.45    0.52
   2   8  10    0.36    0.16
   3   8  10   33.09    0.79
   4   8  10    7.42    0.30
  -2   9  10    6.42    0.22
  -1   9  10    0.02    0.14
   0   9  10   32.68    0.68
   1   9  10   24.40    0.53
   2   9  10    2.80    0.17
   3   9  10   13.96    0.37
  -1  10  10    0.10    0.12
   0  10  10   56.09    1.08
   1  10  10   24.29    0.51
   2  10  10   11.16    0.32
   3  10  10    4.57    0.17
  -1  11  10    1.50    0.10
   0  11  10    8.69    0.27
   1  11  10    0.84    0.09
   2  11  10    0.75    0.11
   0  12  10    2.54    0.13
   1  12  10    7.37    0.30
  -1 -10  11    1.37    0.16
   0 -10  11    9.66    0.39
  -1  -9  11    8.28    0.46
   0  -9  11    7.62    0.28
   1  -9  11   10.48    0.60
  -2  -8  11    1.03    0.27
  -1  -8  11   11.11    0.55
   0  -8  11   17.48    0.78
   1  -8  11    3.11    0.24
   2  -8  11   16.66    0.63
  -2  -7  11    1.50    0.13
  -1  -7  11    1.99    0.28
   0  -7  11    3.81    0.32
   1  -7  11    0.35    0.28
   2  -7  11    4.06    0.29
   3  -7  11    9.83    0.40
  -3  -6  11    0.95    0.10
  -2  -6  11    5.02    0.21
  -1  -6  11   10.69    0.35
   0  -6  11    6.39    0.41
   1  -6  11    8.89    0.52
   2  -6  11    7.55    0.30
   3  -6  11   16.90    0.64
  -3  -5  11   12.64    0.38
  -2  -5  11    5.00    0.22
  -1  -5  11    2.08    0.18
   0  -5  11  115.75    2.74
   1  -5  11   41.34    1.65
   2  -5  11   11.90    0.41
   3  -5  11    5.36    0.30
   4  -5  11    4.70    0.23
  -3  -4  11    3.57    0.18
  -2  -4  11    0.78    0.16
  -1  -4  11    2.66    0.20
   0  -4  11   32.28    0.85
   1  -4  11  153.57    3.72
   2  -4  11   56.40    1.44
   3  -4  11   31.97    1.15
   4  -4  11   14.81    0.55
  -3  -3  11    2.50    0.16
  -2  -3  11    1.24    0.14
  -1  -3  11    1.67    0.19
   0  -3  11    4.59    0.26
   1  -3  11    5.50    0.29
   2  -3  11    1.07    0.22
   3  -3  11    0.99    0.26
   4  -3  11   10.76    0.34
  -3  -2  11   11.30    0.33
  -2  -2  11   48.91    1.00
  -1  -2  11   26.27    0.59
   0  -2  11    1.35    0.22
   1  -2  11   19.65    0.59
   2  -2  11    3.41    0.23
   3  -2  11    4.55    0.22
   4  -2  11    2.30    0.12
  -3  -1  11    2.48    0.15
  -2  -1  11   13.77    0.36
  -1  -1  11   17.84    0.44
   0  -1  11   23.17    0.66
   1  -1  11   19.25    0.58
   2  -1  11   63.15    1.61
   3  -1  11    0.86    0.16
   4  -1  11    6.81    0.20
  -3   0  11   25.68    0.65
  -2   0  11    1.01    0.19
  -1   0  11   35.04    0.76
   0   0  11   95.91    3.54
   1   0  11    1.26    0.21
   2   0  11  168.47    3.20
   3   0  11    0.31    0.17
   4   0  11    0.72    0.10
  -3   1  11    0.59    0.14
  -2   1  11    3.52    0.22
  -1   1  11    1.01    0.23
   0   1  11   27.65    1.15
   1   1  11   22.61    0.52
   2   1  11    1.00    0.20
   3   1  11   17.42    0.48
   4   1  11   32.11    0.66
  -3   2  11    1.95    0.14
  -2   2  11   17.57    0.51
  -1   2  11    5.45    0.29
   0   2  11    1.25    0.25
   1   2  11   41.02    0.85
   2   2  11   57.78    1.36
   3   2  11    0.01    0.14
   4   2  11    0.83    0.11
  -3   3  11   24.95    0.63
  -2   3  11    1.16    0.18
  -1   3  11    3.64    0.21
   0   3  11   15.49    0.39
   1   3  11    4.31    0.29
   2   3  11    3.45    0.20
   3   3  11   34.22    0.71
   4   3  11    0.16    0.11
  -3   4  11    1.08    0.11
  -2   4  11    0.70    0.16
  -1   4  11   51.30    1.00
   0   4  11    0.66    0.20
   1   4  11    5.95    0.28
   2   4  11   18.79    0.52
   3   4  11    0.65    0.15
   4   4  11   10.71    0.30
  -3   5  11    0.20    0.11
  -2   5  11   36.61    0.73
  -1   5  11   81.17    1.53
   0   5  11   69.14    1.35
   1   5  11   29.22    0.76
   2   5  11   79.67    1.83
   3   5  11   26.79    0.67
   4   5  11    1.58    0.12
  -3   6  11    4.80    0.17
  -2   6  11    0.91    0.13
  -1   6  11    0.86    0.16
   0   6  11    1.27    0.17
   1   6  11    7.83    0.29
   2   6  11   30.61    0.81
   3   6  11    1.10    0.13
   4   6  11    0.10    0.11
  -2   7  11    0.55    0.12
  -1   7  11    0.56    0.15
   0   7  11   12.19    0.32
   1   7  11    3.98    0.21
   2   7  11    1.37    0.17
   3   7  11    4.67    0.19
   4   7  11   18.27    0.45
  -2   8  11    9.21    0.28
  -1   8  11   53.81    1.28
   0   8  11    0.37    0.14
   1   8  11    0.62    0.14
   2   8  11   18.79    0.50
   3   8  11   10.76    0.30
  -2   9  11    0.82    0.15
  -1   9  11    0.18    0.12
   0   9  11    0.41    0.13
   1   9  11   14.43    0.34
   2   9  11    7.32    0.24
   3   9  11   17.33    0.43
  -1  10  11   19.43    0.49
   0  10  11    3.12    0.16
   1  10  11   49.87    0.96
   2  10  11   18.84    0.47
   3  10  11    1.25    0.14
   0  11  11    2.13    0.13
   1  11  11    8.08    0.32
   2  11  11    0.67    0.12
  -1  -9  12    0.51    0.19
   0  -9  12    3.73    0.27
  -1  -8  12    4.78    0.33
   0  -8  12    4.72    0.22
   1  -8  12    8.08    0.48
  -1  -7  12    2.84    0.26
   0  -7  12   14.83    0.68
   1  -7  12    2.46    0.30
  -2  -6  12    0.09    0.14
  -1  -6  12    4.12    0.20
   0  -6  12   11.47    0.58
   1  -6  12    9.55    0.53
   2  -6  12   24.46    0.88
   3  -6  12    2.10    0.18
  -2  -5  12   11.31    0.35
  -1  -5  12    2.12    0.17
   0  -5  12   26.85    1.13
   1  -5  12    0.08    0.33
   2  -5  12    4.48    0.23
   3  -5  12    5.35    0.28
  -3  -4  12   20.22    0.67
  -2  -4  12    0.92    0.14
  -1  -4  12    1.78    0.17
   0  -4  12   73.56    2.33
   1  -4  12   10.22    0.56
   2  -4  12    9.14    0.34
   3  -4  12    5.39    0.29
   4  -4  12    0.30    0.15
  -3  -3  12    1.24    0.14
  -2  -3  12    1.17    0.16
  -1  -3  12   13.65    0.43
   0  -3  12  125.85    2.96
   1  -3  12   33.09    0.90
   2  -3  12    0.76    0.20
   3  -3  12   14.73    0.59
   4  -3  12   18.57    0.66
  -3  -2  12   15.25    0.54
  -2  -2  12   41.37    0.85
  -1  -2  12   39.11    0.99
   0  -2  12   11.20    0.41
   1  -2  12    8.13    0.34
   2  -2  12    1.26    0.19
   3  -2  12    2.82    0.24
   4  -2  12    5.67    0.21
  -3  -1  12    2.42    0.13
  -2  -1  12    0.89    0.14
  -1  -1  12    3.77    0.24
   0  -1  12   19.76    0.88
   1  -1  12  118.04    2.88
   2  -1  12   17.19    0.53
   3  -1  12   28.39    0.70
   4  -1  12    7.51    0.21
  -3   0  12   18.31    0.47
  -2   0  12    7.76    0.28
  -1   0  12    1.28    0.19
   0   0  12   57.91    2.20
   1   0  12   82.84    2.06
   2   0  12   17.13    0.50
   3   0  12    2.20    0.17
   4   0  12    6.13    0.18
  -3   1  12    0.39    0.12
  -2   1  12    5.94    0.25
  -1   1  12   12.77    0.42
   0   1  12    1.44    0.54
   1   1  12   12.90    0.44
   2   1  12    0.59    0.19
   3   1  12    1.60    0.13
   4   1  12    1.53    0.10
  -3   2  12    0.15    0.11
  -2   2  12    0.90    0.15
  -1   2  12   21.62    0.60
   1   2  12    1.98    0.19
   2   2  12   32.55    0.81
   3   2  12   38.69    0.79
   4   2  12   18.12    0.39
  -3   3  12    5.25    0.18
  -2   3  12    3.53    0.19
  -1   3  12    0.95    0.24
   0   3  12   11.17    0.39
   1   3  12  101.42    2.30
   2   3  12    7.23    0.27
   3   3  12    1.37    0.13
   4   3  12    0.05    0.10
  -3   4  12    1.96    0.12
  -2   4  12    0.60    0.17
  -1   4  12    4.28    0.20
   0   4  12    4.78    0.25
   1   4  12   44.51    1.08
   2   4  12    0.43    0.16
   3   4  12    1.80    0.14
   4   4  12    4.83    0.17
  -2   5  12    4.51    0.20
  -1   5  12    0.30    0.17
   0   5  12    1.50    0.19
   1   5  12   12.55    0.40
   2   5  12    9.53    0.34
   3   5  12   50.99    1.19
   4   5  12    4.63    0.16
  -2   6  12    8.36    0.27
  -1   6  12   75.89    1.76
   0   6  12    5.28    0.20
   1   6  12    1.73    0.17
   2   6  12    0.00    0.23
   3   6  12    1.76    0.13
   4   6  12    0.02    0.10
  -2   7  12    1.17    0.17
  -1   7  12    3.40    0.18
   0   7  12    5.30    0.19
   1   7  12   12.15    0.36
   2   7  12   15.49    0.44
   3   7  12    0.46    0.12
  -1   8  12    7.12    0.24
   0   8  12    0.61    0.12
   1   8  12    1.17    0.13
   2   8  12    5.76    0.21
   3   8  12   24.21    0.58
  -1   9  12    0.69    0.11
   0   9  12   24.23    0.49
   1   9  12   12.59    0.35
   2   9  12    1.48    0.11
   3   9  12    3.11    0.13
   0  10  12    1.77    0.13
   1  10  12    6.68    0.21
   2  10  12   16.88    0.41
   0  -7  13    5.83    0.26
   1  -7  13   20.04    0.85
  -1  -6  13   13.78    0.63
   0  -6  13    0.09    0.32
   1  -6  13    6.09    0.39
  -2  -5  13    1.55    0.15
  -1  -5  13    7.50    0.26
   0  -5  13   17.28    0.77
   1  -5  13    4.64    0.36
   2  -5  13   35.93    1.23
   3  -5  13   36.13    1.21
  -2  -4  13    3.53    0.19
  -1  -4  13   12.30    0.37
   0  -4  13    0.73    0.31
   1  -4  13    5.15    0.39
   2  -4  13    0.11    0.26
   3  -4  13    0.42    0.16
  -2  -3  13    0.65    0.13
  -1  -3  13    1.08    0.16
   0  -3  13   17.26    0.78
   1  -3  13   38.63    1.54
   2  -3  13   34.63    0.91
   3  -3  13   12.67    0.50
  -2  -2  13    3.28    0.22
  -1  -2  13   21.02    0.58
   0  -2  13    1.07    0.37
   1  -2  13   20.26    0.91
   2  -2  13   14.01    0.58
   3  -2  13   12.33    0.49
   4  -2  13   11.83    0.43
  -3  -1  13    5.03    0.22
  -2  -1  13   14.29    0.39
  -1  -1  13    4.41    0.24
   0  -1  13   16.50    0.77
   1  -1  13   67.00    1.68
   2  -1  13    8.37    0.42
   3  -1  13    8.45    0.38
   4  -1  13    9.65    0.38
  -3   0  13    0.47    0.15
  -2   0  13    5.44    0.21
  -1   0  13   23.79    0.84
   0   0  13    3.10    0.40
   1   0  13   84.64    2.09
   2   0  13    5.23    0.33
   3   0  13    0.70    0.18
   4   0  13   29.96    1.01
  -3   1  13    6.20    0.26
  -2   1  13   19.73    0.52
  -1   1  13   14.85    0.58
   1   1  13  141.17    3.42
   2   1  13    0.54    0.17
   3   1  13    0.59    0.14
   4   1  13    5.58    0.25
  -2   2  13    0.00    0.15
  -1   2  13    0.36    0.22
   1   2  13    1.86    0.22
   2   2  13    0.83    0.16
   3   2  13   13.38    0.32
   4   2  13    4.97    0.17
  -2   3  13    1.29    0.14
  -1   3  13    1.65    0.27
   1   3  13   18.88    0.55
   2   3  13    8.90    0.29
   3   3  13    1.65    0.13
   4   3  13    2.73    0.13
  -2   4  13    6.98    0.23
  -1   4  13    8.55    0.46
   0   4  13   15.66    0.48
   1   4  13    2.56    0.22
   2   4  13   24.66    0.62
   3   4  13    0.12    0.12
   4   4  13    1.94    0.11
  -2   5  13    0.62    0.13
  -1   5  13    2.15    0.18
   0   5  13    9.91    0.32
   1   5  13   47.97    1.13
   2   5  13    0.11    0.13
   3   5  13    8.46    0.26
  -2   6  13    0.59    0.21
  -1   6  13   17.28    0.46
   0   6  13   15.42    0.42
   1   6  13   26.96    0.67
   2   6  13   22.72    0.58
   3   6  13    7.17    0.22
  -1   7  13    0.73    0.14
   0   7  13   18.85    0.48
   1   7  13   18.38    0.48
   2   7  13    0.75    0.13
   3   7  13    0.72    0.09
  -1   8  13    1.48    0.15
   0   8  13    5.99    0.28
   1   8  13    0.39    0.12
   2   8  13   11.37    0.31
   0   9  13    7.97    0.32
   1   9  13    8.50    0.24
   2   9  13    0.43    0.09
   0  -6  14    7.08    0.43
   1  -6  14    0.00    0.37
   0  -5  14    5.20    0.36
   1  -5  14   16.64    0.74
  -1  -4  14   55.14    2.07
   0  -4  14    6.56    0.41
   1  -4  14    3.89    0.33
  -2  -3  14    1.72    0.18
  -1  -3  14    1.74    0.47
   0  -3  14    0.51    0.39
   1  -3  14    1.03    0.39
   2  -3  14    1.24    0.22
   3  -3  14    2.69    0.18
  -2  -2  14    3.84    0.21
  -1  -2  14   18.04    0.51
   0  -2  14   14.55    0.69
   1  -2  14   23.26    0.99
   2  -2  14   38.88    1.33
   3  -2  14   36.03    0.91
  -2  -1  14   12.62    0.46
  -1  -1  14    3.09    0.26
   0  -1  14    2.00    0.38
   1  -1  14   11.35    0.60
   2  -1  14    2.01    0.22
   3  -1  14    4.10    0.19
  -2   0  14    0.00    0.18
   1   0  14    0.52    0.53
   2   0  14    9.30    0.42
   3   0  14   10.01    0.32
  -2   1  14    1.76    0.21
   1   1  14   32.12    1.14
   2   1  14    7.46    0.36
   3   1  14    4.75    0.25
  -2   2  14    1.83    0.25
   1   2  14    1.54    0.34
   2   2  14    1.39    0.20
   3   2  14    0.51    0.12
   1   3  14   14.32    0.64
   2   3  14    0.80    0.16
   3   3  14    4.96    0.18
   1   4  14    4.50    0.25
   2   4  14   11.68    0.33
   3   4  14    0.46    0.12
   0   5  14    3.29    0.27
   1   5  14    0.11    0.15
   2   5  14    1.24    0.12
   3   5  14    1.98    0.11
   0   6  14    5.02    0.28
   1   6  14    3.59    0.16
   2   6  14   12.99    0.35
   3   6  14    1.23    0.09
   0   7  14    6.64    0.30
   1   7  14    0.89    0.11
   2   7  14   13.11    0.37
   0   8  14   10.62    0.44
   1   8  14    6.83    0.21
   2   8  14    2.40    0.11
   1  -3  15    2.87    0.33
   1  -2  15    1.56    0.50
   2  -1  15    6.17    0.34
   3  -1  15   10.34    0.45
   2   0  15    0.00    0.24
   3   0  15    0.88    0.15
   2   1  15    6.50    0.33
   3   1  15   47.94    1.58
   2   2  15    0.14    0.23
   3   2  15    6.62    0.29
   2   3  15   16.92    0.62
   3   3  15    4.43    0.22
   2   4  15    0.24    0.20
   1   5  15   27.16    0.94
   2   5  15    4.72    0.19
   2   6  15   16.86    0.69
   0   0   0    0.00    0.00
;
_shelx_hkl_checksum              30743
_shelx_res_file
;
    JTM602_0m_4.res created by SHELXL-2014/7
TITL JTM602_0m_4_a.res in P-1
REM Old TITL JTM602_0m_4 in P-1
REM SHELXT solution in P-1
REM R1 0.105,  Rweak 0.009,  Alpha 0.051,  Orientation as input
REM Formula found by SHELXT:  C15 N O4 S
CELL  1.54178   4.7310  11.9082  13.2907   87.354   82.381   85.283
ZERR    2.000   0.0001   0.0003   0.0004    0.001    0.001    0.001
LATT  1
SFAC C H N O S
UNIT 30 30 2 8 2
TEMP -123
SIZE 0.08 0.08 0.19
L.S. 5
BOND $H
LIST 4
FMAP 2
CONF
ACTA 134
EQIV $1 -x, -y+1, -z+1
HTAB C8 O1_$1
EQIV $2 x+1, y, z
HTAB C12 O3_$2
MPLA C1 > C6
MPLA C9 > C11 N1 S1
PLAN 5
WGHT    0.049600    0.290000
FVAR       0.44617   0.65596
S1    5    0.467906    0.809824    0.585282    11.00000    0.03228    0.01908 =
         0.02700    0.00268   -0.00876   -0.00486
O1    4    0.252252    0.504937    0.597126    11.00000    0.03493    0.02055 =
         0.03113    0.00442   -0.00771   -0.00827
O2    4    0.776812    0.748994    0.733867    11.00000    0.04055    0.03177 =
         0.03285    0.00296   -0.01519   -0.01077
O3    4    0.198282    0.551640    0.851554    11.00000    0.02595    0.03961 =
         0.02993    0.00241   -0.00133    0.00461
O4    4    0.498485    0.398673    0.874314    11.00000    0.03474    0.02698 =
         0.02583    0.00823    0.00092   -0.00065
N1    3    0.537892    0.611544    0.672628    11.00000    0.02533    0.02131 =
         0.02336    0.00416   -0.00506   -0.00275
C1    1    0.063415    0.786367    0.391957    11.00000    0.02731    0.02101 =
         0.02254    0.00092   -0.00303   -0.00011
C2    1    0.152512    0.895922    0.387045    11.00000    0.04274    0.02469 =
         0.03731    0.00556   -0.01729   -0.00765
AFIX  43
H2    2    0.268265    0.917205    0.435096    11.00000   -1.20000
AFIX   0
C3    1    0.074354    0.973534    0.313236    11.00000    0.04525    0.02421 =
         0.04070    0.00827   -0.01216   -0.00620
AFIX  43
H3    2    0.137859    1.047321    0.311450    11.00000   -1.20000
AFIX   0
C4    1   -0.094952    0.946082    0.241611    11.00000    0.04267    0.02719 =
         0.02619    0.00447   -0.00638    0.00327
C5    1   -0.187236    0.837852    0.247100    11.00000    0.05690    0.03000 =
         0.03164    0.00000   -0.02120    0.00030
AFIX  43
H5    2   -0.305909    0.817419    0.199659    11.00000   -1.20000
AFIX   0
C6    1   -0.109214    0.759302    0.320507    11.00000    0.04419    0.02172 =
         0.03061   -0.00015   -0.01280   -0.00291
AFIX  43
H6    2   -0.174225    0.685763    0.322288    11.00000   -1.20000
AFIX   0
C7    1   -0.180210    1.032185    0.162149    11.00000    0.07193    0.03649 =
         0.03741    0.01096   -0.01947    0.00282
PART 1
AFIX   3
H7A   2   -0.106150    1.009331    0.093131    21.00000   -1.50000
H7B   2   -0.388372    1.044687    0.164693    21.00000   -1.50000
H7C   2   -0.108857    1.105770    0.170254    21.00000   -1.50000
AFIX   3
PART 2
H7D   2   -0.295364    1.001019    0.115635   -21.00000   -1.50000
H7E   2   -0.013822    1.061145    0.120148   -21.00000   -1.50000
H7F   2   -0.294059    1.097631    0.192283   -21.00000   -1.50000
AFIX   0
PART 0
C8    1    0.136754    0.698614    0.466006    11.00000    0.02623    0.01951 =
         0.02361    0.00075   -0.00272   -0.00210
AFIX  43
H8    2    0.058769    0.628778    0.459125    11.00000   -1.20000
AFIX   0
C9    1    0.295855    0.699504    0.542407    11.00000    0.02450    0.01759 =
         0.02330    0.00150   -0.00123   -0.00238
C10   1    0.350639    0.594884    0.603841    11.00000    0.02206    0.02200 =
         0.02080    0.00120   -0.00082   -0.00233
C11   1    0.620558    0.719865    0.676852    11.00000    0.02733    0.02375 =
         0.02418    0.00179   -0.00303   -0.00475
C12   1    0.637672    0.520132    0.738005    11.00000    0.02413    0.02466 =
         0.02498    0.00612   -0.00304    0.00065
AFIX  23
H12A  2    0.812572    0.540550    0.764024    11.00000   -1.20000
H12B  2    0.688483    0.451749    0.697818    11.00000   -1.20000
AFIX   0
C13   1    0.415216    0.494208    0.826660    11.00000    0.02398    0.02434 =
         0.02008    0.00047   -0.00610   -0.00427
C14   1    0.305040    0.362987    0.962929    11.00000    0.04180    0.04318 =
         0.02376    0.00920    0.00094   -0.01212
AFIX  23
H14A  2    0.121648    0.344252    0.942129    11.00000   -1.20000
H14B  2    0.265135    0.424133    1.012020    11.00000   -1.20000
AFIX   0
C15   1    0.450962    0.260716    1.010433    11.00000    0.07036    0.03954 =
         0.03022    0.01359   -0.01133   -0.01483
AFIX 137
H15A  2    0.323170    0.232084    1.068340    11.00000   -1.50000
H15B  2    0.627167    0.281275    1.033786    11.00000   -1.50000
H15C  2    0.497575    0.202190    0.960106    11.00000   -1.50000
AFIX   0
HKLF 4
REM  JTM602_0m_4_a.res in P-1
REM R1 =  0.0366 for    2648 Fo > 4sig(Fo)  and  0.0391 for all    2825 data
REM    192 parameters refined using      0 restraints
END
WGHT      0.0493      0.2903
REM Highest difference peak  0.223,  deepest hole -0.274,  1-sigma level  0.052
Q1    1   0.3126  0.6499  0.5763  11.00000  0.05    0.22
Q2    1   0.4598  0.9182  0.5838  11.00000  0.05    0.18
Q3    1   0.6788  0.8784  0.5359  11.00000  0.05    0.18
Q4    1   0.0145  1.0832  0.3455  11.00000  0.05    0.18
Q5    1  -0.0829  0.5819  0.3355  11.00000  0.05    0.17
;
_shelx_res_checksum              61474
loop_
_space_group_symop_operation_xyz
'x, y, z'
'-x, -y, -z'
loop_
_atom_site_type_symbol
_atom_site_label
_atom_site_fract_x
_atom_site_fract_y
_atom_site_fract_z
_atom_site_U_iso_or_equiv
_atom_site_adp_type
_atom_site_calc_flag
_atom_site_occupancy
_atom_site_disorder_assembly
_atom_site_disorder_group
S S1 0.46791(8) 0.80982(3) 0.58528(3) 0.02562(13) Uani d 1 . .
O O1 0.2523(2) 0.50494(9) 0.59713(8) 0.0284(3) Uani d 1 . .
O O2 0.7768(3) 0.74899(10) 0.73387(9) 0.0338(3) Uani d 1 . .
O O3 0.1983(2) 0.55164(10) 0.85155(9) 0.0325(3) Uani d 1 . .
O O4 0.4985(2) 0.39867(9) 0.87431(8) 0.0300(3) Uani d 1 . .
N N1 0.5379(3) 0.61154(10) 0.67263(9) 0.0233(3) Uani d 1 . .
C C1 0.0634(3) 0.78637(12) 0.39196(11) 0.0238(3) Uani d 1 . .
C C2 0.1525(4) 0.89592(14) 0.38704(14) 0.0337(4) Uani d 1 . .
H H2 0.2683 0.9172 0.4351 0.040 Uiso calc 1 . .
C C3 0.0744(4) 0.97353(14) 0.31324(14) 0.0362(4) Uani d 1 . .
H H3 0.1379 1.0473 0.3115 0.043 Uiso calc 1 . .
C C4 -0.0950(4) 0.94608(14) 0.24161(13) 0.0323(4) Uani d 1 . .
C C5 -0.1872(4) 0.83785(15) 0.24710(14) 0.0384(4) Uani d 1 . .
H H5 -0.3059 0.8174 0.1997 0.046 Uiso calc 1 . .
C C6 -0.1092(4) 0.75930(13) 0.32051(13) 0.0315(4) Uani d 1 . .
H H6 -0.1742 0.6858 0.3223 0.038 Uiso calc 1 . .
C C7 -0.1802(5) 1.03219(16) 0.16215(15) 0.0483(5) Uani d 1 . .
H H7A -0.1061 1.0093 0.0931 0.072 Uiso d 0.66(3) A 1
H H7B -0.3884 1.0447 0.1647 0.072 Uiso d 0.66(3) A 1
H H7C -0.1089 1.1058 0.1703 0.072 Uiso d 0.66(3) A 1
H H7D -0.2954 1.0010 0.1156 0.072 Uiso d 0.34(3) A 2
H H7E -0.0138 1.0611 0.1201 0.072 Uiso d 0.34(3) A 2
H H7F -0.2941 1.0976 0.1923 0.072 Uiso d 0.34(3) A 2
C C8 0.1368(3) 0.69861(12) 0.46601(11) 0.0232(3) Uani d 1 . .
H H8 0.0588 0.6288 0.4591 0.028 Uiso calc 1 . .
C C9 0.2959(3) 0.69950(11) 0.54241(11) 0.0220(3) Uani d 1 . .
C C10 0.3506(3) 0.59488(12) 0.60384(11) 0.0218(3) Uani d 1 . .
C C11 0.6206(3) 0.71986(13) 0.67685(12) 0.0250(3) Uani d 1 . .
C C12 0.6377(3) 0.52013(13) 0.73800(11) 0.0250(3) Uani d 1 . .
H H12A 0.8126 0.5405 0.7640 0.030 Uiso calc 1 . .
H H12B 0.6885 0.4517 0.6978 0.030 Uiso calc 1 . .
C C13 0.4152(3) 0.49421(12) 0.82666(11) 0.0224(3) Uani d 1 . .
C C14 0.3050(4) 0.36299(16) 0.96293(13) 0.0365(4) Uani d 1 . .
H H14A 0.1216 0.3443 0.9421 0.044 Uiso calc 1 . .
H H14B 0.2651 0.4241 1.0120 0.044 Uiso calc 1 . .
C C15 0.4510(5) 0.26072(17) 1.01043(15) 0.0461(5) Uani d 1 . .
H H15A 0.3232 0.2321 1.0683 0.069 Uiso calc 1 . .
H H15B 0.6272 0.2813 1.0338 0.069 Uiso calc 1 . .
H H15C 0.4976 0.2022 0.9601 0.069 Uiso calc 1 . .
loop_
_atom_site_aniso_label
_atom_site_aniso_U_11
_atom_site_aniso_U_22
_atom_site_aniso_U_33
_atom_site_aniso_U_12
_atom_site_aniso_U_13
_atom_site_aniso_U_23
S1 0.0323(2) 0.01908(19) 0.0270(2) -0.00486(14) -0.00876(14) 0.00268(13)
O1 0.0349(6) 0.0206(5) 0.0311(6) -0.0083(4) -0.0077(4) 0.0044(4)
O2 0.0405(7) 0.0318(6) 0.0328(6) -0.0108(5) -0.0152(5) 0.0030(5)
O3 0.0259(6) 0.0396(6) 0.0299(6) 0.0046(5) -0.0013(4) 0.0024(5)
O4 0.0347(6) 0.0270(5) 0.0258(6) -0.0007(4) 0.0009(4) 0.0082(4)
N1 0.0253(6) 0.0213(6) 0.0234(7) -0.0027(5) -0.0051(5) 0.0042(5)
C1 0.0273(7) 0.0210(7) 0.0225(8) -0.0001(5) -0.0030(6) 0.0009(5)
C2 0.0427(9) 0.0247(8) 0.0373(9) -0.0076(7) -0.0173(7) 0.0056(7)
C3 0.0452(10) 0.0242(8) 0.0407(10) -0.0062(7) -0.0122(8) 0.0083(7)
C4 0.0427(9) 0.0272(8) 0.0262(8) 0.0033(7) -0.0064(7) 0.0045(6)
C5 0.0569(11) 0.0300(8) 0.0316(9) 0.0003(8) -0.0212(8) 0.0000(7)
C6 0.0442(9) 0.0217(7) 0.0306(9) -0.0029(6) -0.0128(7) -0.0001(6)
C7 0.0719(14) 0.0365(10) 0.0374(11) 0.0028(9) -0.0195(9) 0.0110(8)
C8 0.0262(7) 0.0195(7) 0.0236(8) -0.0021(5) -0.0027(5) 0.0008(5)
C9 0.0245(7) 0.0176(6) 0.0233(7) -0.0024(5) -0.0012(5) 0.0015(5)
C10 0.0221(7) 0.0220(7) 0.0208(7) -0.0023(5) -0.0008(5) 0.0012(5)
C11 0.0273(7) 0.0238(7) 0.0242(8) -0.0048(6) -0.0030(6) 0.0018(5)
C12 0.0241(7) 0.0247(7) 0.0250(8) 0.0007(5) -0.0030(6) 0.0061(6)
C13 0.0240(7) 0.0243(7) 0.0201(7) -0.0043(5) -0.0061(5) 0.0005(5)
C14 0.0418(9) 0.0432(10) 0.0238(9) -0.0121(8) 0.0009(7) 0.0092(7)
C15 0.0704(13) 0.0395(10) 0.0302(10) -0.0148(9) -0.0113(9) 0.0136(8)
loop_
_atom_type_symbol
_atom_type_description
_atom_type_scat_dispersion_real
_atom_type_scat_dispersion_imag
_atom_type_scat_source
C C 0.0181 0.0091 'International Tables Vol C Tables 4.2.6.8 and 6.1.1.4'
H H 0.0000 0.0000 'International Tables Vol C Tables 4.2.6.8 and 6.1.1.4'
N N 0.0311 0.0180 'International Tables Vol C Tables 4.2.6.8 and 6.1.1.4'
O O 0.0492 0.0322 'International Tables Vol C Tables 4.2.6.8 and 6.1.1.4'
S S 0.3331 0.5567 'International Tables Vol C Tables 4.2.6.8 and 6.1.1.4'
loop_
_geom_angle_atom_site_label_1
_geom_angle_atom_site_label_2
_geom_angle_atom_site_label_3
_geom_angle
C9 S1 C11 92.06(7)
C13 O4 C14 115.90(12)
C11 N1 C10 116.74(12)
C11 N1 C12 121.85(12)
C10 N1 C12 121.40(12)
C6 C1 C2 117.54(14)
C6 C1 C8 117.54(13)
C2 C1 C8 124.92(14)
C3 C2 C1 120.88(15)
C3 C2 H2 119.6
C1 C2 H2 119.6
C2 C3 C4 121.47(15)
C2 C3 H3 119.3
C4 C3 H3 119.3
C3 C4 C5 117.82(15)
C3 C4 C7 120.74(16)
C5 C4 C7 121.42(16)
C6 C5 C4 121.16(16)
C6 C5 H5 119.4
C4 C5 H5 119.4
C5 C6 C1 121.11(15)
C5 C6 H6 119.4
C1 C6 H6 119.4
C4 C7 H7A 112.1
C4 C7 H7B 112.1
H7A C7 H7B 106.7
C4 C7 H7C 112.2
H7A C7 H7C 106.7
H7B C7 H7C 106.7
C4 C7 H7D 112.1
C4 C7 H7E 112.1
H7D C7 H7E 106.7
C4 C7 H7F 112.1
H7D C7 H7F 106.7
H7E C7 H7F 106.7
C9 C8 C1 130.99(14)
C9 C8 H8 114.5
C1 C8 H8 114.5
C8 C9 C10 119.93(13)
C8 C9 S1 130.02(11)
C10 C9 S1 110.04(10)
O1 C10 N1 122.54(13)
O1 C10 C9 126.79(13)
N1 C10 C9 110.67(12)
O2 C11 N1 125.07(14)
O2 C11 S1 124.62(12)
N1 C11 S1 110.31(11)
N1 C12 C13 112.17(12)
N1 C12 H12A 109.2
C13 C12 H12A 109.2
N1 C12 H12B 109.2
C13 C12 H12B 109.2
H12A C12 H12B 107.9
O3 C13 O4 125.07(14)
O3 C13 C12 125.38(13)
O4 C13 C12 109.54(12)
O4 C14 C15 107.17(15)
O4 C14 H14A 110.3
C15 C14 H14A 110.3
O4 C14 H14B 110.3
C15 C14 H14B 110.3
H14A C14 H14B 108.5
C14 C15 H15A 109.5
C14 C15 H15B 109.5
H15A C15 H15B 109.5
C14 C15 H15C 109.5
H15A C15 H15C 109.5
H15B C15 H15C 109.5
loop_
_geom_bond_atom_site_label_1
_geom_bond_atom_site_label_2
_geom_bond_distance
S1 C9 1.7553(15)
S1 C11 1.7708(16)
O1 C10 1.2140(18)
O2 C11 1.2066(19)
O3 C13 1.2025(18)
O4 C13 1.3329(18)
O4 C14 1.4619(19)
N1 C11 1.3840(19)
N1 C10 1.3858(19)
N1 C12 1.4490(18)
C1 C6 1.396(2)
C1 C2 1.400(2)
C1 C8 1.455(2)
C2 C3 1.382(2)
C2 H2 0.9500
C3 C4 1.389(2)
C3 H3 0.9500
C4 C5 1.390(2)
C4 C7 1.508(2)
C5 C6 1.385(2)
C5 H5 0.9500
C6 H6 0.9500
C7 H7A 0.9800
C7 H7B 0.9801
C7 H7C 0.9800
C7 H7D 0.9800
C7 H7E 0.9801
C7 H7F 0.9800
C8 C9 1.343(2)
C8 H8 0.9500
C9 C10 1.4816(19)
C12 C13 1.511(2)
C12 H12A 0.9900
C12 H12B 0.9900
C14 C15 1.505(3)
C14 H14A 0.9900
C14 H14B 0.9900
C15 H15A 0.9800
C15 H15B 0.9800
C15 H15C 0.9800
loop_
_geom_hbond_atom_site_label_D
_geom_hbond_atom_site_label_H
_geom_hbond_atom_site_label_A
_geom_hbond_site_symmetry_A
_geom_hbond_distance_DH
_geom_hbond_distance_HA
_geom_hbond_distance_DA
_geom_hbond_angle_DHA
C8 H8 O1 2_566 0.95 2.46 3.3612(18) 159
C12 H12A O3 1_655 0.99 2.31 3.2757(19) 166
loop_
_geom_torsion_atom_site_label_1
_geom_torsion_atom_site_label_2
_geom_torsion_atom_site_label_3
_geom_torsion_atom_site_label_4
_geom_torsion
C6 C1 C2 C3 -0.7(3)
C8 C1 C2 C3 179.36(15)
C1 C2 C3 C4 0.1(3)
C2 C3 C4 C5 0.8(3)
C2 C3 C4 C7 179.48(18)
C3 C4 C5 C6 -1.0(3)
C7 C4 C5 C6 -179.73(18)
C4 C5 C6 C1 0.4(3)
C2 C1 C6 C5 0.5(2)
C8 C1 C6 C5 -179.61(16)
C6 C1 C8 C9 179.98(16)
C2 C1 C8 C9 -0.1(3)
C1 C8 C9 C10 -176.52(14)
C1 C8 C9 S1 2.5(3)
C11 S1 C9 C8 -176.60(15)
C11 S1 C9 C10 2.52(11)
C11 N1 C10 O1 -176.16(14)
C12 N1 C10 O1 2.8(2)
C11 N1 C10 C9 4.37(18)
C12 N1 C10 C9 -176.67(12)
C8 C9 C10 O1 -4.5(2)
S1 C9 C10 O1 176.30(13)
C8 C9 C10 N1 174.96(13)
S1 C9 C10 N1 -4.26(15)
C10 N1 C11 O2 178.32(14)
C12 N1 C11 O2 -0.6(2)
C10 N1 C11 S1 -2.44(16)
C12 N1 C11 S1 178.60(10)
C9 S1 C11 O2 179.04(15)
C9 S1 C11 N1 -0.21(11)
C11 N1 C12 C13 101.44(16)
C10 N1 C12 C13 -77.47(17)
C14 O4 C13 O3 0.5(2)
C14 O4 C13 C12 179.43(13)
N1 C12 C13 O3 -11.2(2)
N1 C12 C13 O4 169.83(12)
C13 O4 C14 C15 -174.80(14)

_cod_database_fobs_code 1543472
