#------------------------------------------------------------------------------
#$Date: 2016-07-20 04:24:48 +0300 (Wed, 20 Jul 2016) $
#$Revision: 184534 $
#$URL: file:///home/coder/svn-repositories/cod/cif/1/54/36/1543683.cif $
#------------------------------------------------------------------------------
#
# This file is available in the Crystallography Open Database (COD),
# http://www.crystallography.net/. The original data for this entry
# were provided by IUCr Journals, http://journals.iucr.org/.
#
# The file may be used within the scientific community so long as
# proper attribution is given to the journal article from which the
# data were obtained.
#
data_1543683
loop_
_publ_author_name
'Madan Kumar, S.'
'Madhu Kumar, D. J.'
'Shivakumar, H. P.'
'Jagadeesha Prasad, D.'
'Byrappa, K.'
'Abdoh, M. M. M.'
_publ_section_title
;
 2-[(5-Amino-1,3,4-thiadiazol-2-yl)sulfanyl]-<i>N</i>-(2,4,5-trichlorophenyl)acetamide
;
_journal_coeditor_code           SU4061
_journal_issue                   7
_journal_name_full               IUCrData
_journal_page_first              x161123
_journal_paper_doi               10.1107/S2414314616011238
_journal_volume                  1
_journal_year                    2016
_chemical_formula_iupac          'C10 H7 Cl3 N4 O S2'
_chemical_formula_moiety         'C10 H7 Cl3 N4 O S2'
_chemical_formula_sum            'C10 H7 Cl3 N4 O S2'
_chemical_formula_weight         369.67
_chemical_name_systematic
2-[(5-Amino-1,3,4-thiadiazol-2-yl)sulfanyl]-<i>N</i>-(2,4,5-trichlorophenyl)acetamide
_space_group_crystal_system      monoclinic
_space_group_IT_number           14
_space_group_name_Hall           '-P 2ybc'
_space_group_name_H-M_alt        'P 1 21/c 1'
_symmetry_space_group_name_Hall  '-P 2ybc'
_symmetry_space_group_name_H-M   'P 1 21/c 1'
_atom_sites_solution_hydrogens   mixed
_atom_sites_solution_primary     direct
_audit_creation_method
;
Olex2 1.2
(compiled 2016.02.19 svn.r3266 for OlexSys, GUI svn.r5155)
;
_cell_angle_alpha                90
_cell_angle_beta                 95.701(7)
_cell_angle_gamma                90
_cell_formula_units_Z            4
_cell_length_a                   12.4679(12)
_cell_length_b                   11.9467(11)
_cell_length_c                   9.5278(8)
_cell_measurement_reflns_used    3200
_cell_measurement_temperature    273(2)
_cell_measurement_theta_max      27.5
_cell_measurement_theta_min      3.1
_cell_volume                     1412.1(2)
_computing_cell_refinement
;
CrystalClear (Rigaku, 2011)
;
_computing_data_collection
;
CrystalClear (Rigaku, 2011)
;
_computing_data_reduction
;
CrystalClear (Rigaku, 2011)
;
_computing_molecular_graphics
;
Mercury (Macrae <i>et al.</i>, 2008)
;
_computing_publication_material
;
<i>OLEX2</i> (Dolomanov <i>et al.</i>,  2009)
;
_computing_structure_refinement
;
SHELXL2014 (Sheldrick, 2015)
;
_computing_structure_solution
;
SHELXS97 (Sheldrick, 2008)
;
_diffrn_ambient_temperature      273.15
_diffrn_measured_fraction_theta_full 0.995
_diffrn_measured_fraction_theta_max 0.987
_diffrn_measurement_device       'AFC12 (Right): Kappa 3 circle'
_diffrn_measurement_device_type  'Rigaku Saturn724+'
_diffrn_measurement_method       'profile data from \w-scans'
_diffrn_radiation_type           MoK\a
_diffrn_radiation_wavelength     0.71075
_diffrn_reflns_av_R_equivalents  0.0521
_diffrn_reflns_limit_h_max       16
_diffrn_reflns_limit_h_min       -16
_diffrn_reflns_limit_k_max       15
_diffrn_reflns_limit_k_min       -15
_diffrn_reflns_limit_l_max       12
_diffrn_reflns_limit_l_min       -9
_diffrn_reflns_number            9999
_diffrn_reflns_theta_full        25.242
_diffrn_reflns_theta_max         27.477
_diffrn_reflns_theta_min         3.085
_diffrn_standards_number         3200
_exptl_absorpt_coefficient_mu    0.943
_exptl_absorpt_correction_T_max  0.910
_exptl_absorpt_correction_T_min  0.771
_exptl_absorpt_correction_type   multi-scan
_exptl_absorpt_process_details
;
(NUMABS; Rigaku, 1999)
;
_exptl_crystal_colour            colourless
_exptl_crystal_density_diffrn    1.739
_exptl_crystal_description       block
_exptl_crystal_F_000             744
_exptl_crystal_size_max          0.32
_exptl_crystal_size_mid          0.23
_exptl_crystal_size_min          0.1
_refine_diff_density_max         0.459
_refine_diff_density_min         -0.405
_refine_ls_extinction_method     none
_refine_ls_goodness_of_fit_ref   1.094
_refine_ls_hydrogen_treatment    constr
_refine_ls_matrix_type           full
_refine_ls_number_parameters     182
_refine_ls_number_reflns         3200
_refine_ls_number_restraints     0
_refine_ls_restrained_S_all      1.094
_refine_ls_R_factor_all          0.0757
_refine_ls_R_factor_gt           0.0507
_refine_ls_shift/su_max          0.001
_refine_ls_shift/su_mean         0.000
_refine_ls_structure_factor_coef Fsqd
_refine_ls_weighting_details
'w=1/[\s^2^(Fo^2^)+(0.0554P)^2^+0.4363P] where P=(Fo^2^+2Fc^2^)/3'
_refine_ls_weighting_scheme      calc
_refine_ls_wR_factor_gt          0.1177
_refine_ls_wR_factor_ref         0.1283
_reflns_number_gt                2292
_reflns_number_total             3200
_reflns_threshold_expression     'I > 2\s(I)'
_cod_data_source_file            su4061sup1.cif
_cod_data_source_block           I
_cod_database_code               1543683
_shelx_space_group_comment
;
The symmetry employed for this shelxl refinement is uniquely defined
by the following loop, which should always be used as a source of
symmetry information in preference to the above space-group names.
They are only intended as comments.
;
_shelx_hkl_file
;
   0   0   2  786.18   32.21
   0   0   2  821.99   34.35
   0   0  -2  771.34   31.39
   0   0  -3    1.75    3.31
   0   0  -3   -2.03    2.71
   0   0   3   -0.17    3.41
   0   0   3    0.95    2.79
   0   0  -4  402.91   23.01
   0   0  -4  327.88   20.82
   0   0   4  349.14   19.68
   0   0   4  330.67   21.09
   0   0  -5   14.55    6.09
   0   0   5   -4.82    6.07
   0   0   5    2.12    6.76
   0   0   6 8532.32  389.94
   0   0   6 8779.95  411.63
   0   0   7   20.47    9.08
   0   0   7    8.83   11.19
   0   0   8   -3.28   13.87
   0   0   9   -4.65   15.14
   0   0  10  243.99   38.81
   0   0  11    2.83   17.71
   0   0  12   44.45   35.03
   0   1  -2 3135.77  125.41
   0   1  -2 2976.71  111.57
   0   1   2 2948.45  122.71
   0   1   2 3302.98  126.88
   0  -1  -2 2922.33  112.89
   0  -1  -2 2972.81  121.04
   0  -1   2 3138.42  128.40
   0   1  -3    0.89    4.37
   0   1   3   20.49    5.30
   0   1  -3    7.86    3.94
   0   1   3   15.21    4.88
   0  -1   3   12.24    5.05
   0  -1  -3   14.35    4.56
   0  -1  -3   11.93    5.67
   0   1  -411658.01  529.02
   0   1   411382.06  505.92
   0   1  -411366.70  500.16
   0  -1  -412393.60  548.72
   0  -1  -411024.75  504.31
   0  -1   410954.76  508.87
   0   1   5  106.41   14.09
   0   1  -5  115.08   12.61
   0   1   5  131.16   15.36
   0  -1  -5   75.48   12.94
   0  -1   5   74.17   12.15
   0   1   6 1137.57   62.75
   0   1   6 1165.57   60.73
   0  -1   6 1011.14   60.14
   0   1   7  924.42   55.11
   0   1   7 1015.77   57.45
   0  -1   7  949.93   62.30
   0   1   8  116.51   16.72
   0   1   8   81.08   16.41
   0  -1   8  121.13   24.09
   0   1   9  161.42   23.43
   0  -1   9  177.56   30.66
   0   1  10  610.98   53.77
   0  -1  10  645.03   57.19
   0   1  11  526.71   47.83
   0  -1  11  461.73   55.17
   0   1  12   94.43   37.52
   0  -1  12  114.07   34.32
   0   2   0 1884.40   72.77
   0  -2   0 1708.87   65.58
   0  -2   0 1933.34   69.73
   0   2  -1  833.38   30.75
   0   2  -1  905.33   34.82
   0   2  -1  911.82   35.93
   0   2   1  882.36   38.24
   0  -2   1  893.00   35.85
   0  -2  -1  695.67   31.06
   0  -2   1  824.30   34.61
   0  -2   1  842.45   30.39
   0   2  -2 4576.90  184.14
   0   2   2 4575.05  197.67
   0   2   2 4992.00  189.37
   0  -2  -2 4897.82  206.76
   0  -2  -2 5006.10  192.16
   0  -2   2 5077.19  213.82
   0   2   328980.96 1329.92
   0   2  -327942.88 1335.53
   0  -2   325667.05 1247.96
   0  -2  -328913.89 1330.76
   0   2   4  571.69   28.99
   0   2  -4  603.05   28.84
   0  -2   4  526.93   31.57
   0  -2  -4  537.99   31.68
   0  -2  -4  545.86   27.16
   0   2   5  630.87   32.83
   0   2  -5  578.57   32.17
   0   2   5  501.33   35.44
   0  -2   5  583.77   36.71
   0  -2  -5  532.94   32.42
   0   2   6    0.96    8.07
   0   2   6   -0.77   11.00
   0   2  -6   -5.01    7.79
   0  -2   6   20.60    9.64
   0   2   7  295.76   30.32
   0   2   7  284.05   25.66
   0  -2   7  259.48   29.61
   0   2   8   41.18   15.91
   0   2   8   18.26   19.04
   0  -2   8    4.66   16.23
   0   2   9   49.65   19.86
   0   2   9   75.39   17.42
   0  -2   9   41.51   18.41
   0   2  10  166.25   26.86
   0   2  10  191.32   31.51
   0  -2  10  184.30   30.78
   0   2  11   17.31   25.55
   0  -2  11   41.71   24.56
   0   2  12  248.53   44.27
   0  -2  12  207.73   41.84
   0   3   0   -2.74    3.50
   0  -3   0   -3.78    3.26
   0  -3   0    3.25    2.07
   0   3  -1 2427.94   95.32
   0   3   1 2511.11  108.59
   0   3  -1 2472.41   98.40
   0  -3  -1 2489.22  104.99
   0  -3   1 2570.10   98.07
   0  -3   1 2421.78   99.64
   0  -3   1 2629.20  106.37
   0   3   2 2669.66  122.14
   0   3  -2 2823.70  120.23
   0   3  -2 2938.03  113.54
   0   3  -2 3000.63  121.08
   0  -3   2 2814.04  123.44
   0  -3  -2 2875.28  106.69
   0  -3  -2 2911.54  128.04
   0   3  -3 1162.86   45.52
   0   3   3 1057.71   54.17
   0   3  -3 1017.08   49.11
   0   3  -3 1130.96   49.81
   0  -3  -3 1032.93   53.34
   0  -3   3 1049.04   53.69
   0  -3  -3 1092.38   44.75
   0   3   4 1597.79   67.58
   0   3   4 1379.86   71.51
   0   3  -4 1638.66   67.75
   0   3  -4 1536.27   70.84
   0  -3   4 1414.03   72.85
   0   3   5    6.24    3.28
   0   3  -5   11.00    6.22
   0   3   5   14.93   11.06
   0   3   5   14.00    6.14
   0  -3   5    8.11   10.75
   0  -3  -5    9.39    6.59
   0   3   6 1763.13   94.20
   0   3   6 1691.87   81.80
   0   3  -6 1736.91   85.92
   0  -3   6 1827.89   99.19
   0   3   7  717.52   49.95
   0   3   7  695.57   43.47
   0  -3   7  656.01   47.65
   0   3   8 1248.50   70.24
   0   3   8 1159.25   77.06
   0  -3   8 1153.77   76.36
   0   3   9 2398.21  141.42
   0   3   9 2402.89  131.53
   0  -3   9 2465.44  151.63
   0   3  10   35.60   19.43
   0   3  10   66.11   26.36
   0  -3  10    5.57   22.04
   0   3  11   83.30   30.86
   0   3  11   70.47   19.00
   0  -3  11  201.70   35.39
   0  -3  12   -2.72   24.74
   0  -4   0 8075.04  333.96
   0  -4   0 7824.88  332.32
   0   4  -1  175.31   11.19
   0   4  -1  161.62   11.00
   0  -4   1  142.29   10.24
   0  -4   1  149.69   10.97
   0  -4   1  181.47   10.16
   0  -4  -1  143.82   12.42
   0   4  -2  448.11   21.55
   0   4  -2  503.04   25.41
   0   4   2  453.96   28.13
   0   4  -2  455.15   24.15
   0  -4   2  470.66   24.97
   0  -4   2  469.01   27.34
   0  -4   2  482.09   21.64
   0  -4  -2  451.78   27.10
   0   4   3 1094.04   59.04
   0   4  -3 1099.62   51.01
   0   4  -3 1156.26   47.79
   0  -4   3 1052.99   55.06
   0  -4  -3 1134.87   46.62
   0   4   4  204.16   19.45
   0   4  -4  178.03   11.28
   0  -4  -4  163.24   12.68
   0  -4   4  173.66   18.55
   0   4   5  714.58   32.61
   0   4  -5  759.28   37.42
   0   4   5  817.11   51.10
   0  -4  -5  755.67   38.92
   0  -4   5  767.23   49.13
   0   4   6 2436.72  132.26
   0   4   6 2469.87  109.36
   0   4  -6 2278.33  110.64
   0  -4  -6 2486.00  123.87
   0  -4   6 2556.65  137.95
   0   4   7  964.49   61.70
   0   4   7 1079.86   56.31
   0  -4   7  870.58   59.57
   0   4   8  134.57   26.42
   0   4   8   81.87   13.67
   0  -4   8  126.71   22.43
   0   4   9  509.23   52.18
   0   4   9  441.14   37.76
   0  -4   9  515.05   49.25
   0   4  10   -3.11   17.01
   0   4  10   -3.34   14.87
   0  -4  10   29.62   25.12
   0   4  11   20.19   24.40
   0  -4  11   47.72   27.98
   0   5   0    9.23    5.78
   0  -5   0   -1.04    4.59
   0  -5   0    1.68    4.69
   0   5  -1 2140.65   92.75
   0   5   1 1815.43   89.57
   0  -5   1 1947.03   86.09
   0  -5  -1 1899.52   89.56
   0  -5   1 1578.97   75.86
   0  -5   1 2169.59   90.69
   0  -5  -1 1974.92   77.46
   0   5  -2 1436.87   63.42
   0   5   2 1396.63   74.00
   0   5  -2 1398.73   65.09
   0  -5   2 1347.54   65.00
   0  -5   2 1371.41   66.30
   0  -5   2 1415.72   59.28
   0   5  -3  905.95   40.14
   0   5   3  862.64   51.57
   0  -5  -3  925.49   38.31
   0  -5   3  909.67   46.99
   0  -5   3  871.96   48.52
   0   5   4  364.36   31.12
   0   5  -4  516.96   25.13
   0  -5  -4  530.77   25.82
   0  -5   4  536.87   36.39
   0   5   5   82.99   18.93
   0   5  -5   38.43    6.82
   0  -5   5   68.59   14.53
   0  -5  -5   62.28   10.12
   0   5  -6 1551.86   77.62
   0   5  -6 1729.51   76.83
   0   5   6 1727.21   75.82
   0   5   6 1672.02   98.67
   0  -5  -6 1588.89   83.42
   0  -5   6 1800.32  102.62
   0   5  -7  221.64   18.59
   0   5   7  228.66   27.96
   0  -5   7  260.77   29.61
   0   5   8  259.68   37.42
   0  -5   8  199.68   31.26
   0   5   9   22.97   27.08
   0  -5   9   61.99   32.66
   0   5  10   10.67   22.35
   0  -5  10   -7.72   20.62
   0   5  11   72.15   29.84
   0  -5  11  118.66   35.47
   0   6   0  314.85   22.50
   0  -6   0  361.24   20.87
   0   6  -1 1066.08   54.08
   0   6   1  966.36   53.52
   0  -6   1 1075.40   54.89
   0  -6  -1 1005.69   43.25
   0  -6   1 1058.49   51.52
   0  -6   1 1055.05   50.82
   0   6   2   59.48   10.73
   0   6  -2   -1.79    7.12
   0  -6   2   32.99    8.90
   0  -6   2   16.00    6.25
   0  -6   2   23.68   10.74
   0   6   3    6.19   10.66
   0   6  -3   16.86    7.22
   0  -6  -3   40.48    5.47
   0  -6   3    6.75    8.42
   0  -6   3   33.95   10.31
   0   6   4 2236.93  120.61
   0   6  -4 2306.61  100.66
   0  -6   4 2239.49  116.25
   0  -6  -4 2218.79   93.49
   0   6  -5  919.30   44.75
   0   6   5  899.91   66.04
   0  -6  -5  954.23   47.38
   0  -6   5  829.24   55.14
   0   6   6  848.23   61.03
   0   6  -6 1009.12   48.18
   0   6   6  969.19   49.58
   0   6  -6  902.22   49.89
   0  -6  -6 1032.09   54.73
   0  -6   6 1095.40   74.74
   0   6   7  -18.69   18.70
   0   6  -7    6.66    6.91
   0   6   7    4.94    7.84
   0  -6   7   11.27   17.35
   0   6   8  165.14   28.50
   0  -6   8  207.84   39.10
   0   6   9   81.27   33.35
   0  -6   9   68.51   27.10
   0   6  10  421.26   56.51
   0  -6  10  364.91   55.24
   0   6  11   33.87   28.05
   0  -6  11   34.94   42.50
   0   7   0    3.09    6.82
   0  -7   0    0.08    5.73
   0   7   1 1341.19   72.88
   0   7  -1 1401.63   72.38
   0  -7  -1 1389.99   61.04
   0  -7   1 1278.65   67.76
   0  -7   1 1578.23   73.59
   0   7   2   -1.61   12.51
   0   7  -2    2.71    7.55
   0  -7   2   11.13    7.28
   0  -7   2    3.71    7.42
   0  -7   2   -5.03    5.58
   0  -7  -2    4.28    4.47
   0   7  -3  319.73   22.38
   0   7   3  269.25   29.03
   0  -7   3  266.67   23.30
   0  -7   3  261.09   17.42
   0  -7   3  330.52   28.61
   0   7   4  353.47   32.38
   0  -7   4  351.93   33.81
   0  -7  -4  302.62   18.88
   0   7  -5 1221.18   59.96
   0   7   5 1188.35   82.66
   0  -7   5 1270.22   81.55
   0   7   6  158.08   24.01
   0   7  -6   83.18   11.29
   0   7   6   93.81   15.58
   0  -7   6  144.71   24.13
   0   7   7   69.43   12.49
   0   7   7   62.19   22.44
   0  -7   7   49.86   30.51
   0   7   8  509.80   48.64
   0  -7   8  529.30   59.49
   0   7   9  474.61   53.70
   0  -7   9  666.52   61.73
   0   7  10  105.95   41.31
   0  -7  10  102.93   37.21
   0   8   0  654.56   44.33
   0  -8   0  623.12   34.99
   0   8   1 3698.45  187.88
   0   8  -1 3734.18  180.63
   0  -8   1 3880.98  179.69
   0  -8   1 3806.39  182.66
   0  -8  -1 3881.48  167.13
   0   8  -2 1130.05   61.47
   0   8   2 1144.67   70.06
   0  -8   2 1039.84   60.63
   0  -8   2 1149.93   63.39
   0   8   3   97.39   17.71
   0   8  -3   80.75   13.25
   0  -8   3   59.19   17.56
   0  -8   3   45.45   11.85
   0   8  -4  571.92   34.49
   0   8   4  515.66   44.72
   0  -8   4  682.35   50.45
   0   8   5  473.90   48.93
   0  -8   5  458.64   39.96
   0   8  -6   32.79   11.75
   0   8   6   48.10   26.06
   0  -8   6   55.74   21.33
   0   8   7  358.47   51.15
   0   8   7  367.07   29.52
   0  -8   7  289.54   38.90
   0   8   8   30.44   23.54
   0  -8   8  -13.15   21.45
   0   8   9  147.96   43.82
   0  -8   9   99.22   36.57
   0   8  10    3.71   26.23
   0  -8  10    4.21   25.75
   0   9   0   -9.75    9.81
   0  -9   0    2.90    8.28
   0  -9   0    3.50    9.69
   0   9  -1   74.06   16.94
   0   9   1   65.12   19.94
   0  -9   1   28.44    9.98
   0  -9   1   53.21   12.49
   0   9  -2 2096.55  109.69
   0   9   2 2140.16  119.07
   0  -9  -2 2204.76   96.14
   0  -9   2 1918.70  107.87
   0  -9   2 2339.48  119.71
   0   9  -3  246.78   23.21
   0   9   3  413.08   38.03
   0  -9   3  181.55   24.54
   0  -9   3  306.25   28.35
   0   9  -4    1.24    9.63
   0   9   4  -19.25   16.28
   0  -9   4    0.52   12.53
   0   9   5   38.58   26.62
   0  -9   5  123.27   22.04
   0   9   6  178.40   29.56
   0  -9   6  185.78   29.64
   0   9   7   57.10   36.23
   0   9   7   67.38   17.27
   0  -9   7   65.10   25.76
   0   9   8   97.96   31.16
   0  -9   8  127.24   37.55
   0   9   9  260.94   44.39
   0  -9   9  202.10   55.62
   0  -9  10  389.70   58.55
   0  10   0  426.21   40.30
   0 -10   0  523.26   34.47
   0 -10   0  495.04   40.51
   0  10  -1   92.56   18.48
   0  10   1  105.42   19.88
   0 -10   1  105.69   19.15
   0 -10  -1   85.46   12.98
   0 -10   1   97.05   17.18
   0  10   2 1231.22   78.08
   0  10  -2 1016.54   64.78
   0 -10  -2 1007.45   49.23
   0 -10   2 1032.21   65.09
   0 -10   2  982.80   66.70
   0  10  -3  173.38   22.19
   0  10   3   78.20   30.77
   0 -10   3  136.47   27.43
   0 -10   3  105.46   19.91
   0  10   4 1006.96   73.54
   0  10  -4  857.48   54.26
   0 -10   4  771.02   51.56
   0 -10   4  826.51   59.67
   0  10   5  557.41   51.43
   0  10  -5  539.23   37.59
   0 -10   5  412.44   42.69
   0  10   6   42.74   22.97
   0 -10   6    3.75   21.68
   0  10   7   72.10   28.39
   0 -10   7   23.14   27.66
   0  10   8  110.64   34.60
   0 -10   8   57.97   41.29
   0  10   9   -9.05   26.74
   0 -10   9   24.91   29.31
   0  11   0   12.19   12.88
   0 -11   0  -10.38   11.13
   0 -11   0    5.74   10.80
   0  11  -1  216.89   29.51
   0  11   1  206.92   33.58
   0 -11  -1  138.64   17.39
   0 -11   1  121.35   23.13
   0 -11   1  146.27   22.36
   0  11  -2   56.02   18.05
   0  11   2   52.84   19.55
   0 -11  -2    5.55    9.25
   0 -11   2   25.63   17.83
   0 -11   2   42.52   16.58
   0  11  -3  139.24   22.45
   0  11   3   34.64   31.01
   0 -11   3   56.07   19.25
   0 -11   3  135.10   21.53
   0  11   4  490.13   47.95
   0 -11   4  409.07   41.18
   0 -11   4  412.75   40.14
   0  11   5  358.54   43.09
   0 -11   5  251.44   36.17
   0  11   6  205.08   38.12
   0 -11   6  193.76   34.70
   0  11   7  348.69   60.14
   0 -11   7  467.72   61.73
   0  11   8  -21.27   30.04
   0 -11   8   43.98   33.34
   0  12   0    2.09   21.73
   0 -12   0   23.83   15.09
   0 -12   0   29.17   15.03
   0  12   1    7.31   17.86
   0  12  -1    3.92   16.27
   0 -12   1   52.67   16.64
   0 -12  -1   -2.25   11.97
   0 -12  -1   18.00   21.43
   0 -12   1   11.45   13.05
   0  12  -2    1.03   18.61
   0  12   2   22.83   19.96
   0 -12   2    7.93   17.58
   0 -12   2   -7.56   14.34
   0  12  -3  164.22   30.07
   0  12   3  196.67   32.57
   0 -12   3  189.45   28.71
   0 -12   3  235.62   33.90
   0  12   4  100.36   28.90
   0 -12   4   31.76   14.79
   0 -12   4  103.71   21.95
   0  12   5  262.89   52.15
   0 -12   5  259.45   43.62
   0  12   6  142.91   35.77
   0 -12   6   93.27   41.67
   0  12   7    7.15   23.08
   0 -12   7   -7.41   29.52
   0  13   0   -9.74   15.02
   0 -13   0   14.24   19.03
   0  13   1  226.19   36.63
   0  13  -1  279.33   40.47
   0 -13  -1  334.86   33.66
   0 -13   1  272.65   34.85
   0 -13   1  292.15   36.01
   0  13  -2   65.50   26.46
   0  13   2  121.64   34.55
   0 -13   2   -7.96   26.56
   0 -13   2   71.29   25.99
   0 -13  -2   32.48   19.30
   0  13   3   10.12   28.63
   0 -13   3   30.58   28.67
   0 -13   3   75.34   22.41
   0  13   4   59.81   38.67
   0 -13   4   35.78   31.77
   0  13   5   43.00   41.34
   0 -13   5   75.31   28.32
   0  13   6   31.11   29.35
   0 -13   6   -3.61   25.22
   0  14   0  320.97   40.38
   0 -14   0  200.79   32.43
   0  14  -1   -0.12   20.01
   0  14   1   42.01   27.88
   0 -14   1  -19.53   19.76
   0 -14  -1  -12.23   16.75
   0  14  -2   33.77   26.22
   0  14   2   27.48   26.18
   0 -14   2   31.00   26.32
   0 -14  -2   27.56   27.35
   0 -14   2   -3.35   23.14
   0  14   3   -1.54   33.03
   0 -14   3  121.17   33.15
   0 -14   3  135.96   37.57
   0  14   4  367.96   54.54
   0 -14   4  345.65   54.37
   0  14   5  642.78   85.67
   0 -14   5  653.23   77.70
   0  15   0  -17.60   31.83
   0 -15   0   -9.85   23.84
   0  15  -1  227.67   49.37
   0  15   1  388.78   58.97
   0 -15   1  311.13   41.96
   0 -15  -1  228.91   46.04
   0  15   2   27.66   31.15
   0 -15  -2   18.33   25.59
   0 -15   2  -20.28   20.38
   0  15   3    9.87   41.76
   0 -15   3   58.30   27.35
   0 -15  -3   38.11   25.53
  -1   0  12   82.52   30.95
  -1   0  11    9.12   19.10
  -1   0  10  252.92   31.29
  -1   0   9    1.49   15.76
  -1   0   8   -0.70   12.21
  -1   0   8   76.87   18.92
  -1   0   7   -0.93    7.00
  -1   0   7   -0.75    9.42
  -1   0   6 1917.15   92.54
  -1   0   6 1902.47   96.71
   1   0  -5    2.90    5.26
  -1   0   5    1.44    6.12
  -1   0   5   -3.06    7.45
   1   0  -4  945.15   45.35
  -1   0   4 1019.69   47.07
  -1   0   4 1023.18   50.02
   1   0  -4  899.46   45.82
   1   0  -3   -0.18    3.67
   1   0  -3   12.41    3.93
  -1   0   3   -2.28    3.85
  -1   0   3    1.83    4.06
   1   0  -2 6992.46  276.99
  -1   0   2 7024.49  279.31
   1   0  -2 6562.81  270.90
  -1   0   2 6948.34  289.20
  -1   0   2 6869.32  260.54
  -1   0  -2   58.72    4.63
  -1   0  -2   64.10    5.28
   1   0   2   46.50    4.52
   1   0   2   46.31    4.24
  -1   0  -2   62.03    5.11
  -1   0  -3   -1.19    3.42
  -1   0  -3    4.35    3.85
   1   0   3    7.08    3.67
  -1   0  -3   -1.73    2.75
   1   0   3   -0.05    2.19
  -1   0  -4 5206.24  229.77
   1   0   4 4860.81  216.19
  -1   0  -4 5501.89  235.83
  -1   0  -5    8.99    3.74
   1   0   5    2.83    6.91
   1   0   6  157.45   16.94
   1   0   7   -4.50   13.30
   1   0   8   25.05   17.81
   1   0   9   10.89   18.31
   1   0  10 1052.64   80.75
   1   0  11    2.94   24.91
   1   0  12   56.29   35.57
  -1   1  12    2.88   29.83
  -1  -1  12  -30.13   24.01
  -1   1  11  170.75   36.04
  -1  -1  11  175.66   34.65
  -1   1  10  -32.38   19.12
  -1  -1  10   18.04   16.89
  -1   1   9   82.32   20.76
  -1   1   9   43.54   14.83
  -1  -1   9   57.53   18.23
  -1   1   8  520.29   40.86
  -1   1   8  546.09   39.36
  -1  -1   8  354.12   34.37
  -1   1   7  699.30   48.04
  -1   1   7  826.46   51.22
  -1  -1   7  826.21   51.64
   1   1  -6 1961.94   97.04
  -1   1   6 2057.10  101.21
  -1   1   6 2135.08  103.55
  -1  -1   6 2117.95  107.38
  -1  -1   6 2120.75   95.04
   1   1  -5  510.98   28.54
  -1   1   5  528.85   31.92
  -1   1   5  603.35   34.97
  -1  -1   5  494.05   27.00
   1  -1  -5  539.90   33.58
  -1  -1   5  586.02   35.39
   1   1  -4    1.44    3.89
  -1   1   4   -1.71    4.64
   1   1  -4    3.54    5.84
  -1   1   4   -2.41    4.24
  -1  -1   4   -0.33    4.89
   1  -1  -4    2.08    4.22
   1  -1  -4    2.17    4.40
  -1   1   3    2.79    3.98
   1   1  -3   -3.73    4.08
  -1   1   3    4.80    3.28
  -1  -1   3    5.46    2.63
   1  -1  -3    2.23    3.57
   1  -1  -3   -3.52    3.85
  -1  -1   3   -4.39    4.47
  -1   1   2 5246.88  211.31
  -1   1   2 4933.88  184.94
   1   1  -2 5157.96  192.48
  -1   1   2 5310.69  217.76
   1   1  -2 5390.71  222.34
   1  -1  -2 5015.66  204.61
  -1  -1   2 5175.74  216.04
  -1   1   1 1643.48   61.59
  -1   1   1 1715.48   67.30
   1   1  -1 1913.64   71.83
   1  -1  -1 1609.29   62.14
  -1  -1   1 1899.15   72.90
   1   1   1 5824.68  227.75
  -1  -1  -1 5521.12  214.20
   1  -1   1 6352.12  250.90
   1  -1   1 5891.61  221.27
  -1  -1  -1 5733.45  227.73
  -1   1  -2 2607.67  104.22
   1   1   2 2672.62  100.91
   1   1   2 2729.47  102.67
   1   1   2 2809.68  115.57
  -1   1  -2 2570.07   95.71
   1  -1   2 2726.48  111.44
  -1  -1  -2 2511.84  103.67
  -1  -1  -2 2583.41   96.77
  -1  -1  -2 2540.26   95.31
  -1   1  -3  906.10   40.41
   1   1   3  929.78   40.89
   1   1   3  932.66   44.46
  -1   1  -3  922.55   41.04
  -1   1  -3 1005.67   44.77
  -1  -1  -3  932.90   39.03
  -1  -1  -3  973.92   36.83
   1  -1   3  917.21   44.69
  -1  -1  -3  972.16   45.51
   1   1   4 3360.58  153.87
  -1   1  -4 3742.21  155.06
  -1   1  -4 3810.17  167.77
  -1   1  -4 3706.51  160.38
   1  -1   4 3716.30  167.67
  -1  -1  -4 3672.09  156.14
  -1  -1  -4 3634.39  163.90
   1   1   512482.02  578.40
   1   1   510021.45  466.83
  -1   1  -511749.33  546.92
  -1  -1  -512420.17  569.63
   1  -1   511633.19  544.48
   1   1   6   14.91    9.00
  -1   1  -6   16.11    5.51
   1   1   6   14.49   12.41
   1  -1   6   25.67   13.02
   1   1   7  486.90   37.59
   1   1   7  554.37   36.46
   1  -1   7  502.16   41.27
   1   1   8  585.76   40.99
   1  -1   8  579.23   44.41
   1   1   9   10.98   15.82
   1  -1   9   36.66   16.78
   1   1  10  248.04   30.72
   1  -1  10  138.39   35.87
   1   1  11  420.94   51.04
   1  -1  11  479.84   58.70
   1   1  12   40.85   30.43
   1  -1  12   39.80   29.83
  -1   2  12    7.71   24.58
  -1  -2  12   -1.75   31.58
  -1   2  11   12.56   16.60
  -1  -2  11   -6.90   22.34
  -1   2  10   41.33   22.19
  -1   2  10    9.32   17.31
  -1  -2  10   72.92   29.23
  -1   2   9   98.90   24.48
  -1   2   9  109.77   19.65
  -1  -2   9   87.23   29.95
  -1   2   8   21.25   15.12
  -1   2   8   53.97   17.49
  -1  -2   8   52.55   22.30
  -1   2   7   33.40   10.37
  -1   2   7  107.57   18.25
   1   2  -7   38.26   14.84
  -1  -2   7   87.46   20.71
  -1   2   6  511.52   33.26
  -1   2   6  608.18   40.12
   1   2  -6  513.78   32.27
  -1  -2   6  446.48   34.32
   1   2  -5   17.32    6.24
  -1   2   5    9.78    7.74
  -1   2   5   13.75    8.76
   1  -2  -5   25.96    7.52
  -1  -2   5    6.00    9.08
   1   2  -4 1347.68   56.25
  -1   2   4 1404.30   62.34
  -1   2   4 1198.86   62.69
  -1  -2   4 1279.90   64.80
   1  -2  -4 1352.51   62.94
   1  -2  -4 1384.64   69.26
  -1   2   3   12.99    5.08
   1   2  -3   13.00    5.42
   1   2  -3    3.47    2.61
   1  -2  -3    0.57    4.75
  -1  -2   3    2.06    5.06
   1  -2  -3    2.23    5.03
   1   2  -2 5155.98  214.00
  -1  -2   2 5077.34  216.01
   1  -2  -2 4835.88  204.26
   1   2  -1   20.35    3.14
   1   2  -1   23.03    3.42
  -1   2   1   33.27    4.58
   1  -2  -1   28.43    4.29
  -1  -2   1   35.59    3.89
  -1   2   0 2815.23  111.34
   1   2   0 2707.68   97.80
  -1  -2   0 2789.34  106.68
   1  -2   0 2961.38  113.35
  -1  -2   0 2689.48  102.72
  -1   2  -1 4638.16  182.22
   1   2   1 4654.56  193.59
   1  -2   1 5052.94  203.83
   1  -2   1 4490.42  174.19
   1   2   2 2119.05   83.05
   1   2   2 2042.63   90.73
   1  -2   2 2055.59   89.55
  -1  -2  -2 2173.83   93.37
   1  -2   2 2135.15   84.27
   1   2   3 1757.43   70.19
   1   2   3 1828.40   71.96
  -1   2  -3 1811.05   72.56
  -1   2  -3 1717.69   77.46
   1   2   3 1726.07   80.25
  -1  -2  -3 1730.12   68.19
  -1  -2  -3 1782.76   82.11
   1  -2   3 1626.65   76.90
   1   2   4 1315.13   57.72
   1   2   4 1226.34   64.48
  -1   2  -4 1279.39   55.52
   1  -2   4 1162.08   60.39
  -1  -2  -4 1186.46   52.57
  -1   2  -5   82.75   12.34
   1   2   5   78.47   10.86
   1   2   5   97.56   13.18
  -1  -2  -5   85.02   12.08
   1  -2   5  115.24   16.40
   1   2   6    7.05    7.99
   1   2   6   -4.30    8.53
  -1   2  -6   -1.58    6.32
   1  -2   6   19.74   11.80
  -1   2  -7 1280.37   66.25
   1   2   7 1449.42   78.40
   1   2   7 1343.24   76.49
   1  -2   7 1418.78   82.47
   1   2   8  714.18   54.90
   1   2   8  906.80   59.12
   1  -2   8  850.35   61.68
   1   2   9   26.20   15.29
   1   2   9    0.31    8.77
   1  -2   9    4.05   24.62
   1   2  10    9.35   14.86
   1  -2  10   22.10   24.57
   1   2  11  112.64   31.86
   1  -2  11  104.02   42.76
   1   2  12   64.22   31.96
   1  -2  12   22.48   42.82
  -1   3  12  107.29   19.65
  -1  -3  12  298.97   55.35
  -1   3  11   15.32   21.32
  -1   3  11   -5.51   20.57
  -1  -3  11   -8.37   26.65
  -1   3  10  259.21   33.60
  -1   3  10  260.49   34.53
  -1  -3  10  385.37   44.04
  -1   3   9 1764.83  110.14
  -1   3   9 1497.15   83.82
  -1  -3   9 1538.95  100.00
   1   3  -8 1269.37   62.40
  -1   3   8 1191.71   71.80
  -1   3   8 1160.86   76.78
  -1  -3   8 1079.02   78.25
  -1   3   7  890.38   56.79
  -1   3   7  898.63   49.94
   1   3  -7  802.42   49.70
  -1  -3   7  770.60   53.81
  -1   3   6  891.63   48.59
   1   3  -6  910.49   48.12
  -1   3   6  963.20   60.10
  -1  -3   6 1025.18   60.17
  -1   3   5 3900.50  151.01
  -1   3   5 4379.11  205.15
   1   3  -5 4163.88  173.24
   1  -3  -5 3872.09  177.61
  -1  -3   5 2943.19  153.43
   1   3  -4 1051.16   42.81
  -1   3   4 1086.19   56.98
  -1  -3   4  875.59   49.71
   1  -3  -4  980.43   47.46
  -1   3   3 4898.71  225.15
   1   3  -3 4925.58  212.95
   1   3  -3 5156.38  226.54
   1  -3  -3 4856.64  200.50
   1  -3  -3 4988.06  226.40
  -1  -3   3 5157.35  231.55
   1   3  -2  698.06   31.35
   1   3  -2  593.35   29.16
  -1   3   2  564.02   31.64
  -1  -3   2  585.94   30.13
   1  -3  -2  692.88   34.56
   1   3  -1 2840.31  114.17
   1   3  -1 2875.20  114.79
  -1   3   1 3017.92  129.55
   1   3  -1 2980.22  115.12
  -1  -3   1 2768.35  105.18
  -1  -3   1 2705.67  112.46
  -1  -3   1 2747.71  113.60
   1  -3  -1 3091.85  128.43
  -1   3   0    8.65    3.39
   1   3   0    9.10    3.41
   1   3   0    3.22    1.92
  -1  -3   0    5.55    2.26
  -1  -3   0    0.05    2.57
   1  -3   0    0.23    2.99
  -1  -3   0    2.23    3.00
   1   3   1 4980.68  214.52
  -1   3  -1 4807.30  197.96
  -1  -3  -1 5328.58  222.90
   1  -3   1 5005.79  210.91
   1  -3   1 4961.45  198.24
  -1   3  -2 5182.48  220.11
   1   3   2 5526.46  245.25
  -1   3  -2 5281.87  217.40
  -1  -3  -2 5447.25  238.80
   1  -3   2 5619.39  232.57
   1  -3   2 5612.50  243.97
   1   3   3  352.10   26.77
  -1   3  -3  352.55   18.07
  -1   3  -3  339.54   20.78
  -1  -3  -3  330.74   14.93
  -1  -3  -3  298.27   20.73
   1  -3   3  342.89   22.40
  -1   3  -4 2176.33   96.01
   1   3   4 2321.57   94.15
   1   3   4 2131.50  106.73
   1  -3   4 2298.00  112.51
  -1  -3  -4 2208.37   91.60
   1   3   5  266.14   17.51
   1   3   5  263.09   25.39
  -1   3  -5  248.55   19.07
  -1  -3  -5  303.36   20.86
   1  -3   5  286.96   25.32
   1   3   6  458.42   34.68
   1   3   6  440.55   27.69
   1  -3   6  417.54   32.75
  -1  -3  -6  382.17   27.38
  -1   3  -7    7.81   15.56
   1   3   7   14.09   14.41
   1   3   7   56.61   12.83
   1  -3   7   47.51   20.99
   1   3   8 2544.44  139.39
   1   3   8 2640.56  133.58
   1  -3   8 2745.56  151.61
   1   3   9   85.60   16.32
   1   3   9  161.18   27.97
   1  -3   9   62.40   29.59
   1   3  10  140.52   24.53
   1   3  10   32.83   23.33
   1  -3  10  141.24   36.04
   1   3  11   55.90   26.65
   1  -3  11  109.28   40.15
  -1   4  11   84.30   34.15
  -1  -4  11   89.46   44.79
  -1   4  10  437.21   44.64
  -1  -4  10  411.87   49.07
  -1   4   9   57.68   27.01
  -1  -4   9   80.31   23.92
  -1   4   8    4.77   19.24
  -1  -4   8   11.17   17.10
  -1   4   7  265.15   27.55
  -1  -4   7  157.50   29.05
   1   4  -6   64.80    9.44
  -1   4   6   96.61   16.38
  -1   4   6   56.08    6.63
  -1  -4   6   48.93   14.62
   1   4  -5 2596.78  106.99
   1   4  -5 2688.18  106.37
  -1   4   5 2588.18  133.75
  -1  -4   5 2692.38  136.08
   1  -4  -5 2617.20  122.17
  -1   4   4 1885.42   97.79
   1  -4  -4 2024.38   91.26
  -1  -4   4 1885.47   96.00
  -1   4   3   15.37    9.43
  -1  -4   3   19.95    9.18
   1  -4  -3   26.93    5.30
   1   4  -2 1112.11   50.30
   1   4  -2 1154.44   46.14
   1   4  -2 1000.13   47.81
  -1   4   2 1012.44   53.21
   1  -4  -2  820.91   44.40
  -1  -4   2 1073.95   40.93
  -1  -4   2 1049.53   50.20
  -1  -4   2 1149.20   54.89
   1   4  -1 2521.18  103.63
   1   4  -1 2401.29   99.69
  -1  -4   1 2431.31  104.95
  -1  -4   1 2464.64  103.56
   1   4   0 9367.46  413.30
  -1   4   010653.90  473.45
  -1  -4   0 9745.99  407.98
  -1  -4   0 9721.75  421.18
  -1  -4   0 9928.83  436.48
   1  -4   011904.57  511.42
  -1   4  -1 6947.28  297.50
   1   4   1 7091.30  313.78
  -1  -4  -1 7146.09  312.30
   1  -4   1 7208.93  300.11
   1  -4   1 6627.97  289.19
  -1   4  -2 3130.22  136.23
  -1   4  -2 3294.51  135.97
   1   4   2 2992.15  141.57
   1  -4   2 3170.59  141.75
  -1  -4  -2 3325.44  152.98
   1  -4   2 3220.65  139.45
  -1   4  -3   91.88    8.56
   1   4   3   89.72   14.33
  -1   4  -3   71.23    8.12
   1  -4   3   64.90   10.10
   1  -4   3   79.49   11.01
  -1   4  -4 2617.65  110.35
   1   4   4 2599.73  110.18
   1   4   4 2444.51  124.56
   1  -4   4 2261.22  118.88
   1   4   5  698.49   46.30
   1   4   5  700.72   34.75
   1   4   5  763.10   35.22
  -1  -4  -5  690.30   34.43
   1  -4   5  551.84   44.78
   1   4   6 1335.85   63.12
   1   4   6 1243.70   73.41
  -1  -4  -6 1281.19   65.74
   1  -4   6 1354.37   82.37
   1   4   7  898.10   60.39
   1   4   7 1033.46   54.42
   1  -4   7 1089.17   75.34
   1   4   8   42.20   13.83
   1   4   8   19.95   21.59
   1  -4   8   71.36   20.05
   1   4   9   22.94   23.33
   1   4   9   12.17   14.08
   1  -4   9   29.19   25.85
   1   4  10   70.09   30.48
   1   4  10   50.32   20.32
   1  -4  10   65.69   36.95
   1  -4  11   27.67   35.25
  -1   5  11  212.15   45.98
  -1  -5  11  158.79   51.10
  -1   5  10  691.36   60.21
  -1  -5  10  687.36   64.96
  -1   5   9  564.03   56.96
  -1  -5   9  611.78   62.05
   1   5  -8  989.04   47.74
  -1   5   8 1109.73   74.20
  -1  -5   8 1226.06   81.45
   1   5  -7   97.70   10.66
  -1   5   7  121.51   26.88
  -1  -5   7  141.38   29.16
  -1   5   6   50.45   17.18
   1   5  -6   43.90    7.97
  -1  -5   6   18.10   14.94
   1   5  -5    0.16    4.58
  -1   5   5    4.50   10.50
  -1  -5   5   -2.69   12.40
   1  -5  -5    5.03    6.83
  -1   5   4 4445.38  224.54
  -1  -5   4 4921.24  235.78
   1  -5  -4 4539.74  197.06
  -1   5   3 1154.35   64.70
  -1  -5   3 1149.65   59.33
  -1   5   2 4460.46  213.77
   1   5  -2 4729.31  194.64
   1   5  -2 4558.54  200.40
  -1  -5   2 4563.94  201.81
  -1  -5   2 4177.83  190.83
   1   5  -1 1261.68   57.41
   1   5  -1 1327.83   57.11
  -1   5   1 1229.06   61.93
  -1  -5   1 1149.09   56.59
  -1  -5   1 1178.14   52.18
   1  -5  -1 1165.08   59.00
  -1  -5   1 1240.84   57.05
   1   5   0 2417.06  107.25
  -1   5   0 2572.66  119.70
  -1  -5   0 2320.28  104.50
  -1  -5   0 2379.10   97.65
   1  -5   0 2468.05  112.92
   1  -5   0 2348.71   99.66
  -1   5  -1 5548.92  241.85
   1   5   1 5342.48  242.71
  -1  -5  -1 5670.98  254.05
   1  -5   1 5281.26  227.62
   1  -5   1 5479.97  253.90
   1   5   2  433.51   30.59
  -1   5  -2  413.34   23.92
   1  -5   2  432.91   25.31
   1  -5   2  501.01   25.85
   1  -5   2  502.14   29.10
  -1   5  -3 2591.16  110.58
   1   5   3 2515.58  126.56
   1  -5   3 2587.35  125.27
   1  -5   3 2637.50  119.45
  -1   5  -4   17.30    6.60
   1   5   4   -4.27   10.51
  -1  -5  -4   20.69    4.15
   1  -5   4   15.43   13.76
   1   5   5 1705.27   93.25
  -1   5  -5 1400.50   65.47
   1   5   5 1453.50   67.67
  -1  -5  -5 1506.83   66.66
   1  -5   5 1557.30   86.77
  -1   5  -6   21.40    8.10
   1   5   6   14.57   16.84
   1   5   6   13.56    7.24
   1  -5   6    4.47   18.17
  -1  -5  -6   16.59    8.00
   1   5   7 1876.09  108.05
   1  -5   7 1783.28  112.70
   1   5   8  312.78   35.32
   1  -5   8  374.91   40.63
   1   5   9  209.08   38.12
   1  -5   9  249.53   36.81
   1   5  10  304.16   53.25
   1  -5  10  346.89   47.77
   1   5  11   49.05   33.53
   1  -5  11   28.25   32.46
  -1   6  11  173.17   37.53
  -1  -6  11   49.59   49.13
  -1   6  10  263.53   49.98
  -1  -6  10  160.14   37.48
  -1   6   9  342.78   41.59
  -1  -6   9  332.18   47.83
  -1   6   8   -2.80   20.12
  -1  -6   8    6.03   18.20
   1   6  -7  797.71   38.96
  -1   6   7  794.47   67.85
  -1  -6   7  778.82   63.78
  -1   6   6  989.67   66.82
   1  -6  -6  829.09   52.73
  -1  -6   6 1060.38   66.53
  -1   6   5  413.60   38.70
  -1  -6   5  336.13   32.19
   1  -6  -5  537.31   33.65
   1   6  -4  194.72   13.64
  -1   6   4  155.36   20.21
  -1  -6   4  165.67   18.88
  -1   6   3 3880.32  195.67
   1   6  -3 4033.00  169.62
  -1  -6   3 4079.09  194.33
  -1  -6   3 4045.98  167.28
  -1   6   2  403.16   30.77
   1   6  -2  415.46   23.30
  -1  -6   2  349.17   24.30
  -1  -6   2  437.20   23.15
  -1  -6   2  442.99   29.23
  -1   6   1 6827.26  323.19
   1   6  -1 7244.08  316.88
   1   6  -1 7591.57  335.21
  -1  -6   1 7443.82  326.90
  -1  -6   1 7110.78  313.36
   1   6   0 3554.05  160.28
   1  -6   0 3617.44  156.06
  -1  -6   0 3401.09  155.59
  -1  -6   0 3548.15  149.14
  -1  -6   0 3447.06  157.80
  -1   6  -1 2588.57  119.75
   1  -6   1 2309.99  104.71
   1  -6   1 2815.63  124.20
   1   6   2 3556.12  169.23
   1  -6   2 3117.33  139.52
   1  -6   2 3352.41  153.69
   1   6   3 7274.59  355.76
  -1   6  -3 7399.92  326.55
   1  -6   3 7434.22  339.34
   1  -6   3 7376.18  349.06
  -1   6  -4 1179.28   56.10
   1   6   4 1140.52   67.49
   1  -6   4 1036.39   62.12
   1   6   5  553.04   35.04
  -1   6  -5  646.78   35.01
   1   6   5  659.83   47.62
   1  -6   5  661.43   51.62
   1   6   6 1345.56   86.23
   1   6   6 1177.31   59.92
  -1   6  -6 1190.82   59.97
   1  -6   6 1256.40   77.96
  -1  -6  -6 1173.51   56.96
   1   6   7  154.59   25.14
   1   6   7  104.45   13.29
   1  -6   7  123.97   30.64
   1   6   8   11.33   21.12
  -1   6  -8   57.73   12.48
   1  -6   8   62.05   31.19
   1   6   9  665.71   59.03
   1  -6   9  635.42   60.51
   1   6  10  197.12   50.24
   1  -6  10  298.29   52.33
   1   6  11  382.82   60.73
   1  -6  11  313.30   67.17
  -1   7  11   68.97   45.28
  -1  -7  11  107.79   37.75
  -1   7  10   -3.75   31.12
  -1  -7  10   -6.23   33.82
  -1   7   9   20.08   33.87
  -1  -7   9   97.31   29.91
  -1   7   8  187.31   33.47
  -1  -7   8  157.79   30.33
  -1   7   7  744.52   59.55
  -1   7   7  746.34   44.12
  -1  -7   7  812.45   68.24
  -1   7   6   -1.00   15.58
  -1  -7   6    9.28   14.84
  -1   7   5 2757.59  150.68
   1  -7  -5 2758.03  130.51
  -1  -7   5 2275.83  126.79
  -1   7   4  431.22   37.28
   1   7  -4  445.39   24.84
   1  -7  -4  511.81   29.49
  -1  -7   4  485.74   38.44
  -1   7   3  761.47   54.53
  -1  -7   3  653.85   41.82
  -1  -7   3  811.59   46.81
  -1  -7   3  661.84   33.61
  -1   7   2  682.13   46.11
   1   7  -2  710.20   38.27
  -1  -7   2  578.18   32.24
  -1  -7   2  624.99   39.83
  -1  -7   2  764.36   44.51
   1   7  -1 2273.39  104.56
  -1   7   1 1685.96   95.63
  -1  -7   1 2118.86   98.85
  -1  -7   1 2212.55  101.65
   1   7   0 2274.27  111.84
  -1   7   0 2396.29  121.00
  -1  -7   0 2363.61  102.80
   1  -7   0 2409.37  109.08
  -1   7  -1  616.28   35.87
   1   7   1  598.26   38.15
   1  -7   1  643.58   35.32
  -1  -7  -1  516.08   25.60
  -1   7  -2  616.48   35.44
   1  -7   2  580.23   37.70
   1  -7   2  616.40   36.32
   1   7   3  119.06   20.11
  -1   7  -3  196.08   17.63
   1  -7   3  185.98   20.00
   1  -7   3  157.48   21.82
  -1   7  -4 9479.48  430.81
   1   7   4 8912.68  453.80
   1  -7   4 9392.52  445.87
  -1   7  -5  168.04   16.12
   1   7   5  148.59   27.18
   1   7   5  168.21   19.63
   1  -7   5  128.12   22.90
  -1   7  -6  328.13   24.11
   1   7   6  255.69   24.24
   1   7   6  251.70   31.90
   1  -7   6  467.28   44.37
   1   7   7  901.26   51.62
   1   7   7  903.74   66.03
  -1   7  -7  851.40   47.24
   1  -7   7  893.63   66.67
   1  -7   8  222.99   36.01
   1   7   9  210.29   35.28
   1  -7   9  221.11   39.79
   1   7  10  769.31   74.26
   1  -7  10  871.80   90.65
  -1   8  10  163.77   49.56
  -1  -8  10  221.57   45.72
  -1   8   9  123.18   42.85
  -1  -8   9  114.77   45.54
  -1   8   8  556.63   58.51
  -1  -8   8  604.99   56.80
  -1   8   7  142.57   29.42
  -1  -8   7  122.79   26.30
  -1   8   6  199.68   36.87
  -1  -8   6  146.63   28.02
  -1   8   5  569.33   47.79
  -1  -8   5  454.61   46.33
  -1   8   4 3189.27  178.02
   1   8  -4 3187.93  144.67
   1  -8  -4 2836.65  132.60
  -1  -8   4 3157.52  164.19
   1   8  -3   40.24   10.09
  -1   8   3   58.40   17.22
  -1  -8   3   20.76   15.46
  -1  -8   3   29.75   13.49
  -1  -8   3   64.43   10.84
  -1   8   2 1525.07   86.58
   1   8  -2 1352.49   68.64
  -1  -8   2 1462.45   77.58
  -1  -8   2 1281.09   73.46
  -1  -8   2 1316.06   67.68
  -1   8   1  -11.75   11.90
   1   8  -1   -3.60    9.67
  -1  -8   1    3.20    7.69
  -1  -8   1   -0.40    6.17
   1  -8  -1   -1.01    6.10
   1   8   0  562.41   39.65
  -1   8   0  506.11   39.71
   1  -8   0  613.47   34.78
  -1  -8   0  541.76   34.95
  -1  -8   0  609.36   33.57
   1   8   1  306.74   30.62
  -1   8  -1  391.81   30.50
   1  -8   1  312.10   25.68
   1  -8   1  340.08   24.37
  -1  -8  -1  353.74   19.94
   1   8   2  105.76   21.61
  -1   8  -2  105.13   16.54
   1  -8   2   98.73   13.51
   1  -8   2   67.66   17.81
  -1   8  -3  766.03   44.06
   1   8   3  661.08   49.30
   1  -8   3  710.51   47.52
   1  -8   3  652.23   42.70
   1   8   4    2.87   22.57
  -1   8  -4   22.96   11.23
   1  -8   4   45.72   13.00
   1  -8   4   55.54   15.86
   1   8   5  360.62   37.84
  -1   8  -5  484.27   30.95
   1  -8   5  220.34   30.21
   1   8   6  775.50   61.82
   1   8   6  835.58   52.40
  -1   8  -6  815.35   47.54
   1  -8   6  710.82   57.66
   1   8   7  311.96   39.82
  -1   8  -7  278.82   24.23
   1   8   7  315.49   28.35
   1  -8   7  401.31   43.31
   1   8   8  582.67   58.00
   1  -8   8  487.71   54.05
   1   8   9   -6.06   22.22
   1  -8   9   -1.33   33.91
   1   8  10   26.61   46.33
   1  -8  10  138.57   35.37
  -1   9  10   -7.63   25.72
  -1  -9  10    6.09   37.89
  -1   9   9  226.51   40.72
  -1  -9   9   61.78   38.72
  -1   9   8    2.39   30.22
  -1  -9   8    5.71   22.52
  -1   9   7   58.58   32.11
  -1  -9   7   49.06   24.86
  -1   9   6 1369.39  101.51
  -1  -9   6 1279.99   86.15
  -1   9   5  254.42   35.37
  -1  -9   5  296.15   39.11
  -1   9   4  365.63   36.61
   1   9  -4  305.96   25.01
  -1  -9   4  346.55   37.17
   1   9  -3  807.50   46.76
  -1   9   3  715.46   55.02
  -1  -9   3  785.95   57.01
  -1  -9   3  821.22   51.74
  -1   9   2  205.68   26.69
   1   9  -2  239.49   22.51
  -1  -9   2  252.94   23.71
  -1  -9   2  192.21   22.34
   1  -9  -2  165.96   14.63
  -1   9   1  270.84   29.53
   1   9  -1  374.58   31.90
  -1  -9   1  449.10   36.23
  -1  -9   1  417.81   30.11
   1  -9  -1  427.08   27.12
   1   9   0 3305.59  163.95
  -1   9   0 3079.27  164.08
  -1  -9   0 3052.49  151.18
  -1  -9   0 3041.49  139.50
   1  -9   0 3080.28  145.31
  -1   9  -1  152.79   20.46
   1   9   1  140.36   20.42
  -1  -9  -1  167.38   15.41
   1  -9   1  188.29   21.49
   1  -9   1  160.44   20.44
  -1   9  -2 1057.77   66.82
   1   9   2 1162.27   71.99
   1  -9   2 1165.11   67.97
   1  -9   2 1211.37   68.20
  -1   9  -3 5938.69  287.47
   1   9   3 5832.17  303.84
   1  -9   3 5942.65  290.95
   1  -9   3 6089.31  301.37
   1   9   4  109.00   23.62
  -1   9  -4   90.07   15.17
   1  -9   4  142.05   24.58
   1  -9   4   73.18   24.92
   1   9   5  170.53   29.28
  -1   9  -5  181.21   20.83
   1  -9   5  173.80   34.47
   1   9   6  439.98   39.41
   1   9   6  450.33   45.03
  -1   9  -6  485.69   37.19
   1  -9   6  371.87   40.61
   1   9   7 1108.86   91.10
   1  -9   7  926.10   73.09
   1   9   8  107.48   39.25
   1  -9   8   65.60   42.13
   1   9   9  638.41   63.83
   1  -9   9  510.43   61.72
  -1  10   9   -1.21   38.11
  -1 -10   9   38.93   40.62
  -1  10   8  265.12   44.03
  -1 -10   8  204.94   47.31
  -1  10   7  251.91   53.28
  -1 -10   7  632.27   57.21
  -1  10   6  165.27   31.71
  -1 -10   6  165.57   27.22
  -1  10   5 2263.96  141.64
  -1 -10   5 2249.20  141.38
  -1  10   4    1.01   20.43
   1  10  -4   10.85   11.67
  -1 -10   4   17.71   19.73
  -1  10   3   35.72   21.03
   1  10  -3    5.02   10.75
   1 -10  -3    2.63    7.36
  -1 -10   3   -0.28   11.87
   1  10  -2 1393.50   78.76
  -1  10   2 1290.86   88.05
  -1 -10   2 1316.19   77.72
  -1 -10   2 1241.66   73.61
   1 -10  -2 1312.54   64.59
   1  10  -1 1193.67   69.40
  -1  10   1 1155.78   75.67
   1 -10  -1 1248.41   65.20
  -1 -10   1 1287.55   70.95
  -1 -10   1 1281.29   73.81
   1  10   0   -2.26   11.82
  -1  10   0   13.62   13.17
   1 -10   0    6.64   10.74
  -1 -10   0   15.03   11.53
  -1 -10   0    8.35    9.82
  -1  10  -1  617.88   45.01
   1  10   1  617.83   50.42
   1 -10   1  711.49   46.39
  -1 -10  -1  563.89   41.97
   1 -10   1  485.16   37.76
   1  10   2    1.06   15.87
  -1  10  -2   34.12   16.08
   1 -10   2   11.53   13.99
   1 -10   2   22.58   16.55
   1  10   3    2.53   18.08
  -1  10  -3   11.27   11.17
   1 -10   3   26.56   13.58
   1 -10   3   -1.90   18.76
  -1  10  -4 1029.42   65.37
   1  10   4 1147.06   84.76
   1 -10   4 1127.11   74.12
   1 -10   4 1092.05   69.80
   1  10   5   -0.28   20.34
  -1  10  -5   14.00   14.64
   1 -10   5   46.07   23.97
   1  10   6  123.85   34.20
   1  10   6   92.03   24.33
   1 -10   6  122.48   25.65
   1  10   7   75.05   32.31
   1 -10   7   67.33   28.84
   1  10   8   -4.55   37.73
   1 -10   8   34.79   33.58
   1  10   9  215.21   45.42
   1 -10   9  122.15   55.87
  -1  11   8   52.52   46.30
  -1 -11   8   51.95   31.26
  -1  11   7  -12.48   26.06
  -1 -11   7   -5.80   22.42
  -1  11   6   53.79   31.33
  -1 -11   6   52.37   32.67
  -1  11   5  468.85   49.83
  -1 -11   5  381.01   48.25
  -1  11   4   92.21   34.15
   1  11  -4   88.14   18.32
  -1 -11   4   95.27   27.59
   1  11  -3 2662.76  139.24
  -1  11   3 2651.06  155.96
  -1 -11   3 2601.43  146.71
  -1 -11   3 2524.71  139.04
  -1  11   2  513.98   45.77
   1  11  -2  360.50   35.97
   1 -11  -2  349.69   26.96
  -1 -11   2  332.25   33.88
  -1 -11   2  287.53   32.27
  -1  11   1   21.84   19.59
   1  11  -1    3.35   14.75
  -1 -11   1   -6.09   11.57
  -1 -11   1    1.17   11.96
   1  11   0   12.74   21.50
  -1  11   0   89.73   25.24
   1 -11   0   13.37   15.55
  -1 -11   0   56.51   16.15
  -1 -11   0   98.49   21.95
   1 -11   0   77.50   15.71
  -1  11  -1  -10.32   16.87
   1  11   1   -3.25   13.72
  -1 -11  -1   -6.47   11.71
   1 -11   1   18.23    9.54
   1 -11   1   -2.02   11.71
  -1  11  -2  384.78   40.37
   1  11   2  542.97   52.24
   1 -11   2  393.07   35.23
   1 -11   2  386.58   39.83
  -1  11  -3   -4.54   17.44
   1  11   3    2.89   21.61
   1 -11   3   20.28   15.32
   1 -11   3    3.61   18.34
  -1  11  -4  320.72   36.70
   1  11   4  379.48   51.44
   1 -11   4  468.84   41.81
   1 -11   4  350.94   44.81
   1  11   5   45.15   29.77
   1 -11   5    2.38   20.73
   1  11   6   36.76   33.04
   1  11   6   23.11   21.88
   1 -11   6   20.88   24.72
   1  11   7   61.75   32.43
   1 -11   7   55.06   31.92
   1  11   8   -4.55   22.61
   1 -11   8    4.70   24.76
  -1  12   7   71.04   37.11
  -1 -12   7   96.69   33.03
  -1  12   6  240.74   52.96
  -1 -12   6  186.19   46.60
  -1  12   5   85.65   43.29
  -1 -12   5  110.04   26.34
  -1  12   4  206.25   38.29
  -1 -12   4  245.35   39.63
   1  12  -3   45.79   20.70
  -1 -12   3   39.80   24.24
  -1 -12   3   62.61   21.40
   1  12  -2  890.28   61.67
  -1  12   2  907.51   78.31
  -1 -12   2 1041.48   72.21
  -1 -12   2  997.29   73.24
  -1  12   1  135.41   27.18
   1  12  -1  152.59   29.30
   1 -12  -1  147.49   20.78
  -1 -12   1  112.06   21.89
  -1 -12   1  124.53   29.47
   1  12   0  173.00   33.45
  -1  12   0  106.98   33.21
  -1 -12   0  190.33   25.33
  -1 -12   0  195.37   22.07
   1 -12   0  136.18   23.29
   1 -12   0  182.64   25.56
   1  12   1  125.62   26.82
  -1  12  -1  143.26   30.09
   1 -12   1  163.49   27.92
   1 -12   1  194.51   29.76
  -1 -12  -1  162.53   28.97
   1  12   2    0.66   20.86
  -1  12  -2    6.91   18.23
  -1 -12  -2    5.09   16.09
   1 -12   2   24.83   17.40
   1 -12   2   39.39   15.41
  -1  12  -3  104.71   29.62
   1  12   3  180.13   39.07
   1 -12   3  174.65   33.10
   1 -12   3  185.24   33.07
   1  12   4   82.89   30.48
  -1  12  -4  165.83   28.62
   1 -12   4  162.14   29.71
   1 -12   4  165.26   28.25
   1  12   5   99.86   38.72
   1 -12   5   98.85   29.41
   1  12   6   30.21   29.61
   1  12   6   86.15   40.06
   1 -12   6   37.98   35.27
   1  12   7   52.16   42.77
   1 -12   7   35.11   30.65
  -1  13   6  484.52   64.02
  -1 -13   6  362.42   61.54
  -1  13   5  241.05   44.93
  -1 -13   5  178.80   40.98
  -1  13   4  114.79   40.13
  -1 -13   4   67.41   31.99
  -1  13   3  460.92   60.21
  -1 -13   3  342.86   40.97
  -1 -13   3  347.95   40.57
   1  13  -2   15.09   21.04
  -1  13   2   31.31   28.61
  -1 -13   2   -5.43   23.79
  -1 -13   2    9.09   16.23
  -1  13   1  412.29   53.31
   1  13  -1  255.98   41.31
   1 -13  -1  391.26   44.69
  -1 -13   1  393.41   38.91
  -1  13   0  571.27   52.16
   1  13   0  501.74   50.12
  -1 -13   0  611.55   47.35
   1 -13   0  425.95   41.01
   1 -13   0  566.43   52.71
  -1  13  -1  269.82   39.02
   1  13   1   78.32   35.00
   1 -13   1  131.03   25.66
  -1 -13  -1  136.64   30.05
   1 -13   1  142.13   29.26
   1  13   2   67.00   26.37
  -1  13  -2   72.47   24.28
   1 -13   2   73.22   27.66
   1 -13   2   16.86   21.07
  -1 -13  -2  155.26   28.20
  -1  13  -3   -1.95   21.35
   1  13   3   20.08   30.62
   1 -13   3   13.98   18.07
   1 -13   3    4.97   17.95
   1  13   4   64.26   27.10
   1 -13   4   32.61   22.97
   1 -13   4    8.31   30.26
   1  13   5  125.23   37.60
   1 -13   5  133.68   41.21
   1  13   6   -5.35   23.37
   1  13   6   56.83   37.97
   1 -13   6    5.86   33.09
  -1  14   5  117.99   57.06
  -1 -14   5  219.44   39.50
  -1  14   4   -1.35   37.45
  -1 -14   4   -8.72   26.93
  -1  14   3   55.20   35.28
  -1 -14   3   65.19   31.95
  -1 -14   3   65.36   26.76
  -1  14   2  -13.37   32.08
  -1 -14   2   17.74   26.57
   1  14  -1   59.20   33.73
  -1  14   1   53.16   39.78
   1 -14  -1  135.56   27.11
  -1 -14   1  114.74   25.79
  -1  14   0  376.80   53.63
   1  14   0  371.17   51.41
   1 -14   0  319.27   47.28
  -1 -14   0  459.99   51.52
  -1  14  -1  132.47   29.91
   1  14   1  200.06   31.52
  -1 -14  -1  159.99   34.08
   1 -14   1  145.94   33.49
  -1  14  -2   -0.95   26.08
   1  14   2  -17.42   23.13
   1 -14   2   14.66   19.25
   1 -14   2   24.48   20.27
  -1 -14  -2    6.68   16.82
   1  14   3  512.94   72.51
  -1 -14  -3  632.68   59.48
   1 -14   3  580.98   63.01
   1 -14   3  624.86   62.78
   1  14   4   29.99   26.93
   1 -14   4    6.39   22.06
   1 -14   4  -19.21   27.46
   1  14   5   -1.38   25.87
   1 -14   5   -0.58   31.58
  -1  15   3    8.10   36.10
  -1 -15   3   -8.18   15.56
  -1  15   2   58.12   41.39
  -1 -15   2   48.18   29.66
   1 -15  -2   62.29   33.57
  -1  15   1  137.11   37.95
   1 -15  -1  240.13   38.42
  -1 -15   1  167.80   34.14
  -1  15   0  131.22   42.94
   1  15   0   70.10   39.33
  -1 -15   0  118.31   30.09
   1 -15   0   69.93   35.50
   1  15   1    1.94   31.73
  -1  15  -1    7.84   24.95
  -1 -15  -1   19.71   28.68
   1 -15   1    6.44   21.54
   1  15   2   71.25   39.70
  -1 -15  -2   32.57   32.11
   1 -15   2   44.75   23.47
  -2   0  12  806.70   71.91
  -2   0  11   -0.61   16.74
  -2   0  10  -13.98   17.00
  -2   0   9    5.05   13.23
  -2   0   9   16.45   17.84
  -2   0   8   -8.06    8.73
  -2   0   8    3.08   16.06
  -2   0   7   -3.18    7.26
  -2   0   7   -1.38   10.59
  -2   0   6 7454.85  356.19
  -2   0   6 8364.42  374.81
   2   0  -6 7403.87  351.88
   2   0  -5    0.05    4.88
  -2   0   5   -2.80    8.51
  -2   0   5    6.73    6.29
   2   0  -4  637.50   35.32
   2   0  -4  721.15   35.14
  -2   0   4  694.52   34.15
  -2   0   4  756.04   39.72
   2   0  -3    1.19    2.60
  -2   0   3   10.78    4.34
   2   0  -3   -2.57    3.30
   2   0  -3   -1.34    4.25
  -2   0   3    3.78    3.53
  -2   0   2 7416.49  297.08
   2   0  -2 7285.93  304.03
  -2   0   2 7272.93  291.40
  -2   0   2 7262.48  309.24
   2   0  -2 7272.77  296.34
   2   0  -1    1.23    1.61
  -2   0   1    5.90    1.94
  -2   0   1    0.77    2.04
   2   0  -1   -1.99    2.14
   2   0   0   40.66    4.13
  -2   0   0   41.54    4.23
  -2   0   0   40.01    4.03
   2   0   1    1.08    2.60
  -2   0  -1    1.37    3.31
   2   0   2 5657.48  232.99
  -2   0  -2 5772.28  235.37
   2   0   2 6025.87  245.69
   2   0   3    4.93    3.56
  -2   0  -3    9.35    3.49
  -2   0  -3    3.78    3.77
   2   0   3   -5.72    4.37
  -2   0  -3   -0.69    4.16
   2   0   4 3540.90  155.99
  -2   0  -4 3594.64  162.43
  -2   0  -4 3503.01  152.73
  -2   0  -4 3682.16  152.78
   2   0   5   11.76    9.05
   2   0   6 1791.14   90.21
  -2   0  -6 1783.64   78.65
  -2   0  -7   -3.83    4.54
   2   0   7   -1.49   11.97
   2   0   8  346.49   31.42
   2   0   9    5.48   18.19
   2   0  10 2520.88  153.87
   2   0  11   21.26   28.24
   2   0  12   43.42   29.96
  -2   1  12   10.84   23.35
  -2  -1  12  -10.90   25.67
  -2   1  11  995.91   79.09
  -2  -1  11  928.83   75.36
  -2   1  10   42.60   15.77
  -2   1  10   11.11   19.40
  -2  -1  10   67.24   29.23
  -2   1   9   78.45   20.20
  -2   1   9   31.01   22.82
  -2  -1   9   99.16   25.56
  -2   1   8 4057.22  202.10
  -2   1   8 4090.34  204.64
  -2  -1   8 3818.61  200.52
  -2   1   7  249.85   21.42
  -2   1   7  200.21   21.31
  -2  -1   7  222.50   25.37
  -2  -1   7  227.17   18.51
   2   1  -6  105.04   13.36
  -2   1   6  136.85   15.28
  -2   1   6  163.78   15.81
  -2  -1   6  104.64   18.14
  -2  -1   6  133.91   12.61
  -2   1   5 4089.73  187.64
   2   1  -5 4047.11  176.36
   2  -1  -5 3956.53  184.83
  -2  -1   5 4062.15  194.72
  -2  -1   5 4177.25  175.92
  -2   1   4  854.77   32.29
   2   1  -4  873.17   37.37
   2   1  -4  873.56   38.77
   2   1  -4  895.35   46.27
  -2   1   4  843.97   43.71
  -2   1   4  912.92   44.24
   2  -1  -4  917.79   44.71
  -2  -1   4  896.37   48.02
   2  -1  -4  929.89   46.40
  -2  -1   4  822.97   36.05
  -2   1   3  223.86   15.60
   2   1  -3  240.45   13.47
   2   1  -3  253.59   16.62
   2   1  -3  266.84   12.72
   2  -1  -3  235.33   14.80
   2  -1  -3  217.40   15.12
  -2  -1   3  246.16   11.97
  -2  -1   3  236.55   16.34
  -2   1   211189.05  464.20
   2   1  -211014.97  469.33
  -2   1   211902.49  508.43
   2   1  -2 9658.84  422.75
   2  -1  -211710.03  494.45
  -2  -1   211200.06  491.67
   2  -1  -211049.45  471.22
  -2   1   1   21.32    3.33
   2   1  -1   24.93    3.36
   2   1  -1   22.74    3.75
  -2   1   1    4.78    3.25
   2  -1  -1   13.28    4.98
  -2  -1   1   18.23    3.38
   2  -1  -1   13.59    2.89
  -2  -1   1   21.60    3.26
   2   1   0  690.41   30.62
  -2   1   0  745.19   31.93
   2  -1   0  695.27   27.51
   2  -1   0  723.62   32.56
  -2  -1   0  702.59   29.77
   2   1   1  886.58   38.31
  -2   1  -1  812.08   36.24
   2  -1   1  856.11   38.79
  -2  -1  -1  873.19   36.93
   2   1   2  532.16   22.27
  -2   1  -2  564.82   27.55
   2   1   2  498.52   23.93
   2   1   2  531.33   26.20
  -2  -1  -2  479.53   24.43
   2  -1   2  514.41   25.04
  -2  -1  -2  524.57   24.07
  -2   1  -3  201.94    9.84
   2   1   3  246.13   14.03
  -2   1  -3  217.78   13.50
   2   1   3  180.36   11.64
   2   1   3  219.47   15.57
  -2  -1  -3  184.63   14.16
  -2  -1  -3  190.25   11.81
  -2  -1  -3  209.80   12.03
   2  -1   3  205.43   14.27
   2   1   4   39.04    7.64
  -2   1  -4   30.96    8.84
   2   1   4   44.09   10.81
   2   1   4   44.10    6.92
  -2   1  -4   25.28    8.63
  -2   1  -4   30.95    6.85
  -2  -1  -4   34.88    5.66
  -2  -1  -4   44.57    6.57
   2  -1   4   37.23    7.53
   2   1   5 2201.09   91.89
   2   1   5 2048.00   94.02
   2   1   5 1895.85   92.04
  -2   1  -5 2226.42  100.72
  -2  -1  -5 2041.86   84.56
   2  -1   5 2140.60  106.91
  -2  -1  -5 2125.79   99.00
  -2   1  -6 1099.69   54.66
   2   1   6 1330.03   66.38
   2  -1   6 1226.86   66.47
  -2  -1  -6 1149.89   49.65
   2   1   7 1530.50   79.78
  -2   1  -7 1461.49   70.61
   2  -1   7 1569.58   90.92
   2   1   8  427.36   34.02
   2  -1   8  478.22   43.27
   2   1   9  584.54   49.33
   2  -1   9  600.36   54.68
   2   1  10    9.46   20.36
   2  -1  10    1.42   24.02
   2   1  11  187.95   36.97
   2  -1  11  137.20   31.28
   2   1  12   -4.04   25.82
   2  -1  12   19.39   31.20
  -2   2  12   -8.30   24.40
  -2  -2  12   24.58   31.55
  -2   2  11   -3.74   19.83
  -2   2  11    6.24   19.56
  -2  -2  11   -8.49   20.22
  -2   2  10   78.19   17.32
  -2   2  10  -10.11   21.61
  -2  -2  10   10.54   20.78
  -2   2   9 1684.60  100.53
  -2   2   9 1537.19   98.78
  -2  -2   9 1735.23  107.52
  -2   2   8   86.51   20.20
  -2   2   8  124.18   17.54
  -2  -2   8  123.01   22.70
  -2   2   7  556.76   35.90
   2   2  -7  459.91   31.34
  -2   2   7  485.26   37.72
  -2  -2   7  575.44   46.81
  -2   2   6  445.76   30.58
   2   2  -6  420.48   24.71
   2   2  -6  364.23   20.50
  -2  -2   6  324.79   30.38
  -2   2   5  226.12   19.43
  -2   2   5  173.38   16.60
  -2  -2   5  188.50   18.92
   2   2  -4  107.06    7.52
   2   2  -4  115.69   10.43
  -2   2   4   89.20   11.67
   2  -2  -4  100.81   11.11
   2  -2  -4  102.05   10.79
  -2  -2   4   80.06   11.88
  -2   2   3   39.37    6.33
  -2   2   3   49.92    7.81
   2   2  -3   50.14    8.23
   2  -2  -3   44.38    7.10
  -2  -2   3   50.37    8.26
  -2   2   229061.42 1354.36
   2   2  -228782.34 1369.82
   2   2  -229908.99 1420.95
  -2   2   228675.31 1385.00
  -2  -2   230671.35 1474.75
   2   2  -1   97.13    7.77
  -2   2   1   67.67    7.04
   2   2  -1   65.00    6.89
  -2   2   1   55.31    5.51
   2  -2  -1   72.64    6.30
  -2  -2   1   71.52    4.16
  -2  -2   1   73.96    5.94
  -2   2   012700.28  544.92
   2   2   011711.08  479.02
   2   2   010733.72  474.42
   2   2   012434.74  511.59
  -2  -2   011558.77  484.78
   2  -2   011318.02  477.66
  -2   2  -1 6104.98  253.36
   2   2   1 6012.13  254.68
   2   2   1 5966.25  254.00
  -2  -2  -1 6310.86  261.03
  -2  -2  -1 5902.25  246.84
  -2  -2  -1 6439.00  250.17
   2   2   2  325.95   19.18
   2   2   2  285.20   16.38
   2  -2   2  313.25   14.80
   2  -2   2  287.93   17.15
  -2  -2  -2  263.35   17.13
  -2   2  -3 3146.14  136.46
   2   2   3 3159.53  131.69
  -2   2  -3 3468.95  153.65
   2   2   3 3393.91  153.43
  -2  -2  -3 3284.03  127.81
  -2  -2  -3 3151.22  130.34
  -2  -2  -3 3226.11  146.38
   2  -2   3 3136.29  141.42
  -2   2  -4 5808.17  261.52
   2   2   4 5323.91  252.00
  -2   2  -4 5743.63  239.89
  -2  -2  -4 5928.80  248.10
   2  -2   4 5716.27  262.66
  -2  -2  -4 5716.20  237.88
   2   2   5   15.00    5.63
  -2   2  -5    8.68    5.91
  -2   2  -5    8.92    9.19
   2   2   5   23.96    8.21
   2   2   5    6.76   11.13
   2  -2   5   33.77    9.65
  -2  -2  -5   15.33    6.87
  -2   2  -6  410.35   28.05
  -2   2  -6  335.57   23.50
   2   2   6  473.87   30.13
   2   2   6  460.93   32.18
   2  -2   6  453.84   33.01
   2   2   7 7947.09  370.35
  -2   2  -7 7605.60  372.59
   2   2   7 8353.14  405.11
   2  -2   7 7662.50  384.62
   2   2   8 1427.34   85.21
   2  -2   8 1666.63  102.76
   2   2   9  523.65   44.63
   2  -2   9  494.30   45.13
   2   2  10  183.15   31.51
   2  -2  10  220.21   40.86
   2   2  11  -11.81   17.44
   2  -2  11   33.16   23.67
  -2   3  12    7.70   22.97
  -2  -3  12   36.62   36.12
  -2   3  11  120.09   28.10
  -2  -3  11   93.79   42.38
  -2   3  10  284.28   39.94
  -2  -3  10  248.78   40.24
  -2   3   9  612.17   49.22
  -2   3   9  770.89   50.99
  -2  -3   9  606.66   53.06
  -2   3   8  822.20   56.18
  -2   3   8 1021.05   61.43
  -2  -3   8  897.38   63.34
   2   3  -7  209.89   17.67
   2   3  -7  215.97   17.47
  -2   3   7  196.43   24.94
  -2  -3   7  288.10   28.66
   2   3  -6  418.74   23.48
  -2   3   6  428.61   32.52
  -2  -3   6  390.89   35.54
  -2   3   5 1921.26   99.95
  -2   3   5 2063.55   81.78
  -2  -3   5 1964.54  106.32
  -2   3   4  116.42    9.87
  -2   3   4  118.58   14.36
   2   3  -4  139.81    6.95
   2  -3  -4  105.31   13.04
  -2  -3   4  113.77   14.98
   2   3  -3 1303.31   62.77
  -2   3   3 1294.26   64.69
  -2  -3   3 1262.33   64.35
   2  -3  -3 1314.93   65.78
   2  -3  -3 1324.61   58.86
  -2   3   2 5955.72  264.76
   2   3  -2 5766.02  249.06
   2   3  -2 5818.04  249.50
   2  -3  -2 5928.88  258.10
  -2   3   1   55.63    7.35
   2   3  -1   53.93    6.45
   2   3  -1   56.85    5.61
  -2  -3   1   57.17    4.72
   2  -3  -1   48.90    6.30
  -2  -3   1   56.56    7.10
   2   3   0   49.89    6.28
   2   3   0   49.89    4.42
  -2   3   0   68.66    7.33
  -2  -3   0   45.17    4.27
  -2  -3   0   50.12    5.43
   2  -3   0   39.65    5.54
  -2  -3   0   48.37    6.30
   2   3   1 2311.81  102.11
   2   3   1 2231.62   97.39
  -2   3  -1 2377.39  100.24
  -2  -3  -1 2188.74   94.66
   2  -3   1 2294.22   94.53
   2   3   2 3018.09  130.11
   2   3   2 2779.30  127.81
  -2   3  -2 3236.33  134.98
  -2  -3  -2 3182.11  140.92
   2  -3   2 3115.61  125.53
   2  -3   2 3135.21  140.19
   2   3   3 2878.91  122.84
   2   3   3 2837.62  133.46
   2  -3   3 2668.75  124.94
   2  -3   3 2957.39  122.29
   2   3   4  155.30   10.25
   2   3   4  131.51   11.28
  -2   3  -4  116.41    9.42
   2   3   4  173.54   20.02
  -2  -3  -4  118.00    8.59
   2  -3   4  109.76   14.85
   2   3   5 2163.38   93.59
  -2   3  -5 1999.61  101.35
   2   3   5 2020.12   89.14
  -2   3  -5 1928.18   88.58
   2   3   5 2063.99  107.29
  -2  -3  -5 2057.14   89.77
   2  -3   5 2233.88  112.30
  -2   3  -6  585.59   41.93
   2   3   6  666.02   44.84
   2   3   6  713.81   38.56
  -2  -3  -6  651.70   37.79
   2  -3   6  714.52   51.42
   2   3   7  227.04   25.80
   2   3   7  230.44   21.85
   2  -3   7  161.44   23.65
   2   3   8  116.76   27.62
   2   3   8  145.18   20.73
   2  -3   8  179.89   26.10
   2   3   9  127.70   23.11
   2  -3   9  232.43   31.03
   2   3  10   54.13   21.34
   2  -3  10   48.83   25.87
   2  -3  11  731.13   81.63
  -2   4  11    4.44   14.65
  -2  -4  11   -7.49   19.13
  -2   4  10    7.90   19.20
  -2  -4  10    4.95   21.17
  -2   4   9   -2.13   18.98
  -2  -4   9   17.43   24.25
  -2   4   8  121.31   29.31
   2   4  -8  120.68   17.34
  -2  -4   8  152.53   23.52
  -2   4   7  289.80   33.44
   2   4  -7  284.50   19.94
  -2  -4   7  257.89   28.67
  -2   4   6 1619.30   88.32
   2   4  -6 1273.85   55.77
  -2  -4   6 1292.47   76.23
   2   4  -5 4528.57  177.53
  -2   4   5 4542.07  228.09
  -2   4   5 4886.59  209.98
  -2  -4   5 4491.38  228.47
   2  -4  -5 4452.43  213.64
  -2   4   4   28.12    9.75
  -2  -4   4   27.49   12.89
   2  -4  -4   28.54    8.09
  -2   4   3  139.89   15.52
  -2  -4   3  155.02   16.65
  -2   4   2  196.40   17.11
   2   4  -2  211.08   16.12
  -2  -4   2  198.88   14.47
  -2  -4   2  197.24    9.19
   2  -4  -2  184.57   16.09
   2   4  -1 1115.33   50.49
   2   4  -1 1114.65   49.30
  -2   4   1 1183.52   58.05
   2   4  -1 1191.96   49.63
  -2  -4   1 1168.36   52.67
   2  -4  -1 1117.48   52.95
  -2  -4   1 1160.61   48.79
  -2  -4   1 1180.29   55.03
  -2   4   0  288.14   18.02
   2   4   0  273.92   16.32
   2   4   0  338.73   16.07
   2  -4   0  293.05   18.49
  -2  -4   0  266.76   13.56
  -2  -4   0  231.52   15.48
  -2   4  -117547.23  814.12
   2   4   118575.57  867.19
   2  -4   119140.50  866.66
   2   4   2 2349.73  110.39
   2   4   2 2348.43  105.91
  -2   4  -2 2250.07   96.59
   2  -4   2 2235.98  103.67
   2  -4   2 2396.24  102.04
  -2  -4  -2 2259.57  106.45
   2   4   3 8656.44  365.78
   2   4   3 6298.93  300.65
  -2   4  -3 6810.55  292.57
   2  -4   3 6448.74  277.73
   2  -4   3 6254.09  293.60
   2   4   4 3299.08  145.24
   2  -4   4 3199.21  158.66
   2   4   5  115.16   17.88
   2   4   5  106.04   11.85
   2   4   5  133.28   11.13
   2  -4   5   91.11   16.94
  -2  -4  -5  140.87   11.10
   2   4   6  112.56   13.29
   2   4   6   87.36   10.89
   2   4   6  151.97   19.82
   2  -4   6  137.60   21.07
  -2  -4  -6   88.93   12.79
   2   4   7  332.62   35.10
   2   4   7  414.45   27.31
   2  -4   7  493.21   43.76
   2   4   8   18.84   15.45
   2   4   8    3.31   10.64
   2  -4   8   -5.70   16.29
   2   4   9   27.18   15.37
   2   4   9   32.41   20.73
   2  -4   9   43.72   21.78
   2  -4  10  488.00   54.16
   2  -4  11  394.69   60.29
  -2   5  11   64.01   34.67
  -2  -5  11   40.29   33.10
  -2   5  10  194.64   41.19
  -2  -5  10  322.70   56.49
  -2   5   9   -9.93   18.63
  -2  -5   9   -7.38   24.35
  -2   5   8  143.24   24.04
  -2  -5   8  135.85   27.42
  -2   5   7  855.61   40.46
  -2   5   7 1055.50   68.74
  -2  -5   7 1075.39   77.03
  -2   5   6  584.54   44.59
  -2   5   6  567.52   33.59
  -2  -5   6  583.36   47.97
  -2   5   5  162.31   20.84
  -2  -5   5  226.36   21.97
   2  -5  -5  107.16   15.14
  -2   5   4 1201.34   69.75
   2  -5  -4 1188.40   58.46
  -2  -5   4 1145.20   66.97
  -2   5   3  791.94   48.61
  -2  -5   3  781.29   44.11
   2   5  -2 3946.15  181.71
  -2   5   2 4486.53  214.65
  -2  -5   2 4960.51  217.75
  -2  -5   2 4870.95  192.53
  -2   5   1 6986.45  329.30
   2   5  -1 7002.01  302.68
   2   5  -1 7944.69  336.89
  -2  -5   1 7370.03  314.35
  -2  -5   1 7336.18  316.49
  -2  -5   1 7281.49  325.65
   2   5   0 4844.89  193.75
   2   5   0 4600.62  203.48
  -2   5   0 4496.88  205.92
   2  -5   0 4995.02  218.70
  -2  -5   0 4851.62  198.24
  -2  -5   0 4380.64  192.18
  -2  -5   0 5426.15  232.73
   2   5   1  188.78   16.32
  -2   5  -1  212.11   15.65
   2  -5   1  220.78   15.39
   2  -5   1  197.98   13.92
  -2  -5  -1  215.95   17.92
   2   5   2  101.61   13.24
  -2   5  -2  105.18   10.92
   2  -5   2  100.82    9.53
   2  -5   2  109.28   10.43
   2  -5   2   94.31   13.82
  -2   5  -3    0.08    6.01
   2   5   3   81.64   12.58
   2   5   3   24.40    9.45
   2  -5   3   14.77    9.46
   2  -5   3    5.69    7.94
  -2   5  -4  449.99   26.48
   2   5   4  508.03   36.18
   2   5   4  414.33   27.25
   2  -5   4  448.47   37.19
   2   5   5    6.65    8.50
   2   5   5    5.15   10.33
  -2  -5  -5    2.30    3.65
   2  -5   5   -6.11   10.11
   2   5   6  918.25   47.76
   2   5   6  873.82   63.73
  -2   5  -6  923.73   49.86
   2  -5   6  813.51   57.92
   2   5   7   32.62   20.75
   2   5   7    1.63    7.37
   2  -5   7   31.85   16.94
   2   5   8  472.03   44.95
   2   5   8  551.45   33.96
   2  -5   8  488.90   44.86
   2   5   9  384.24   42.56
   2  -5   9  371.63   44.91
   2   5  10   25.44   34.23
   2  -5  10   74.21   31.25
   2  -5  11  100.50   38.50
  -2   6  11  118.26   45.44
  -2  -6  11   64.89   39.41
  -2   6  10  136.92   39.92
  -2  -6  10  115.05   34.55
  -2   6   9   26.52   28.79
  -2  -6   9   18.57   30.73
  -2   6   8    5.79   15.90
  -2  -6   8   -6.46   15.25
  -2   6   7  384.40   40.39
  -2  -6   7  287.94   34.92
  -2   6   6  685.65   53.66
  -2  -6   6  676.56   51.78
  -2   6   5  789.63   53.44
   2  -6  -5  721.97   44.13
  -2  -6   5  805.77   51.64
  -2   6   4  124.00   19.17
   2   6  -4  140.31    8.95
  -2  -6   4  139.48   17.34
   2  -6  -4  114.33   13.07
  -2   6   3  150.86   23.28
  -2  -6   3   96.12    7.25
  -2  -6   3  143.38   18.99
   2   6  -2 3438.21  146.49
  -2   6   2 3518.19  175.03
  -2  -6   2 3660.94  168.07
  -2  -6   2 3403.62  161.22
  -2  -6   2 3716.19  154.07
  -2   6   1 2562.79  126.88
   2   6  -1 2637.95  116.05
   2   6  -1 2721.69  120.76
  -2  -6   1 2522.16  111.30
  -2  -6   1 2576.29  115.00
  -2   6   0 1522.52   76.98
   2   6   0 1437.55   69.00
   2   6   0 1496.80   62.57
  -2  -6   0 1323.39   65.50
  -2  -6   0 1474.28   69.79
  -2  -6   0 1465.72   63.00
   2   6   1  319.68   23.38
  -2   6  -1  403.37   25.55
   2  -6   1  371.56   25.26
   2   6   2  317.96   24.33
  -2   6  -2  292.34   19.88
   2  -6   2  294.58   22.55
   2  -6   2  331.68   24.23
  -2   6  -3 1019.47   50.35
   2   6   3  859.99   52.21
   2  -6   3  835.85   46.71
   2  -6   3  941.71   54.51
  -2   6  -4 2077.14   97.90
   2   6   4 2224.66  107.67
   2   6   4 1990.56  109.73
   2  -6   4 2253.33  117.09
   2  -6   4 2198.27  107.32
   2   6   5   -0.09    9.57
   2   6   5    2.01   16.73
  -2   6  -5   19.40    8.31
   2  -6   5    4.56   15.83
   2   6   6  981.70   67.59
  -2   6  -6 1100.49   56.93
   2   6   6  984.81   54.31
   2  -6   6 1074.73   76.42
  -2   6  -7  491.59   34.19
   2   6   7  558.74   34.72
   2   6   7  574.59   48.74
   2  -6   7  441.47   43.54
   2   6   8  -13.34   29.52
  -2   6  -8   38.66   14.30
   2  -6   8   53.19   21.80
   2   6   9   -1.86   21.87
   2  -6   9   59.78   27.10
   2   6  10   16.41   30.57
   2  -6  10   -3.27   33.02
   2   6  11   35.40   28.94
   2  -6  11   73.33   46.22
  -2   7  11   77.31   52.54
  -2   7  10  248.32   40.04
  -2  -7  10  224.26   50.68
  -2   7   9   -6.57   21.67
  -2  -7   9   -6.96   20.15
  -2   7   8   61.95   26.21
  -2  -7   8   63.98   25.55
  -2   7   7  327.59   36.81
  -2  -7   7  258.33   34.47
  -2   7   6 1013.54   72.15
  -2  -7   6 1042.45   76.51
  -2   7   5  132.98   26.04
   2   7  -5  166.38   10.45
  -2  -7   5  193.43   23.51
  -2   7   4 1186.77   74.40
  -2  -7   4 1245.35   71.82
   2   7  -3  641.40   33.11
  -2   7   3  604.60   46.19
  -2  -7   3  672.38   40.47
  -2  -7   3  594.54   28.12
  -2   7   2  656.12   49.84
   2   7  -2  636.80   34.57
  -2  -7   2  696.77   42.81
  -2  -7   2  627.31   37.27
  -2  -7   2  648.78   33.12
   2   7  -1   97.31   11.68
  -2   7   1   92.82   15.61
   2   7  -1   75.34   10.50
  -2  -7   1  107.80   11.12
  -2  -7   1  106.30   14.24
  -2  -7   1   80.86   12.55
  -2   7   0   63.33   15.01
   2   7   0   22.14    9.67
   2  -7   0   22.44    9.45
  -2  -7   0   60.27   10.35
  -2  -7   0   47.65    8.53
   2   7   1 3440.17  167.99
  -2   7  -1 3324.07  158.55
  -2  -7  -1 3421.45  157.90
   2  -7   1 3860.65  179.86
   2   7   2  657.10   42.02
  -2   7  -2  584.63   35.58
   2  -7   2  586.95   37.76
   2  -7   2  615.33   40.01
  -2   7  -3  223.72   20.50
   2   7   3  295.15   30.56
   2  -7   3  236.09   20.75
   2   7   4    1.77   12.25
  -2   7  -4   29.17   10.20
   2   7   4   29.76   13.56
   2  -7   4  -17.07   13.79
   2  -7   4   -9.14   13.93
  -2   7  -5  963.07   53.11
   2   7   5  957.73   54.11
   2   7   5 1109.40   71.40
   2  -7   5  998.85   66.28
   2   7   6  261.27   26.25
  -2   7  -6  257.00   22.83
   2   7   6  235.28   30.88
   2  -7   6  265.58   31.73
   2   7   7  442.64   33.84
  -2   7  -7  503.58   34.54
   2   7   7  467.23   45.69
   2  -7   7  579.11   50.60
   2   7   8  394.20   45.91
   2  -7   8  345.49   42.87
   2   7   9  247.10   43.70
   2  -7   9  203.08   41.80
   2   7  10  393.37   51.25
   2  -7  10  335.80   63.03
  -2   8  10    6.00   27.94
  -2  -8  10   29.98   37.43
  -2   8   9  -10.15   31.15
  -2  -8   9   14.80   24.96
  -2   8   8  101.89   31.86
  -2  -8   8  145.38   37.65
  -2   8   7  317.45   38.39
  -2  -8   7  163.19   30.92
  -2   8   6  344.73   38.92
  -2  -8   6  262.56   33.56
   2   8  -5  486.27   25.23
  -2   8   5  371.75   41.07
  -2  -8   5  510.31   40.88
   2   8  -4  162.21   14.43
  -2   8   4  158.70   31.36
  -2  -8   4  115.19   24.27
  -2   8   3   81.30   17.39
   2   8  -3   33.24    9.64
  -2  -8   3   71.80   16.73
  -2  -8   3   62.56    8.32
  -2   8   2   43.41   17.20
   2   8  -2   23.08    9.07
  -2  -8   2   20.72   11.88
  -2  -8   2   17.90   10.55
  -2  -8   2   12.89    8.30
   2   8  -1   12.81    9.08
  -2   8   1   18.18   12.44
  -2  -8   1   -0.43    8.73
  -2  -8   1    4.15    8.36
  -2   8   0 1244.26   71.52
   2   8   0 1295.79   72.16
  -2  -8   0 1191.03   57.37
  -2  -8   0 1188.23   64.23
   2  -8   0 1335.91   65.13
   2   8   1   92.96   18.35
  -2   8  -1   90.58   13.73
   2  -8   1   85.48   16.04
  -2  -8  -1   82.14   12.45
  -2   8  -2  524.68   37.00
   2   8   2  565.44   41.15
   2  -8   2  503.40   34.28
   2  -8   2  590.83   38.90
  -2   8  -3  424.43   33.54
   2  -8   3  473.80   32.21
   2  -8   3  329.23   29.55
  -2   8  -4  288.49   25.42
   2   8   4  256.68   28.40
   2   8   4  208.12   28.92
   2  -8   4  209.62   26.27
   2  -8   4  274.63   29.35
   2   8   5  178.80   24.64
  -2   8  -5  171.76   19.63
   2   8   5  198.72   27.80
   2  -8   5  177.85   26.85
  -2   8  -6  363.67   30.13
   2   8   6  376.61   33.28
   2   8   6  391.71   40.80
   2  -8   6  385.86   38.37
   2   8   7   -3.65   22.05
  -2   8  -7   -2.36   12.15
   2  -8   7   34.27   23.78
   2   8   8  271.47   40.35
   2  -8   8  187.92   37.38
   2   8   9  296.95   42.94
   2  -8   9  194.02   45.12
   2   8  10   -1.36   29.86
   2  -8  10    3.78   25.13
  -2   9  10   -2.92   29.95
  -2  -9  10   36.59   31.14
  -2   9   9   87.43   47.81
  -2  -9   9  167.48   47.18
  -2   9   8   58.21   40.66
  -2  -9   8   40.86   26.66
  -2   9   7  236.75   38.81
  -2  -9   7  228.59   35.14
  -2   9   6   66.55   27.59
  -2  -9   6  182.78   27.16
  -2   9   5    3.26   18.38
  -2  -9   5   11.95   15.54
  -2   9   4  162.71   27.58
   2   9  -4  170.50   17.48
  -2  -9   4  198.87   24.07
  -2   9   3  164.47   26.81
   2   9  -3  134.10   16.62
  -2  -9   3  165.88   24.65
  -2  -9   3  136.27   16.06
   2   9  -2   16.85   11.09
  -2   9   2   16.90   15.79
  -2  -9   2   27.12   12.23
  -2  -9   2   23.11   13.31
  -2   9   1   80.03   24.06
   2   9  -1  118.71   16.46
  -2  -9   1   99.87   18.75
  -2  -9   1   69.40   13.62
   2  -9  -1   96.75   13.33
  -2   9   0   -6.93   13.60
   2   9   0  -20.47   10.32
  -2  -9   0   -4.03   10.19
  -2  -9   0    3.98    6.13
   2  -9   0    6.90    6.88
  -2   9  -1   21.93   16.54
   2   9   1   46.91   16.99
  -2  -9  -1   23.13   10.50
   2  -9   1    6.45   10.49
   2   9   2 1171.45   77.97
  -2   9  -2 1260.41   74.47
   2  -9   2 1389.53   75.31
   2  -9   2 1303.71   76.95
  -2   9  -3  526.20   39.94
   2   9   3  528.48   44.26
   2  -9   3  476.75   44.65
   2  -9   3  591.59   40.03
   2   9   4  888.11   65.70
  -2   9  -4 1141.92   65.71
   2  -9   4 1252.79   75.82
   2  -9   4 1257.01   78.28
   2   9   5   16.77   17.66
  -2   9  -5   49.35   14.86
   2   9   5   51.55   20.71
   2  -9   5    6.18   18.50
  -2   9  -6   41.12   15.42
   2   9   6   31.24   18.60
   2   9   6   43.30   23.49
   2  -9   6   32.37   27.73
   2   9   7   72.50   25.66
   2   9   7   77.12   19.74
   2  -9   7  105.55   29.43
   2   9   8  372.19   52.29
   2  -9   8  489.73   56.61
   2   9   9  -10.82   25.38
   2  -9   9   33.98   36.35
  -2  10   9   34.74   41.04
  -2 -10   9   40.09   34.37
  -2  10   8   -3.25   34.23
  -2 -10   8   14.79   31.10
  -2  10   7   23.74   27.05
  -2 -10   7   51.81   30.61
  -2  10   6  226.66   40.06
  -2 -10   6  220.84   38.36
  -2  10   5  250.18   38.28
  -2 -10   5  269.64   34.69
  -2  10   4 1122.72   88.42
   2  10  -4 1226.61   64.56
  -2 -10   4 1204.14   76.70
   2  10  -3  243.43   23.59
  -2  10   3  366.60   39.03
  -2 -10   3  320.13   32.53
  -2  10   2  606.14   56.38
   2  10  -2  589.81   41.23
  -2 -10   2  562.61   38.51
  -2 -10   2  508.41   40.10
   2 -10  -2  614.41   36.79
  -2  10   1 1897.11  109.97
   2  10  -1 1876.31  102.68
   2 -10  -1 1786.79   91.95
  -2 -10   1 1664.27   99.06
  -2 -10   1 1795.83   92.91
  -2  10   0   34.56   15.57
   2  10   0   50.06   14.87
  -2 -10   0   49.90   18.82
   2 -10   0   31.56   13.06
  -2 -10   0   30.46   12.56
   2  10   1  280.76   34.17
  -2  10  -1  295.77   33.88
  -2 -10  -1  256.08   18.84
   2 -10   1  223.97   28.43
  -2 -10  -1  313.05   30.22
   2 -10   1  258.03   24.97
   2  10   2  127.29   24.47
  -2  10  -2  285.07   26.30
   2 -10   2  221.69   27.48
  -2 -10  -2  200.64   22.47
   2 -10   2  190.14   26.57
   2  10   3  145.94   25.45
  -2  10  -3  120.37   19.55
   2 -10   3  134.35   26.39
   2 -10   3  106.01   18.39
   2  10   4 1193.23   83.69
  -2  10  -4 1246.62   77.69
   2 -10   4 1192.50   78.77
   2 -10   4 1252.76   82.70
   2  10   5  449.87   44.30
   2  10   5  536.27   47.69
  -2  10  -5  378.10   37.95
   2 -10   5  412.77   47.70
   2  10   6   71.06   26.43
   2  10   6  218.82   33.55
  -2  10  -6  141.07   24.42
   2 -10   6  282.88   41.48
   2  10   7  145.69   33.64
   2 -10   7   35.87   30.63
   2  10   8   35.33   28.38
   2 -10   8   12.91   28.66
   2  10   9   46.03   32.14
   2 -10   9    8.76   41.29
  -2  11   8   53.68   32.90
  -2 -11   8   10.57   38.47
  -2  11   7    4.38   30.74
  -2 -11   7   48.70   33.53
  -2  11   6  497.00   63.72
  -2 -11   6  510.07   52.34
  -2  11   5  111.01   30.66
  -2 -11   5   96.19   32.01
  -2  11   4  272.62   36.61
  -2 -11   4  177.44   28.35
   2  11  -3   -1.06   11.68
  -2  11   3    5.26   24.70
  -2 -11   3  -14.32    9.76
  -2 -11   3   20.60   16.57
  -2  11   2  200.84   39.57
   2  11  -2  196.59   26.47
   2 -11  -2  242.89   23.39
  -2 -11   2  229.36   28.59
  -2 -11   2  241.61   29.78
   2  11  -1  137.99   23.79
  -2  11   1  156.73   28.87
  -2 -11   1  150.79   23.38
  -2 -11   1  161.54   21.07
   2 -11  -1  105.19   18.04
  -2  11   0 2941.80  165.51
   2  11   0 2826.95  152.30
  -2 -11   0 2593.27  128.53
  -2 -11   0 3232.33  167.35
   2 -11   0 2543.34  134.36
   2  11   1  331.96   38.21
  -2  11  -1  186.59   32.18
   2 -11   1  184.58   26.53
   2 -11   1  292.38   29.18
  -2 -11  -1  236.66   27.36
   2  11   2   49.30   18.02
  -2  11  -2    4.83   19.92
  -2 -11  -2   25.02   14.82
   2 -11   2   14.07   15.64
   2 -11   2   35.83   19.71
   2  11   3  114.92   26.03
  -2  11  -3  166.27   25.03
   2 -11   3   80.75   27.70
   2 -11   3  132.45   22.89
  -2  11  -4   73.78   23.88
   2  11   4   28.55   23.71
   2 -11   4  104.01   19.92
   2 -11   4   69.81   27.84
   2  11   5  288.25   45.59
   2  11   5  309.37   39.44
  -2  11  -5  280.93   36.51
   2 -11   5  208.36   34.76
   2  11   6  276.15   40.32
   2  11   6  175.20   35.36
   2 -11   6  266.90   35.29
   2  11   7   26.48   35.79
   2 -11   7   57.24   28.21
   2  11   8   17.65   41.20
   2 -11   8   76.87   44.11
  -2  12   7  226.73   58.29
  -2 -12   7  176.17   41.14
  -2  12   6  475.94   67.87
  -2 -12   6  316.22   53.26
  -2  12   5   -0.51   23.48
  -2 -12   5   -1.80   22.03
  -2  12   4  715.86   66.66
  -2 -12   4  736.96   62.71
  -2  12   3    9.41   22.39
  -2 -12   3   20.52   20.61
  -2  12   2    8.31   16.68
   2  12  -2    1.03   14.25
  -2 -12   2  -15.81   17.53
  -2 -12   2    0.73   13.71
   2 -12  -2    4.28   12.62
  -2  12   1   24.06   17.78
   2  12  -1   10.40   18.10
   2 -12  -1   -1.18   13.86
  -2 -12   1   -4.93   13.85
  -2 -12   1    1.74   18.98
  -2  12   0 1022.27   76.20
   2  12   0 1317.84   87.97
   2 -12   0 1130.91   71.21
  -2 -12   0  930.85   66.18
   2 -12   0 1111.91   73.59
  -2  12  -1  121.49   31.75
   2  12   1  193.65   35.82
   2 -12   1  207.13   30.36
   2 -12   1  157.09   26.21
  -2 -12  -1  167.43   30.12
  -2  12  -2 2315.33  139.31
   2  12   2 2177.13  146.96
  -2 -12  -2 2360.01  130.57
   2 -12   2 2145.75  124.40
   2 -12   2 2278.71  130.64
  -2  12  -3  167.41   34.59
   2  12   3  186.14   33.54
   2 -12   3  161.18   28.34
   2 -12   3  156.62   25.69
  -2 -12  -3  293.96   34.72
  -2  12  -4  170.77   31.72
   2  12   4  221.60   32.20
   2 -12   4  164.76   30.93
   2 -12   4  176.52   37.75
   2  12   5   39.89   24.66
   2  12   5   14.14   26.07
   2 -12   5  -30.72   32.67
   2  12   6    6.34   27.23
   2  12   6   67.96   38.20
   2 -12   6   23.14   32.86
   2  12   7  118.57   38.94
   2 -12   7  109.97   47.80
  -2  13   6   13.65   44.03
  -2 -13   6   18.56   26.55
  -2  13   5  517.32   65.54
  -2 -13   5  470.52   61.08
  -2  13   4   50.24   30.08
  -2 -13   4   83.45   24.68
  -2  13   3  679.70   74.30
  -2 -13   3  822.66   66.61
  -2  13   2   46.80   25.84
  -2 -13   2   29.49   22.74
  -2 -13   2   37.81   24.15
  -2  13   1  187.45   37.77
   2  13  -1  192.62   35.07
  -2 -13   1  230.36   30.49
   2  13   0   51.35   27.22
  -2  13   0  164.14   27.71
  -2 -13   0  128.78   25.47
   2 -13   0   64.49   23.66
   2 -13   0   93.21   24.13
  -2  13  -1  371.24   48.76
   2  13   1  320.96   40.81
  -2 -13  -1  309.75   33.39
   2 -13   1  276.25   40.07
   2 -13   1  285.52   32.71
   2  13   2    6.52   23.87
  -2  13  -2   67.68   22.41
  -2 -13  -2   59.67   19.32
   2 -13   2   65.43   21.77
   2 -13   2   50.16   28.09
   2  13   3  967.73   80.49
  -2  13  -3 1128.04   86.79
   2 -13   3 1034.08   84.05
   2 -13   3  935.83   70.77
  -2 -13  -3  993.40   70.78
   2  13   4   90.65   41.12
   2 -13   4  132.49   39.03
  -2 -13  -4   76.25   23.70
   2 -13   4  118.91   33.21
   2  13   5   24.53   29.87
   2  13   5   26.73   27.83
   2 -13   5   -1.23   23.77
   2  13   6  231.35   47.09
   2  13   6  198.69   48.99
   2 -13   6  259.22   53.72
  -2  14   5  -27.99   40.32
  -2 -14   5   -0.22   33.20
  -2  14   4  114.90   53.80
  -2 -14   4  137.90   40.54
  -2  14   3  114.04   45.22
  -2  14   2   97.53   48.79
  -2 -14   2  240.99   33.32
   2  14  -1 1488.88  109.69
  -2  14   1 1468.82  111.35
   2 -14  -1 1560.25  102.21
  -2 -14   1 1635.80  104.74
   2  14   0   10.27   25.21
  -2  14   0   21.86   30.31
   2 -14   0  -10.51   20.56
  -2 -14   0  -31.78   20.89
  -2  14  -1   33.94   37.22
   2  14   1   90.53   28.32
   2 -14   1   60.30   29.03
   2 -14   1  136.29   26.32
  -2 -14  -1   71.94   31.22
  -2  14  -2  304.34   47.54
   2  14   2  247.31   49.25
   2 -14   2  356.26   42.52
   2 -14   2  236.09   42.55
  -2 -14  -2  271.88   36.37
   2  14   3  233.27   42.44
   2 -14   3  255.30   36.79
   2 -14   3  330.56   42.50
  -2 -14  -3  188.66   40.58
   2  14   4    7.56   34.02
   2  14   4   62.17   35.37
   2 -14   4   20.14   22.47
  -2 -14  -4    6.73   20.41
   2 -14   4   11.42   24.38
  -2  15   2  212.36   53.61
   2 -15  -2  210.26   49.95
  -2 -15   2  219.41   39.25
  -2  15   1   10.28   37.28
   2 -15  -1   25.56   30.59
  -2 -15   1   21.19   25.00
  -2  15   0  542.24   73.64
   2 -15   0  561.23   63.44
  -2 -15   0  577.10   56.34
   2  15   1   21.84   30.07
  -2  15  -1    9.10   33.41
   2 -15   1   32.07   23.28
  -2 -15  -1   -0.86   25.84
   2  15   2   14.20   34.56
  -2 -15  -2   27.81   28.72
   2 -15   2   14.68   24.19
  -3   0  12  -12.18   32.13
  -3   0  11  -28.01   26.96
  -3   0  10   52.79   27.43
  -3   0   9    2.96   11.93
  -3   0   9   -0.64   11.58
  -3   0   8    1.94   11.11
  -3   0   8   -7.20   10.72
  -3   0   7   -6.21    8.07
  -3   0   7   13.44   12.76
   3   0  -6  359.97   24.36
  -3   0   6  370.32   25.42
  -3   0   6  353.69   27.75
  -3   0   5   -7.02    6.07
   3   0  -5    6.74    5.61
  -3   0   5    0.18    5.90
  -3   0   4 2590.86  111.60
   3   0  -4 2742.38  113.15
  -3   0   4 2761.87  128.16
  -3   0   4 2759.17  112.57
   3   0  -4 2734.44  115.55
   3   0  -3    4.74    3.52
  -3   0   3    1.40    4.84
  -3   0   3    6.25    3.96
   3   0  -3   -2.87    5.25
   3   0  -3    3.21    4.25
  -3   0   3    1.53    4.09
   3   0  -2 6452.16  276.76
  -3   0   2 6626.17  275.35
  -3   0   2 6617.93  267.56
   3   0  -2 6656.62  281.23
  -3   0   1   -3.31    2.82
  -3   0   1   -0.51    3.50
   3   0  -1    3.13    3.98
   3   0   0 2195.38   94.57
  -3   0   0 2226.47   93.21
   3   0   1    1.10    4.37
  -3   0  -1    2.33    3.46
   3   0   210631.44  468.51
  -3   0  -210403.86  457.31
   3   0   3   -4.51    5.46
  -3   0  -3   -0.24    5.31
  -3   0  -3   -0.47    4.89
   3   0   4  327.15   20.06
  -3   0  -4  350.49   22.25
   3   0   4  325.41   21.76
  -3   0  -4  326.55   20.48
  -3   0  -5    2.64    6.18
  -3   0  -6 3798.92  174.43
   3   0   6 3717.02  177.56
   3   0   7   -2.64   11.76
  -3   0  -7   -0.94    7.76
   3   0   8  212.64   29.06
   3   0   9   -4.10   18.39
   3   0  10  654.98   61.85
   3   0  11  -16.89   26.86
  -3   1  12   31.91   24.93
  -3  -1  12   21.82   26.43
  -3   1  11   32.30   20.68
  -3   1  11   -8.91   26.86
  -3  -1  11   23.44   23.61
  -3   1  10   -2.97   12.86
  -3   1  10    6.87   11.96
  -3  -1  10  -10.36   18.37
  -3   1   9  219.97   24.19
  -3   1   9  180.79   25.72
  -3  -1   9  204.72   34.49
  -3   1   8  259.58   31.03
  -3   1   8  308.96   29.86
  -3  -1   8  237.62   27.51
  -3  -1   8  288.48   23.25
  -3   1   7 3379.42  172.06
  -3   1   7 3658.26  174.90
   3   1  -7 3210.79  162.51
  -3  -1   7 3344.36  150.65
  -3  -1   7 3199.17  164.96
   3   1  -6 1073.22   49.29
  -3   1   6 1091.73   56.86
   3   1  -6 1042.17   52.29
  -3   1   6 1026.14   60.43
  -3  -1   6  884.07   54.90
  -3  -1   6 1109.86   54.80
  -3   1   5   -1.40    7.24
  -3   1   5    2.07    3.54
   3   1  -5    9.85    4.96
  -3   1   5   -1.85    8.06
   3  -1  -5    5.24    8.81
  -3  -1   5    8.83    7.63
  -3  -1   5    5.85    6.09
   3   1  -4 1383.25   56.83
  -3   1   4 1433.47   59.16
  -3   1   4 1340.24   64.23
  -3   1   4 1294.56   63.72
   3   1  -4 1369.10   60.24
   3  -1  -4 1397.34   59.13
   3  -1  -4 1433.67   66.12
  -3  -1   4 1452.92   60.73
   3   1  -3   80.03    8.62
  -3   1   3   81.87    8.10
   3   1  -3   68.74    5.30
  -3   1   3   65.81    8.99
   3   1  -3   75.72    9.65
   3  -1  -3   81.34    8.82
  -3  -1   3   66.60    7.55
  -3  -1   3   96.61    6.84
  -3  -1   3   96.50   11.19
   3   1  -2 6933.78  296.26
  -3   1   2 6589.74  278.93
   3   1  -2 6781.71  261.44
   3   1  -2 6407.14  277.59
  -3   1   2 7063.34  293.53
  -3  -1   2 6642.38  288.09
   3  -1  -2 7174.57  296.33
  -3  -1   2 6839.48  288.39
  -3  -1   2 6731.48  261.85
   3  -1  -2 6728.91  288.30
   3   1  -170251.42 3633.73
  -3   1   173068.32 3808.29
  -3   1   169760.16 3637.68
  -3  -1   170683.82 3693.67
   3  -1  -168469.26 3633.53
   3  -1  -170990.18 3665.05
  -3   1   0 2815.76  114.06
   3   1   0 2647.76  114.80
  -3   1   0 2825.35  119.13
   3  -1   0 2700.72  118.50
  -3  -1   0 2649.81  111.66
   3   1   1 2401.84  103.32
  -3   1  -1 2437.85  104.31
   3  -1   1 2035.93   92.96
  -3  -1  -1 2129.45   92.30
  -3   1  -213102.68  593.69
   3   1   213227.62  585.77
  -3  -1  -213613.25  606.88
   3  -1   212437.08  567.07
   3   1   3 4039.73  172.24
   3   1   3 4340.76  179.05
   3  -1   3 4123.48  180.40
  -3  -1  -3 3874.62  176.90
  -3  -1  -3 4269.42  181.76
   3   1   4 3031.48  132.05
   3   1   4 3010.70  131.63
  -3   1  -4 3018.53  138.00
  -3  -1  -4 2860.03  125.73
   3  -1   4 2896.70  134.75
   3   1   5  138.64   13.37
   3   1   5   81.34   12.72
  -3   1  -5   93.14    9.08
  -3   1  -5  110.97   14.61
   3  -1   5  138.57   14.73
  -3  -1  -5  119.53   11.25
   3   1   6   49.27   13.17
  -3   1  -6   57.89   14.04
  -3   1  -6   52.52    9.08
  -3  -1  -6   50.50    8.96
   3  -1   6   26.76   16.41
  -3   1  -7   -0.27    8.52
   3   1   7    4.16   11.76
  -3   1  -7    9.45    7.11
  -3   1  -7    0.08    7.22
   3  -1   7   18.54   14.38
  -3  -1  -7    1.77    6.99
   3   1   8   23.39   16.62
   3  -1   8   17.96   18.88
   3   1   9   27.68   15.98
   3  -1   9   39.86   19.43
   3   1  10   51.83   26.39
   3  -1  10  106.23   32.00
   3   1  11  344.47   47.65
   3  -1  11  360.16   46.26
  -3  -2  12    5.67   23.77
  -3   2  11  -14.52   20.68
  -3  -2  11    9.70   21.12
  -3   2  10  477.13   43.44
  -3   2  10  434.97   47.94
  -3  -2  10  408.28   44.82
  -3   2   9   18.06   19.62
  -3   2   9    8.25   17.20
  -3  -2   9    9.45   22.67
  -3   2   8   90.02   21.14
  -3   2   8   99.50   21.28
  -3  -2   8   59.27   19.50
  -3   2   7   38.88   14.16
   3   2  -7   13.10    8.96
  -3   2   7   22.57   14.05
  -3  -2   7   33.97   17.85
   3   2  -6  740.89   37.50
  -3   2   6  709.46   45.24
   3   2  -6  674.41   35.82
  -3  -2   6  688.10   33.15
  -3  -2   6  741.51   47.75
  -3   2   5  302.01   16.37
  -3   2   5  337.27   23.82
  -3  -2   5  288.81   14.87
  -3   2   4 1230.01   52.47
   3   2  -4 1275.63   58.91
  -3   2   4 1219.57   62.93
  -3  -2   4 1100.05   59.69
   3  -2  -4 1257.91   61.66
   3  -2  -4 1227.57   60.50
   3   2  -3 4627.69  207.36
  -3   2   3 4584.42  202.76
   3   2  -3 4480.79  194.61
  -3   2   3 4649.51  195.32
  -3  -2   3 4658.64  210.69
   3  -2  -3 4317.21  190.25
   3  -2  -3 4756.75  205.68
   3   2  -2  488.49   27.03
   3   2  -2  430.02   23.72
  -3   2   2  526.88   26.12
  -3   2   2  490.47   26.35
   3  -2  -2  445.77   23.19
  -3  -2   2  484.92   25.88
   3   2  -1   81.48    9.76
   3   2  -1   74.84    8.06
  -3   2   1  103.83    8.95
  -3   2   1  105.82    9.82
   3  -2  -1  104.87    8.47
  -3  -2   1  107.23    8.05
  -3  -2   1  110.80    6.51
  -3  -2   1   78.84    8.51
   3   2   0 6229.51  248.76
  -3   2   0 5796.11  246.97
   3   2   0 6209.60  247.83
   3   2   0 5908.57  259.72
  -3  -2   0 6439.43  273.42
   3  -2   0 6309.25  260.45
  -3  -2   0 6054.99  247.46
  -3   2  -1   16.95    6.58
  -3   2  -1   18.39    4.73
   3   2   1   31.17    5.99
  -3  -2  -1    7.98    5.04
  -3  -2  -1   15.91    3.01
  -3  -2  -1   24.35    5.19
   3   2   2  529.93   27.67
   3   2   2  542.38   29.05
  -3   2  -2  492.75   29.02
  -3  -2  -2  504.60   28.20
   3  -2   2  625.65   25.49
   3   2   3 7911.08  326.42
  -3   2  -3 7847.38  356.49
   3   2   3 7756.67  353.58
   3   2   3 7987.31  349.05
  -3  -2  -3 7543.38  331.03
   3   2   4  538.79   27.51
  -3   2  -4  574.41   26.66
   3   2   4  559.75   34.39
  -3   2  -4  499.33   33.32
   3   2   4  531.68   29.56
   3  -2   4  482.41   31.08
  -3  -2  -4  649.65   33.25
  -3   2  -5  513.47   34.96
   3   2   5  602.54   32.24
   3   2   5  577.06   32.02
   3   2   5  443.70   29.77
  -3   2  -5  575.05   28.50
   3  -2   5  545.03   35.45
  -3   2  -6  367.04   22.95
   3   2   6  381.64   23.35
   3   2   6  366.33   27.04
  -3   2  -6  310.75   27.13
   3  -2   6  395.67   31.20
  -3  -2  -6  371.55   22.25
  -3   2  -7  722.00   49.06
   3   2   7  846.74   48.05
   3  -2   7  838.75   56.08
   3   2   8  547.22   38.99
   3  -2   8  634.94   48.74
   3   2   9  821.44   57.04
   3  -2   9  597.01   60.33
   3   2  10   58.47   27.04
   3  -2  10  153.08   29.32
   3   2  11   83.89   31.34
   3  -2  11   77.31   38.87
  -3   3  12   22.72   29.39
  -3  -3  12   46.37   30.32
  -3   3  11    3.52   25.60
  -3  -3  11   34.89   31.89
  -3   3  10  267.79   39.71
  -3  -3  10  232.91   43.35
  -3   3   9   36.03   21.59
  -3  -3   9   29.69   20.50
   3   3  -8  276.81   21.67
  -3   3   8  333.82   35.73
  -3  -3   8  358.70   36.47
  -3   3   7   17.34   12.57
   3   3  -7   -2.16    8.49
   3   3  -7    3.50    6.87
  -3  -3   7   16.76   12.99
   3   3  -6  292.28   21.79
  -3   3   6  285.12   28.32
   3   3  -6  292.13   16.25
  -3  -3   6  315.25   28.89
   3   3  -5   15.86    7.87
  -3   3   5   12.73   12.80
  -3  -3   5   12.35   10.75
  -3   3   4 3269.23  155.42
   3   3  -4 3716.09  164.39
  -3   3   4 3362.71  146.09
   3  -3  -4 3229.34  151.70
  -3  -3   4 3246.45  159.14
   3   3  -3   62.97    9.45
  -3   3   3   47.56    6.92
  -3   3   3   54.74   10.33
   3   3  -3   70.85   10.23
  -3  -3   3   53.18    9.85
   3  -3  -3   80.37    9.95
   3   3  -2   19.83    8.12
  -3   3   2   32.01    7.49
  -3   3   2   18.58    8.26
   3   3  -2   35.86    6.24
   3  -3  -2    9.94    6.25
  -3  -3   2   15.20    5.65
  -3   3   1 2569.07  113.55
   3   3  -1 2285.44   96.60
  -3   3   1 2548.20  114.98
   3   3  -1 2546.98  106.17
   3   3  -1 2465.31  112.01
   3  -3  -1 2409.28  105.40
  -3  -3   1 2480.39  103.32
   3   3   0  824.76   42.78
   3   3   0  843.68   35.58
   3   3   0  844.06   38.40
  -3   3   0  806.47   39.56
   3   3   0  824.53   35.26
   3  -3   0  883.02   39.95
  -3  -3   0  868.59   38.42
   3   3   1  179.55   14.68
   3   3   1  186.84    9.21
  -3   3  -1  213.50   14.01
  -3  -3  -1  197.28   15.19
  -3  -3  -1  209.05   10.93
  -3   3  -2  118.35   10.14
  -3   3  -2  161.34   15.52
   3   3   2  120.86   11.82
   3   3   2   99.06   11.09
   3  -3   2   89.12   10.66
  -3  -3  -2  120.90   14.42
   3  -3   2  133.90    8.80
  -3   3  -3  866.67   50.99
   3   3   3 1232.90   56.63
   3   3   3  812.78   45.94
   3  -3   3  995.60   43.17
   3  -3   3  871.88   49.34
   3   3   4    1.30    7.93
   3   3   4   12.46    8.41
  -3   3  -4    9.19    9.28
   3   3   4   26.37    5.13
   3  -3   4   25.03   10.19
  -3   3  -5 4848.56  216.98
   3   3   5 4886.49  240.35
   3   3   5 5398.90  235.84
   3  -3   5 5220.43  256.29
   3   3   6   17.88    7.83
   3   3   6    0.18   11.50
   3   3   6    3.40    8.45
   3  -3   6   19.81   15.58
   3   3   7  863.35   62.38
   3   3   7  786.90   41.22
   3   3   7  854.94   49.51
   3  -3   7  860.11   57.62
   3   3   8  770.52   49.19
   3  -3   8  686.35   53.92
   3   3   9  172.02   26.62
   3  -3   9  215.46   32.90
   3   3  10  137.10   25.93
   3  -3  10  149.50   37.12
   3  -3  11  308.09   58.74
  -3   4  11  204.11   43.21
  -3  -4  11  220.03   40.09
  -3   4  10   18.05   23.27
  -3  -4  10    1.39   22.04
  -3   4   9    3.44   18.24
  -3  -4   9    1.77   17.99
  -3   4   8   64.90   23.84
   3   4  -8   57.23   14.44
  -3  -4   8   41.84   28.64
   3   4  -7 1324.01   68.86
  -3   4   7 1168.61   77.75
  -3  -4   7 1145.60   80.40
  -3   4   6    4.34   11.50
   3   4  -6    4.38    9.50
  -3   4   6   10.25    5.61
  -3  -4   6   25.39   12.47
   3   4  -5   -8.51    9.92
  -3   4   5    9.02   10.68
  -3   4   5   16.65    8.10
  -3  -4   5    6.22    9.64
  -3   4   4  731.79   41.68
  -3   4   4  700.41   47.64
   3  -4  -4  739.44   40.26
  -3  -4   4  781.11   46.25
  -3   4   3 3341.00  152.66
  -3  -4   3 3294.74  152.08
   3   4  -2 1970.34   88.71
  -3  -4   2 1951.58   73.44
  -3  -4   2 1863.17   87.86
   3   4  -1  454.13   25.17
   3   4  -1  463.03   22.34
   3   4  -1  468.51   29.35
  -3   4   1  515.77   30.32
  -3  -4   1  521.63   24.70
  -3  -4   1  459.62   23.70
   3   4   0 1259.81   62.80
   3   4   0 1096.11   51.09
  -3   4   0 1253.90   60.55
   3   4   0 1317.26   53.77
  -3  -4   0 1266.98   51.32
   3  -4   0 1227.88   56.55
  -3  -4   0 1187.28   52.78
   3   4   1   59.66    8.40
  -3   4  -1   61.29    9.79
   3   4   1   43.39    3.87
   3   4   1   52.15    7.76
  -3  -4  -1   44.18    6.57
  -3  -4  -1   47.89    9.53
   3  -4   1   38.02    8.15
   3   4   2   44.43   12.02
  -3   4  -2   55.94    8.90
   3   4   2   50.27    8.70
   3  -4   2   37.53    8.42
   3   4   3  489.56   32.13
  -3   4  -3  491.24   27.08
   3   4   3  548.25   32.40
   3  -4   3  530.81   33.36
   3  -4   3  510.02   27.81
   3   4   4  154.28   18.05
  -3   4  -4  112.35   11.55
   3   4   4  148.30   15.78
   3  -4   4  146.65   17.28
   3   4   5  373.09   32.50
   3   4   5  469.94   29.82
   3  -4   5  431.29   34.10
   3   4   6   -3.42    7.71
   3   4   6   -6.82    7.50
   3   4   6   -4.43   11.63
   3  -4   6    2.11   13.41
   3   4   7 1544.33   95.51
   3   4   7 1592.22   80.43
   3  -4   7 1568.49   94.01
   3   4   8  119.51   25.51
   3   4   8  229.32   22.02
   3  -4   8  204.87   35.22
   3   4   9  378.29   34.04
   3  -4   9  571.04   61.26
   3  -4  10  606.83   60.46
   3  -4  11    1.17   22.69
  -3   5  11  411.36   50.72
  -3  -5  11  375.92   56.28
  -3   5  10   59.29   33.33
  -3  -5  10  146.55   32.99
  -3   5   9  150.95   27.25
  -3  -5   9   93.98   29.30
   3   5  -8    2.53   12.79
  -3   5   8    2.25   19.53
   3   5  -7  745.84   48.85
  -3   5   7  861.15   64.51
  -3  -5   7  581.88   50.02
  -3   5   6  779.77   43.22
  -3   5   6  892.54   61.74
  -3  -5   6  715.94   52.32
  -3   5   5 3929.62  188.18
  -3   5   5 3993.18  204.37
  -3  -5   5 4290.23  212.58
  -3   5   4    1.81   11.91
  -3  -5   4   55.28   11.89
  -3   5   3   13.70   10.25
  -3  -5   3    5.48   10.12
  -3   5   2 1090.09   61.92
   3   5  -2 1154.03   56.45
  -3  -5   2 1094.23   54.87
  -3  -5   2 1060.58   43.97
  -3   5   1  440.14   31.63
  -3  -5   1  377.68   23.74
   3   5   0  197.08   13.85
  -3   5   0  140.66   17.24
  -3  -5   0  165.13   10.77
  -3  -5   0  170.20   14.59
   3   5   1  789.72   45.64
   3   5   1  911.41   46.71
  -3   5  -1  826.41   44.77
  -3  -5  -1  791.41   39.65
  -3  -5  -1  829.96   44.85
  -3   5  -2 1452.13   67.98
   3   5   2 1310.09   66.21
   3   5   2 1274.90   65.94
   3  -5   2 1489.29   74.32
   3   5   3   45.00    8.42
  -3   5  -3   57.48    8.46
   3  -5   3    8.01    9.28
   3  -5   3   57.44   13.86
   3   5   4  477.08   29.97
  -3   5  -4  457.04   29.25
   3   5   4  474.16   35.43
   3  -5   4  467.73   28.95
   3  -5   4  429.17   32.13
   3   5   5  269.67   21.54
  -3   5  -5  270.53   19.77
   3   5   5  349.45   30.00
   3  -5   5  195.88   24.13
   3   5   6 1265.66   78.16
   3   5   6 1221.19   67.46
  -3   5  -6 1212.71   65.50
   3  -5   6 1349.32   82.11
   3   5   7   12.52   15.71
   3   5   7   12.26    8.62
   3   5   7    6.11   11.34
   3  -5   7   17.41   16.78
   3   5   8 1266.74   65.57
   3   5   8 1435.33   93.13
   3  -5   8 1647.18  103.24
   3   5   9   72.96   24.25
   3  -5   9    1.36   31.29
   3  -5  10   34.84   30.73
   3  -5  11  701.69   74.39
  -3   6  11    1.52   31.55
  -3  -6  11   11.94   27.40
  -3   6  10  141.95   31.65
  -3  -6  10  110.91   48.64
  -3   6   9  484.67   51.65
  -3  -6   9  632.56   66.25
   3   6  -8  209.81   28.96
  -3   6   8  241.21   34.23
  -3  -6   8  163.01   30.60
  -3   6   7  620.93   60.04
  -3  -6   7  770.22   58.43
  -3   6   6 1801.35  112.20
  -3  -6   6 1565.47   95.12
  -3   6   5  246.32   24.09
  -3   6   5  323.23   36.10
  -3  -6   5  256.35   26.36
  -3   6   4 1231.03   74.44
  -3  -6   4 1181.09   69.27
  -3   6   3  117.75   21.36
  -3  -6   3  117.10   17.76
  -3   6   2 2030.68  106.75
  -3  -6   2 2025.77   95.21
  -3  -6   2 1950.10   82.83
  -3   6   1 4506.55  218.87
   3   6  -1 4785.17  206.18
   3   6  -1 4692.02  204.83
  -3  -6   1 4670.32  205.09
  -3  -6   1 4708.46  209.59
  -3  -6   1 4665.62  215.37
   3   6   0  442.05   25.92
  -3   6   0  415.85   28.79
   3   6   0  381.27   19.73
  -3  -6   0  407.81   22.03
  -3  -6   0  369.68   25.98
   3   6   1  230.43   18.72
  -3   6  -1  290.42   24.77
  -3  -6  -1  245.16   17.26
  -3   6  -2   41.02    8.90
   3   6   2   67.80   11.83
   3   6   2   65.54   11.59
   3  -6   2   63.09   10.10
   3  -6   2   58.62   11.01
  -3   6  -3   86.42   13.84
   3   6   3  101.29   15.54
   3  -6   3   83.66   13.74
   3  -6   3   87.98   17.87
  -3   6  -4  125.29   13.05
   3   6   4  120.52   19.98
   3   6   4  112.76   14.24
   3  -6   4  158.13   22.24
   3  -6   4  175.95   18.08
  -3   6  -5 1475.54   73.23
   3   6   5 1431.67   76.01
   3  -6   5 1405.27   88.50
   3   6   6  364.05   36.27
  -3   6  -6  390.41   27.47
   3   6   6  341.58   29.01
   3  -6   6  444.58   43.24
  -3   6  -7   35.70   14.14
   3   6   7   24.55   13.35
   3   6   7   33.82   24.48
   3  -6   7   28.29   25.27
   3   6   8   45.83   20.51
  -3   6  -8    3.78   13.40
   3  -6   8   -5.79   20.25
  -3   6  -9  -11.68   13.11
   3   6   9   40.63   23.66
   3  -6   9    0.94   24.36
   3   6  10   28.71   38.37
   3  -6  10  138.41   43.96
  -3   7  10   -0.53   31.82
  -3  -7  10   13.85   27.00
   3   7  -9   68.66   24.49
  -3   7   9   65.36   26.90
  -3  -7   9   47.07   30.70
   3   7  -8 1135.33   72.26
  -3   7   8  893.54   80.25
  -3  -7   8 1057.52   75.61
  -3   7   7  161.62   35.69
  -3  -7   7  190.47   33.78
  -3   7   6  834.41   62.69
  -3  -7   6  882.52   68.69
  -3   7   5   52.04   20.55
  -3  -7   5   58.67   16.83
  -3   7   4   99.65   19.36
  -3  -7   4  160.06   22.98
  -3   7   3   22.31   12.85
  -3  -7   3   13.19    8.56
  -3  -7   3    4.33    4.42
  -3   7   2 8333.21  413.69
   3   7  -2 8477.41  368.59
  -3  -7   2 7814.16  362.35
  -3  -7   2 8329.09  368.33
   3   7  -1   70.98   12.13
  -3   7   1   63.03   14.38
   3   7  -1   78.47   11.17
  -3  -7   1   90.05   14.16
  -3  -7   1  103.84   12.28
  -3  -7   1   75.64   12.94
  -3   7   0    6.47    8.46
   3   7   0   -4.17    6.49
   3   7   0   10.01    4.89
  -3  -7   0   -2.99    8.26
  -3  -7   0   -1.27    5.11
  -3   7  -1  212.10   23.23
  -3  -7  -1  176.61   19.09
   3  -7   1  192.15   18.08
   3   7   2  109.81   16.99
  -3   7  -2   97.90   14.63
   3   7   2  106.79   16.10
   3  -7   2   87.07   13.75
   3  -7   2  111.32   17.20
  -3  -7  -2  140.52   13.73
  -3   7  -3 2311.86  112.84
   3   7   3 2554.83  132.27
   3  -7   3 2464.50  127.02
   3  -7   3 2489.13  122.90
   3   7   4  468.22   36.80
   3   7   4  493.56   38.73
  -3   7  -4  423.37   32.33
   3  -7   4  555.46   41.88
   3  -7   4  506.29   36.03
   3   7   5  412.75   34.23
  -3   7  -5  458.41   32.12
   3   7   5  472.06   40.56
   3  -7   5  525.96   42.49
   3   7   6  466.54   37.45
   3   7   6  440.90   47.86
  -3   7  -6  544.48   37.54
   3  -7   6  517.36   47.21
   3   7   7   26.67   16.65
  -3   7  -7   69.41   16.27
   3   7   7   28.65   22.10
   3  -7   7   72.68   21.58
  -3   7  -8  442.03   39.14
   3   7   8  600.51   61.32
   3  -7   8  619.18   60.25
   3   7   9  154.81   36.80
   3  -7   9  206.80   38.91
   3   7  10   14.84   24.07
   3  -7  10  -13.21   25.95
  -3   8  10   18.55   31.04
  -3  -8  10   18.70   32.62
  -3   8   9   80.57   32.78
   3   8  -9   77.69   31.60
  -3  -8   9  140.50   42.50
  -3   8   8  649.80   63.28
  -3  -8   8  791.03   64.66
  -3   8   7  339.16   42.28
  -3  -8   7  329.76   44.81
  -3   8   6   -1.34   23.64
  -3  -8   6   13.46   20.28
  -3   8   5  648.43   60.67
  -3  -8   5  594.69   48.12
  -3   8   4 1880.15  112.63
   3   8  -4 1860.50   76.55
  -3  -8   4 1844.93  103.18
  -3   8   3   51.95   19.08
   3   8  -3   37.53    9.70
  -3  -8   3   34.81   14.94
  -3   8   2  275.25   29.35
   3   8  -2  330.26   22.35
  -3  -8   2  279.65   26.96
  -3  -8   2  299.29   22.33
   3   8  -1    6.40    7.37
   3   8  -1    8.28    9.78
  -3   8   1    4.53   14.81
  -3  -8   1  -12.67    8.60
  -3  -8   1   10.95    7.90
   3   8   0   88.78   15.65
  -3   8   0  107.42   17.26
  -3  -8   0   84.51   10.77
  -3  -8   0   92.54   14.15
   3   8   1 2913.96  146.12
  -3   8  -1 2913.52  151.46
   3  -8   1 3200.14  153.67
  -3  -8  -1 2873.16  137.92
  -3   8  -2 6298.71  307.31
   3   8   2 6601.62  323.80
   3  -8   2 6371.88  300.58
   3  -8   2 6512.67  317.52
  -3  -8  -2 6584.71  304.64
  -3   8  -3  918.73   52.75
   3   8   3  882.04   58.33
   3   8   3  924.19   62.73
   3  -8   3  842.11   50.91
   3  -8   3  663.45   51.80
  -3   8  -4 1799.53   96.21
   3   8   4 2018.05  122.12
   3   8   4 1881.86  100.82
   3  -8   4 1848.05  112.24
   3  -8   4 1887.50   99.07
  -3   8  -5    2.76   10.40
   3   8   5    1.41   12.61
   3   8   5   16.99   17.77
   3  -8   5  -10.94   13.06
   3   8   6  103.42   21.79
   3   8   6   63.31   24.04
  -3   8  -6  126.66   17.06
   3  -8   6  151.12   31.26
   3   8   7  243.07   29.20
   3   8   7  301.62   39.84
   3  -8   7  360.63   43.54
   3   8   8 1144.41   85.76
   3  -8   8 1161.63   87.07
   3   8   9  381.71   59.15
   3  -8   9  359.50   61.37
   3   8  10   67.53   29.59
   3  -8  10   26.31   33.84
  -3   9   9  280.78   46.79
   3   9  -9  281.01   46.45
  -3  -9   9  341.75   54.50
  -3   9   8   22.22   32.73
  -3  -9   8   12.48   28.57
  -3   9   7   74.03   38.83
  -3  -9   7   98.63   24.92
  -3   9   6   71.86   32.41
  -3  -9   6   55.44   18.85
  -3   9   5 1457.06  102.80
  -3  -9   5 1532.62   99.76
  -3   9   4  177.84   36.21
  -3  -9   4  228.94   26.37
  -3   9   3 1216.97   79.59
   3   9  -3 1249.26   61.63
  -3  -9   3 1113.66   59.70
  -3  -9   3 1254.38   75.13
   3   9  -2   56.46   12.17
  -3   9   2   17.16   17.34
  -3  -9   2   56.52   17.62
  -3  -9   2   54.33   11.99
  -3   9   1  189.31   29.83
   3   9  -1  228.26   22.39
  -3  -9   1  243.23   21.14
  -3  -9   1  213.67   22.88
   3   9   0 1156.57   68.43
  -3   9   0 1363.86   82.29
  -3  -9   0 1052.49   52.52
  -3  -9   0 1007.17   62.92
   3  -9   0  955.07   54.98
  -3   9  -1  594.50   46.23
   3   9   1  557.14   44.27
  -3  -9  -1  614.65   42.38
   3  -9   1  672.18   47.18
  -3   9  -2   -4.43   10.82
   3   9   2   15.09   11.78
   3  -9   2   -8.36   10.59
  -3  -9  -2    6.52    8.78
   3  -9   2   -1.51   10.22
   3   9   3  225.19   27.78
  -3   9  -3  215.83   25.78
   3   9   3  206.01   27.36
   3  -9   3  162.68   28.36
   3  -9   3  259.35   24.00
   3   9   4  501.37   45.59
  -3   9  -4  481.22   39.54
   3   9   4  446.66   41.30
   3  -9   4  490.01   48.42
   3  -9   4  443.75   35.44
  -3   9  -5    6.49   16.12
   3   9   5   36.09   18.36
   3   9   5   28.51   18.29
   3  -9   5    2.15   16.86
   3   9   6  101.21   25.83
  -3   9  -6  117.77   21.73
   3   9   6  148.37   23.88
   3  -9   6  103.39   26.97
   3   9   7   10.76   21.38
  -3   9  -7    1.78   14.73
   3   9   7    6.85   17.32
   3  -9   7   12.86   22.88
   3   9   8  218.00   39.63
   3  -9   8  359.02   54.43
   3   9   9   54.78   45.33
   3  -9   9  126.64   38.73
   3  10  -9   48.73   35.72
  -3  10   9   34.46   37.58
  -3 -10   9   84.67   37.74
  -3  10   8  -18.70   27.27
  -3 -10   8   83.94   34.39
  -3  10   7   -7.82   32.56
  -3 -10   7  -18.62   20.85
  -3  10   6   58.24   28.11
  -3 -10   6  140.57   34.24
  -3  10   5  110.90   28.01
  -3 -10   5  114.43   23.74
  -3  10   4  158.55   28.68
  -3 -10   4  189.37   31.05
  -3  10   3  146.45   34.92
   3  10  -3  139.80   17.32
  -3 -10   3  132.39   21.28
  -3  10   2 1118.19   83.65
   3  10  -2 1217.38   67.99
  -3 -10   2 1115.03   67.94
  -3 -10   2 1188.60   72.93
  -3  10   1  475.65   48.19
   3  10  -1  459.03   33.15
  -3 -10   1  483.17   35.35
  -3 -10   1  552.38   40.01
   3 -10  -1  532.65   36.70
  -3  10   0   27.28   22.84
   3  10   0   23.43   15.39
  -3 -10   0    7.49   12.75
   3 -10   0   19.79   10.73
  -3 -10   0   20.61    9.52
  -3  10  -1  710.52   55.95
   3  10   1  637.34   50.24
  -3 -10  -1  693.60   50.47
   3 -10   1  681.29   47.61
   3  10   2  166.37   30.28
  -3  10  -2  270.78   30.83
  -3 -10  -2  212.66   24.21
   3 -10   2  210.70   25.35
   3 -10   2  216.02   26.98
  -3  10  -3  143.61   25.25
   3  10   3  129.75   24.93
   3  10   3  171.23   34.13
  -3 -10  -3  234.79   23.45
   3 -10   3  170.66   24.81
   3 -10   3  149.68   27.28
   3  10   4  350.05   43.18
  -3  10  -4  373.51   37.00
   3  10   4  382.81   40.23
   3 -10   4  528.52   42.55
   3 -10   4  283.88   36.58
  -3  10  -5 1022.68   63.42
   3  10   5 1001.77   72.02
   3  10   5 1022.02   72.41
   3 -10   5 1092.75   75.88
   3 -10   5  716.88   50.21
   3  10   6   78.53   28.92
  -3  10  -6  138.28   25.54
   3  10   6  102.28   27.98
   3 -10   6  211.11   37.08
   3  10   7   18.88   27.70
   3 -10   7   38.13   27.80
   3  10   8   54.60   47.61
   3 -10   8  180.92   37.95
  -3  11   8   25.38   30.38
  -3 -11   8    1.78   23.66
  -3  11   7  187.22   40.80
  -3 -11   7  180.55   36.87
  -3  11   6  545.19   73.71
  -3 -11   6  583.64   62.49
  -3  11   5   -5.26   32.33
  -3 -11   5   27.61   18.69
  -3  11   4   11.64   31.82
  -3 -11   4   54.78   23.29
   3  11  -3  495.94   39.09
  -3  11   3  339.60   44.75
  -3 -11   3  567.22   46.97
  -3  11   2   58.62   24.50
   3  11  -2   83.17   17.27
   3 -11  -2   59.14   15.42
  -3 -11   2   90.91   20.09
  -3 -11   2   55.76   19.24
  -3  11   1   41.08   19.53
   3  11  -1   17.92   18.50
  -3 -11   1   32.29   14.22
   3 -11  -1   35.01   11.63
  -3 -11   1   49.34   15.42
  -3  11   0   12.00   14.02
   3  11   0    2.36   15.31
  -3 -11   0   -2.11   12.77
   3 -11   0  -17.86    9.77
  -3 -11   0    6.53    9.01
  -3  11  -1  399.65   45.72
   3  11   1  333.69   35.14
   3 -11   1  415.97   40.98
   3 -11   1  430.82   40.98
  -3 -11  -1  422.40   35.70
  -3  11  -2   28.59   15.40
   3  11   2   21.73   21.14
  -3 -11  -2    4.88   17.52
   3 -11   2   32.12   19.57
   3 -11   2  -10.60   18.14
   3  11   3  148.43   30.56
   3  11   3   86.04   28.16
  -3  11  -3   81.28   26.66
  -3 -11  -3   82.46   23.81
   3 -11   3  102.78   20.43
   3 -11   3  121.92   22.85
   3  11   4  302.57   40.94
  -3  11  -4  360.22   36.64
   3  11   4  365.07   44.20
   3 -11   4  389.10   40.35
   3 -11   4  398.95   42.00
   3  11   5  359.73   44.36
   3  11   5  389.52   48.78
  -3  11  -5  273.31   37.75
   3 -11   5  423.13   44.97
   3 -11   5  258.80   35.93
   3  11   6  -15.76   28.63
   3  11   6    4.80   16.05
   3 -11   6  -11.34   21.44
   3  11   7  486.08   66.40
   3 -11   7  414.69   57.06
   3  11   8   66.42   39.18
   3 -11   8   10.69   32.00
  -3  12   7  -25.67   34.07
  -3 -12   7   22.11   29.31
  -3  12   6   40.06   34.13
  -3 -12   6   90.19   29.00
  -3  12   5   16.53   26.99
  -3 -12   5   28.69   21.67
  -3  12   4   40.34   26.29
  -3 -12   4   45.25   28.22
  -3  12   3    3.38   18.94
  -3 -12   3   -7.02   19.23
  -3  12   2   19.10   21.42
   3  12  -2   18.12   17.08
  -3 -12   2   -0.05   15.77
   3 -12  -2   -5.15   14.04
  -3 -12   2   46.66   22.51
  -3  12   1   27.31   27.63
   3  12  -1   44.92   20.34
  -3 -12   1   64.60   15.98
   3 -12  -1   20.60   17.31
  -3 -12   1  -15.72   17.86
  -3  12   0  234.70   41.07
   3  12   0  188.21   27.94
  -3 -12   0  251.00   28.92
   3 -12   0  201.76   30.31
   3  12   1  468.87   50.48
  -3  12  -1  556.21   55.73
   3 -12   1  544.84   43.02
   3 -12   1  491.78   49.11
  -3 -12  -1  498.50   43.78
   3  12   2  389.85   48.22
  -3  12  -2  595.37   56.15
   3 -12   2  392.39   37.94
   3 -12   2  327.92   37.44
  -3 -12  -2  327.69   34.23
   3  12   3    2.61   26.33
   3  12   3    0.62   26.40
  -3  12  -3   42.78   24.63
  -3 -12  -3   -1.37   20.66
   3 -12   3   33.09   18.67
   3 -12   3   10.69   24.96
   3  12   4  224.42   44.60
   3  12   4  191.33   41.37
  -3  12  -4  201.56   37.17
  -3 -12  -4  198.10   34.52
   3 -12   4  165.22   33.64
   3 -12   4  158.29   32.86
   3  12   5   70.17   30.90
   3  12   5   44.11   25.21
   3 -12   5   16.60   13.55
   3 -12   5   71.33   30.75
   3  12   6  386.34   51.90
   3  12   6  315.00   59.31
   3 -12   6  528.56   61.21
   3  12   7  295.10   51.15
   3 -12   7  256.78   57.18
  -3  13   6   57.49   40.41
  -3 -13   6   60.75   30.02
  -3  13   5  319.57   53.26
  -3 -13   5  338.46   43.51
  -3  13   4    2.43   26.79
  -3 -13   4   25.57   24.82
  -3  13   3   -4.36   29.93
  -3 -13   3    4.48   18.53
  -3  13   2   78.79   39.87
  -3 -13   2   96.35   31.02
   3  13  -1    5.67   14.94
  -3  13   1   15.84   22.52
   3 -13  -1   15.44   16.16
  -3 -13   1   -6.90   18.03
  -3  13   0    2.74   22.16
   3  13   0   54.25   24.99
  -3 -13   0   50.31   26.59
   3 -13   0   36.09   22.11
   3 -13   0   27.78   20.36
   3  13   1  -38.33   23.63
  -3  13  -1   -6.39   19.07
   3 -13   1   -0.37   19.72
  -3 -13  -1    0.14   19.75
   3 -13   1    9.78   21.33
  -3  13  -2  278.44   42.40
   3  13   2  176.31   37.42
  -3 -13  -2  182.83   28.57
   3 -13   2  181.50   30.73
   3 -13   2  163.59   29.13
  -3  13  -3   15.27   25.45
   3  13   3  -13.21   31.22
   3  13   3   -1.25   28.06
   3 -13   3   20.32   18.74
  -3 -13  -3   22.05   24.04
   3 -13   3   12.97   21.55
   3  13   4  209.95   37.61
   3  13   4  158.11   48.97
  -3  13  -4  196.39   41.87
   3 -13   4  262.64   48.00
  -3 -13  -4  293.58   42.25
   3 -13   4  284.27   41.88
   3  13   5   52.07   34.22
   3  13   5   14.06   31.45
   3 -13   5    1.27   33.49
  -3 -13  -5   14.77   17.38
   3  13   6  138.67   40.46
   3  13   6  147.77   37.53
  -3 -13  -6   73.33   32.20
   3 -13   6   23.50   45.73
  -3  14   4    6.82   29.97
  -3  14   3    3.93   33.22
  -3  14   2  182.42   46.15
  -3 -14   2   27.94   16.77
  -3  14   1   21.85   38.78
  -3 -14   1   54.14   26.23
  -3  14   0    8.27   23.68
   3  14   0  -13.77   18.65
  -3 -14   0    5.27   17.68
   3 -14   0  -22.10   23.78
  -3  14  -1   -7.95   29.82
   3  14   1   -9.40   25.56
   3 -14   1   -1.48   24.27
  -3 -14  -1  -23.38   25.94
   3 -14   1  -12.54   24.44
  -3  14  -2   79.08   31.71
   3  14   2  137.89   39.48
   3 -14   2  117.60   35.10
   3 -14   2   75.24   32.69
  -3 -14  -2  153.72   29.22
   3  14   3  194.92   50.01
   3  14   3  170.04   41.86
  -3  14  -3  248.32   47.22
   3 -14   3  245.04   43.89
  -3 -14  -3  207.31   40.40
   3 -14   3  184.12   43.35
   3  14   4    1.20   26.10
   3  14   4   33.24   27.84
  -3 -14  -4   12.40   19.82
   3 -14   4    0.89   26.34
   3 -14   4   20.72   29.98
  -3  15   2  247.06   59.11
  -3  15   1    7.64   26.28
  -3 -15   1    6.15   25.03
   3 -15  -1   23.86   23.33
  -3  15   0  170.36   38.54
  -3 -15   0  249.31   36.27
   3 -15   0   61.26   33.56
  -3  15  -1    6.79   31.36
   3  15   1    8.12   27.80
  -3 -15  -1    6.68   18.46
   3 -15   1  -12.37   25.72
  -4   0  12  -16.28   26.46
  -4   0  11   16.15   25.85
  -4   0  10   -1.50   14.07
  -4   0  10   23.84   17.20
  -4   0   9   -1.36   13.85
  -4   0   9   32.23   20.57
  -4   0   8  279.11   25.96
  -4   0   8  271.85   33.39
  -4   0   7    1.01   11.29
  -4   0   7    2.69    8.73
  -4   0   6 1722.39   83.03
  -4   0   6 1724.56   93.54
   4   0  -6 1784.81   88.42
  -4   0   5    0.37    7.75
   4   0  -5    0.36    5.28
  -4   0   5    5.22    5.31
   4   0  -5    0.75    5.80
  -4   0   5    7.44    6.47
   4   0  -4 4451.86  191.81
   4   0  -4 4240.32  180.71
  -4   0   4 4441.40  191.45
  -4   0   4 4606.78  197.35
  -4   0   3    2.26    3.90
  -4   0   3   -4.28    4.87
   4   0  -3    4.81    5.70
   4   0  -3    2.52    3.30
   4   0  -3   -2.86    5.37
  -4   0   223070.52 1043.04
  -4   0   223078.48 1076.17
   4   0  -221924.24 1027.51
   4   0  -222320.29 1049.67
  -4   0   1   -1.46    3.55
  -4   0   1   -5.49    5.66
   4   0  -1   -3.97    5.72
   4   0   0 1007.96   50.20
  -4   0   0 1173.79   54.75
   4   0   1   -1.62    4.86
  -4   0  -1    2.10    4.31
   4   0   211976.22  554.44
  -4   0  -212891.38  582.64
  -4   0  -212374.85  565.97
   4   0   3   11.61    4.62
   4   0   3   39.51    9.72
  -4   0  -3    1.62    6.46
  -4   0  -4 6616.46  306.66
   4   0   4 7158.18  321.46
  -4   0  -5    3.18    2.60
  -4   0  -5   -1.17    8.19
   4   0   5   -2.64    8.77
   4   0   5    1.23    6.47
   4   0   6 2608.96  126.93
  -4   0  -6 2178.82  112.58
   4   0   7   -0.36   12.24
   4   0   8  530.27   41.30
   4   0   9    7.58   15.57
   4   0  10  102.31   32.08
   4   0  11   23.15   28.78
  -4  -1  12  -34.81   36.85
  -4   1  11   15.45   18.83
  -4   1  11    6.17   17.91
  -4  -1  11  -10.83   21.73
  -4   1  10   84.16   25.99
  -4   1  10   35.06   20.76
  -4  -1  10   23.89   21.84
  -4   1   9  444.15   38.36
  -4   1   9  463.07   40.24
  -4  -1   9  462.09   33.30
  -4  -1   9  502.31   44.66
  -4   1   8   27.48   10.28
  -4   1   8   -6.41   14.45
  -4  -1   8   21.62   10.83
  -4  -1   8    0.95   18.23
   4   1  -7   28.28    9.56
  -4   1   7   41.56   12.94
  -4   1   7   61.43   14.66
   4   1  -7   48.45   10.00
  -4  -1   7   94.26   15.31
  -4  -1   7   24.58   10.55
  -4   1   6  243.54   21.57
   4   1  -6  216.55   16.52
   4   1  -6  245.01   18.20
  -4   1   6  212.65   20.50
  -4  -1   6  218.80   22.34
  -4  -1   6  165.17   14.65
  -4   1   5 2312.84  107.86
   4   1  -5 2283.39   96.08
  -4   1   5 2211.62   97.10
   4   1  -5 2331.40  103.92
  -4  -1   5 2142.34   92.91
  -4  -1   5 2125.12  109.67
   4  -1  -5 2166.79  102.88
   4   1  -4 2543.44  102.22
  -4   1   4 2525.22  110.11
  -4   1   4 2540.11  115.77
   4   1  -4 2570.84  115.70
   4  -1  -4 2627.56  115.33
  -4  -1   4 2512.66  124.27
  -4  -1   4 2461.85  110.38
  -4  -1   4 2564.23  105.44
   4  -1  -4 2568.41  115.28
   4   1  -3  182.27   15.64
   4   1  -3  155.86   15.85
  -4   1   3  166.55   13.96
  -4   1   3  199.62   13.83
   4   1  -3  213.32   10.88
   4  -1  -3  175.66   14.91
   4  -1  -3  203.94   16.37
   4  -1  -3  173.96   13.05
  -4  -1   3  191.64   15.44
  -4  -1   3  223.47   12.75
  -4  -1   3  195.08   15.49
   4   1  -2 4914.11  216.52
  -4   1   2 4712.95  201.37
   4   1  -2 4866.76  212.76
   4  -1  -2 4792.21  214.24
   4  -1  -2 4979.42  207.00
  -4  -1   2 4950.36  214.37
  -4   1   1 9312.79  413.54
   4   1  -1 9696.59  440.66
  -4   1   1 9373.21  410.10
   4  -1  -1 9771.63  414.05
  -4  -1   1 9853.29  435.37
  -4   1   0 9964.37  431.82
   4   1   0 9482.95  430.10
  -4   1   0 8808.10  396.26
  -4  -1   0 9504.87  422.02
   4  -1   0 9486.97  431.59
  -4   1  -1 1345.31   64.46
   4   1   1 1352.34   65.38
   4   1   1 1322.08   64.74
   4  -1   1 1255.37   62.93
   4   1   2 2538.68  115.92
  -4   1  -2 2878.16  130.46
  -4  -1  -2 2852.32  126.19
  -4   1  -3   37.59   10.01
   4   1   3   35.65    8.12
   4   1   3   17.30    6.86
  -4  -1  -3   45.99    9.51
   4  -1   3   23.91    8.99
   4   1   4  400.41   24.57
  -4   1  -4  399.33   27.82
   4   1   4  435.17   28.60
  -4  -1  -4  414.41   26.84
   4  -1   4  360.54   26.70
  -4   1  -5 2810.36  139.16
   4   1   5 2831.86  132.77
   4   1   5 2895.22  133.09
   4  -1   5 3080.47  146.74
  -4  -1  -5 2577.19  123.89
  -4   1  -6  574.36   28.24
  -4   1  -6  466.11   35.94
   4   1   6  612.61   38.64
   4   1   6  540.98   34.07
   4  -1   6  613.28   40.51
  -4  -1  -6  471.96   33.01
   4   1   7   -7.80   10.60
   4  -1   7   10.07   11.96
   4   1   8   28.68   15.52
   4  -1   8   35.29   23.29
   4   1   9  135.39   26.62
   4  -1   9  157.86   31.27
   4   1  10  166.17   33.54
   4  -1  10  154.53   30.48
   4   1  11  137.61   36.07
   4  -1  11  135.81   33.09
  -4  -2  12    2.80   28.84
  -4   2  11  191.53   36.01
  -4  -2  11  194.60   36.05
  -4   2  10  186.99   31.57
  -4  -2  10  147.69   30.30
  -4   2   9   27.68   20.92
  -4  -2   9    6.93   17.56
  -4   2   8  516.75   48.70
   4   2  -8  421.51   27.85
  -4  -2   8  393.79   42.90
   4   2  -7  213.17   16.45
  -4   2   7  229.30   26.19
  -4  -2   7  230.45   27.60
  -4  -2   7  241.41   17.05
  -4   2   6   46.60   13.57
   4   2  -6   24.61    6.15
  -4   2   6   41.95    6.85
   4   2  -6   22.78    9.65
  -4  -2   6   42.56   13.01
  -4  -2   6   24.80    5.75
  -4   2   5 2851.13  134.58
   4   2  -5 2739.11  124.49
  -4   2   5 2572.65  113.00
  -4  -2   5 2759.78  138.84
  -4   2   4   67.57    8.61
  -4   2   4   85.45   11.78
   4   2  -4   65.06    4.61
   4   2  -4   75.42   11.70
   4  -2  -4   44.87    8.09
   4  -2  -4   90.59   11.87
  -4  -2   4   63.37   11.44
  -4   2   3  203.64   18.95
  -4   2   3  220.28   14.82
  -4  -2   3  184.28   16.13
   4  -2  -3  225.15   15.55
   4  -2  -3  224.09   18.16
   4   2  -2    3.99    4.80
  -4   2   2   11.26    6.42
   4   2  -2   -3.41    5.28
  -4   2   2    5.65    5.19
  -4  -2   2    5.68    5.37
   4  -2  -2   -0.72    4.35
  -4  -2   2    0.76    5.64
   4  -2  -2    7.14    6.01
  -4   2   1 5091.62  223.93
   4   2  -1 5484.80  230.65
  -4  -2   1 5735.73  249.03
   4  -2  -1 5245.60  240.27
  -4   2   0  528.57   27.59
   4   2   0  504.17   29.58
  -4   2   0  534.18   31.21
  -4  -2   0  573.15   27.96
  -4  -2   0  603.23   33.51
   4  -2   0  550.96   36.02
   4   2   1 9259.29  421.82
  -4   2  -1 8858.37  393.14
  -4   2  -1 9053.34  412.47
  -4  -2  -1 9275.04  407.59
  -4  -2  -1 9180.01  413.78
   4  -2   1 8893.47  415.43
  -4   2  -2  136.32   14.29
  -4  -2  -2  159.66   13.79
  -4  -2  -2  169.68   16.94
  -4   2  -3    3.36    7.22
   4   2   3    4.80    4.52
   4   2   3    3.63    6.30
  -4  -2  -3    3.98    6.93
   4  -2   3   -6.65    8.37
   4  -2   3    4.25    3.44
   4   2   4 5662.69  255.05
   4   2   4 5774.73  246.82
   4  -2   4 5397.62  251.22
  -4  -2  -4 5469.09  253.65
   4   2   5  467.08   30.56
   4   2   5  429.06   27.47
  -4  -2  -5  453.74   31.13
   4  -2   5  482.46   32.46
  -4   2  -6  240.44   16.56
   4   2   6  292.15   23.74
   4   2   6  302.02   23.58
  -4  -2  -6  234.37   22.87
   4  -2   6  393.04   30.28
   4   2   7  466.44   35.50
   4   2   7  465.47   32.22
   4  -2   7  539.58   42.51
   4   2   8 1003.96   63.67
   4  -2   8 1043.87   75.07
   4   2   9   34.05   15.87
   4  -2   9   50.00   27.32
   4   2  10   53.51   18.70
   4  -2  10   24.86   24.62
   4  -2  11  248.69   48.80
  -4   3  11  208.25   41.81
  -4  -3  11  269.20   51.46
  -4   3  10  201.37   30.01
  -4  -3  10  235.16   42.48
  -4   3   9  -12.89   17.18
  -4  -3   9   24.69   21.31
  -4   3   8  281.68   31.44
   4   3  -8  300.74   25.00
  -4  -3   8  333.54   35.08
  -4   3   7 1855.47   78.94
   4   3  -7 2096.46  101.47
  -4   3   7 2118.62  117.68
  -4  -3   7 2047.53  116.22
  -4   3   6   75.71   10.26
  -4   3   6   68.17   14.12
   4   3  -6   57.48   11.81
  -4  -3   6  111.75   17.27
   4   3  -5   22.00    8.07
  -4   3   5   19.37   12.35
  -4   3   5   11.59    6.49
  -4  -3   5    8.24   11.12
  -4   3   4   -4.14    7.42
  -4   3   4    5.18    6.51
   4   3  -4   -6.69    7.86
  -4  -3   4    1.45    6.80
   4   3  -3 1817.03   87.21
  -4   3   3 1620.47   81.44
  -4   3   3 1886.55   88.91
  -4  -3   3 1782.51   86.13
  -4   3   2  650.14   36.41
   4   3  -2  730.59   39.58
   4   3  -2  629.37   33.85
  -4   3   2  634.90   36.15
  -4  -3   2  668.12   26.90
  -4  -3   2  596.19   31.80
   4  -3  -2  613.87   32.95
   4   3  -1 4411.80  188.96
   4   3  -1 4687.32  200.73
  -4   3   1 4466.14  205.07
   4  -3  -1 4458.08  193.39
  -4  -3   1 4464.88  181.91
  -4   3   0 2883.64  128.54
  -4   3   0 3004.11  141.52
   4   3   0 2930.43  136.34
   4   3   0 3122.67  126.23
  -4  -3   0 2856.87  132.14
  -4  -3   0 2867.27  123.16
   4  -3   0 2971.77  129.41
   4   3   1   11.05    6.53
  -4   3  -1   -0.20    7.60
  -4   3  -1    5.91    5.35
  -4  -3  -1    9.07    6.30
  -4  -3  -1   -0.19    6.92
   4   3   2 1522.38   74.64
  -4   3  -2 1651.39   77.42
  -4  -3  -2 1704.24   66.10
  -4  -3  -2 1472.99   72.02
   4   3   3  478.78   22.00
   4   3   3  468.00   31.34
   4   3   3  579.17   34.48
  -4  -3  -3  490.60   29.39
   4  -3   3  481.03   23.85
   4  -3   3  472.32   32.70
   4   3   4  184.66   13.34
   4   3   4  157.42   17.76
   4   3   4  114.28   13.21
  -4  -3  -4  153.77   17.03
   4  -3   4  204.23   19.95
   4   3   5  536.90   33.71
   4   3   5  610.37   32.13
  -4  -3  -5  550.70   34.43
   4  -3   5  579.75   38.48
   4   3   6  139.51   16.39
   4   3   6  105.52   13.90
   4  -3   6  122.92   20.26
   4   3   7   -1.73   10.73
   4   3   7   -8.80    9.15
   4  -3   7   14.40   12.84
   4   3   8   -1.15   13.42
   4  -3   8   18.26   20.45
   4   3   9   64.60   20.06
   4  -3   9   85.40   32.72
   4  -3  10  369.78   54.98
   4  -3  11  137.82   45.08
  -4   4  11  873.59   77.22
  -4  -4  11  869.71   75.71
  -4   4  10   32.18   27.91
  -4  -4  10   15.81   30.14
  -4   4   9  191.74   36.44
  -4  -4   9  259.78   43.19
   4   4  -8 1065.03   61.69
  -4   4   8 1292.86   86.05
  -4  -4   8 1121.88   77.14
  -4   4   7   22.42   15.47
  -4   4   7   24.38    7.47
   4   4  -7   23.69   12.49
  -4   4   6   77.24   17.25
   4   4  -6   88.18   16.05
  -4   4   6   88.20   12.96
  -4  -4   6   96.23   18.26
  -4   4   5 1361.48   78.79
  -4   4   5 1512.66   77.69
  -4  -4   5 1455.43   80.20
  -4   4   4   -4.17    8.38
  -4   4   4    5.88    9.07
   4   4  -4  -12.87    7.47
  -4  -4   4   -4.12    9.56
  -4   4   3  247.07   21.96
  -4   4   3  162.76   18.45
   4   4  -3  183.60   17.43
  -4  -4   3  141.25   15.34
   4   4  -2  596.59   36.48
  -4   4   2  582.93   35.92
  -4   4   2  599.44   39.61
  -4  -4   2  646.42   27.42
  -4  -4   2  673.58   35.49
  -4   4   1   35.89   11.02
  -4   4   1   38.24    9.56
   4   4  -1   58.81   10.63
   4   4  -1   56.61    7.30
  -4  -4   1   52.27    7.70
  -4  -4   1   49.19    7.34
   4   4   0 1210.78   55.53
   4   4   0 1248.21   54.04
   4   4   0 1093.51   59.72
   4   4   0 1536.44   64.51
  -4   4   0 1250.94   64.37
  -4  -4   0 1284.04   59.04
   4   4   1 2060.47  103.62
   4   4   1 1928.24   88.22
  -4   4  -1 2178.43  101.02
  -4  -4  -1 2205.07   92.86
  -4  -4  -1 1974.18   93.68
   4   4   2  179.77   16.89
   4   4   2  153.15   16.55
  -4   4  -2  157.48   13.90
  -4  -4  -2  169.68   12.32
  -4   4  -3   10.27    6.38
   4   4   3    5.53    2.48
   4   4   3   -1.12    8.17
   4   4   3    3.48    9.75
   4  -4   3   -2.09    7.99
   4  -4   3    3.96    5.64
   4   4   4   -9.61    7.57
   4   4   4   -1.80    3.35
   4   4   4   -3.32    8.17
  -4   4  -4    4.23    6.15
   4  -4   4   -0.74    7.37
   4  -4   4    5.73    4.93
   4   4   5 1151.59   64.15
   4   4   5 1249.90   72.64
   4  -4   5 1395.26   77.71
   4   4   6  531.00   41.20
   4   4   6  465.19   27.31
   4  -4   6  569.93   44.61
   4   4   7  151.68   19.05
   4   4   7  149.32   19.18
   4  -4   7  164.04   32.19
   4   4   8   -0.21   12.18
   4  -4   8  -13.30   22.45
   4  -4   9   34.88   23.48
   4  -4  10   43.06   29.41
   4  -4  11   56.65   41.82
  -4   5  11   64.28   28.52
  -4  -5  11   91.00   33.16
  -4   5  10  219.67   44.14
  -4  -5  10  171.31   46.01
  -4   5   9  226.33   38.96
  -4  -5   9  179.72   35.10
   4   5  -8  150.59   22.29
  -4   5   8  175.44   31.31
  -4  -5   8  145.62   32.78
  -4   5   7  657.09   56.32
   4   5  -7  671.67   47.22
  -4  -5   7  629.74   53.12
   4   5  -6  771.35   49.94
  -4   5   6  665.10   49.46
  -4  -5   6  762.57   53.98
  -4   5   5   12.04   11.03
   4   5  -5   26.24   10.76
  -4  -5   5   -0.91   16.11
  -4   5   4 2895.91  150.65
   4   5  -4 2992.08  149.57
  -4   5   4 2808.01  144.08
  -4  -5   4 2709.92  140.20
  -4   5   3    1.51    9.68
   4   5  -3    2.95   11.16
  -4  -5   3    6.75    9.91
   4   5  -2 1187.38   61.31
  -4   5   2  969.02   60.61
   4   5  -2 1173.77   66.94
  -4  -5   2 1378.92   65.65
  -4  -5   2 1346.69   55.64
   4   5  -1 2126.26   94.74
  -4   5   1 1938.86  101.15
  -4  -5   1 2005.78   89.53
  -4  -5   1 2062.13   91.30
  -4   5   0  227.48   21.97
   4   5   0  253.87   15.45
   4   5   0  255.30   18.02
   4   5   0  257.90   24.90
  -4  -5   0  216.98   16.37
  -4  -5   0  208.96   16.60
  -4   5  -1   -2.61    9.27
   4   5   1    7.98    6.68
   4   5   1    1.91    7.81
   4   5   1    1.60    3.36
  -4  -5  -1    7.89    6.68
   4   5   2 2830.47  138.02
  -4   5  -2 3087.38  142.20
  -4  -5  -2 2826.52  121.81
  -4   5  -3 2562.82  118.60
   4   5   3 2411.52  124.43
   4   5   3 2463.17  122.09
   4  -5   3 2496.67  125.12
   4  -5   3 2590.90  115.11
   4   5   4    2.11   10.46
   4   5   4    5.26   11.78
  -4   5  -4   18.52    8.17
   4  -5   4   -1.88    6.67
   4  -5   4    9.79   11.17
  -4   5  -5  392.23   27.65
   4   5   5  367.60   30.20
   4   5   5  371.20   17.76
   4   5   5  361.62   34.67
   4  -5   5  373.79   33.18
   4   5   6  578.19   40.39
   4   5   6  510.48   43.35
  -4   5  -6  620.13   41.56
   4  -5   6  596.44   51.90
   4   5   7    3.34   13.32
   4   5   7    5.78   18.47
   4   5   7   16.02    8.77
   4  -5   7  104.85   19.05
   4   5   8  188.08   28.94
   4  -5   8  107.91   33.76
   4  -5   9  313.85   50.57
   4  -5  10  420.44   63.64
  -4   6  11   26.37   39.76
  -4  -6  11   26.23   32.70
  -4   6  10   43.28   31.86
  -4  -6  10   -2.25   26.76
  -4   6   9   24.56   21.67
  -4  -6   9   61.18   26.17
   4   6  -8  192.98   28.23
  -4   6   8  185.65   37.65
  -4  -6   8  213.00   32.63
  -4   6   7  101.63   24.85
   4   6  -7  117.28   22.82
  -4  -6   7  181.60   33.09
  -4   6   6  791.57   61.21
   4   6  -6  735.54   52.34
  -4  -6   6  696.04   53.86
   4   6  -5  345.67   28.76
  -4   6   5  335.13   32.89
  -4  -6   5  275.87   27.85
   4   6  -4   27.78   14.67
  -4   6   4   10.33   14.19
  -4  -6   4    3.16   13.86
  -4   6   3    2.73    9.74
   4   6  -3    7.43   10.93
  -4  -6   3    7.33   12.15
   4   6  -2   70.26    7.33
  -4   6   2  114.17   20.89
   4   6  -2   87.87   15.55
  -4  -6   2   91.62   11.60
  -4  -6   2   92.79   10.12
   4   6  -1  720.89   36.92
   4   6  -1  699.17   37.93
  -4   6   1  695.52   45.54
   4   6  -1  789.05   50.35
  -4  -6   1  810.41   40.48
  -4  -6   1  713.98   38.64
   4   6   0 1055.09   48.46
   4   6   0 1202.41   60.08
  -4   6   0 1226.68   66.23
   4   6   0 1058.85   68.01
  -4  -6   0 1307.60   63.01
  -4  -6   0 1064.78   48.41
  -4  -6   0 1040.84   55.56
  -4   6  -1  576.20   36.62
   4   6   1  646.19   41.44
   4   6   1  709.76   39.84
  -4  -6  -1  589.57   34.72
  -4   6  -2 3872.06  183.23
   4   6   2 4020.24  190.36
   4   6   2 3666.16  183.48
  -4  -6  -2 3663.28  160.47
   4  -6   2 3717.19  177.57
   4   6   3 2818.07  142.94
  -4   6  -3 3082.67  144.57
   4   6   3 3082.95  154.07
   4  -6   3 2652.67  139.50
  -4  -6  -3 2923.53  128.77
   4  -6   3 2834.09  130.14
   4   6   4 1007.40   57.27
  -4   6  -4 1019.74   56.11
   4   6   4 1042.10   63.81
   4  -6   4 1055.88   63.84
   4  -6   4 1084.91   57.71
   4   6   5  553.93   39.70
  -4   6  -5  552.04   35.79
   4   6   5  606.37   46.16
   4  -6   5  533.93   45.93
  -4   6  -6  113.01   16.86
   4   6   6  113.29   19.31
   4   6   6  127.78   23.57
   4  -6   6  160.92   25.36
   4   6   7   28.77   14.17
  -4   6  -7   23.81   16.41
   4   6   7   15.21   24.11
   4  -6   7   34.96   20.29
  -4   6  -8  690.88   48.25
   4   6   8  716.47   62.16
   4  -6   8  835.18   67.37
  -4   6  -9  285.32   33.03
   4   6   9  199.21   29.09
   4  -6   9  431.29   50.52
   4  -6  10   41.65   39.78
  -4   7  10    6.94   38.00
  -4  -7  10   45.42   27.64
  -4   7   9   51.80   36.21
  -4  -7   9   68.23   30.58
   4   7  -8  334.71   33.57
  -4   7   8  358.00   45.71
  -4  -7   8  323.41   39.39
  -4   7   7  380.07   43.56
   4   7  -7  316.87   38.52
  -4  -7   7  249.23   42.12
   4   7  -6    4.69   13.38
  -4   7   6   -4.43   16.20
  -4  -7   6  -21.29   19.96
  -4   7   5  577.82   48.94
  -4  -7   5  548.63   47.93
  -4   7   4  249.65   34.15
  -4  -7   4  213.76   29.10
  -4   7   3   83.82   18.46
  -4  -7   3   73.17    7.13
  -4  -7   3   89.32   18.35
  -4   7   2  292.96   30.53
   4   7  -2  369.82   21.78
  -4  -7   2  380.47   28.99
  -4  -7   2  365.14   22.06
   4   7  -1   74.32   11.18
   4   7  -1  104.25   12.63
  -4   7   1  116.61   16.43
  -4  -7   1   75.44   13.28
  -4  -7   1   98.49   12.75
  -4   7   0  562.98   41.25
   4   7   0  525.93   34.14
   4   7   0  475.60   26.41
   4   7   0  568.94   41.34
  -4  -7   0  517.90   34.61
   4   7   1  537.49   32.91
   4   7   1  452.27   35.43
   4   7   1  401.22   18.44
  -4   7  -1  451.80   32.01
  -4  -7  -1  423.94   27.28
   4   7   2  462.26   33.01
   4   7   2  436.78   33.63
  -4   7  -2  393.82   29.58
   4  -7   2  477.83   35.53
  -4  -7  -2  475.51   29.19
   4   7   3  626.08   44.59
   4   7   3  463.57   37.80
  -4   7  -3  535.89   37.65
  -4  -7  -3  500.82   29.65
   4  -7   3  533.81   33.59
   4  -7   3  479.53   37.05
   4   7   4   65.60   17.54
  -4   7  -4   40.42   11.68
   4   7   4  105.23   19.59
   4  -7   4   59.21   16.48
   4  -7   4  100.49   16.91
   4   7   5  -10.99   14.94
   4   7   5   46.30   16.78
  -4   7  -5   11.44   12.91
   4   7   6 2582.39  146.17
  -4   7  -6 2534.83  132.11
   4   7   6 2223.79  124.04
   4  -7   6 2477.85  144.62
   4   7   7  141.93   24.29
   4   7   7  193.08   30.84
  -4   7  -7  165.19   20.60
   4  -7   7  216.68   39.87
  -4   7  -8    8.39   16.86
   4   7   8    6.92   26.74
   4  -7   8   25.09   24.46
   4   7   9   75.80   39.72
   4  -7   9  102.07   43.87
   4  -7  10  440.30   59.64
  -4   8  10    7.76   30.98
  -4  -8  10   30.13   30.06
   4   8  -9  -10.48   22.72
  -4   8   9   -4.63   31.03
  -4  -8   9    0.33   31.93
  -4   8   8  132.75   30.12
   4   8  -8   21.04   23.49
  -4  -8   8  117.49   35.36
   4   8  -7  163.70   32.46
  -4   8   7  180.08   32.11
  -4  -8   7  116.18   28.48
   4   8  -6  314.14   33.13
  -4   8   6  253.88   36.62
  -4  -8   6  265.08   32.63
  -4   8   5  219.13   32.65
  -4  -8   5  200.73   25.90
  -4   8   4 1118.48   75.72
  -4  -8   4 1000.91   62.30
  -4   8   3 2134.60  124.16
  -4  -8   3 1975.34   90.41
  -4  -8   3 2412.50  126.85
  -4   8   2   27.92   14.93
  -4  -8   2   29.60   12.90
  -4  -8   2   21.49    9.55
   4   8  -1   83.59   13.69
   4   8  -1   62.87   12.15
  -4   8   1  127.83   22.97
  -4  -8   1   89.10   13.10
  -4  -8   1   92.30   16.91
   4   8   0   14.19   11.09
   4   8   0   29.32    8.98
   4   8   0   24.36   13.55
  -4   8   0   24.44   14.07
  -4  -8   0   36.61   11.54
  -4  -8   0   40.24    7.42
   4   8   1  326.57   27.37
  -4   8  -1  325.41   30.13
   4   8   1  291.19   29.22
   4  -8   1  251.43   23.96
  -4  -8  -1  392.78   30.42
   4   8   2 6203.15  311.00
  -4   8  -2 5726.67  286.38
   4   8   2 6075.25  304.11
  -4  -8  -2 6235.19  286.86
   4  -8   2 6036.99  294.78
   4   8   3 2334.83  134.10
   4   8   3 2423.23  132.23
  -4   8  -3 2301.24  118.19
   4  -8   3 2533.80  123.92
   4  -8   3 1956.10  114.17
  -4  -8  -3 2471.72  121.25
   4   8   4  232.07   26.93
  -4   8  -4  190.84   25.10
   4   8   4  197.92   26.75
   4  -8   4  180.40   24.79
   4  -8   4  131.20   22.45
  -4   8  -5  732.10   46.20
   4   8   5  714.81   53.81
   4   8   5  837.10   62.36
   4  -8   5  772.17   62.50
   4  -8   5  809.70   52.57
  -4   8  -6  824.81   55.09
   4   8   6  860.88   56.44
   4   8   6  727.70   60.61
   4  -8   6  818.12   61.73
  -4   8  -7  222.55   28.37
   4   8   7  312.56   40.65
   4   8   7  194.18   30.27
   4  -8   7  309.59   45.42
   4   8   8   93.72   39.32
  -4   8  -8  118.76   23.44
   4  -8   8   83.78   34.17
   4   8   9   16.54   33.23
   4  -8   9   19.49   27.50
  -4   9   9  -18.13   25.79
   4   9  -9    3.78   24.04
  -4  -9   9    3.51   24.60
  -4   9   8   35.77   30.11
   4   9  -8   18.87   29.25
  -4  -9   8   37.93   25.71
   4   9  -7  111.57   32.22
  -4   9   7   95.65   41.37
  -4  -9   7   87.17   33.97
  -4   9   6  668.35   61.15
  -4  -9   6  663.01   59.66
  -4   9   5  114.46   33.66
  -4  -9   5   30.98   24.70
  -4   9   4  308.97   47.00
  -4  -9   4  365.45   34.07
   4   9  -3   30.03    7.69
  -4   9   3   26.51   24.08
  -4  -9   3    3.28   17.32
  -4   9   2  245.91   31.69
   4   9  -2  365.91   24.97
  -4  -9   2  388.29   30.63
  -4  -9   2  252.87   25.23
  -4   9   1   13.77   15.66
   4   9  -1    1.77   11.27
  -4  -9   1   25.02   10.95
  -4  -9   1   17.88   12.44
   4   9   0   88.18   15.61
  -4   9   0   36.49   17.36
  -4  -9   0   53.31    9.83
  -4  -9   0   59.53   14.01
   4   9   1 1180.80   71.58
   4   9   1 1224.70   78.95
  -4   9  -1 1407.14   82.31
   4  -9   1 1293.06   73.55
  -4  -9  -1 1262.93   71.00
   4   9   2  416.52   42.73
   4   9   2  462.75   37.51
  -4   9  -2  422.96   35.49
  -4  -9  -2  452.35   31.01
   4  -9   2  387.98   31.25
   4  -9   2  337.45   37.52
  -4   9  -3  395.09   39.17
   4   9   3  428.51   38.80
   4   9   3  411.07   38.35
   4  -9   3  472.15   39.57
  -4  -9  -3  491.37   36.92
   4  -9   3  410.79   35.99
   4   9   4   38.84   17.37
   4   9   4   24.38   19.52
  -4   9  -4    9.09   16.22
  -4  -9  -4   19.61   11.24
   4  -9   4   32.65   16.67
   4  -9   4   -1.89   15.69
  -4   9  -5   56.76   14.50
   4   9   5   61.76   20.95
   4   9   5    3.90   19.72
   4  -9   5   44.17   20.41
   4  -9   5   58.73   21.00
   4   9   6   10.23   18.71
  -4   9  -6   -0.93   18.29
   4   9   6    9.13   20.80
   4  -9   6   36.24   19.40
  -4   9  -7  825.23   62.89
   4   9   7  811.26   64.28
   4   9   7  908.30   80.94
   4  -9   7  969.75   76.65
   4   9   8  511.93   68.75
   4  -9   8  532.28   60.72
   4   9   9   67.37   41.47
   4  -9   9   46.39   34.97
   4  10  -9   12.88   25.68
  -4  10   9   59.23   44.22
  -4 -10   9   46.15   33.40
  -4  10   8   -0.45   31.56
   4  10  -8   18.23   25.60
  -4 -10   8   55.54   29.67
  -4  10   7  114.59   34.39
   4  10  -7   96.66   30.98
  -4 -10   7  135.06   39.80
  -4  10   6   34.85   26.09
  -4 -10   6   42.69   29.56
  -4  10   5   47.80   28.34
  -4 -10   5   85.01   27.86
  -4  10   4   -0.44   16.91
  -4 -10   4   -0.26   14.64
   4  10  -3   19.34    8.88
  -4  10   3   -2.39   19.45
  -4 -10   3   10.91   17.57
  -4  10   2   21.19   22.45
   4  10  -2    5.46    9.70
  -4 -10   2   -2.27   13.73
   4  10  -1  378.87   32.12
  -4  10   1  411.98   43.45
  -4 -10   1  418.67   31.39
  -4 -10   1  422.90   41.94
  -4  10   0 1754.37  106.56
   4  10   0 1592.62   90.75
   4 -10   0 1829.68  100.74
  -4 -10   0 1567.78   77.62
  -4 -10   0 1607.05   94.60
  -4  10  -1   16.83   20.65
   4  10   1   14.99   15.86
  -4 -10  -1    6.72   12.17
   4 -10   1   16.47   16.03
  -4  10  -2 1228.87   82.51
   4  10   2 1151.30   72.18
   4  10   2 1220.11   81.06
  -4 -10  -2 1198.88   68.88
   4 -10   2 1272.89   75.94
   4 -10   2 1212.72   74.42
   4  10   3  148.42   23.62
   4  10   3  126.56   24.27
  -4  10  -3  142.43   27.44
  -4 -10  -3  120.81   22.28
   4 -10   3  109.27   22.09
   4 -10   3  116.37   23.88
   4  10   4  161.09   34.11
  -4  10  -4  103.87   21.83
   4  10   4  208.60   34.60
   4 -10   4  210.51   25.34
   4 -10   4  184.40   27.73
  -4 -10  -4  259.99   29.08
  -4  10  -5   39.82   16.08
   4  10   5   45.88   18.84
   4  10   5   -7.96   21.61
   4 -10   5   34.84   19.65
   4 -10   5   12.80   15.79
   4  10   6  341.93   41.50
  -4  10  -6  259.93   30.52
   4  10   6  273.37   48.12
   4 -10   6  491.37   49.87
   4  10   7   97.56   32.29
   4 -10   7  149.89   35.37
   4  10   8  218.72   44.04
   4 -10   8  225.18   57.17
  -4  11   8   41.64   33.65
   4  11  -8   23.26   34.76
  -4 -11   8   -9.43   37.13
   4  11  -7  519.98   58.97
  -4  11   7  578.57   76.30
  -4 -11   7  542.83   59.39
  -4  11   6  305.86   48.56
  -4 -11   6  284.83   41.60
  -4  11   5   32.35   25.92
  -4 -11   5   13.33   19.00
  -4  11   4   91.86   41.45
  -4 -11   4  167.61   23.26
  -4  11   3  308.47   38.48
  -4 -11   3  291.28   37.13
   4  11  -2   12.08   13.60
  -4  11   2   22.07   25.01
  -4 -11   2   33.92   17.56
  -4  11   1  441.79   52.14
  -4 -11   1  410.76   43.26
   4 -11  -1  388.20   36.73
  -4 -11   1  373.46   31.98
  -4  11   0   92.71   29.39
   4  11   0   56.15   17.40
  -4 -11   0   78.64   26.24
   4 -11   0  103.26   22.09
  -4  11  -1  127.32   27.84
   4  11   1   66.02   23.07
   4  11   1   51.16   29.79
   4 -11   1   23.34   16.30
  -4 -11  -1   69.37   21.20
   4  11   2  101.12   25.99
  -4  11  -2   94.98   26.62
   4 -11   2   91.54   24.45
  -4 -11  -2   74.50   21.52
   4 -11   2   42.74   16.35
   4  11   3    7.34   20.27
  -4  11  -3    6.36   21.61
   4  11   3   -6.84   22.74
  -4 -11  -3   -2.05   16.03
   4 -11   3   22.98   17.90
   4 -11   3   52.74   18.55
   4  11   4  446.51   44.69
   4  11   4  324.49   40.12
  -4  11  -4  444.64   45.58
   4 -11   4  403.18   44.31
   4 -11   4  454.83   40.59
  -4 -11  -4  382.66   38.85
  -4  11  -5    4.88   19.31
   4  11   5   12.31   24.39
   4  11   5   -1.16   23.32
  -4 -11  -5  -11.93   16.43
   4 -11   5   11.55   15.13
   4 -11   5    8.14   25.94
  -4  11  -6   -0.01   15.93
   4  11   6   25.62   23.96
   4 -11   6    9.03   24.78
   4  11   7   26.34   24.51
   4 -11   7  -39.54   28.92
   4  12  -7  -27.61   21.16
  -4  12   7    2.30   34.05
  -4 -12   7   25.53   20.87
  -4  12   6  270.97   61.18
  -4 -12   6  304.50   51.64
  -4  12   5  155.10   35.77
  -4 -12   5  109.82   36.09
  -4  12   4  188.79   36.95
  -4 -12   4  158.01   34.19
  -4  12   3  476.17   61.25
  -4 -12   3  532.84   50.11
  -4  12   2    5.79   19.35
   4 -12  -2    5.04   14.96
  -4 -12   2    8.41   17.51
  -4  12   1  177.85   39.10
   4  12  -1   68.65   25.19
  -4 -12   1  173.50   29.60
   4 -12  -1  151.60   25.74
   4  12   0   26.60   22.79
  -4  12   0   -3.85   21.95
   4 -12   0   80.75   16.64
  -4 -12   0   37.05   17.53
   4  12   1   17.44   29.09
   4  12   1   -0.11   14.58
  -4  12  -1   20.09   19.78
   4 -12   1   10.30   15.97
  -4 -12  -1   -0.76   21.33
   4 -12   1   10.16   15.02
   4  12   2  257.18   38.81
  -4  12  -2  379.12   45.02
   4  12   2  256.41   34.03
  -4 -12  -2  240.38   30.39
   4 -12   2  224.50   37.76
   4 -12   2  206.05   29.28
   4  12   3  375.09   50.80
   4  12   3  396.09   53.96
  -4  12  -3  380.98   48.43
   4 -12   3  448.19   43.25
   4 -12   3  366.01   40.44
  -4 -12  -3  437.10   39.35
   4  12   4   87.51   25.13
   4  12   4   23.88   25.20
  -4  12  -4   14.66   27.29
   4 -12   4   48.28   23.56
   4 -12   4    2.39   26.90
  -4 -12  -4   13.77   22.55
  -4  12  -5   33.79   24.27
   4  12   5   53.65   35.12
   4  12   5   38.59   35.39
   4 -12   5   42.52   27.20
  -4 -12  -5   53.80   19.16
   4 -12   5   14.24   25.71
   4  12   6   34.38   40.15
   4  12   6  187.29   46.49
   4 -12   6   77.76   36.14
  -4 -12  -6  138.12   28.18
  -4  13   6  -17.19   44.86
  -4 -13   6   46.23   34.30
  -4  13   5   30.01   32.14
  -4 -13   5   45.27   34.37
  -4  13   4   34.33   36.25
  -4 -13   4  176.06   33.14
  -4  13   3   82.03   33.79
  -4  13   2  116.81   32.41
  -4  13   1  -16.12   23.52
   4 -13  -1   -8.84   13.27
  -4 -13   1    4.69   23.23
   4  13   0   -2.45   24.41
  -4  13   0   70.00   33.46
  -4 -13   0   39.70   25.35
   4 -13   0   23.82   23.47
   4  13   1  170.42   46.25
  -4  13  -1   93.11   39.74
   4  13   1  164.20   28.50
   4 -13   1  131.26   29.86
  -4 -13  -1  158.82   29.96
   4 -13   1  173.20   35.08
  -4  13  -2  120.44   36.03
   4  13   2   44.35   26.08
   4  13   2   92.79   44.99
   4 -13   2   96.23   26.15
  -4 -13  -2  179.34   24.34
   4 -13   2   83.08   31.63
   4  13   3  260.48   45.46
   4  13   3  193.22   48.92
  -4  13  -3  234.39   44.58
   4 -13   3  251.58   34.81
  -4 -13  -3  236.99   39.88
   4 -13   3  163.46   30.51
   4  13   4   39.69   34.26
   4  13   4   44.45   28.46
  -4  13  -4   11.32   23.65
   4 -13   4   33.24   27.76
  -4 -13  -4   28.70   23.00
   4 -13   4   38.73   32.90
   4  13   5   34.22   26.10
   4  13   5   16.78   32.78
  -4 -13  -5    7.16   23.05
   4 -13   5   24.91   28.90
   4 -13   5  -13.25   24.98
  -4  14   4   -6.61   32.45
  -4  14   3    8.66   39.11
  -4  14   2  193.87   44.93
  -4  14   1   22.67   34.02
  -4 -14   1  120.41   30.23
  -4  14   0   58.17   27.59
   4  14   0    5.86   29.20
   4 -14   0    8.88   22.10
  -4 -14   0   46.61   30.05
   4 -14   0   32.77   25.48
   4  14   1   13.67   45.84
  -4  14  -1   83.95   40.52
   4  14   1   29.91   24.77
   4 -14   1   93.91   31.85
  -4 -14  -1  136.22   31.16
   4 -14   1   72.93   33.43
   4  14   2  281.55   49.80
   4  14   2  220.94   55.52
  -4  14  -2  359.74   55.84
   4 -14   2  311.78   47.47
  -4 -14  -2  186.10   33.51
   4 -14   2  244.26   48.00
   4  14   3   81.81   45.64
  -4  14  -3   37.64   29.31
   4  14   3   55.28   28.41
   4 -14   3  116.06   25.62
  -4 -14  -3   50.58   23.79
   4 -14   3   91.12   36.35
  -4  15   1   63.49   45.70
  -4  15   0  -13.50   37.47
  -4 -15   0   25.75   24.02
  -5   0  11    8.61   21.84
  -5   0  10   -5.91   15.54
  -5   0  10    1.37   13.91
  -5   0   9   10.78   13.25
  -5   0   9   16.84   16.19
  -5   0   8   15.43   12.48
  -5   0   8   -8.97   11.45
  -5   0   7    1.20    9.48
   5   0  -7   -3.09    7.00
  -5   0   7   -3.62   11.11
   5   0  -6 1853.95   92.67
   5   0  -6 1898.78   89.29
  -5   0   6 1891.99   91.39
  -5   0   5    0.89    6.05
   5   0  -5    9.40    6.44
   5   0  -5   -3.91    5.44
  -5   0   5   -1.89    6.38
   5   0  -4   82.81    9.00
  -5   0   4   69.10   10.21
  -5   0   4   83.00   10.31
   5   0  -4   84.20   10.60
   5   0  -3   -0.49    3.96
   5   0  -3   -1.90    6.54
  -5   0   3   -1.39    5.34
  -5   0   2   11.46    6.37
  -5   0   2    6.70    5.13
   5   0  -2    4.29    8.53
  -5   0   1   -1.78    4.03
  -5   0   1    1.49    5.25
   5   0  -1    0.04    5.92
  -5   0   0 5182.08  236.10
   5   0   0 5311.64  243.93
  -5   0  -1    2.52    5.72
   5   0   1   -3.61    6.34
   5   0   2   45.38    9.85
  -5   0  -2   12.50    7.83
   5   0   3   -4.98   10.22
   5   0   4 3339.96  154.42
   5   0   4 3357.83  158.94
   5   0   5    1.52    7.59
   5   0   5    2.27    9.01
   5   0   6 1668.49   87.28
   5   0   7    4.30   11.28
   5   0   8  680.03   50.01
   5   0   9  -10.93   21.47
   5   0  10  729.90   68.69
   5   0  11   10.08   22.54
  -5  -1  12   26.10   34.82
  -5  -1  11   30.93   25.34
  -5   1  10   59.53   21.13
  -5  -1  10    2.59   20.63
  -5   1   9  166.76   26.98
  -5  -1   9  175.52   32.66
  -5  -1   9  196.47   20.54
  -5   1   8   11.94   16.74
  -5  -1   8   30.06   12.94
  -5  -1   8   64.00   16.11
  -5   1   7  329.16   27.65
   5   1  -7  320.34   24.93
   5   1  -7  256.23   22.78
   5  -1  -7  293.29   20.76
  -5  -1   7  266.52   26.68
  -5   1   6   23.84   12.51
   5   1  -6   47.03    9.81
   5   1  -6    9.15    7.05
  -5   1   6   21.38    8.18
  -5  -1   6   31.90    8.38
  -5  -1   6    7.68   12.05
   5   1  -5  124.55   15.37
   5   1  -5  142.38   11.69
  -5   1   5  169.90   15.56
  -5   1   5  181.34   18.70
  -5  -1   5  161.02   18.60
   5  -1  -5  158.35   16.37
  -5  -1   5  174.89   13.80
   5  -1  -5  122.92   14.92
  -5   1   4  126.29   14.90
  -5   1   4  134.94   14.44
   5   1  -4  104.74   14.74
   5   1  -4  128.82    9.88
   5  -1  -4  108.86   12.28
   5  -1  -4  152.51   16.50
  -5  -1   4  111.97   10.42
  -5  -1   4  123.90   13.91
   5   1  -3 3676.62  169.14
  -5   1   3 3850.22  168.07
   5  -1  -3 3616.00  158.69
   5  -1  -3 3878.49  178.34
  -5  -1   3 4517.32  199.10
  -5  -1   3 3725.93  153.63
   5   1  -2   51.61    8.84
   5   1  -2   38.82    9.51
  -5   1   2   36.57    8.25
  -5   1   2   41.16    7.67
   5  -1  -2   41.33    8.61
   5  -1  -2   20.47    6.68
  -5  -1   2   37.99    7.76
  -5   1   1 5047.76  217.85
   5   1  -1 5178.94  239.38
  -5   1   1 5138.82  231.94
  -5  -1   1 5047.20  226.97
   5  -1  -1 4895.98  231.52
   5   1   0 3431.41  158.12
  -5   1   0 2884.21  136.86
   5   1   0 3555.46  164.58
  -5   1   0 3272.56  142.74
  -5  -1   0 3320.93  154.23
   5  -1   0 3516.99  168.42
  -5   1  -1   62.71   10.81
   5   1   1   95.43   14.82
  -5  -1  -1   95.89   14.41
   5  -1   1   87.12   13.00
   5   1   2  108.09   13.00
  -5  -1  -2   83.44   14.19
   5  -1   2   97.17   16.04
   5   1   3 1418.64   74.85
   5  -1   3 1318.59   73.92
   5   1   4    2.76    7.92
   5   1   4   -2.23   11.65
   5  -1   4   15.97    7.76
   5  -1   4   11.78   11.75
   5   1   5   -1.39   10.48
   5   1   5   -5.19    9.15
   5  -1   5   14.41    9.28
   5   1   6 3595.00  175.93
   5   1   6 3772.02  181.78
   5  -1   6 3785.86  187.17
   5   1   7   16.65   15.53
   5  -1   7   40.00   19.20
   5   1   8   18.36   18.11
   5  -1   8   42.09   17.55
   5   1   9 2280.35  133.47
   5  -1   9 2178.61  128.50
   5   1  10  123.58   25.67
   5  -1  10  159.37   35.82
   5   1  11  307.83   50.01
   5  -1  11  354.87   53.95
  -5  -2  11    7.53   22.78
  -5   2  10  -11.61   18.24
  -5  -2  10    1.86   24.51
  -5   2   9 2243.26  131.62
  -5  -2   9 2127.63  129.72
   5   2  -8   88.01   12.66
  -5   2   8  152.75   26.80
  -5  -2   8  129.87   14.29
  -5  -2   8  141.31   23.47
  -5   2   7   13.53    7.76
  -5   2   7   37.39   14.18
   5   2  -7   17.99    6.87
  -5  -2   7   11.17   13.98
   5   2  -6  586.83   36.77
  -5   2   6  674.68   40.75
  -5   2   6  533.06   32.35
  -5  -2   6  592.82   41.96
  -5  -2   6  589.72   29.22
   5   2  -5  317.57   15.20
  -5   2   5  286.30   21.45
   5   2  -5  278.74   24.40
  -5   2   5  363.50   28.93
  -5  -2   5  288.14   26.76
   5  -2  -5  345.71   25.91
  -5   2   4 1338.25   70.87
  -5   2   4 1427.90   70.13
   5   2  -4 1504.62   73.52
   5  -2  -4 1535.72   76.42
  -5  -2   4 1371.52   73.63
   5   2  -3 4665.29  211.08
  -5   2   3 4485.41  200.73
  -5   2   3 4294.67  197.27
  -5  -2   3 3813.63  183.22
   5  -2  -3 4248.10  191.81
  -5  -2   3 4386.34  173.36
   5   2  -2   30.94    8.98
   5   2  -2   26.54    9.63
  -5   2   2   18.69    7.82
  -5   2   2   11.56    6.63
   5  -2  -2   30.89    6.33
  -5  -2   2   31.26    4.99
   5  -2  -2   29.82   12.01
  -5  -2   2   46.56    8.52
   5   2  -1   62.05   12.90
  -5   2   1   78.37   10.61
  -5   2   1   46.87    9.73
   5   2  -1   41.62    8.51
  -5  -2   1   63.14    9.73
   5  -2  -1   56.80    9.40
   5  -2  -1   56.20   10.72
  -5   2   0 3745.47  175.39
  -5   2   0 3649.45  162.99
   5   2   0 3722.19  174.98
  -5  -2   0 3743.51  173.38
   5  -2   0 3739.92  181.88
   5   2   1   89.89    6.24
  -5   2  -1  108.01   11.34
   5   2   1  106.83   13.94
  -5  -2  -1   84.48    9.89
   5  -2   1   84.80   15.17
  -5  -2  -1   77.78   11.47
   5   2   2  333.16   26.09
   5  -2   2  264.46   26.52
   5  -2   3   47.25    5.04
   5   2   4   85.55   15.60
   5   2   4   89.84   11.00
   5  -2   4   76.46   13.19
   5   2   5  287.62   21.63
   5   2   5  337.36   28.40
   5  -2   5  274.50   24.26
   5   2   6 2862.47  141.70
   5   2   6 2748.56  133.15
   5  -2   6 2938.20  153.72
   5   2   7   77.48   15.81
   5   2   7   39.21   18.20
   5  -2   7   41.11   16.57
   5   2   8    4.19   14.96
   5  -2   8    9.02   19.91
   5   2   9    8.95   19.28
   5  -2   9   28.25   24.58
   5   2  10  159.22   33.00
   5  -2  10  184.44   34.46
   5  -2  11   35.92   39.10
  -5   3  11   13.05   26.78
  -5  -3  11   19.15   23.59
  -5   3  10   41.27   22.92
  -5  -3  10  115.62   27.14
  -5   3   9  166.59   33.19
  -5  -3   9  150.67   29.48
   5   3  -8 1060.69   62.25
  -5   3   8 1152.19   73.39
  -5  -3   8 1222.96   83.29
  -5   3   7  711.59   53.12
  -5   3   7  674.91   39.71
   5   3  -7  735.56   46.31
  -5  -3   7  725.79   53.43
   5   3  -6   93.20   15.60
  -5   3   6   87.89   16.55
  -5   3   6   63.97   12.10
  -5  -3   6   82.90   17.21
  -5   3   5  100.79   13.53
   5   3  -5  159.99   15.93
  -5   3   5  109.12   19.63
  -5  -3   5   82.53   16.56
  -5   3   4 1655.35   85.44
  -5   3   4 1733.00   91.99
   5   3  -4 1585.61   80.69
  -5   3   3 6766.64  316.96
  -5   3   3 6977.95  325.81
   5   3  -3 7124.66  334.00
  -5  -3   3 6934.85  323.33
   5   3  -2  242.07   20.12
   5   3  -2  188.34   19.63
  -5   3   2  305.34   21.07
  -5   3   2  225.52   19.97
   5   3  -1 1792.31   81.56
   5   3  -1 1649.90   85.54
  -5   3   1 1857.02   88.09
  -5  -3   1 1992.56   84.10
   5   3   0   -0.94    4.82
   5   3   0   -0.08    3.25
   5   3   0    4.68    7.35
  -5  -3   0   -2.41    4.14
  -5   3  -1   -6.05    8.05
   5   3   1   -5.05    3.76
   5   3   1   -8.88    7.54
  -5  -3  -1   -1.35    6.34
  -5   3  -2 9868.33  458.33
   5   3   3 1846.13   76.81
   5   3   3 1844.53   95.31
   5  -3   3 1873.60   77.62
   5  -3   3 1947.30   96.97
   5   3   4 1079.15   61.02
   5   3   4 1203.97   54.56
   5  -3   4 1377.75   72.99
   5   3   5  105.80   13.51
   5   3   5   97.92   17.35
   5  -3   5  107.35   17.92
   5   3   6 2358.96  112.22
   5   3   6 2404.97  122.86
   5  -3   6 2538.66  134.43
   5   3   7    6.91   11.59
   5   3   7    7.80   10.76
   5  -3   7   -6.71   12.24
   5   3   8   31.50   15.60
   5   3   8   14.19   13.99
   5  -3   8   -2.18   17.55
   5  -3   9    2.57   21.82
   5  -3  10   27.84   27.18
   5  -3  11   28.40   38.19
  -5   4  11  275.64   44.91
  -5  -4  11  232.15   42.45
  -5   4  10   85.28   28.15
  -5  -4  10  153.16   32.29
  -5   4   9    4.10   16.81
  -5  -4   9   12.51   21.06
   5   4  -8   69.40   18.03
  -5   4   8   46.89   25.55
  -5  -4   8   77.22   21.46
  -5   4   7   54.08   16.68
   5   4  -7    3.41   14.62
  -5  -4   7   27.16   21.64
  -5   4   6   49.53   18.31
  -5   4   6    2.48   13.16
   5   4  -6   28.73   10.67
  -5  -4   6   59.41   21.07
  -5   4   5    2.65   11.27
   5   4  -5   -6.48    9.06
  -5   4   5   15.18   11.05
  -5  -4   5   13.56   10.61
   5   4  -4  557.50   39.02
  -5   4   4  537.08   37.48
  -5  -4   4  563.81   41.23
  -5   4   3 3085.29  152.60
  -5  -4   3 3251.80  155.34
  -5   4   2  475.50   32.79
   5   4  -2  416.29   29.87
  -5  -4   2  449.33   23.12
  -5  -4   2  516.40   29.34
   5   4  -1  186.89   15.72
  -5   4   1  100.01   17.45
   5   4  -1  165.46   18.60
  -5  -4   1  141.39   12.36
   5   4   0   24.65    5.27
   5   4   0   56.30    7.56
  -5   4   0    3.66    9.22
   5   4   0   15.90   13.67
  -5  -4   0   13.28    8.12
  -5   4  -1  929.13   49.24
   5   4   1 1079.87   59.65
   5   4   1  906.98   39.93
   5   4   2    9.85    7.93
  -5  -4  -2   -1.95    4.22
   5   4   3 3692.96  181.66
   5  -4   3 3869.89  165.70
   5  -4   3 3662.85  177.50
   5   4   4 1354.92   75.39
  -5   4  -4 1346.87   68.66
   5  -4   4 1366.57   62.60
   5  -4   4 1236.91   69.84
   5   4   5 1377.52   73.37
   5   4   5 1409.79   76.82
   5   4   5 1403.43   63.37
   5  -4   5 1500.21   83.82
   5   4   6  121.97   19.21
   5   4   6  178.47   17.31
   5  -4   6  147.68   27.37
   5   4   7  361.44   29.41
   5  -4   7  465.55   43.21
   5   4   8  188.12   21.70
   5  -4   8  166.45   38.87
   5  -4   9  395.56   55.29
   5  -4  10  126.57   36.82
  -5   5  11  374.75   48.03
  -5  -5  11  234.89   45.66
  -5   5  10   20.26   25.59
  -5  -5  10   75.35   28.14
  -5   5   9  371.82   49.78
  -5  -5   9  380.61   43.16
  -5   5   8  432.60   48.69
   5   5  -8  448.05   41.16
  -5  -5   8  360.98   39.15
   5   5  -7  160.83   26.65
  -5   5   7  139.19   24.81
  -5  -5   7  189.47   30.84
  -5   5   6 1294.93   80.68
   5   5  -6 1261.01   72.05
  -5   5   6 1152.62   69.65
  -5  -5   6 1254.97   77.31
   5   5  -5   94.47   16.31
  -5   5   5  116.81   17.61
  -5  -5   5   68.75   14.87
   5   5  -4   -3.37    9.26
  -5   5   4  -12.85   10.88
  -5  -5   4   24.31   10.41
  -5   5   3  112.85   16.80
   5   5  -3  105.35   18.90
  -5  -5   3   68.45   13.31
  -5   5   2 2607.86  134.01
   5   5  -2 2509.24  134.36
  -5  -5   2 2956.94  134.70
  -5  -5   2 2744.67  115.51
  -5   5   1 5157.95  249.12
   5   5  -1 5065.80  228.79
   5   5  -1 5127.69  254.81
  -5  -5   1 5083.26  227.42
   5   5   0 1803.61   81.28
  -5   5   0 1693.50   91.80
  -5  -5   0 1925.66   93.86
   5   5   1  771.08   48.18
  -5   5  -1  832.20   47.98
   5   5   2    7.33    3.50
   5   5   2   12.19   10.33
   5   5   2   11.29    7.74
  -5   5  -2   14.59    7.88
  -5  -5  -2    8.73    6.10
  -5   5  -3   89.01   12.27
   5   5   3  110.99   16.12
   5   5   3   87.17   14.49
  -5  -5  -3   49.86    8.17
   5  -5   3   90.23   11.65
   5  -5   3   85.46   17.11
   5   5   4    1.21    2.80
  -5   5  -4    3.07    7.84
   5   5   4    1.63   11.11
   5   5   4    4.16    9.82
  -5  -5  -4    5.00    4.79
   5  -5   4    5.57    7.29
   5  -5   4   -4.29   13.07
   5   5   5 2666.47  108.66
  -5   5  -5 2775.74  139.23
   5   5   5 2876.13  149.77
   5   5   5 2831.35  149.39
   5  -5   5 2653.65  144.46
   5   5   6  172.25   21.90
  -5   5  -6  138.24   19.06
   5  -5   6  172.99   26.11
   5   5   7   46.53   11.98
   5   5   7   74.68   16.53
   5  -5   7   26.77   27.13
   5  -5   8  223.66   37.94
   5  -5   9   20.82   25.75
   5  -5  10   56.18   41.20
  -5   6  11   63.74   32.81
  -5  -6  11   62.44   34.31
  -5   6  10   45.53   32.19
  -5  -6  10    2.84   27.95
  -5   6   9   23.13   30.65
  -5  -6   9   61.45   25.14
   5   6  -8  829.96   64.12
  -5   6   8  883.94   68.26
  -5  -6   8  963.90   72.45
  -5   6   7  749.18   68.79
   5   6  -7  913.08   62.47
  -5  -6   7  837.99   67.96
   5   6  -6   17.42   18.48
  -5   6   6   36.01   18.21
  -5  -6   6   27.87   16.99
   5   6  -5  840.48   55.32
  -5   6   5  828.12   60.77
  -5  -6   5  833.68   59.99
  -5   6   4    6.92   11.90
   5   6  -4    3.11   11.07
  -5  -6   4  -11.35   10.10
  -5   6   3    1.03   13.61
   5   6  -3   37.88   18.01
  -5  -6   3   28.62   13.62
   5   6  -2  224.67   27.53
  -5   6   2  288.35   26.14
  -5  -6   2  213.85   15.21
  -5  -6   2  232.11   21.20
   5   6  -1   10.20    7.07
  -5   6   1   -8.81   11.26
   5   6  -1   -2.68   10.19
  -5  -6   1   -5.38    5.97
  -5  -6   1    4.10    6.39
   5   6   0 6114.32  308.74
   5   6   0 6107.90  273.08
  -5   6   0 5691.60  280.00
   5   6   1 1312.21   66.71
  -5   6  -1 1317.42   70.90
   5   6   1 1115.72   67.97
  -5  -6  -1 1302.53   65.11
  -5   6  -2   33.45   10.40
   5   6   2   -7.57    9.47
   5   6   2    4.00   11.42
  -5  -6  -2   12.80    7.79
   5   6   3   85.02   19.75
   5   6   3  109.16   20.04
  -5   6  -3   99.01   17.43
   5  -6   3   90.98   14.16
   5  -6   3   90.98   15.21
  -5  -6  -3   91.93   11.59
   5   6   4  129.05   18.88
  -5   6  -4   99.21   18.83
   5   6   4   94.39   16.10
  -5  -6  -4   76.07   10.95
   5  -6   4  101.78   15.23
   5  -6   4   50.13   15.92
   5   6   5 1289.22   86.38
  -5   6  -5 1578.43   87.05
   5   6   5 1439.58   79.87
   5  -6   5 1182.08   75.79
  -5   6  -6  280.61   29.47
   5   6   6  309.61   37.53
   5   6   6  320.03   34.00
   5  -6   6  273.27   34.19
  -5   6  -7  240.66   28.87
   5   6   7  244.62   33.03
   5   6   7  287.89   35.46
   5  -6   7  286.29   34.91
  -5   6  -8  980.60   64.68
   5  -6   8 1075.35   91.55
  -5   6  -9   21.25   15.94
   5  -6   9   -0.34   34.29
   5  -6  10   19.73   39.34
  -5   7  10    6.54   37.01
  -5  -7  10   47.79   28.21
  -5   7   9  197.43   36.66
  -5  -7   9  240.58   40.92
  -5   7   8   28.11   29.95
   5   7  -8    9.73   20.98
  -5  -7   8   -1.00   18.64
   5   7  -7  -13.79   17.59
  -5   7   7   30.94   23.33
  -5  -7   7    2.79   20.56
   5   7  -6  149.46   24.22
  -5   7   6  137.06   27.32
  -5  -7   6  189.66   32.56
   5   7  -5   18.01   14.80
  -5   7   5    9.72   23.20
  -5  -7   5    3.45   13.90
   5   7  -4  188.26   25.43
  -5   7   4  174.03   27.32
  -5  -7   4  247.21   28.82
  -5   7   3 1790.74  106.27
   5   7  -3 2033.89  113.13
  -5  -7   3 2125.28  110.30
  -5   7   2   -3.94   13.13
   5   7  -2   19.40   15.91
  -5  -7   2   -4.28   10.30
  -5  -7   2   19.65    9.04
  -5   7   1   -2.85   13.58
   5   7  -1    8.60    7.83
   5   7  -1    6.85    8.23
   5   7  -1   61.76   19.69
  -5  -7   1   11.31    9.13
  -5  -7   1   14.70    8.09
   5   7   0  297.79   30.28
   5   7   0  425.18   28.28
   5   7   0  278.93   19.65
  -5   7   0  378.41   31.52
  -5   7  -1  128.35   21.76
   5   7   1  155.36   10.41
   5   7   1  156.07   20.30
   5   7   1  125.95   20.93
  -5  -7  -1  124.77   17.44
   5   7   2 2015.85  111.27
  -5   7  -2 2060.92  110.28
   5   7   2 2181.58  115.22
   5  -7   2 2108.95  108.58
  -5  -7  -2 2110.16  100.60
  -5   7  -3  150.57   18.45
   5   7   3  136.15   21.61
   5   7   3  160.71   26.16
  -5  -7  -3  145.38   16.21
   5  -7   3  149.01   19.21
   5  -7   3  144.75   23.19
   5   7   4   -3.12   19.11
   5   7   4  -20.45   15.71
  -5   7  -4   30.13   13.09
  -5  -7  -4    4.25    8.99
   5  -7   4   13.48   11.24
   5  -7   4   18.46   13.58
   5   7   5  120.92   22.32
  -5   7  -5   75.41   17.72
   5   7   5  100.63   18.82
   5  -7   5   96.65   21.77
   5  -7   5   86.18   14.26
  -5  -7  -5   46.46   12.54
  -5   7  -6  209.97   28.06
   5   7   6  293.21   32.09
   5   7   6  183.09   37.33
   5  -7   6  188.70   32.66
   5   7   7   -2.85   19.27
   5   7   7   40.85   28.00
  -5   7  -7   34.86   18.77
   5  -7   7   92.12   23.71
  -5   7  -8  613.63   53.19
   5   7   8  660.82   60.65
   5  -7   8  626.46   65.35
  -5   7  -9  204.71   32.91
   5  -7   9  187.79   52.58
  -5   8  10  235.55   59.53
  -5  -8  10  366.98   60.46
  -5   8   9   82.66   38.31
  -5  -8   9   30.99   27.09
   5   8  -8  108.75   36.31
  -5   8   8  174.76   45.21
  -5  -8   8  270.21   43.64
   5   8  -7   -1.26   25.88
  -5   8   7   26.14   22.70
  -5  -8   7   57.97   21.00
   5   8  -6  136.59   28.86
  -5   8   6  124.43   33.07
  -5  -8   6   72.13   22.08
   5   8  -5  272.89   38.09
  -5   8   5  387.62   41.52
  -5  -8   5  314.88   32.84
  -5   8   4  670.54   55.51
   5   8  -4  869.84   61.38
  -5  -8   4  859.32   60.19
  -5   8   3  119.80   28.10
   5   8  -3   98.35   21.28
  -5  -8   3  108.73   14.05
  -5  -8   3   52.61    9.47
  -5   8   2 1615.85   96.59
   5   8  -2 1421.67   66.45
   5   8  -2 1477.89   89.26
  -5  -8   2 1291.10   73.41
  -5  -8   2 1360.51   73.72
   5   8  -1  241.37   19.99
   5   8  -1  302.80   32.44
  -5   8   1  107.33   21.79
   5   8   0  165.95   16.99
   5   8   0  196.54   25.44
  -5   8   0  235.06   26.52
   5   8   0  201.48   22.64
  -5  -8   0  267.67   24.62
   5   8   1  329.83   37.81
  -5   8  -1  382.56   32.60
   5   8   1  281.23   26.34
  -5  -8  -1  361.42   28.36
   5   8   2  136.27   21.83
  -5   8  -2   76.99   22.99
   5   8   2   99.25   18.09
   5  -8   2   54.85   21.94
  -5  -8  -2  126.76   18.73
  -5   8  -3  273.60   31.66
   5   8   3  293.30   34.90
   5   8   3  263.91   33.72
   5  -8   3  293.68   25.22
   5  -8   3  288.15   28.72
  -5  -8  -3  345.75   26.80
  -5   8  -4  154.98   19.06
   5   8   4   90.67   20.35
   5   8   4   92.41   24.95
   5  -8   4  118.10   17.35
   5  -8   4  106.71   20.89
  -5  -8  -4  123.17   16.45
  -5   8  -5  482.42   41.64
   5   8   5  494.91   44.28
   5   8   5  490.66   44.56
   5  -8   5  394.89   37.00
  -5  -8  -5  418.91   31.57
   5  -8   5  513.76   52.46
   5   8   6  257.23   37.50
   5   8   6  162.21   30.08
  -5   8  -6  139.69   22.51
   5  -8   6  145.39   28.08
   5   8   7  537.97   50.72
  -5   8  -7  526.57   41.30
   5   8   7  512.66   52.53
   5  -8   7  554.01   53.80
   5   8   8  271.74   53.13
  -5   8  -8  336.44   38.48
   5  -8   8  307.02   51.23
   5  -8   9   19.24   30.27
   5   9  -9   62.52   35.09
  -5   9   9   94.87   42.54
  -5  -9   9   61.97   34.09
   5   9  -8   -0.40   23.76
  -5   9   8   -5.46   23.68
  -5  -9   8   -8.00   25.98
  -5   9   7   52.13   33.81
   5   9  -7   51.39   27.35
  -5  -9   7    0.20   23.41
   5   9  -6  383.75   41.12
  -5   9   6  344.69   58.48
  -5  -9   6  335.76   38.94
  -5   9   5   60.72   34.12
   5   9  -5   93.16   25.97
  -5  -9   5  140.29   24.99
   5   9  -4 1755.67  115.82
  -5   9   4 1791.04  124.12
  -5  -9   4 1826.12  107.50
   5   9  -3  624.94   55.41
  -5   9   3  712.76   58.01
  -5  -9   3  790.71   52.98
   5   9  -2  148.02   27.58
  -5   9   2  126.90   27.09
   5   9  -2  159.32   16.49
  -5  -9   2  142.03   20.20
   5   9  -1   73.78   25.80
   5   9  -1   36.60   12.54
  -5   9   1   28.78   18.52
  -5  -9   1   25.93   11.84
   5   9   0  261.62   32.04
   5   9   0  305.96   28.44
  -5   9   0  296.25   31.86
   5   9   0  209.91   19.47
  -5  -9   0  352.28   32.61
   5   9   1  221.26   36.16
   5   9   1  228.37   27.65
  -5   9  -1  223.97   34.15
  -5  -9  -1  296.94   24.30
   5  -9   1  297.71   29.27
   5   9   2  610.24   47.05
   5   9   2  531.23   40.26
  -5   9  -2  465.98   45.16
  -5  -9  -2  509.99   37.66
   5  -9   2  487.88   40.47
   5   9   3   34.71   18.58
   5   9   3   73.16   24.57
  -5   9  -3   50.43   22.26
   5  -9   3   87.43   14.55
  -5  -9  -3   80.01   15.94
   5  -9   3   64.88   18.07
   5   9   4  201.99   33.86
   5   9   4  231.08   37.18
  -5   9  -4  231.82   29.83
  -5  -9  -4  259.66   25.49
   5  -9   4  226.77   25.19
   5  -9   4  274.48   33.14
   5   9   5  467.67   48.87
  -5   9  -5  487.96   44.50
   5   9   5  454.55   53.72
  -5  -9  -5  607.10   41.66
   5  -9   5  534.97   46.44
   5  -9   5  509.04   47.01
  -5   9  -6  177.42   29.84
   5   9   6  174.51   31.17
   5   9   6  179.12   32.29
  -5  -9  -6  138.54   23.29
   5  -9   6  268.22   35.20
   5   9   7  204.43   35.12
   5   9   7  102.20   32.13
  -5   9  -7  141.04   28.87
   5  -9   7  133.42   41.60
   5   9   8   61.26   31.06
   5  -9   8   75.86   35.58
   5  10  -8   99.35   38.31
  -5  10   8   95.36   39.38
  -5 -10   8   93.56   39.10
   5  10  -7  488.51   53.48
  -5  10   7  592.43   66.21
  -5 -10   7  786.07   66.51
   5  10  -6   78.22   37.13
  -5  10   6  304.58   42.03
  -5 -10   6   85.73   29.04
   5  10  -5  334.92   40.53
  -5  10   5  250.08   49.53
  -5 -10   5  382.30   39.45
   5  10  -4  120.12   32.34
  -5  10   4   41.17   27.26
  -5 -10   4   57.08   18.81
   5  10  -3  148.57   26.58
  -5  10   3   60.90   25.72
  -5 -10   3   73.35   20.90
   5  10  -2   12.87   12.15
   5  10  -2   37.93   24.53
  -5  10   2   35.54   26.74
  -5 -10   2   15.64   11.10
   5  10  -1  811.16   51.70
   5  10  -1  756.06   60.34
  -5  10   1  815.02   63.67
   5  10   0  622.20   54.78
  -5  10   0  698.81   62.69
   5  10   0  595.27   44.65
  -5 -10   0  592.26   43.86
   5 -10   0  570.31   43.99
   5  10   1  100.56   31.22
   5  10   1  174.35   24.94
  -5  10  -1  152.22   24.82
  -5 -10  -1  109.78   18.64
   5 -10   1  111.67   20.05
   5  10   2  322.46   37.94
   5  10   2  462.15   49.44
  -5  10  -2  351.80   35.72
   5 -10   2  428.04   42.88
   5 -10   2  365.69   32.05
  -5 -10  -2  409.20   34.28
   5  10   3  308.78   33.77
  -5  10  -3  176.60   31.51
   5  10   3  256.55   37.06
  -5 -10  -3  276.14   29.74
   5 -10   3  181.73   28.65
   5 -10   3  241.57   25.02
   5  10   4  212.24   36.49
   5  10   4  172.98   36.15
  -5  10  -4  154.69   29.71
   5 -10   4  175.66   30.30
  -5 -10  -4  145.14   23.77
   5 -10   4  118.79   21.44
  -5  10  -5   10.42   18.95
   5  10   5  -11.50   18.75
   5  10   5   12.40   23.18
   5 -10   5  -20.11   26.41
  -5 -10  -5   17.18   11.08
   5 -10   5    6.43   19.31
   5  10   6   10.92   33.71
   5  10   6   52.73   27.95
  -5  10  -6   65.96   24.90
   5 -10   6   83.22   28.09
  -5 -10  -6   54.54   19.17
  -5  10  -7  132.19   28.36
   5  10   7  128.79   35.93
   5 -10   7  119.43   38.73
   5  10   8   60.01   45.39
   5 -10   8   71.53   36.50
  -5  11   8   58.48   49.10
   5  11  -8   70.85   34.78
  -5 -11   8  113.39   34.55
   5  11  -7  836.03   79.55
  -5  11   7 1132.98   98.01
  -5 -11   7 1018.00   86.04
   5  11  -6   10.91   28.21
  -5  11   6  -12.94   23.48
  -5 -11   6    7.69   23.58
   5  11  -5  177.15   33.36
  -5  11   5   99.21   45.17
  -5 -11   5  168.08   33.77
  -5  11   4   82.60   29.99
   5  11  -4   56.70   27.02
  -5 -11   4   48.58   27.33
  -5  11   3   71.45   36.81
   5  11  -3   67.71   31.17
  -5 -11   3   68.79   21.69
   5  11  -2  625.79   42.15
   5  11  -2  642.50   58.97
  -5  11   2  472.09   52.01
  -5 -11   2  567.99   44.45
  -5  11   1 1397.05  100.92
   5  11  -1 1265.89   76.20
   5  11  -1 1305.36  101.91
  -5 -11   1 1309.89   72.81
   5  11   0    9.27   16.61
   5  11   0    3.93   20.32
  -5  11   0    4.25   24.93
   5 -11   0    2.12   17.16
  -5 -11   0   13.66   14.05
  -5  11  -1  292.94   36.40
   5  11   1  286.56   44.19
   5  11   1  288.16   33.80
   5 -11   1  310.85   37.07
  -5 -11  -1  339.74   35.44
   5  11   2  203.81   32.13
  -5  11  -2  205.87   33.86
   5  11   2  247.51   34.38
   5 -11   2  127.50   23.95
   5 -11   2  236.43   31.88
  -5 -11  -2  221.46   25.35
   5  11   3   90.26   25.16
   5  11   3  105.79   26.03
  -5  11  -3   50.50   29.21
   5 -11   3   84.22   25.27
  -5 -11  -3  107.52   23.47
   5 -11   3   54.48   22.48
   5  11   4  268.16   39.61
  -5  11  -4  394.68   44.37
   5  11   4  360.04   42.55
   5 -11   4  323.87   38.75
   5 -11   4  275.58   38.31
  -5 -11  -4  351.25   38.41
  -5  11  -5   12.59   20.18
   5  11   5    9.63   18.36
   5  11   5   10.73   21.46
   5 -11   5  -15.65   18.46
  -5 -11  -5   -9.49   14.28
   5 -11   5    0.53   18.80
   5  11   6   50.62   27.24
  -5  11  -6    1.71   25.31
   5  11   6    9.97   28.98
   5 -11   6   32.20   27.71
   5  11   7  387.76   57.48
   5 -11   7  310.97   60.32
   5  12  -7   54.30   40.66
  -5  12   7   -3.16   37.20
  -5 -12   7   46.72   30.10
   5  12  -6  101.25   41.59
  -5  12   6   73.87   35.46
  -5 -12   6   17.52   35.26
  -5  12   5   -4.05   29.41
   5  12  -5    3.30   36.83
  -5 -12   5   75.80   28.45
  -5  12   4  764.64   78.30
   5  12  -4  877.60   77.30
  -5 -12   4 1009.33   77.19
   5  12  -3  277.72   48.12
  -5  12   3  272.38   44.05
  -5 -12   3  224.52   34.93
   5  12  -2   45.68   26.51
  -5  12   2   67.84   35.12
   5  12  -1  188.11   28.84
  -5  12   1  169.86   34.67
   5  12  -1  219.99   44.17
   5 -12  -1  178.57   26.85
   5  12   0   34.61   21.17
  -5  12   0   13.40   30.24
   5  12   0  -16.17   22.99
  -5 -12   0   13.02   20.94
   5 -12   0    9.42   12.99
  -5  12  -1   36.42   27.59
   5  12   1  -19.50   22.26
   5  12   1   -8.18   20.98
   5 -12   1   -9.50   14.92
  -5 -12  -1  -15.13   16.68
  -5  12  -2 1055.13   87.81
   5  12   2  920.12   72.58
   5  12   2  888.24   83.97
   5 -12   2  889.23   65.06
  -5 -12  -2  916.72   61.94
   5 -12   2  923.39   68.86
   5  12   3  178.16   31.59
  -5  12  -3  185.95   38.30
   5  12   3  163.18   31.52
  -5 -12  -3  154.93   26.32
   5 -12   3  145.03   32.20
   5 -12   3  140.50   28.91
   5  12   4  397.98   58.03
  -5  12  -4  397.60   50.76
   5  12   4  523.17   63.35
  -5 -12  -4  466.83   46.39
   5 -12   4  554.81   65.07
   5 -12   4  404.81   41.01
   5  12   5   24.35   33.65
  -5  12  -5   42.08   23.92
   5  12   5   38.77   36.25
   5 -12   5   17.66   29.55
  -5 -12  -5   68.72   18.56
   5 -12   5   50.86   27.03
   5  12   6   73.76   43.40
   5  12   6  136.86   37.79
   5 -12   6  141.18   38.99
  -5  13   5  800.24   90.92
   5  13  -5  463.35   63.28
  -5 -13   5  541.11   65.02
  -5  13   4  108.01   42.61
   5  13  -4  141.09   50.43
  -5 -13   4  191.39   37.39
  -5  13   3   11.94   25.88
   5  13  -3    5.26   25.12
   5  13  -2  299.06   68.04
  -5  13   2  416.75   54.58
   5 -13  -2  413.74   42.96
   5  13  -1    1.11   27.43
  -5  13   1    0.89   24.09
   5 -13  -1   17.52   18.79
  -5  13   0  -33.63   32.47
   5  13   0    2.67   22.27
   5  13   0   49.28   25.27
  -5 -13   0   -1.12   18.13
   5 -13   0   32.38   23.12
   5  13   1  911.84   91.49
  -5  13  -1 1076.10   84.82
   5  13   1  776.50   65.89
   5 -13   1  945.40   70.15
   5 -13   1 1069.72   77.31
  -5 -13  -1  890.49   76.18
  -5  13  -2   70.28   36.95
   5  13   2   33.68   43.02
   5  13   2   70.23   33.02
   5 -13   2   39.54   24.75
   5 -13   2   80.66   25.60
  -5 -13  -2  108.04   24.19
   5  13   3    3.68   35.36
  -5  13  -3   40.87   32.98
   5  13   3   22.08   31.16
   5 -13   3   25.85   26.23
  -5 -13  -3   -1.14   19.07
   5 -13   3   32.66   21.75
  -5  13  -4    3.66   26.12
   5  13   4    8.99   28.03
   5  13   4  -19.96   23.02
  -5 -13  -4   -2.13   19.39
   5 -13   4   19.87   20.36
   5 -13   4   -2.81   20.86
   5  13   5   -0.84   32.61
   5  13   5   -3.82   30.00
   5 -13   5    9.05   23.46
  -5 -13  -5   -9.23   20.74
   5 -13   5   10.45   23.66
  -5  14   4   28.61   44.22
  -5  14   3  159.65   52.57
   5  14  -3   40.16   45.76
  -5  14   2   50.33   31.67
   5  14  -2   -2.63   34.20
   5  14  -1  500.88   68.65
  -5  14   1  582.34   67.08
  -5  14   0   -1.42   30.76
   5  14   0   -4.25   28.38
   5 -14   0   10.46   26.17
  -5 -14   0   45.68   22.88
   5  14   1  238.09   42.57
  -5  14  -1  227.14   49.59
   5  14   1  143.34   42.25
  -5 -14  -1  221.21   36.68
   5 -14   1  187.03   33.82
   5 -14   1  206.52   39.36
  -5  14  -2  164.31   45.91
   5  14   2  197.32   42.37
   5  14   2  112.70   40.35
   5 -14   2  186.65   35.29
  -5 -14  -2  147.93   40.29
   5 -14   2  184.73   32.13
   5  14   3   46.32   30.14
   5  14   3   37.75   35.12
  -5  14  -3   15.39   38.51
   5 -14   3   40.99   35.76
   5 -14   3   18.86   31.27
  -5 -14  -3   24.48   21.67
  -6   0   9    7.65   13.30
   6   0  -8  592.47   40.45
  -6   0   8  605.95   42.28
   6   0  -7   -7.73    8.52
  -6   0   7   13.43    9.69
  -6   0   6  704.38   42.25
  -6   0   6  710.49   44.82
   6   0  -6  610.26   36.90
   6   0  -6  732.66   43.86
   6   0  -5    6.01    6.26
  -6   0   5   13.06    7.65
   6   0  -5  -21.42    8.96
   6   0  -4 1447.51   67.79
   6   0  -4 1681.67   85.48
   6   0  -3   -4.03    8.65
  -6   0   3    0.49    6.07
   6   0  -2 2391.53  118.34
  -6   0   2 2718.11  117.01
   6   0  -1   -0.46    7.32
  -6   0   1   -2.12    4.64
   6   0   0    6.56    9.07
   6   0   1   18.59   10.61
   6   0   2  544.51   37.22
   6   0   3   -4.33    9.84
   6   0   4 4553.80  221.08
   6   0   4 4444.98  207.96
   6   0   5   17.99   11.83
   6   0   5   45.66   19.14
   6   0   6 2095.19  112.31
   6   0   6 2013.59  107.72
   6   0   7   14.03   13.38
   6   0   8   11.53   14.71
   6   0   9    4.90   20.49
   6   0  10  490.55   60.95
  -6   1  10  400.06   39.42
  -6  -1  10  340.86   43.31
  -6   1   9  326.75   34.49
  -6  -1   9  309.30   41.51
  -6  -1   9  291.21   27.31
   6   1  -8  207.45   22.11
  -6   1   8  220.25   28.43
  -6  -1   8  216.67   29.87
  -6  -1   8  237.33   23.77
  -6   1   7 1594.26   86.18
  -6   1   7 1370.77   75.26
   6   1  -7 1564.60   81.87
  -6  -1   7 1674.16   83.12
  -6   1   6  210.18   22.90
  -6   1   6  202.06   20.50
   6   1  -6  194.42   14.98
   6   1  -6  252.69   22.35
  -6  -1   6  228.21   18.20
   6  -1  -6  192.10   22.40
  -6   1   5   14.44    9.61
  -6   1   5    2.52    9.43
   6   1  -5   -0.28    9.94
   6   1  -5    8.78    5.06
   6  -1  -5   12.21   10.82
  -6  -1   5  -12.08    7.37
   6   1  -4 1538.21   77.86
   6   1  -4 1294.13   68.14
  -6   1   4 1370.13   70.22
   6  -1  -4 1439.31   77.22
  -6  -1   4 1441.89   67.25
   6   1  -3 1406.84   75.41
   6  -1  -3 1506.36   77.48
   6  -1  -3 1481.76   70.49
   6   1  -2  306.44   24.43
  -6   1   2  362.31   22.18
   6   1  -2  330.87   24.99
   6  -1  -2  339.51   20.38
   6  -1  -2  311.98   25.29
  -6  -1   2  331.24   19.91
   6   1  -1  132.50   15.41
  -6   1   1  116.75   10.83
   6  -1  -1  107.00   19.12
   6   1   0 6583.88  317.84
  -6   1   0 7346.37  328.04
   6   1   1  200.15   22.66
   6  -1   1  291.30   24.79
   6   1   2  575.66   38.22
   6  -1   2  624.92   44.80
   6   1   3  643.32   45.41
   6  -1   3  669.99   45.33
   6   1   4  918.16   55.68
   6   1   4  988.77   53.04
   6  -1   4 1005.05   64.25
   6  -1   4 1002.92   55.00
   6   1   5  367.74   34.28
   6   1   5  333.31   27.01
   6  -1   5  393.49   30.17
   6   1   6 1000.34   59.08
   6   1   6  811.17   51.87
   6  -1   6  842.96   58.32
   6   1   7  201.59   24.38
   6   1   7  240.86   28.13
   6  -1   7  205.39   26.11
   6   1   8   24.70   15.10
   6  -1   8   37.30   23.81
   6   1   9  269.81   31.32
   6  -1   9  147.36   28.98
   6   1  10   21.45   26.36
   6  -1  10   28.30   23.99
  -6  -2  11  124.92   32.14
  -6   2  10   39.51   24.44
  -6  -2  10   39.43   25.15
  -6   2   9  204.50   32.68
  -6  -2   9  337.71   37.42
  -6   2   8  765.88   55.79
   6   2  -8  806.81   50.90
  -6  -2   8  797.42   42.20
  -6  -2   8  817.56   59.20
   6   2  -7  960.48   57.36
  -6   2   7  807.19   48.32
  -6   2   7 1050.71   62.98
  -6  -2   7 1014.31   66.05
  -6  -2   7  957.40   45.62
  -6   2   6   10.15   10.99
   6   2  -6    9.06    5.17
  -6   2   6   37.67   14.23
   6   2  -6    7.99   12.33
   6  -2  -6   20.67   11.63
  -6  -2   6   46.73   13.49
  -6   2   5   -8.11    9.17
   6   2  -5    6.77    9.20
  -6   2   5   -0.34    8.31
  -6  -2   5    7.71    4.54
  -6  -2   5   -1.01    6.99
   6  -2  -5   -0.93   10.17
   6   2  -4 1860.28   94.23
  -6   2   4 1828.10   93.90
   6  -2  -4 1872.90   97.67
  -6   2   3   -6.23    9.60
   6   2  -3   28.23   13.43
   6  -2  -3    6.58    9.66
   6   2  -2  845.23   52.55
  -6   2   2  858.75   44.81
  -6  -2   2  843.58   38.94
   6   2  -1  312.96   21.99
   6   2  -1  244.70   22.43
  -6   2   1  203.27   19.58
   6  -2  -1  277.59   27.40
   6   2   0   18.05   10.11
  -6   2   0   15.25    9.00
   6  -2   0   -2.96   10.94
  -6   2  -1  352.85   26.17
   6   2   1  479.31   21.28
   6   2   1  438.66   31.88
   6  -2   1  460.24   35.18
   6   2   2 3702.18  179.60
   6  -2   2 3619.91  183.68
   6   2   3 1687.65   91.26
   6  -2   3 1785.19   96.05
   6  -2   3 1606.46   62.92
   6   2   4 1614.68   76.00
   6   2   4 1560.92   87.53
   6  -2   4 1498.88   80.24
   6   2   5   71.96   13.60
   6   2   5  100.04   19.02
   6  -2   5   95.15   15.40
   6   2   6 1406.92   83.19
   6   2   6 1436.67   77.46
   6  -2   6 1568.26   92.86
   6   2   7  890.88   57.51
   6   2   7  968.06   64.12
   6  -2   7  995.55   70.13
   6   2   8   -8.06   13.34
   6  -2   8   11.45   19.70
   6   2   9  522.45   43.67
   6  -2   9  508.81   61.05
   6  -2  10  215.96   38.43
  -6   3  11   33.67   32.51
  -6  -3  11  104.16   32.64
  -6   3  10  250.71   43.19
  -6  -3  10  329.29   43.96
  -6   3   9  -13.58   21.36
  -6  -3   9   36.97   26.36
   6   3  -8  234.15   27.21
  -6   3   8  277.15   35.89
  -6  -3   8  254.38   33.62
  -6   3   7    4.28   17.60
   6   3  -7   -2.18   13.68
  -6  -3   7   36.33   15.27
  -6   3   6   94.86   18.20
   6   3  -6   56.66   18.50
  -6   3   6   42.07   15.44
  -6  -3   6   92.60   17.37
   6   3  -5  236.71   25.36
  -6   3   5  276.43   28.43
  -6  -3   5  259.83   26.29
   6   3  -4 4105.23  197.49
  -6   3   4 3930.52  194.79
  -6  -3   4 3927.50  194.65
  -6   3   3  333.68   25.21
   6   3  -3  308.74   25.61
  -6  -3   3  306.15   15.71
   6   3  -2  619.74   43.78
  -6   3   2  617.91   37.07
   6  -3  -2  532.97   41.46
   6   3  -1  649.97   37.20
  -6   3   1  605.95   36.71
  -6  -3   1  648.16   34.00
   6  -3  -1  627.16   42.42
  -6   3   0  252.39   19.61
   6   3   0  238.23   17.75
   6   3   0  217.58   21.47
   6   3   0  254.78   15.54
  -6  -3   0  217.55   16.93
  -6   3  -1  604.81   38.83
   6   3   1  564.75   38.15
   6   3   1  560.74   26.74
   6   3   2 1699.03   92.46
  -6   3  -2 1534.03   78.62
   6   3   3 2485.62  125.78
   6   3   4    1.21    5.85
   6   3   4    4.02   10.75
   6  -3   4   18.40   10.36
   6   3   5   12.72   11.75
   6   3   5   -2.29    6.83
   6  -3   5    0.81   10.56
   6   3   6  885.97   50.08
   6   3   6  892.15   59.90
   6  -3   6  884.37   62.62
   6   3   7  400.09   36.99
   6   3   7  430.43   32.45
   6  -3   7  472.03   42.05
   6   3   8  535.30   45.44
   6   3   8  617.51   44.49
   6  -3   8  617.25   60.15
   6  -3   9  312.97   41.19
   6  -3  10  162.83   35.74
  -6   4  11   42.87   32.88
  -6  -4  11   -3.26   34.57
  -6   4  10    8.52   25.10
  -6  -4  10    1.41   23.25
  -6   4   9    4.31   25.33
  -6  -4   9   89.79   33.46
  -6   4   8  551.09   53.43
   6   4  -8  449.88   40.13
  -6  -4   8  494.41   51.14
  -6   4   7   35.99   26.12
   6   4  -7   95.65   19.08
  -6  -4   7  106.25   27.33
  -6   4   6 1663.34  102.17
   6   4  -6 1389.19   82.00
  -6  -4   6 1602.65   94.64
   6   4  -5  492.61   39.18
  -6   4   5  418.99   37.74
  -6  -4   5  387.62   37.60
   6   4  -4  898.64   58.35
  -6   4   4  909.71   56.30
  -6  -4   4  809.54   50.54
   6   4  -3 1306.17   73.40
  -6   4   3 1111.05   68.26
  -6  -4   3 1051.57   55.47
  -6  -4   3 1225.46   49.83
   6   4  -2  104.06   15.77
  -6   4   2  115.50   16.78
  -6  -4   2   97.80   10.78
   6   4  -1 1318.51   66.20
   6   4  -1 1527.28   84.69
  -6   4   1 1357.25   72.39
  -6  -4   1 1412.88   68.17
  -6   4   0  152.26   18.47
   6   4   0   90.89    9.91
   6   4   0   43.03   14.71
   6   4   0   61.73    9.74
  -6  -4   0   61.40   10.35
  -6   4  -1 1072.89   59.10
   6   4   1  988.74   47.05
   6   4   1 1161.34   66.30
  -6   4  -2 2874.20  141.73
   6   4   2 2954.08  152.77
  -6   4  -3 2008.66  100.64
   6   4   3 1992.34  108.69
   6  -4   3 1997.01   88.65
   6   4   4    8.03    4.93
   6   4   4   -0.43   10.18
  -6   4  -4   -5.03    8.92
   6  -4   4   -2.54    9.43
   6  -4   4    1.06    5.70
   6   4   5  222.90   17.51
   6   4   5  205.69   26.05
   6  -4   5  198.89   23.97
   6   4   6  527.29   31.37
   6   4   6  550.82   42.03
   6  -4   6  486.34   47.52
   6   4   7  493.19   33.71
   6   4   7  549.15   46.26
   6  -4   7  533.08   48.73
   6  -4   8  442.87   48.17
   6  -4   9  860.54   83.46
   6  -4  10  154.97   42.34
  -6   5  11   30.47   34.66
  -6  -5  11   -9.27   35.00
  -6   5  10    5.28   25.34
  -6  -5  10   37.58   27.19
  -6   5   9   78.51   27.88
  -6  -5   9  224.81   36.63
  -6   5   8  407.96   50.38
   6   5  -8  417.05   41.65
  -6  -5   8  418.19   42.89
  -6   5   7  398.31   46.07
   6   5  -7  525.82   43.11
  -6  -5   7  372.18   39.51
   6   5  -6   35.80   19.69
  -6   5   6   35.99   23.58
  -6  -5   6   52.95   22.53
   6   5  -5  775.90   51.66
  -6   5   5  782.01   59.13
  -6  -5   5  886.82   56.40
  -6   5   4  327.95   30.97
   6   5  -4  156.48   20.47
  -6  -5   4  119.25   19.19
  -6   5   3 1885.32  103.73
   6   5  -3 2539.26  129.69
  -6  -5   3 2025.00  103.48
  -6  -5   3 1813.70   75.26
  -6   5   2 1409.31   79.21
   6   5  -2 1488.48   89.21
  -6  -5   2 1528.93   70.00
   6   5  -1  361.10   24.68
   6   5  -1  571.46   40.15
  -6   5   1  315.33   27.42
  -6  -5   1  381.73   25.84
   6   5   0  691.96   38.69
  -6   5   0  790.06   49.71
   6   5   0  877.20   55.09
   6   5   1  548.16   29.05
  -6   5  -1  653.28   39.89
   6   5   1  613.73   46.11
   6   5   2   -5.70   11.99
   6   5   2    0.06    4.38
  -6   5  -2   -3.73    8.19
   6   5   3    7.36   11.74
  -6   5  -3   33.89   10.95
  -6  -5  -3   21.51    5.23
   6  -5   3   -0.06   10.62
   6  -5   3   16.66    8.71
   6   5   4   19.10   11.18
  -6   5  -4   -0.48    8.47
   6   5   4    0.13    3.89
   6  -5   4   -6.69    6.71
   6  -5   4   18.88   13.26
  -6   5  -5  164.53   21.75
   6   5   5  154.30   21.57
   6  -5   5  181.88   24.66
  -6  -5  -5  173.20   12.47
   6   5   6  438.56   35.56
   6   5   6  378.98   23.86
  -6   5  -6  419.44   33.27
   6  -5   6  465.70   40.39
   6   5   7  256.85   31.77
  -6   5  -7  241.92   25.87
   6  -5   7  263.96   36.53
   6  -5   8  236.69   47.03
   6  -5   9  360.33   62.07
   6  -5  10  556.13   65.65
  -6   6  10    5.50   36.16
  -6  -6  10   55.00   37.25
  -6   6   9  212.50   38.49
  -6  -6   9  183.93   44.66
   6   6  -8  -11.15   15.05
  -6   6   8   15.65   19.71
  -6  -6   8    1.50   13.32
   6   6  -7  246.10   28.52
  -6   6   7  319.73   41.36
  -6  -6   7  104.70   33.22
  -6   6   6  112.60   24.31
   6   6  -6   67.93   24.52
  -6  -6   6   94.89   20.48
   6   6  -5  397.93   41.27
  -6   6   5  500.33   42.49
  -6  -6   5  463.98   41.15
  -6   6   4  757.11   53.04
   6   6  -4  837.00   62.14
  -6  -6   4  718.09   52.78
   6   6  -3  594.89   41.69
  -6   6   3  311.05   36.13
  -6  -6   3  422.59   34.84
  -6  -6   3  382.28   20.40
  -6   6   2 1395.59   81.11
   6   6  -2 1464.48   85.41
  -6  -6   2 1290.72   65.13
  -6  -6   2 1412.74   73.81
  -6   6   1 1925.55  103.71
   6   6  -1 2121.87  119.18
  -6  -6   1 1616.92   84.35
   6   6   0  552.40   43.44
   6   6   0  547.77   31.88
  -6   6   0  564.90   40.51
   6   6   1  614.49   45.70
  -6   6  -1  607.00   41.30
   6   6   1  651.56   33.83
   6   6   2 1340.32   80.01
  -6   6  -2 1572.00   85.77
   6   6   3   53.14   20.67
  -6   6  -3   78.37   14.65
  -6  -6  -3   88.90   11.27
   6  -6   3  117.48   19.78
   6  -6   3  105.96   14.96
   6   6   4  210.40   24.34
  -6   6  -4  112.07   22.95
   6  -6   4  198.38   20.79
  -6  -6  -4  168.32   14.97
   6  -6   4  106.22   22.26
   6   6   5 1950.46  116.18
  -6   6  -5 2137.84  115.65
  -6  -6  -5 2078.44   93.39
   6  -6   5 2137.51  122.25
  -6   6  -6   23.40   17.60
   6   6   6   19.18   19.89
   6  -6   6   17.08   18.21
   6   6   7   12.49   19.85
  -6   6  -7   31.27   15.38
   6  -6   7   35.45   28.84
  -6   6  -8   -3.44   17.78
   6  -6   8   -3.58   26.76
  -6   6  -9   -8.45   12.89
   6  -6   9   23.02   20.90
  -6   7  10  101.83   35.47
  -6  -7  10   89.89   48.89
  -6   7   9  110.76   33.02
  -6  -7   9  103.85   41.88
   6   7  -8  544.02   49.98
  -6   7   8  578.60   56.81
  -6  -7   8  480.27   49.00
   6   7  -7    2.51   25.29
  -6   7   7   86.20   24.21
  -6  -7   7   47.18   21.26
   6   7  -6 1832.27  114.46
  -6   7   6 1882.37  119.85
  -6  -7   6 1909.80  119.86
   6   7  -5  564.70   51.40
  -6   7   5  512.24   48.58
  -6  -7   5  541.40   45.14
  -6   7   4    2.96   18.14
   6   7  -4   48.55   17.37
  -6  -7   4   25.87   18.06
   6   7  -3  618.61   48.69
  -6   7   3  529.70   44.93
  -6  -7   3  634.07   41.08
   6   7  -2  542.22   49.97
  -6   7   2  639.64   47.62
  -6  -7   2  580.08   35.52
  -6  -7   2  678.51   39.45
  -6   7   1  371.79   35.90
   6   7  -1  503.50   41.54
   6   7   0 1819.15   88.06
   6   7   0 1977.69  112.38
  -6   7   0 1956.53  112.77
   6   7   1 2040.72  115.57
  -6   7  -1 1737.09  102.36
   6   7   1 2002.43  100.31
   6   7   1 1886.56   83.66
   6   7   2  198.90   22.73
   6   7   2  196.12   25.53
  -6   7  -2  183.78   26.35
  -6  -7  -2  190.32   17.51
  -6   7  -3 1075.49   62.83
   6   7   3  863.94   59.47
   6   7   3  932.46   61.72
  -6  -7  -3  991.47   51.67
   6  -7   3  756.74   53.50
   6  -7   3  950.20   54.13
  -6   7  -4  369.00   31.64
   6   7   4  274.80   29.56
   6   7   4  447.24   40.71
   6  -7   4  362.03   29.48
  -6  -7  -4  286.59   23.84
   6  -7   4  297.62   38.97
   6   7   5  646.86   50.32
  -6   7  -5  599.87   44.14
   6   7   5  670.06   55.48
   6  -7   5  633.83   44.50
   6  -7   5  615.15   57.77
   6   7   6   36.56   18.84
  -6   7  -6   -7.28   16.17
   6  -7   6   -5.33   17.33
   6   7   7    1.81   18.30
  -6   7  -7   28.76   19.54
   6  -7   7   27.96   28.84
  -6   7  -8  -10.66   17.76
   6  -7   8   13.76   22.07
  -6   7  -9  130.87   31.11
   6  -7   9  111.60   36.90
  -6   8   9   46.87   29.52
  -6  -8   9   -0.99   27.41
   6   8  -8   11.45   19.39
  -6   8   8   10.43   34.19
  -6  -8   8   30.96   29.32
  -6   8   7   49.70   24.45
   6   8  -7   16.79   19.84
  -6  -8   7   11.35   25.52
   6   8  -6  148.31   28.71
  -6   8   6  165.41   31.06
  -6  -8   6  194.53   28.02
   6   8  -5  -11.63   20.14
  -6   8   5   -7.94   18.09
  -6  -8   5   -1.88   14.47
   6   8  -4   84.88   21.48
  -6   8   4   58.25   22.16
  -6  -8   4   35.93   16.92
  -6   8   3  279.10   33.61
   6   8  -3  285.11   32.72
  -6  -8   3  260.61   24.29
  -6   8   2   94.35   25.50
   6   8  -2   42.46   23.18
  -6  -8   2   60.54   17.09
  -6  -8   2   92.81   15.26
  -6   8   1   -7.02   17.30
   6   8  -1   18.93   19.00
   6   8   0  258.92   20.32
   6   8   0  312.31   38.62
   6   8   0  331.25   24.31
  -6   8   0  332.25   32.49
  -6   8  -1   59.93   19.35
   6   8   1  138.08   22.67
   6   8   1   91.73    9.39
   6   8   1  147.60   20.27
  -6   8  -2 1093.62   67.75
   6   8   2  933.95   70.16
   6   8   2 1021.36   66.57
  -6  -8  -2 1005.10   59.63
   6  -8   2 1279.57   73.39
  -6   8  -3  267.97   28.69
   6   8   3  243.06   35.36
   6   8   3  293.77   33.30
   6  -8   3  238.06   28.87
   6  -8   3  286.97   27.37
  -6  -8  -3  242.33   23.36
   6   8   4  248.61   36.67
  -6   8  -4  302.29   34.14
   6   8   4  235.58   29.54
   6  -8   4  213.97   23.57
  -6  -8  -4  274.88   23.63
   6  -8   4  284.78   33.56
   6   8   5   69.32   21.54
   6   8   5   86.30   24.87
  -6   8  -5  102.08   22.23
   6  -8   5   54.32   14.94
   6  -8   5   37.18   20.34
  -6  -8  -5   55.46   13.38
   6   8   6    6.98   23.66
  -6   8  -6    2.84   13.21
   6   8   6    5.93   19.93
   6  -8   6    8.30   18.17
  -6   8  -7   86.35   25.27
   6   8   7   42.56   25.80
   6  -8   7  106.40   30.19
  -6   8  -8  131.78   25.31
   6  -8   8  136.34   36.88
   6  -8   9    2.45   26.51
  -6   9   9  237.74   46.52
  -6  -9   9  184.97   43.37
  -6   9   8  170.85   44.72
   6   9  -8    9.56   38.03
  -6  -9   8   60.75   36.64
   6   9  -7   48.73   31.22
  -6   9   7  103.28   38.57
  -6  -9   7   25.84   31.42
   6   9  -6   11.46   20.64
  -6   9   6   32.43   31.35
  -6  -9   6   23.50   23.37
   6   9  -5 1493.07  102.52
  -6   9   5 1509.20  106.30
  -6  -9   5 1525.17   94.98
   6   9  -4  127.30   25.88
  -6   9   4  213.90   33.20
  -6  -9   4  102.52   25.58
   6   9  -3   79.71   23.47
  -6   9   3  138.26   27.14
  -6  -9   3   99.98   21.83
   6   9  -2  349.36   46.36
  -6   9   2  386.03   48.54
  -6  -9   2  416.60   32.96
  -6   9   1  100.59   21.25
   6   9  -1   15.34   21.48
   6   9  -1   46.54   13.23
  -6   9   0  874.86   61.12
   6   9   0  666.39   55.24
   6   9   0  750.61   48.59
  -6   9  -1 2391.31  136.09
   6   9   1 2679.67  141.84
   6   9   1 2457.56  144.31
  -6  -9  -1 2313.86  121.22
   6   9   2  294.66   40.73
   6   9   2  285.45   30.91
  -6   9  -2  235.88   29.85
  -6  -9  -2  344.45   33.02
   6  -9   2  278.60   37.04
  -6   9  -3  195.66   25.12
   6   9   3  200.89   29.19
   6   9   3  187.50   31.69
  -6  -9  -3  176.23   18.50
   6  -9   3  103.44   18.76
   6  -9   3  201.68   27.78
  -6   9  -4  796.81   63.51
   6   9   4  792.04   60.50
   6   9   4  985.34   74.37
   6  -9   4  940.96   61.03
   6  -9   4  890.32   65.07
  -6  -9  -4  824.25   54.22
  -6   9  -5    0.39   14.23
   6   9   5  -10.28   17.93
   6   9   5    2.90   16.03
   6  -9   5  -22.07   16.33
  -6  -9  -5   -1.40   12.35
   6  -9   5  -16.29   18.74
  -6   9  -6   40.36   21.57
   6   9   6   49.97   25.64
   6   9   6   -1.83   22.17
   6  -9   6    2.28   25.01
  -6   9  -7  286.60   37.17
   6   9   7  317.68   43.29
   6  -9   7  313.66   44.12
  -6   9  -8   99.56   29.66
   6  -9   8   77.13   48.48
   6  10  -8   29.45   34.35
  -6  10   8   42.97   43.79
  -6 -10   8   15.49   28.66
   6  10  -7   14.82   23.46
  -6  10   7   -4.73   41.24
  -6 -10   7   16.65   28.92
  -6  10   6   13.17   27.89
   6  10  -6   -2.80   23.69
  -6 -10   6   59.17   29.06
   6  10  -5   21.91   28.77
  -6  10   5   23.05   32.98
  -6 -10   5   28.79   25.41
   6  10  -4  104.98   25.21
  -6  10   4  103.11   30.17
  -6 -10   4   75.89   20.40
  -6  10   3  294.24   43.24
   6  10  -3  422.22   42.70
  -6 -10   3  335.73   37.78
  -6  10   2  153.35   35.23
   6  10  -2  105.42   35.58
  -6 -10   2  110.16   19.02
   6  10  -1  368.62   31.23
   6  10  -1  247.00   36.64
  -6  10   1  386.14   47.91
  -6  10   0 1089.50   78.68
   6  10   0 1103.07   69.57
  -6  10  -1  173.80   36.66
   6  10   1  153.82   23.98
   6  10   1  212.89   30.61
  -6 -10  -1  202.07   28.05
   6 -10   1  186.60   30.40
   6  10   2   -5.27   17.97
   6  10   2   39.03   22.96
  -6  10  -2   -3.87   15.48
  -6 -10  -2    0.61   13.97
   6 -10   2    4.36   14.43
  -6  10  -3  644.86   52.10
   6  10   3  624.39   61.49
   6  10   3  483.18   53.06
  -6 -10  -3  645.58   47.79
   6 -10   3  568.70   54.30
   6 -10   3  580.72   46.71
  -6  10  -4  152.50   27.19
   6  10   4  158.37   31.37
   6  10   4  145.46   28.92
  -6 -10  -4  152.03   24.38
   6 -10   4  217.26   38.05
   6 -10   4  137.73   25.19
  -6  10  -5   37.35   23.32
   6  10   5   84.69   25.32
   6  10   5   45.20   28.38
   6 -10   5   36.34   21.96
   6 -10   5   14.76   30.00
  -6 -10  -5   17.11   16.81
   6  10   6  233.22   38.94
   6  10   6  276.08   39.53
  -6  10  -6  268.42   41.02
   6 -10   6  275.16   41.86
  -6  10  -7  100.24   30.74
   6  10   7  133.55   47.84
   6 -10   7  156.19   47.12
  -6  11   7  117.94   50.69
   6  11  -7   55.77   41.52
  -6 -11   7   98.16   40.41
  -6  11   6   26.81   29.04
   6  11  -6   24.35   33.90
  -6 -11   6    6.46   27.92
  -6  11   5  125.80   35.39
   6  11  -5   44.99   34.20
  -6 -11   5   83.48   31.72
  -6  11   4  215.72   39.27
   6  11  -4  177.28   35.37
  -6 -11   4  269.91   37.32
   6  11  -3  145.44   30.44
  -6  11   3  102.29   33.39
  -6 -11   3  118.53   26.81
   6  11  -2  121.03   39.03
  -6  11   2  202.71   32.83
  -6 -11   2  199.21   26.08
   6  11  -1   -1.85   19.78
  -6  11   1    6.97   19.63
   6  11  -1    3.62   14.02
   6  11   0  112.08   23.27
  -6  11   0   99.34   26.27
   6  11   0   81.82   33.27
   6 -11   0   94.21   20.74
   6  11   1  314.45   42.02
   6  11   1  281.73   35.09
  -6  11  -1  278.09   45.58
  -6 -11  -1  292.83   31.79
   6 -11   1  381.63   36.12
  -6  11  -2    9.65   24.66
   6  11   2  -22.95   16.54
   6  11   2   26.11   21.98
   6 -11   2   21.66   15.51
  -6 -11  -2    3.84   15.61
   6 -11   2   28.24   17.22
  -6  11  -3   35.42   27.59
   6  11   3   19.54   19.94
   6  11   3   52.40   29.96
  -6 -11  -3   29.90   16.45
   6 -11   3   -8.97   28.09
   6 -11   3   32.79   15.93
   6  11   4  126.90   36.87
  -6  11  -4  139.68   25.86
   6  11   4  117.17   40.18
   6 -11   4   93.16   30.19
  -6 -11  -4  125.50   24.61
   6 -11   4  111.18   26.70
  -6  11  -5   23.30   27.32
   6  11   5    2.23   29.98
   6  11   5   76.66   26.92
   6 -11   5   31.34   25.12
   6 -11   5    2.83   25.02
   6  11   6  149.52   34.26
  -6  11  -6   64.86   31.98
   6  11   6   95.72   36.27
   6 -11   6   20.77   32.29
   6  12  -6    4.31   19.75
  -6  12   6    3.27   25.46
  -6 -12   6   -6.70   20.35
  -6  12   5  -16.66   31.49
   6  12  -5    0.56   22.26
  -6 -12   5   10.24   23.84
  -6  12   4   40.67   43.06
   6  12  -4   67.61   32.15
  -6 -12   4  110.16   30.64
   6  12  -3  205.65   45.60
  -6  12   3  157.25   46.04
   6  12  -2  439.68   56.26
  -6  12   2  439.83   54.53
   6  12  -1   81.77   34.40
  -6  12   1   -5.54   24.38
   6 -12  -1   25.22   20.23
  -6  12   0  336.53   44.15
   6  12   0  298.31   45.26
   6  12   0  336.10   39.25
   6 -12   0  283.99   41.83
  -6  12  -1   54.51   34.40
   6  12   1   62.16   24.61
   6  12   1   41.86   29.20
   6 -12   1   58.63   27.32
  -6 -12  -1   52.66   19.94
   6  12   2   -8.52   20.10
   6  12   2    4.41   29.58
  -6  12  -2   15.04   20.35
   6 -12   2  -18.67   22.30
  -6 -12  -2   16.03   16.29
   6 -12   2   10.13   15.23
   6  12   3  106.21   36.37
   6  12   3  124.38   33.38
  -6  12  -3  108.21   36.53
   6 -12   3  127.97   23.42
  -6 -12  -3  108.51   21.52
   6 -12   3  103.96   38.22
  -6  12  -4  416.26   53.66
   6  12   4  330.21   48.18
   6  12   4  326.24   55.60
   6 -12   4  382.91   54.18
   6 -12   4  264.10   37.58
  -6 -12  -4  330.80   39.78
  -6  12  -5   64.74   46.02
   6  12   5  106.34   42.93
   6  12   5   97.39   39.01
   6 -12   5   59.79   35.29
   6 -12   5  118.71   32.85
   6  13  -5   45.20   34.99
  -6  13   5   71.27   46.94
  -6 -13   5   26.44   32.38
  -6  13   4   18.66   29.69
   6  13  -4   -6.83   27.05
  -6  13   3  550.75   79.85
   6  13  -3  429.39   73.73
  -6  13   2  -30.67   29.61
   6  13  -2    0.89   21.32
   6 -13  -2    7.36   15.88
   6  13  -1   21.48   41.51
  -6  13   1   20.27   36.53
   6 -13  -1   61.22   21.18
  -6  13   0  -16.93   19.48
   6  13   0    5.84   20.85
   6 -13   0    5.55   13.79
   6  13   1  144.01   35.96
   6  13   1   62.63   29.36
  -6  13  -1  141.66   34.14
   6 -13   1  181.86   28.17
   6 -13   1   86.86   32.13
  -6 -13  -1   49.81   16.79
   6  13   2   35.69   27.04
  -6  13  -2   -7.31   24.87
   6  13   2  -10.07   27.76
  -6 -13  -2    1.70   24.04
   6 -13   2   27.40   28.01
   6 -13   2   24.55   19.02
  -6  13  -3   19.34   25.40
   6  13   3    5.69   37.09
   6  13   3   37.89   30.65
   6 -13   3   34.70   25.86
  -6 -13  -3   27.61   19.75
   6 -13   3    8.52   29.33
   6  13   4  206.89   51.95
   6  13   4  126.65   35.95
  -6  13  -4  162.54   45.29
   6 -13   4  223.27   39.71
  -6 -13  -4  170.23   29.80
   6 -13   4  143.26   37.74
   6  14  -3    6.85   39.21
  -6  14   3   12.82   41.04
  -6  14   2   32.56   32.87
   6  14  -2   19.58   34.57
  -6  14   1  356.76   63.72
   6  14  -1  234.05   48.93
   6 -14  -1  203.16   40.71
  -6  14   0   52.34   46.75
   6  14   0   71.38   53.15
   6 -14   0  126.36   36.16
  -6  14  -1  766.88   78.46
   6  14   1  612.73   86.04
   6 -14   1  812.05   76.11
   6 -14   1  753.08   74.60
  -6  14  -2  102.06   35.41
   6  14   2   83.22   37.28
   6  14   2   65.19   53.37
   6 -14   2  124.41   41.66
  -6 -14  -2  159.03   38.42
   6 -14   2   92.58   37.68
  -7   0   9   -4.94   13.16
  -7   0   8  405.86   33.49
   7   0  -8  370.49   32.50
  -7   0   7   12.36   12.08
   7   0  -7   15.94   13.69
  -7   0   6  136.72   19.07
   7   0  -6  125.23   20.29
  -7   0   5    4.21    8.41
   7   0  -5    1.57   11.68
   7   0  -4   33.70    8.16
  -7   0   4   33.33   11.00
   7   0  -4   41.63   12.28
  -7   0   3   -0.44    7.28
   7   0  -3   10.20    9.45
  -7   0   221116.20 1005.49
   7   0  -220063.15 1006.60
   7   0  -1   -0.73    7.92
  -7   0   1    0.40    5.53
   7   0   0  426.63   33.81
   7   0   1  -14.16   15.63
   7   0   2  871.95   55.79
   7   0   3   -7.64   14.38
   7   0   411101.79  520.09
   7   0   410732.51  539.96
   7   0   5   -7.76   15.35
   7   0   5    7.43    8.81
   7   0   6   -3.34   13.23
   7   0   6   -3.72   12.57
   7   0   7   11.81   18.31
   7   0   8  795.66   58.86
   7   0   9    6.48   22.23
   7   0  10  198.04   43.08
  -7   1   9  187.69   27.43
   7   1  -8   81.54   18.60
  -7   1   8  110.85   20.44
  -7  -1   8   83.13   15.44
   7   1  -7  102.26   18.97
  -7   1   7  134.38   20.67
   7  -1  -7   97.17   19.62
  -7  -1   7  124.77   16.60
   7   1  -6  770.30   41.19
   7   1  -6  879.01   54.08
   7  -1  -6  833.64   53.27
  -7  -1   6  872.57   46.89
   7   1  -5  892.20   52.16
  -7   1   5  826.84   50.02
   7  -1  -5  815.18   54.13
  -7   1   4  149.47   17.31
   7   1  -4  103.90   16.72
   7  -1  -4  122.61   21.75
  -7  -1   4  131.84   13.74
  -7   1   3 4244.68  200.94
   7   1  -3 4812.07  232.28
   7  -1  -3 4874.74  236.05
  -7  -1   3 4825.75  211.96
   7   1  -2   72.68   14.84
  -7   1   2   76.14   10.82
  -7  -1   2   64.76   10.67
   7   1  -1   63.33   14.25
  -7   1   1   61.45   12.04
   7  -1  -1   68.09   18.83
  -7  -1   1   44.20   10.32
   7   1   0 6667.08  328.64
  -7   1   0 6558.07  298.28
   7  -1   0 6106.80  312.97
   7   1   1  639.11   47.61
   7  -1   1  673.35   46.34
   7   1   2 1186.47   70.01
   7  -1   2 1168.34   71.15
   7   1   3  612.68   47.67
   7  -1   3  730.00   49.65
   7   1   4  364.90   32.92
   7   1   4  444.76   33.72
   7  -1   4  466.61   32.09
   7  -1   4  488.65   42.76
   7   1   5  470.52   40.64
   7   1   5  432.18   31.80
   7  -1   5  367.89   40.89
   7  -1   5  419.41   34.53
   7   1   6   44.75   18.17
   7   1   6   32.70   20.95
   7  -1   6   52.40   14.39
   7   1   7  216.95   31.02
   7   1   7  158.80   26.53
   7  -1   7  203.39   27.13
   7   1   8   -2.66   19.04
   7  -1   8   26.32   16.84
   7   1   9  731.02   57.02
   7  -1   9  690.56   60.73
   7   1  10  266.60   45.52
   7  -1  10  272.19   39.28
  -7   2  10   14.12   22.71
  -7   2   9   12.15   20.34
  -7   2   8  309.37   34.41
   7   2  -8  242.98   27.13
   7   2  -7  102.70   20.39
  -7   2   7   91.25   21.07
   7   2  -6  377.64   33.15
  -7   2   6  448.43   33.10
  -7  -2   6  344.82   23.45
   7  -2  -6  329.99   31.76
  -7   2   5 2373.57  119.58
   7   2  -5 2185.67  115.45
  -7  -2   5 2161.69   96.68
   7  -2  -5 2301.36  122.62
  -7   2   4  125.59   18.67
   7   2  -4  173.83   22.70
  -7  -2   4  138.67   11.83
   7  -2  -4  182.76   24.01
   7   2  -3  776.17   48.35
  -7   2   3  787.62   46.40
  -7  -2   3  676.11   34.42
   7  -2  -3  792.70   54.08
  -7   2   2  272.87   21.70
   7   2  -2  268.51   28.19
   7  -2  -2  273.36   25.14
  -7  -2   2  214.13   16.37
  -7   2   1  865.69   47.11
   7   2  -1  791.34   52.59
   7  -2  -1  850.87   53.76
  -7   2   0   60.23   10.85
   7   2   0  125.00   18.07
   7  -2   0   79.26   17.31
  -7   2  -1 5786.77  274.07
   7   2   1 5961.43  250.68
   7   2   1 5917.67  297.02
   7  -2   1 5789.27  297.43
   7   2   2   42.93   18.48
   7  -2   2   50.57   16.60
   7   2   3  113.03   16.16
   7  -2   3   35.90   21.22
   7   2   4   34.34   10.77
   7   2   4   21.33   15.73
   7  -2   4   16.10   10.66
   7   2   5 1330.83   69.54
   7   2   5 1186.79   78.04
   7  -2   5 1411.77   78.82
   7   2   6  333.96   31.00
   7   2   6  234.81   26.61
   7  -2   6  238.32   31.77
   7   2   7  155.51   24.16
   7   2   7  135.45   29.15
   7  -2   7  195.36   25.75
   7   2   8   11.15   15.48
   7  -2   8   -2.49   18.15
   7   2   9  314.31   40.30
   7  -2   9  376.60   51.51
   7  -2  10   35.35   33.29
  -7  -3  11  196.76   39.44
  -7   3  10    1.77   23.24
  -7  -3  10   18.07   28.96
  -7   3   9  288.27   41.44
  -7  -3   9  284.75   41.45
   7   3  -8  165.92   26.89
  -7   3   8  158.30   30.45
  -7  -3   8  143.86   27.08
   7   3  -7  -16.66   10.31
  -7   3   7   11.33   12.77
  -7  -3   7   38.75   16.28
  -7   3   6  374.35   38.52
   7   3  -6  409.19   39.34
  -7   3   5  606.86   44.55
   7   3  -5  470.75   40.91
  -7   3   4   17.88   13.19
   7   3  -4   17.71   14.29
   7  -3  -4   -1.44   11.38
  -7   3   3  513.83   36.41
   7   3  -3  556.95   41.91
  -7  -3   3  634.00   31.11
   7  -3  -3  572.14   45.60
   7   3  -2 2116.73  116.44
  -7   3   2 2259.03  114.23
   7  -3  -2 2280.50  122.23
  -7   3   1 1209.41   66.19
   7   3  -1 1355.94   83.34
   7  -3  -1 1135.21   75.59
  -7   3   0  324.18   24.94
   7   3   0  326.54   23.76
   7   3   0  235.90   31.24
   7  -3   0  306.85   30.92
  -7   3  -1  443.58   33.18
   7   3   1  499.68   37.68
   7  -3   1  310.98   30.86
  -7   3  -2   46.09   11.52
   7   3   2   60.45   13.92
   7   3   3  103.30   17.62
   7  -3   3   97.93    9.84
   7   3   4   71.53   11.03
   7   3   4   93.91   14.27
   7  -3   4   36.34    6.62
   7  -3   4   44.80   12.78
   7   3   5  143.00   16.95
   7   3   5  186.58   23.01
   7  -3   5  136.06   25.30
   7   3   6  195.77   32.06
   7  -3   6  256.93   29.63
   7   3   7 1210.33   81.02
   7   3   7 1223.29   71.16
   7  -3   7 1190.03   85.92
   7   3   8   26.10   18.44
   7   3   8   17.63   20.60
   7  -3   8   20.91   30.70
   7  -3   9  -15.36   29.72
   7  -3  10    2.16   22.22
  -7   4  11    9.15   26.27
  -7  -4  11   22.63   36.03
  -7   4  10   64.30   38.34
  -7  -4  10  122.39   31.33
  -7   4   9  693.08   58.03
  -7  -4   9  764.40   63.91
  -7   4   8  278.21   38.48
  -7  -4   8  266.98   41.16
  -7   4   7   77.45   26.20
   7   4  -7  137.02   23.35
  -7  -4   7   75.55   26.55
  -7   4   6  916.95   69.74
   7   4  -6 1038.90   65.99
  -7  -4   6 1147.59   78.10
  -7   4   5  255.37   33.41
   7   4  -5  463.97   40.03
  -7  -4   5  267.79   28.96
  -7   4   4  285.30   30.27
   7   4  -4  297.63   28.39
  -7  -4   4  216.61   12.65
  -7   4   3  620.99   41.62
   7   4  -3  579.07   44.03
  -7  -4   3  543.47   27.35
  -7  -4   3  494.97   27.65
   7   4  -2 2497.77  139.61
  -7   4   2 2647.31  136.98
  -7  -4   2 2529.68  119.34
  -7   4   1   -5.69    9.69
  -7  -4   1   -8.20    8.45
   7   4   0  323.78   22.36
   7   4   0  335.40   30.38
  -7   4   0  314.33   25.54
   7   4   1   99.50   17.70
   7   4   1   99.54   12.60
  -7   4  -1  127.88   16.63
   7   4   1   98.74   11.66
   7   4   2   21.45   13.15
  -7   4  -2   16.37    9.56
  -7   4  -3  374.58   31.23
   7   4   3  475.21   36.67
   7   4   4  252.37   31.31
  -7   4  -4  248.57   25.70
   7   4   4  291.35   19.16
   7  -4   4  243.02   17.00
   7  -4   4  235.73   25.86
   7   4   5   64.73   11.53
   7   4   5   62.38   21.33
   7  -4   5  110.35   25.83
   7   4   6   29.65   19.65
   7   4   6   13.17   10.54
   7  -4   6   13.40   16.35
   7   4   7   96.67   16.94
   7   4   7  111.60   26.40
   7  -4   7   75.10   22.83
   7  -4   8  248.58   45.81
   7  -4   9  349.07   47.94
   7  -4  10  146.40   40.21
  -7   5  10  118.34   41.06
  -7  -5  10  110.19   44.37
  -7   5   9  149.52   36.86
  -7  -5   9  117.51   39.91
   7   5  -8  385.33   42.88
  -7   5   8  369.28   43.19
  -7  -5   8  293.09   40.51
   7   5  -7  316.16   37.54
  -7   5   7  372.53   45.86
  -7  -5   7  352.57   44.03
  -7   5   6  201.75   32.17
   7   5  -6  240.27   27.50
  -7  -5   6  161.37   26.25
  -7   5   5  113.61   22.35
   7   5  -5  117.60   22.80
  -7  -5   5  163.43   27.48
   7   5  -4  298.24   34.24
  -7   5   4  344.74   37.04
  -7  -5   4  253.90   25.64
   7   5  -3   -5.17    8.87
  -7  -5   3    1.48    4.78
   7   5  -2    7.48   12.17
  -7   5   2   -8.74   10.14
  -7  -5   2    5.44    7.24
  -7   5   1  425.54   33.14
   7   5  -1  373.07   39.14
   7   5   0  516.86   41.41
  -7   5   0  601.02   40.38
   7   5   0  537.16   33.48
   7   5   1   18.60    9.51
  -7   5  -1   27.79   11.46
   7   5   1   30.38   14.46
   7   5   2  258.22   18.42
  -7   5  -2  375.32   33.34
   7   5   2  326.81   30.85
  -7   5  -3    9.63   10.32
   7   5   3    3.74   17.57
   7   5   4 1122.22   75.51
  -7   5  -4 1091.01   67.87
   7   5   4 1072.47   49.01
   7  -5   4 1023.85   71.83
   7  -5   4 1070.75   55.67
  -7   5  -5    2.03   10.94
   7   5   5    7.80   15.12
   7   5   5   -3.11    6.04
   7  -5   5   12.92   11.75
  -7   5  -6  116.35   19.74
   7   5   6  107.21   26.71
   7  -5   6  141.33   25.89
   7   5   7  210.74   32.24
  -7   5  -7  179.38   23.25
   7  -5   7  175.96   38.19
  -7   5  -8    5.94   19.06
   7  -5   8  -14.43   22.15
  -7   5  -9  225.43   30.72
   7  -5   9  179.70   42.64
  -7   6  10   23.31   26.41
  -7  -6  10   19.99   27.94
  -7   6   9   25.02   31.94
  -7  -6   9   15.54   24.88
  -7   6   8  165.17   40.34
   7   6  -8  115.20   26.08
  -7  -6   8  211.15   33.78
   7   6  -7  106.59   28.86
  -7   6   7  100.57   25.91
  -7  -6   7  142.18   32.70
   7   6  -6  318.34   40.00
  -7   6   6  371.93   39.20
  -7  -6   6  335.70   37.86
   7   6  -5  306.51   41.92
  -7   6   5  375.69   38.56
  -7  -6   5  458.87   37.47
   7   6  -4   19.99   16.33
  -7   6   4   29.15   14.87
  -7  -6   4  -22.42   17.18
   7   6  -3  372.59   38.05
  -7   6   3  523.72   41.12
  -7  -6   3  466.61   26.63
   7   6  -2   18.13   15.40
  -7   6   2   37.82   14.57
  -7   6   1   64.16   18.41
   7   6  -1   82.42   18.98
   7   6   0  141.78   27.82
   7   6   0  127.49   16.76
  -7   6   0  173.94   22.19
  -7   6  -1   13.39   13.55
   7   6   1    8.27    7.60
   7   6   1   50.19   15.45
   7   6   2  294.48   29.93
   7   6   2  219.11   17.24
  -7   6  -2  281.02   28.42
  -7   6  -3  183.82   23.15
   7   6   3  284.73   34.56
   7  -6   3  235.74   26.42
   7  -6   3  217.22   20.76
  -7   6  -4  722.42   48.71
   7   6   4  714.00   58.87
   7  -6   4  644.95   56.24
   7  -6   4  622.16   39.08
   7   6   5    7.19   22.41
  -7   6  -5   21.02   14.27
   7  -6   5   23.02   22.82
   7  -6   5   43.01   10.82
   7   6   6  210.90   34.04
  -7   6  -6  212.45   26.81
   7   6   7  541.28   49.29
  -7   6  -7  465.49   40.64
   7  -6   7  469.41   52.84
  -7   6  -8  400.95   39.42
   7  -6   8  417.04   55.04
  -7   6  -9  145.86   34.95
   7  -6   9  109.50   38.93
  -7   7  10  142.25   39.14
  -7  -7  10   28.25   37.08
  -7   7   9   70.71   39.52
  -7  -7   9   79.51   37.36
   7   7  -8   66.48   23.90
  -7   7   8   47.17   37.32
  -7  -7   8   38.26   25.40
  -7   7   7   52.32   28.06
   7   7  -7   37.97   22.40
  -7  -7   7   83.98   22.60
   7   7  -6  264.19   32.52
  -7   7   6  173.42   32.68
  -7  -7   6  166.72   26.89
   7   7  -5   92.49   27.28
  -7   7   5   18.12   23.36
  -7  -7   5   57.02   19.84
  -7   7   4 1175.67   82.73
   7   7  -4 1426.75   89.48
  -7  -7   4 1167.78   70.62
   7   7  -3  346.96   36.26
  -7   7   3  391.68   38.04
  -7  -7   3  303.29   26.78
   7   7  -2   10.09   13.27
  -7   7   2    6.87   10.63
  -7  -7   2   -6.85    7.74
   7   7  -1  289.21   32.41
  -7   7   1  264.19   29.88
   7   7   0  633.71   41.91
   7   7   0  607.36   50.30
  -7   7   0  716.26   50.80
  -7   7  -1  180.67   23.79
   7   7   1  202.61   32.23
   7   7   1  132.54   14.40
   7   7   2  326.92   35.67
  -7   7  -2  395.24   36.53
  -7   7  -3 1462.88   85.26
   7   7   3 1305.61   83.94
   7  -7   3 1180.49   78.98
   7  -7   3 1415.92   76.10
   7   7   4   25.97   23.96
  -7   7  -4   35.19   15.87
  -7  -7  -4   52.21    8.55
   7  -7   4   50.02   17.31
   7  -7   4   44.03   14.64
  -7   7  -5    3.06   18.81
   7   7   5    9.78   21.54
   7  -7   5    0.46   14.32
   7  -7   5   26.64   18.86
   7   7   6  227.79   37.85
  -7   7  -6  220.83   27.28
   7  -7   6  190.09   34.85
  -7   7  -7  389.10   37.96
   7   7   7  381.83   46.48
   7  -7   7  366.72   56.70
  -7   7  -8  202.27   34.98
   7  -7   8  252.14   42.35
  -7   7  -9   15.17   25.27
   7  -7   9    1.02   29.94
  -7   8   9   11.81   37.80
  -7  -8   9   19.53   26.63
  -7   8   8  135.22   34.30
   7   8  -8   59.73   35.94
  -7  -8   8   59.41   34.50
   7   8  -7   -2.85   18.39
  -7   8   7  -18.66   28.97
  -7  -8   7    2.24   22.74
   7   8  -6  230.01   42.36
  -7   8   6  251.90   45.71
  -7  -8   6  248.98   38.66
   7   8  -5   47.97   20.03
  -7   8   5   -5.99   31.16
  -7  -8   5   68.51   24.64
  -7   8   4   62.48   24.49
   7   8  -4   75.05   27.25
  -7  -8   4   88.21   17.46
   7   8  -3  228.91   39.01
  -7  -8   3  234.55   29.03
  -7   8   2  414.97   40.88
   7   8  -2  458.17   45.18
   7   8  -1 1138.50   82.16
  -7   8   1 1139.30   75.86
  -7   8   0 2030.26  130.37
   7   8   0 2252.58  134.56
  -7   8  -1   11.34   16.52
   7   8   1   14.37   22.66
   7   8   2 1281.76   86.95
  -7   8  -2 1518.63   90.09
  -7   8  -3  334.14   32.29
   7   8   3  265.22   40.64
   7  -8   3  280.80   33.67
   7  -8   3  254.91   23.92
   7   8   4  397.99   46.11
  -7   8  -4  473.41   45.10
  -7  -8  -4  428.40   31.44
   7  -8   4  508.05   37.50
   7  -8   4  449.53   47.37
   7   8   5 1056.88   79.16
  -7   8  -5  882.96   64.23
   7  -8   5 1076.15   68.81
   7  -8   5 1124.28   79.67
  -7   8  -6  504.96   44.41
   7   8   6  411.33   50.16
   7  -8   6  541.99   64.61
   7   8   7  219.14   38.15
  -7   8  -7  169.91   36.26
   7   8   7  156.32   30.75
   7  -8   7  223.63   40.86
  -7   8  -8   39.76   27.34
   7  -8   8   27.72   32.04
  -7  -9   9    8.70   26.31
   7   9  -8   24.21   33.92
  -7   9   8   24.08   29.07
  -7  -9   8   30.67   33.01
  -7   9   7  201.73   42.22
   7   9  -7  156.81   33.83
  -7  -9   7  257.12   37.30
   7   9  -6   11.98   28.05
  -7   9   6   37.38   25.17
  -7  -9   6   -3.50   19.30
  -7   9   5   65.88   29.90
   7   9  -5   90.30   31.43
  -7  -9   5   13.76   24.71
  -7   9   4  132.13   41.25
   7   9  -4  128.94   27.64
  -7  -9   4   84.50   24.42
   7   9  -3   26.16   20.06
  -7   9   3   -6.60   20.48
  -7  -9   3    7.57   14.34
   7   9  -2  173.29   28.58
  -7   9   2  148.42   36.22
   7   9  -1  470.02   47.06
  -7   9   1  518.10   47.76
   7   9   0  171.27   35.50
  -7   9   0  197.80   35.32
  -7   9  -1  924.47   64.67
   7   9   1  727.47   67.28
  -7   9  -2  134.29   24.62
   7   9   2  206.97   37.15
   7  -9   2  160.59   25.04
   7   9   3  135.55   22.38
   7   9   3  207.72   30.64
  -7   9  -3  133.87   23.36
   7  -9   3  154.54   25.06
   7  -9   3  156.06   31.55
  -7   9  -4  298.97   34.20
   7   9   4  277.04   36.93
  -7  -9  -4  261.41   28.42
   7  -9   4  327.58   38.19
   7  -9   4  271.02   32.05
  -7   9  -5  153.70   30.17
   7   9   5  121.26   26.70
   7  -9   5  160.87   31.42
   7  -9   5  132.84   24.26
  -7   9  -6  495.00   53.57
   7   9   6  557.18   58.66
   7  -9   6  380.40   49.82
  -7   9  -7   22.37   24.01
   7  -9   7    2.99   26.30
  -7  10   8   56.96   33.62
   7  10  -8   12.15   38.24
  -7 -10   8   25.45   28.63
  -7  10   7  212.96   43.30
   7  10  -7  184.82   47.45
  -7 -10   7  169.88   41.55
   7  10  -6   -1.77   19.50
  -7  10   6   20.17   24.33
  -7 -10   6  -13.26   23.25
   7  10  -5   -9.38   20.30
  -7  10   5    3.21   22.99
  -7 -10   5   15.52   20.50
   7  10  -4   70.48   27.46
  -7  10   4  118.34   27.83
  -7 -10   4   24.83   25.92
  -7  10   3  159.34   39.96
   7  10  -3  148.31   38.32
  -7 -10   3  134.93   25.60
  -7  10   2  -19.12   29.28
   7  10  -2   -6.93   27.63
   7  10  -1  169.78   33.13
  -7  10   1  192.34   37.53
  -7  10   0  627.19   52.33
   7  10   0  610.37   60.71
   7  10   1   17.95   13.87
  -7  10  -1    4.65   20.24
   7  10   1   -7.42   28.71
   7 -10   1   44.84   19.54
   7  10   2  195.21   42.86
   7  10   2  254.87   35.05
  -7  10  -2  259.05   34.17
   7 -10   2  200.96   28.98
   7  10   3  690.10   54.35
   7  10   3  509.96   53.88
  -7  10  -3  597.93   60.44
  -7 -10  -3  532.42   40.90
   7 -10   3  603.10   49.63
   7 -10   3  626.12   52.17
   7  10   4  -11.42   23.42
  -7  10  -4   -0.45   21.40
   7  10   4   -8.96   17.36
   7 -10   4    5.76   22.16
  -7 -10  -4   14.50   13.00
   7 -10   4  -17.34   15.14
   7  10   5  135.53   28.89
  -7  10  -5   71.38   24.78
   7  10   5  163.74   39.49
   7 -10   5  142.05   22.54
   7 -10   5   77.90   29.40
   7  10   6  276.01   53.14
  -7  10  -6  389.40   44.31
   7 -10   6  411.96   49.25
  -7  10  -7   -8.23   17.70
   7 -10   7   18.75   30.78
  -7  11   7   85.65   38.04
   7  11  -7   57.01   40.84
  -7 -11   7   26.36   27.83
  -7  11   6  318.05   50.22
   7  11  -6  149.99   48.80
  -7 -11   6  217.77   42.75
  -7  11   5   63.58   39.97
   7  11  -5   98.20   40.95
  -7 -11   5  167.72   33.08
  -7  11   4  254.33   46.28
   7  11  -4  249.42   50.26
  -7 -11   4  229.75   36.74
   7  11  -3  -21.80   20.23
  -7  11   3   -4.06   28.13
  -7 -11   3   25.37   16.48
   7  11  -2  -10.33   22.36
  -7  11   2   25.66   23.69
   7  11  -1  231.40   46.84
  -7  11   1  205.40   37.66
   7  11   0   63.03   28.65
  -7  11   0   47.08   30.56
   7  11   1  652.83   71.38
   7  11   1  539.05   44.28
  -7  11  -1  480.05   48.33
   7 -11   1  498.81   46.49
   7  11   2   99.25   27.84
   7  11   2   88.94   32.91
  -7  11  -2  116.87   35.52
   7 -11   2   60.07   29.64
   7 -11   2  111.49   26.65
   7  11   3  237.00   43.98
  -7  11  -3  161.16   39.40
   7  11   3  195.60   36.43
  -7 -11  -3  197.64   32.42
   7 -11   3  182.25   30.28
   7 -11   3  175.80   32.09
   7  11   4   49.55   33.49
  -7  11  -4   72.15   35.38
   7  11   4   29.01   36.08
   7 -11   4   36.13   34.40
   7 -11   4  121.59   26.97
   7  11   5   15.44   32.60
  -7  11  -5   39.30   22.84
   7  11   5    1.70   23.95
   7 -11   5   18.80   25.82
   7 -11   5   42.11   28.88
   7  11   6   25.27   20.14
   7  11   6   26.22   37.06
  -7  11  -6   17.78   30.26
   7 -11   6   64.35   30.46
  -7  12   6   33.72   37.81
   7  12  -6   64.41   41.33
  -7 -12   6   24.82   32.69
  -7  12   5   35.70   34.33
   7  12  -5   20.00   41.74
  -7 -12   5   86.35   32.89
   7  12  -4   27.58   35.90
  -7  12   4   14.63   30.00
  -7 -12   4   13.75   24.96
   7  12  -3   23.93   26.17
  -7  12   3  105.27   33.15
  -7  12   2    3.62   22.82
   7  12  -2    3.87   24.75
   7  12  -1  278.69   55.49
  -7  12   1  113.45   45.23
  -7  12   0  133.20   43.01
   7  12   0  112.37   27.78
   7  12   0  108.09   32.93
   7 -12   0   97.49   30.67
  -7  12  -1  246.81   40.72
   7  12   1  223.00   29.48
   7  12   1  141.53   37.31
   7 -12   1  215.33   42.53
   7  12   2  294.94   43.74
  -7  12  -2  222.37   41.42
   7  12   2  297.99   55.67
   7 -12   2  337.83   36.20
   7 -12   2  272.41   46.06
   7  12   3   16.07   27.34
   7  12   3    6.75   27.34
  -7  12  -3   -2.02   31.99
   7 -12   3   71.63   25.68
  -7 -12  -3   32.75   22.65
   7 -12   3   15.55   24.62
   7  12   4   -9.13   21.49
   7  12   4   -8.46   25.18
  -7  12  -4   16.43   26.02
   7 -12   4   15.02   19.75
   7 -12   4  -15.29   18.81
   7  12   5   26.20   28.63
   7  12   5   -5.00   37.36
  -7  12  -5   -8.14   34.65
   7 -12   5   61.12   28.00
   7 -12   5   30.67   29.72
   7  13  -4    0.07   26.04
  -7  13   4    4.81   30.22
   7  13  -3    6.19   41.44
  -7  13   3  311.80   48.80
   7  13  -2  113.99   45.69
  -7  13   2   65.31   39.60
  -7  13   1  -13.16   28.79
   7  13  -1    4.00   27.84
   7 -13  -1  -13.63   23.25
   7  13   0  138.07   55.77
  -7  13   0  197.77   54.28
   7 -13   0  184.21   38.93
   7  13   1  219.13   34.59
   7  13   1  229.17   57.82
  -7  13  -1  247.32   55.64
   7 -13   1  208.68   37.30
  -7  13  -2  -14.62   22.23
   7  13   2    9.38   32.68
   7  13   2   -9.47   22.33
   7 -13   2   -5.51   17.60
   7 -13   2   13.61   19.89
   7  13   3   -0.42   26.54
   7  13   3    3.47   37.51
  -7  13  -3   52.72   24.34
   7 -13   3   12.51   25.83
   7 -13   3  -12.21   31.18
  -7 -13  -3   -4.39   18.39
   8   0  -8  115.48   27.97
  -8   0   8  139.83   21.07
   8   0  -7   20.70   15.78
  -8   0   7    2.17   13.35
   8   0  -6  313.66   32.82
  -8   0   6  342.24   28.51
  -8   0   5    0.33    9.46
   8   0  -5    5.75   11.52
   8   0  -4   81.81   16.82
  -8   0   4   75.72   13.21
   8   0  -3    5.81    9.56
  -8   0   3   -3.25    7.47
   8   0  -2 1147.23   70.72
  -8   0   2 1231.01   61.93
   8   0  -1   10.90   12.58
  -8   0   1    0.98    8.82
   8   0   0  218.02   25.80
   8   0   1   31.32   18.58
   8   0   2 1935.55  109.50
   8   0   3  -11.16   14.37
   8   0   4  536.22   44.70
   8   0   5    4.71   18.67
   8   0   5  115.35   20.35
   8   0   6  147.08   32.85
   8   0   6   98.16   19.00
   8   0   7   -4.29   13.75
   8   0   8  646.84   59.26
   8   0   9   -5.77   25.61
   8   0  10  746.87   74.04
  -8   1   9    9.85   18.90
   8   1  -8    6.77   15.04
  -8   1   8    5.59   12.51
   8   1  -7  175.13   25.63
  -8   1   7  172.33   26.19
  -8  -1   7  186.31   22.40
   8  -1  -7  256.24   29.07
   8   1  -6    7.52   11.87
  -8   1   6  -12.95   11.28
  -8  -1   6    4.34    9.51
   8  -1  -6   -0.84   15.08
   8   1  -5   43.20   16.17
  -8   1   5  132.34   19.37
  -8  -1   5   85.75   13.36
   8  -1  -5   69.09   15.79
  -8   1   4   58.52   12.16
   8   1  -4  108.63   20.03
   8  -1  -4   52.49   19.14
  -8  -1   4   81.00   11.74
  -8   1   3   -6.26    7.97
   8   1  -3   -0.51   14.35
   8  -1  -3    2.94   11.06
   8   1  -2 1086.85   64.90
  -8   1   2  925.31   52.14
   8  -1  -2 1197.69   70.61
  -8  -1   2  887.45   48.66
  -8   1   1 2112.45  103.98
   8   1  -1 2493.31  131.94
   8  -1  -1 2379.95  130.04
  -8  -1   1 2376.49  109.69
   8   1   0   -2.98   12.86
   8  -1   0   22.55   13.30
   8   1   1  232.38   25.63
   8  -1   1  209.25   26.20
   8   1   2   35.01   16.98
   8   1   2   39.25    4.86
   8  -1   2   58.87   15.27
   8   1   3 1666.97  103.02
   8  -1   3 1646.12  103.55
   8   1   4  445.47   38.74
   8  -1   4  347.20   36.63
   8   1   5 1118.61   75.80
   8   1   5  918.38   58.54
   8  -1   5  978.13   65.77
   8  -1   5  950.39   73.02
   8   1   6   59.19   17.76
   8   1   6   48.65   25.98
   8  -1   6   24.90   15.31
   8   1   7   68.30   29.29
   8   1   7   80.92   22.47
   8  -1   7   82.84   20.17
   8   1   8  286.73   38.24
   8  -1   8  342.00   39.03
   8   1   9  411.49   48.88
   8  -1   9  362.07   51.83
   8  -1  10   23.93   31.70
  -8   2   9   -3.82   20.42
   8   2  -8   -5.19   14.24
  -8   2   8    2.52   12.49
  -8   2   7    8.61   16.90
   8   2  -7   12.30   16.54
  -8  -2   7   12.01   10.03
  -8   2   6   17.91   15.25
   8   2  -6   30.84   12.87
  -8  -2   6    1.11    8.01
   8  -2  -6   37.05   18.32
   8   2  -5  514.54   41.74
  -8   2   5  600.71   44.49
   8  -2  -5  678.46   52.60
  -8  -2   5  537.38   33.24
   8   2  -4  444.58   38.82
  -8   2   4  390.10   32.25
  -8  -2   4  313.98   22.78
   8  -2  -4  377.83   33.96
   8   2  -3  908.90   61.15
  -8   2   3  829.54   50.34
  -8  -2   3  861.07   44.97
   8  -2  -3  994.63   62.14
   8   2  -2  572.49   47.74
  -8   2   2  649.41   42.29
   8  -2  -2  637.02   49.85
  -8  -2   2  577.45   32.71
  -8   2   1  456.63   34.41
   8   2  -1  407.23   41.10
   8  -2  -1  474.35   39.41
  -8   2   0  423.14   30.84
   8   2   0  516.59   39.27
   8  -2   0  489.98   44.57
   8   2   1 1185.46   71.93
  -8   2  -1 1043.27   59.14
   8   2   1 1120.18   50.97
   8  -2   1 1219.64   78.37
   8   2   2  625.07   46.31
   8   2   2  760.79   32.40
   8  -2   2  761.05   56.47
   8   2   3 1018.88   70.48
   8  -2   3 1008.88   73.58
   8   2   4   -3.94   18.31
   8   2   4   -6.46    9.43
   8  -2   4   -6.80   10.17
   8   2   5 1113.57   72.66
   8   2   5 1253.76   68.62
   8  -2   5 1217.86   76.71
   8   2   6   46.41   16.23
   8   2   6   22.33   23.37
   8  -2   6   43.29   17.64
   8   2   7    0.85   22.87
   8   2   7   28.51   17.07
   8  -2   7   21.45   18.18
   8   2   8  509.59   46.74
   8  -2   8  496.59   55.67
   8  -2   9   38.93   33.27
  -8   3  10   58.14   31.12
  -8   3   9  174.25   29.75
   8   3  -8   65.42   23.77
  -8   3   8   76.29   27.50
  -8   3   7   -4.45   16.84
   8   3  -7    8.60   16.35
   8   3  -6   51.86   17.77
  -8   3   6   19.03   15.34
   8   3  -5 2511.45  142.88
  -8   3   5 2402.54  133.38
   8   3  -4  170.36   30.14
  -8   3   4  188.34   22.68
  -8  -3   4  178.54   15.11
   8  -3  -4  256.04   31.56
  -8   3   3  391.97   33.87
   8   3  -3  332.17   32.49
   8  -3  -3  394.45   35.59
  -8  -3   3  348.46   22.27
   8   3  -2  266.86   30.36
  -8   3   2  268.69   23.90
  -8  -3   2  304.30   20.54
   8  -3  -2  272.48   31.63
   8   3  -1  297.51   34.30
  -8   3   1  227.36   20.76
   8  -3  -1  236.79   28.85
  -8   3   0   47.83   12.26
   8   3   0   17.57    9.80
   8   3   0   38.19   16.04
   8  -3   0   49.85   16.81
   8   3   1 1377.10   64.60
   8   3   1 1313.03   80.62
  -8   3  -1 1362.66   75.61
   8  -3   1 1432.53   87.93
   8   3   2  841.60   56.95
  -8   3  -2  905.18   52.89
   8   3   3  114.86   23.06
  -8   3  -3  190.90   21.19
   8   3   4  288.86   32.57
   8   3   4  252.42   20.71
   8  -3   4  280.10   28.94
   8   3   5   50.79   22.34
   8   3   5   51.98   13.15
   8  -3   5   36.11   15.24
   8   3   6   78.82   27.69
   8   3   6   83.52   17.70
   8  -3   6   90.88   26.08
   8   3   7  429.60   49.90
   8   3   7  413.75   36.06
   8  -3   7  478.95   46.23
   8  -3   8  187.07   33.32
   8  -3   9    7.82   29.76
  -8   4  10  366.09   55.65
  -8   4   9  618.62   55.53
  -8   4   8   58.27   30.00
   8   4  -8   94.04   25.28
  -8   4   7   29.96   17.72
   8   4  -7    0.40   21.33
  -8   4   6  436.84   41.42
   8   4  -6  458.94   42.48
   8   4  -5   56.14   20.84
  -8   4   5   -1.84   16.45
  -8  -4   5   23.85    4.85
   8   4  -4 1111.88   71.01
  -8   4   4 1123.93   74.10
  -8  -4   4 1087.39   51.57
  -8  -4   4 1067.45   48.16
  -8   4   3   37.98   13.99
   8   4  -3   10.32   20.33
  -8  -4   3   48.79    7.89
  -8  -4   3   24.70    9.21
  -8   4   2 1055.63   66.57
   8   4  -2 1098.11   73.11
  -8  -4   2  982.71   55.36
  -8   4   1  471.17   34.59
   8   4  -1  625.20   49.35
   8   4   0  120.39   23.59
  -8   4   0  102.22   17.46
   8   4   1  365.82   35.05
   8   4   1  340.90   24.24
  -8   4  -1  345.12   27.16
   8   4   2   39.52   16.33
  -8   4  -2   46.85   12.98
  -8   4  -3  501.75   35.65
   8   4   3  342.51   33.48
   8   4   3  516.56   44.94
   8   4   4 1331.96   65.49
   8   4   4 1148.96   80.04
  -8   4  -4 1214.39   71.70
   8  -4   4 1283.45   60.46
   8  -4   4 1173.85   71.44
  -8   4  -5 1045.83   65.00
   8   4   5 1100.28   77.14
   8   4   5  983.45   53.52
   8  -4   5  986.45   71.23
   8   4   6   -0.46   10.26
   8   4   6  -26.72   19.09
   8  -4   6    4.85   17.14
   8   4   7   10.57   23.30
   8  -4   7    9.19   19.75
   8  -4   8   62.90   36.83
   8  -4   9   48.59   30.98
  -8   5  10   49.14   34.49
  -8  -5  10    7.70   37.69
  -8   5   9   39.24   26.17
  -8  -5   9   42.85   25.54
   8   5  -8    3.07   21.53
  -8   5   8    0.68   18.02
  -8  -5   8  -26.85   19.32
   8   5  -7   16.54   16.02
  -8   5   7   11.85   17.94
  -8  -5   7  -16.09   12.56
  -8   5   6 1388.23   95.43
   8   5  -6 1311.34   84.47
   8   5  -5    7.20   16.03
  -8   5   5   10.33   15.22
   8   5  -4  365.26   35.35
  -8   5   4  354.80   35.69
  -8  -5   4  320.02   19.37
  -8  -5   4  346.61   17.76
   8   5  -3  730.94   60.49
  -8   5   3  728.81   55.66
  -8  -5   3  756.72   36.95
  -8  -5   3  651.09   37.21
  -8   5   2  202.66   24.00
   8   5  -2  172.09   31.27
  -8  -5   2  161.33   18.62
   8   5  -1 1786.40  104.88
  -8   5   1 1647.37   91.95
  -8   5   0 1289.85   76.07
   8   5   0 1480.44   90.00
   8   5   1  200.69   26.86
   8   5   1  202.68   20.26
  -8   5  -1  289.33   25.61
   8   5   2  377.67   28.19
   8   5   2  443.87   39.57
  -8   5  -2  403.09   35.46
   8   5   3  888.04   64.19
  -8   5  -3  793.53   56.80
  -8   5  -4 1171.92   72.09
   8   5   4 1421.89   88.18
   8  -5   4 1204.76   73.92
   8  -5   4 1058.04   57.35
  -8   5  -5  825.70   61.10
   8   5   5  900.27   63.59
   8  -5   5  741.43   56.49
   8   5   6   12.77   24.12
  -8   5  -6   46.62   16.26
   8  -5   6   64.62   21.69
   8   5   7  147.74   35.88
  -8   5  -7  194.14   26.36
   8  -5   7   94.43   40.96
  -8   5  -8   53.80   26.02
   8  -5   8   22.96   26.86
  -8   5  -9   37.88   26.14
   8  -5   9   -7.48   37.81
  -8   6  10   57.55   29.88
  -8  -6  10    9.41   29.79
  -8   6   9   17.07   22.85
  -8  -6   9   -2.10   21.33
   8   6  -8   11.21   28.00
  -8   6   8   29.01   32.30
  -8  -6   8   33.25   21.80
  -8   6   7  536.29   53.21
   8   6  -7  596.84   49.16
  -8  -6   7  610.67   53.72
   8   6  -6   11.26   15.42
  -8   6   6   11.32   23.06
  -8  -6   6   -6.85   15.55
   8   6  -5  163.91   32.30
  -8   6   5   91.14   31.23
   8   6  -4  155.51   26.77
  -8   6   4  174.99   34.00
  -8   6   3  108.59   24.75
   8   6  -3   23.53   18.92
  -8  -6   3   51.92   11.29
   8   6  -2  164.43   24.82
  -8   6   2   88.41   18.15
  -8  -6   2   92.31   17.80
   8   6  -1  274.27   34.44
  -8   6   1  315.90   31.49
  -8   6   0  130.91   19.05
  -8   6  -1 3122.10  170.33
   8   6   1 3258.45  176.62
   8   6   1 2741.85  140.87
   8   6   2  384.38   47.07
  -8   6  -2  382.15   41.69
   8   6   3   46.67   24.64
  -8   6  -3   26.89   14.76
  -8   6  -4  861.07   58.45
   8   6   4  846.67   69.90
   8  -6   4  930.77   52.66
   8  -6   4  972.25   67.34
  -8   6  -5    5.53   15.19
   8   6   5   13.25   17.80
   8   6   5    9.19   20.70
   8  -6   5   26.84   13.09
   8  -6   5   40.77   20.94
   8   6   6    4.66   24.05
  -8   6  -6   55.97   18.78
   8  -6   6   37.50   28.92
  -8   6  -7  834.36   68.31
   8   6   7  863.31   75.42
   8  -6   7  953.72   85.34
  -8   6  -8   29.03   26.97
   8  -6   8   68.85   38.38
  -8   7   9  217.99   51.21
  -8  -7   9  215.93   42.53
  -8   7   8   61.39   28.43
   8   7  -8   35.63   31.75
  -8  -7   8    8.60   23.16
  -8   7   7  234.31   45.32
   8   7  -7   76.79   35.67
  -8  -7   7  123.10   34.18
   8   7  -6  142.25   27.08
  -8   7   6  113.67   28.15
  -8  -7   6  119.66   32.29
   8   7  -5  144.79   31.54
  -8   7   5  120.19   29.16
  -8  -7   5  104.17   23.03
   8   7  -4   23.22   19.78
   8   7  -3  756.20   60.98
  -8   7   3  666.57   54.15
  -8   7   2    4.46   21.80
   8   7  -2   24.54   17.64
  -8   7   1  466.11   48.44
   8   7  -1  467.12   45.65
  -8   7   0  922.22   63.73
   8   7   0  858.55   65.15
   8   7   1  -12.54   22.08
   8   7   2 1210.47   83.57
  -8   7  -2 1344.70   84.51
   8   7   3    0.60   21.04
  -8   7  -3   -1.08   13.86
   8  -7   3   -3.84   12.77
   8  -7   3   -5.67   11.16
   8   7   4  113.78   25.83
  -8   7  -4   71.56   25.08
   8  -7   4  101.53   18.38
   8  -7   4  108.91   23.15
  -8   7  -5  241.19   34.15
   8   7   5  195.32   37.42
   8  -7   5  164.90   28.13
   8   7   6  128.93   26.33
  -8   7  -6   49.81   29.91
   8  -7   6  168.12   36.08
  -8   7  -7  724.96   64.78
   8   7   7  770.09   67.92
   8  -7   7  677.63   66.34
  -8   7  -8  409.14   52.17
   8  -7   8  370.32   64.84
  -8   8   9  -33.18   28.40
  -8  -8   9   56.90   31.48
  -8   8   8   57.37   32.32
   8   8  -8   66.64   34.62
  -8  -8   8   51.87   27.44
   8   8  -7   20.97   25.23
  -8   8   7   12.95   29.07
  -8  -8   7   61.76   23.97
  -8   8   6   34.12   36.93
   8   8  -6  104.57   26.89
  -8  -8   6  129.69   30.29
   8   8  -5  -15.98   27.28
  -8   8   5   14.60   23.33
  -8  -8   5  -17.59   16.04
  -8   8   4  703.84   63.62
   8   8  -4  771.42   70.98
   8   8  -3  -10.00   19.48
  -8   8   3   -7.38   25.69
   8   8  -2  214.66   31.47
  -8   8   2  209.53   31.71
   8   8  -1  179.97   31.04
  -8   8   1  147.76   26.00
  -8   8   0  877.39   64.98
   8   8   0  680.50   59.41
  -8   8  -1  217.88   35.61
   8   8   1  188.53   32.08
   8   8   2  102.30   24.73
  -8   8  -2   61.45   23.37
  -8   8  -3  358.23   39.83
   8   8   3  356.33   48.57
   8  -8   3  343.91   28.49
   8  -8   3  254.88   40.89
  -8   8  -4  811.54   65.70
   8   8   4  918.47   69.83
   8  -8   4  721.25   60.71
   8  -8   4  887.96   57.53
  -8   8  -5    4.17   22.48
   8   8   5    9.38   25.40
   8  -8   5   27.22   16.29
   8  -8   5   -3.62   22.54
   8   8   6   57.95   32.18
  -8   8  -6   -7.16   24.21
   8  -8   6   48.46   25.71
  -8   8  -7  138.81   36.85
   8  -8   7  145.17   44.02
  -8   8  -8  469.51   59.31
   8  -8   8  527.79   64.22
   8   9  -8  260.22   57.48
  -8   9   8  402.53   65.06
  -8  -9   8  321.01   44.88
   8   9  -7  258.19   42.00
  -8   9   7  144.14   51.34
  -8  -9   7  270.91   42.78
  -8   9   6  208.84   36.02
   8   9  -6   63.66   32.93
  -8  -9   6   90.89   34.03
   8   9  -5    2.48   24.81
  -8   9   5   23.75   25.29
  -8  -9   5   32.73   24.45
   8   9  -4   59.68   24.44
  -8   9   4   59.31   29.74
  -8   9   3  191.32   33.46
   8   9  -3  173.17   40.25
  -8   9   2  763.01   61.29
   8   9  -2  631.71   67.52
   8   9  -1   48.06   21.39
  -8   9   1    4.60   20.80
   8   9   0   -7.18   20.92
  -8   9   0  -16.74   18.32
   8   9   1   44.02   25.97
  -8   9  -1  140.32   26.78
   8   9   2  174.23   31.95
  -8   9  -2  173.17   35.86
   8   9   3    9.35   21.74
  -8   9  -3   11.07   20.10
   8  -9   3   13.45   18.46
   8  -9   3   36.32   17.44
  -8   9  -4  167.43   25.41
   8  -9   4  141.29   25.85
   8  -9   4  130.53   27.46
  -8   9  -5  342.57   46.63
   8   9   5  260.88   49.31
   8  -9   5  309.53   42.49
   8  -9   5  359.28   38.91
  -8   9  -6   11.48   26.35
   8   9   6   15.07   22.50
   8  -9   6   28.90   35.93
  -8   9  -7  189.43   38.76
   8  -9   7  158.76   50.28
  -8  10   7  322.02   45.94
   8  10  -7  147.06   38.38
  -8 -10   7  166.97   36.63
  -8  10   6  124.10   37.53
   8  10  -6    8.39   28.56
  -8 -10   6   52.62   25.37
  -8  10   5  244.46   44.07
   8  10  -5  317.43   46.96
  -8 -10   5  304.83   35.85
  -8  10   4    5.12   37.83
   8  10  -4   94.20   30.30
  -8 -10   4   88.19   20.82
  -8  10   3  404.44   47.84
   8  10  -3  261.31   41.21
   8  10  -2    8.62   22.65
  -8  10   2    7.83   24.19
  -8  10   1  412.80   52.52
   8  10  -1  470.06   57.30
   8  10   0   27.68   26.75
  -8  10   0   43.81   31.93
   8  10   1  182.42   35.31
  -8  10  -1  130.30   29.33
   8  10   2  503.29   62.71
  -8  10  -2  550.59   52.44
   8 -10   2  469.26   51.23
  -8  10  -3    3.45   18.05
   8  10   3  -12.90   21.76
   8 -10   3   -0.90   17.44
   8 -10   3   20.54   16.70
  -8  10  -4   22.06   26.64
   8  10   4   13.21   23.20
   8 -10   4    2.53   19.47
   8 -10   4    3.83   19.65
  -8  10  -5   16.61   20.77
   8  10   5   28.32   22.17
   8 -10   5   -9.51   24.17
   8 -10   5   -0.73   21.46
   8  10   6  238.10   48.70
  -8  10  -6  244.36   44.98
   8 -10   6  224.96   51.04
   8  11  -6   47.09   29.79
  -8  11   6  -10.25   43.31
  -8 -11   6    9.18   22.54
   8  11  -5  715.56   72.09
  -8  11   5  757.70   94.90
  -8 -11   5  755.52   62.46
   8  11  -4    1.21   28.29
  -8  11   4   44.89   30.42
  -8 -11   4   26.31   18.07
   8  11  -3   -2.14   23.31
  -8  11   3  -16.13   32.15
  -8  11   2   23.92   26.80
   8  11  -2   13.95   27.13
   8  11  -1  192.78   45.75
  -8  11   1  162.44   36.45
   8  11   0  180.35   39.18
  -8  11   0  136.34   32.88
   8  11   1   15.36   38.98
  -8  11  -1   58.90   26.65
   8 -11   1   42.77   25.47
  -8  11  -2   96.54   35.40
   8  11   2  103.25   30.18
   8 -11   2   39.06   25.12
   8  11   3   13.96   37.47
  -8  11  -3   72.78   37.08
   8 -11   3   78.41   20.66
   8 -11   3   70.09   32.71
   8  11   4   -0.25   31.90
  -8  11  -4   -9.30   28.11
   8 -11   4  -12.22   21.03
   8 -11   4   52.59   23.54
  -8  11  -5  163.94   44.30
   8  11   5  206.64   50.94
   8 -11   5  184.40   35.63
   8 -11   5  198.75   52.60
  -8  12   5   -8.15   47.60
   8  12  -5   13.88   30.53
  -8 -12   5   27.63   27.02
   8  12  -4   -4.66   27.25
  -8  12   4   -3.64   38.41
  -8  12   3   93.16   46.22
   8  12  -3   90.05   35.58
   8  12  -2  -15.11   26.08
  -8  12   2    9.55   20.96
   8  12  -1  177.81   40.39
  -8  12   1  149.81   49.22
  -8  12   0   20.69   29.21
   8  12   0   63.97   39.93
   8 -12   0   48.95   22.64
   8  12   1   -3.00   23.80
  -8  12  -1   29.40   28.26
   8 -12   1   -4.40   18.05
   8  12   2  -14.80   25.64
  -8  12  -2    9.12   28.08
   8 -12   2   22.66   19.84
   8 -12   2   -8.31   21.48
   8  12   3   21.14   41.32
  -8  12  -3   30.48   30.41
   8 -12   3   23.48   25.68
   8 -12   3   65.02   32.97
   8  12   4   43.82   38.45
  -8  12  -4   43.44   35.36
   8 -12   4   15.34   37.59
   8 -12   4   11.76   25.68
  -8  13   3    9.79   35.97
   8  13  -3   29.29   32.92
   8  13  -2  153.99   42.71
  -8  13   2   57.36   41.30
   8  13  -1   51.29   50.04
  -8  13   1  134.45   41.71
   8 -13  -1  133.00   35.23
  -8  13   0   48.98   44.63
   8  13   0   37.57   37.45
   8 -13   0   63.16   25.40
  -8  13  -1   -9.61   38.78
   8  13   1   25.78   30.89
   8 -13   1    3.55   21.81
   8  13   2   70.18   37.29
  -8  13  -2   91.37   42.08
   8 -13   2   34.47   36.83
   8 -13   2   40.53   30.10
   9   0  -8 1173.25   80.18
  -9   0   8 1152.07   72.25
  -9   0   7  -17.05   14.29
   9   0  -7   -6.88   20.32
   9   0  -6  -10.97   19.90
  -9   0   6   39.90   15.34
   9   0  -5   -3.13   17.46
  -9   0   5   -9.26   10.20
  -9   0   4   52.83   12.41
   9   0  -4   27.60   22.03
  -9   0   3   -6.54   11.96
   9   0  -3  -20.29   17.58
  -9   0   2   -6.08    9.01
   9   0  -2   -9.75   14.00
   9   0  -1    5.12   19.28
  -9   0   1  -18.32   11.01
   9   0   0   10.56   15.87
  -9   0   0   12.11    7.77
   9   0   1   13.43   16.54
   9   0   2  815.86   64.49
   9   0   3   19.46   22.03
   9   0   4 1097.03   75.32
   9   0   5   -4.87   23.79
   9   0   5   10.80   16.14
   9   0   6   27.14   20.62
   9   0   6   22.83   28.37
   9   0   7   14.89   19.33
   9   0   8  767.52   69.26
   9   0   9   -1.21   24.24
   9   1  -8  169.49   31.73
  -9   1   8  232.79   31.11
   9   1  -7  409.64   46.09
  -9   1   7  430.38   39.65
  -9  -1   7  436.61   34.29
   9  -1  -7  362.74   40.76
   9   1  -6  121.48   22.52
  -9   1   6  111.62   21.11
  -9  -1   6  103.73   16.59
   9  -1  -6   54.63   19.18
   9   1  -5   34.27   15.23
  -9   1   5   24.02   14.89
  -9  -1   5   36.23   11.78
   9  -1  -5   -5.08   20.88
   9   1  -4  252.94   29.19
  -9   1   4  380.21   32.45
   9  -1  -4  315.35   32.76
  -9  -1   4  304.55   25.03
  -9   1   3  172.39   21.27
   9   1  -3  202.57   24.91
   9  -1  -3  235.80   28.28
  -9  -1   3  189.44   19.72
  -9   1   2  148.52   19.50
   9   1  -2  163.31   24.16
  -9  -1   2  101.85   15.57
   9  -1  -2  145.24   23.61
   9   1  -1    4.32   19.03
  -9   1   1   55.32   10.44
  -9  -1   1   -3.78   11.03
   9  -1  -1   47.21   16.21
  -9   1   0   -0.91    7.96
   9   1   0   18.57   16.60
   9  -1   0    1.29   16.55
   9   1   1  180.03   27.47
  -9   1  -1  161.48   17.68
   9  -1   1  220.10   28.38
   9   1   2   77.09   19.60
   9  -1   2   37.67   20.37
   9   1   3 2105.08  122.63
   9  -1   3 2218.15  131.78
   9   1   4  692.96   61.77
   9  -1   4  717.52   61.60
   9   1   5  372.31   31.13
   9   1   5  313.18   38.17
   9  -1   5  260.44   29.43
   9  -1   5  426.48   50.56
   9   1   6  575.68   47.25
   9   1   6  575.10   58.27
   9  -1   6  538.51   44.69
   9   1   7  283.43   47.63
   9   1   7  275.68   37.02
   9  -1   7  315.71   35.07
   9   1   8  380.66   47.61
   9  -1   8  438.68   46.19
   9  -1   9  192.99   42.43
  -9   2   9  154.39   32.56
  -9   2   8   22.11   19.96
   9   2  -8   -6.41   19.56
   9   2  -7   83.97   26.45
  -9   2   7  138.19   25.80
   9  -2  -7   68.33   26.15
  -9   2   6   -3.17   18.43
   9   2  -6   48.76   20.62
  -9  -2   6   26.51   11.84
   9  -2  -6   14.99   21.28
   9   2  -5 1062.78   68.69
  -9   2   5  943.79   59.62
  -9  -2   5  971.01   51.82
   9  -2  -5  893.26   69.14
   9   2  -4  104.05   20.68
  -9   2   4  170.14   20.66
  -9  -2   4   68.20   12.89
   9  -2  -4   59.81   21.13
  -9   2   3  180.84   25.17
   9   2  -3  191.78   30.66
  -9  -2   3  199.56   18.42
   9  -2  -3  210.02   28.44
  -9   2   2   98.82   18.75
   9   2  -2  147.16   21.45
  -9  -2   2   84.06   11.30
   9  -2  -2  153.91   23.17
   9   2  -1  573.75   47.23
  -9   2   1  652.79   41.41
   9  -2  -1  551.71   47.83
  -9   2   0  149.99   17.41
   9   2   0   66.20   27.19
   9  -2   0   73.58   21.08
   9   2   1  223.44   28.87
   9   2   1  254.58   18.76
  -9   2  -1  222.97   21.86
   9  -2   1  265.60   32.20
   9   2   2 1494.60   98.95
  -9   2  -2 1564.30   91.03
   9  -2   2 1605.33  104.98
   9   2   3   90.56   22.39
   9  -2   3   76.98   24.89
   9   2   4  408.90   41.50
   9  -2   4  503.10   48.55
   9   2   5 1448.41   95.53
   9   2   5 1413.12   79.30
   9  -2   5 1490.50   87.66
   9   2   6  151.10   27.70
   9   2   6  129.53   22.49
   9  -2   6  171.33   24.23
   9   2   7  353.99   38.04
   9   2   7  347.54   52.71
   9  -2   7  402.21   51.20
   9   2   8   80.67   38.97
   9  -2   8  194.91   31.55
   9  -2   9   20.93   31.95
   9   3  -8   11.98   20.83
  -9   3   8    6.80   22.37
  -9   3   7  216.11   34.10
   9   3  -7  239.42   35.64
  -9   3   6   49.26   21.56
   9   3  -6   24.51   23.05
   9   3  -5 1495.36   96.93
  -9   3   5 1649.87   94.80
   9  -3  -5 1551.85  101.40
  -9  -3   5 1486.53   72.33
  -9   3   4  238.83   25.93
   9   3  -4  226.03   30.09
   9  -3  -4  187.02   34.40
  -9  -3   4  206.51   17.71
   9   3  -3   21.57   19.68
  -9   3   3   10.05   11.69
  -9  -3   3    5.73    8.86
   9  -3  -3   17.19   20.21
  -9   3   2  306.79   30.07
   9   3  -2  272.92   30.78
  -9  -3   2  283.14   21.87
   9  -3  -2  239.54   36.76
   9   3  -1   18.77   17.42
  -9   3   1    3.81   11.68
   9  -3  -1   53.06   18.05
  -9   3   0 1109.40   67.96
   9   3   0  850.02   62.66
   9   3   0  917.03   69.16
   9  -3   0 1206.97   80.81
   9   3   1 1808.06   88.32
  -9   3  -1 1899.93  106.51
   9  -3   1 1880.37  116.84
  -9   3  -2  171.95   24.93
   9   3   2  194.31   31.36
   9  -3   2  146.99   28.48
   9   3   3   24.59   21.14
   9   3   4   77.44   20.57
   9   3   5  160.04   21.76
   9   3   5  236.77   36.87
   9  -3   5  171.85   25.97
   9   3   6   24.90   15.34
   9   3   6   45.42   25.71
   9  -3   6   19.08   20.05
   9   3   7   64.47   36.74
   9  -3   7  179.60   36.37
   9  -3   8   -0.47   23.83
   9  -3   9  240.45   47.74
  -9   4  10   -8.57   30.67
  -9   4   9   17.88   29.28
   9   4  -8    1.86   17.82
  -9   4   8    9.03   17.84
  -9   4   7   39.88   23.25
   9   4  -7  -13.53   22.01
   9   4  -6    2.54   17.69
  -9   4   6   38.87   18.05
   9   4  -5   25.73   15.73
  -9   4   5    2.02   14.53
  -9  -4   5    2.01    6.44
   9   4  -4    0.59   18.77
  -9   4   4   18.61   16.30
  -9  -4   4   -1.18    7.41
   9   4  -3   22.25   20.83
  -9   4   3   24.51   13.64
  -9  -4   3    9.18    9.44
  -9  -4   3   16.14    8.31
  -9   4   2   25.56   13.66
   9   4  -2   12.10   17.07
  -9   4   1 2266.47  123.78
   9   4  -1 1872.35  120.51
  -9   4   0  175.37   20.83
   9   4   0   22.79   20.86
   9   4   1  156.48   24.95
  -9   4  -1  104.80   18.78
   9   4   2  578.02   48.48
   9   4   2  568.92   47.21
  -9   4  -2  612.28   44.35
   9   4   3   43.48   26.10
  -9   4  -3   56.92   16.00
   9   4   4   27.72   13.20
   9   4   4   49.98   26.53
  -9   4  -4   61.62   16.60
   9  -4   4   16.78   20.21
   9   4   5  544.05   39.40
  -9   4  -5  503.35   40.84
   9   4   5  515.25   56.74
   9  -4   5  473.06   50.00
  -9   4  -6  123.16   24.01
   9   4   6  293.33   42.69
   9  -4   6  229.66   32.24
   9   4   7  717.25   69.22
   9  -4   7  703.26   69.69
   9  -4   8  453.85   52.91
   9  -4   9  330.52   55.69
  -9   5  10   -5.27   25.10
  -9   5   9   25.15   23.60
   9   5  -8   68.87   28.10
  -9   5   8  -14.05   29.54
   9   5  -7   37.06   23.11
  -9   5   7  -15.73   17.32
   9   5  -6  277.26   34.05
  -9   5   6  266.82   35.58
   9   5  -5   70.78   26.43
  -9   5   5   19.11   20.02
   9   5  -4   12.26   18.17
  -9   5   4   52.99   23.93
  -9  -5   4   30.25    7.92
  -9   5   3  157.62   25.11
   9   5  -3  143.97   28.11
  -9  -5   3  139.78   14.20
   9   5  -2 1532.68   97.89
  -9   5   2 1458.47   91.60
   9   5  -1  109.12   22.50
  -9   5   1   91.18   24.41
  -9   5   0  155.56   27.44
   9   5   0  170.12   25.71
   9   5   1  148.75   26.19
  -9   5  -1   95.29   22.99
   9   5   2   91.60   23.14
  -9   5  -2  129.78   19.74
  -9   5  -3   43.58   20.11
   9   5   3   17.76   20.18
  -9   5  -4  355.90   40.27
   9   5   4  229.83   22.10
   9   5   4  342.90   36.79
   9  -5   4  291.83   32.46
  -9   5  -5  116.61   24.26
   9   5   5  197.35   37.24
   9  -5   5  135.04   26.50
   9   5   6   35.24   31.92
  -9   5  -6   63.06   20.03
   9  -5   6   60.95   23.06
  -9   5  -7   22.80   18.65
   9   5   7   58.67   31.45
   9  -5   7   10.54   22.89
  -9   5  -8   -2.83   24.45
   9  -5   8   14.23   23.50
  -9   6   9   39.55   35.41
  -9   6   8   -9.26   28.29
   9   6  -8   11.69   23.80
   9   6  -7   30.41   20.98
  -9   6   7   12.83   22.24
  -9   6   6    0.72   25.05
   9   6  -6   16.10   24.06
  -9   6   5   95.52   31.82
   9   6  -5   75.05   24.81
   9   6  -4  212.81   39.30
  -9   6   4  249.41   33.71
   9   6  -3   11.94   24.82
  -9   6   3   42.64   21.88
  -9  -6   3   15.00    7.17
  -9   6   2 1377.76   89.07
   9   6  -2 1333.73   94.24
  -9   6   1    8.41   15.72
   9   6  -1   46.62   25.10
   9   6   0  284.57   42.56
  -9   6   0  227.82   28.84
   9   6   1   31.05   18.10
  -9   6  -1   -1.51   18.69
  -9   6  -2  298.39   30.76
   9   6   2  189.00   31.68
   9   6   3  272.62   37.38
   9   6   4  706.84   64.79
  -9   6  -4  957.53   64.81
   9  -6   4  889.17   54.28
   9  -6   4  803.07   60.93
  -9   6  -5  207.83   31.48
   9   6   5  138.99   27.50
   9  -6   5  153.05   34.69
   9   6   6   58.20   27.25
  -9   6  -6  116.31   30.63
   9  -6   6  137.81   34.88
  -9   6  -7   83.95   23.48
   9   6   7   87.41   36.72
   9  -6   7   56.97   30.72
  -9   6  -8    1.43   25.40
   9  -6   8  -27.44   33.38
  -9   7   9   31.60   39.32
   9   7  -8   78.55   39.73
  -9   7   8   84.63   42.30
  -9   7   7   34.95   26.40
   9   7  -7   34.40   30.99
  -9   7   6   49.27   26.60
   9   7  -6   36.47   22.27
   9   7  -5   74.94   26.26
  -9   7   5   87.60   27.86
   9   7  -4  126.02   32.66
  -9   7   4  153.31   37.97
  -9   7   3   94.94   24.82
   9   7  -3   87.15   33.36
   9   7  -2  283.92   44.82
  -9   7   2  300.74   37.57
   9   7  -1    3.03   22.44
  -9   7   1   -4.57   15.39
   9   7   0   38.60   29.88
  -9   7   0   77.22   20.65
   9   7   1  306.63   46.27
  -9   7  -1  448.53   41.29
   9   7   2  220.51   37.49
  -9   7  -2  167.72   25.60
   9   7   3  198.80   40.15
  -9   7  -3  153.71   30.83
   9   7   4  159.28   30.58
  -9   7  -4   83.67   25.62
   9  -7   4   84.36   17.95
   9  -7   4   86.83   29.08
   9   7   5   -8.29   30.81
  -9   7  -5   17.49   18.29
   9  -7   5   36.12   21.25
  -9   7  -6  199.24   31.60
   9   7   6  155.30   41.93
   9  -7   6  224.73   45.96
  -9   7  -7    7.11   27.38
   9   7   7    6.41   30.61
   9  -7   7   45.40   33.45
  -9   8   8   10.07   24.78
   9   8  -8   20.55   29.45
  -9  -8   8   -6.17   14.26
  -9   8   7  180.96   43.41
   9   8  -7  220.25   38.30
  -9   8   6  325.64   47.11
   9   8  -6  349.84   46.57
  -9   8   5    1.01   18.71
   9   8  -5    0.50   18.01
   9   8  -4   48.84   26.15
  -9   8   4   93.11   31.06
  -9   8   3   33.25   23.75
   9   8  -3   45.40   31.20
  -9   8   2   11.62   24.96
   9   8  -2   15.92   26.68
   9   8  -1  298.56   50.86
  -9   8   1  330.54   40.00
   9   8   0  117.48   29.84
  -9   8   0  128.57   25.55
   9   8   1  256.77   37.58
  -9   8  -1  260.35   38.11
   9   8   2   38.28   26.80
  -9   8  -2   50.10   20.64
   9   8   3   69.30   27.69
  -9   8  -3   40.41   29.13
   9  -8   3   97.48   23.29
   9  -8   3  116.71   19.87
   9   8   4   99.48   29.07
  -9   8  -4   68.02   21.99
   9  -8   4   34.52   17.72
   9  -8   4  105.62   25.16
  -9   8  -5   -8.82   22.91
   9   8   5    9.86   29.29
   9  -8   5   30.29   21.66
   9   8   6   22.36   23.77
  -9   8  -6   29.15   25.98
   9  -8   6   21.86   24.34
  -9   8  -7    5.14   20.12
   9  -8   7   25.87   38.38
   9   9  -7    4.82   33.47
  -9   9   7   29.73   28.83
  -9  -9   7   13.61   15.88
   9   9  -6  196.90   37.02
  -9   9   6  299.69   48.17
   9   9  -5   43.85   29.91
  -9   9   5   43.09   31.58
  -9   9   4   27.34   26.52
   9   9  -4   29.87   25.69
   9   9  -3   36.48   24.41
  -9   9   3   13.77   23.23
  -9   9   2   32.41   24.51
   9   9  -2   30.91   31.96
  -9   9   1  190.16   33.07
   9   9  -1  253.27   44.14
  -9   9   0   73.62   28.40
   9   9   0   22.77   25.53
  -9   9  -1  191.18   36.75
   9   9   1  182.33   31.26
   9   9   2  285.61   48.26
  -9   9  -2  219.30   41.84
   9   9   3   80.33   39.24
  -9   9  -3   73.70   30.06
   9  -9   3   72.02   20.82
   9  -9   3  158.40   31.71
  -9   9  -4    9.78   21.84
   9   9   4   29.97   23.10
   9  -9   4   13.32   18.66
   9  -9   4   11.51   21.69
   9   9   5   51.74   28.78
  -9   9  -5   31.77   30.78
   9  -9   5   55.81   35.35
  -9   9  -6   24.19   25.66
   9   9   6   55.04   38.47
   9  -9   6   94.62   40.61
   9  10  -7   52.62   41.34
  -9  10   7    2.00   32.54
  -9 -10   7   34.23   24.74
  -9  10   6  330.27   54.25
   9  10  -6  233.36   58.09
  -9  10   5  130.72   37.89
   9  10  -5  114.69   35.48
   9  10  -4   53.00   30.46
  -9  10   4   75.23   41.63
  -9  10   3   44.02   39.48
   9  10  -3   89.21   30.43
  -9  10   2   67.53   30.34
   9  10  -2   66.64   43.01
   9  10  -1   28.19   35.97
  -9  10   1   25.17   34.13
  -9  10   0  180.11   39.86
   9  10   0   49.21   32.97
   9  10   1  124.63   44.92
  -9  10  -1  148.60   38.56
  -9  10  -2  183.34   35.41
   9  10   2  184.72   38.91
   9 -10   2  282.80   36.46
  -9  10  -3   97.68   30.04
   9  10   3  258.88   47.20
   9 -10   3  108.25   22.45
   9 -10   3  181.49   31.36
   9  10   4   48.81   28.42
  -9  10  -4   15.67   24.47
   9 -10   4    6.59   21.78
   9 -10   4   27.36   24.94
   9  10   5   72.13   46.47
  -9  10  -5  157.45   33.07
   9 -10   5  133.83   34.76
  -9  11   6   91.08   54.76
  -9  11   5    3.55   32.82
   9  11  -5  100.78   43.34
   9  11  -4   31.19   37.60
  -9  11   4   13.59   31.23
  -9  11   3  150.65   42.55
   9  11  -3  204.05   51.82
  -9  11   2  371.48   56.93
   9  11  -2  548.74   69.95
  -9  11   1  501.69   58.96
   9  11  -1  448.08   57.68
  -9  11   0  448.38   56.30
   9  11   0  545.39   69.42
   9  11   1  -11.51   27.85
  -9  11  -1  -11.73   24.78
   9 -11   1   70.11   21.00
  -9  11  -2   11.41   24.41
   9  11   2   49.68   37.94
   9 -11   2   20.79   27.84
   9  11   3   41.06   34.90
  -9  11  -3    0.35   31.61
   9 -11   3   17.51   23.92
   9 -11   3   -2.59   21.00
  -9  11  -4   47.55   33.80
   9  11   4   97.34   39.95
   9 -11   4  132.98   24.73
   9 -11   4   84.15   33.27
   9  12  -4  150.78   46.30
  -9  12   4  120.23   43.61
  -9  12   3  110.45   39.97
   9  12  -3   74.60   38.31
  -9  12   2  214.76   62.41
   9  12  -2  340.57   56.95
  -9  12   1  -32.09   43.01
   9  12  -1   66.57   41.57
  -9  12   0  319.97   62.40
   9  12   0  404.60   58.62
  -9  12  -1   23.89   34.78
   9  12   1   -8.98   28.63
   9 -12   1   17.54   20.77
  -9  12  -2   26.21   29.34
   9  12   2    5.93   30.12
   9 -12   2   -9.08   23.75
   9 -12   2   58.30   25.46
   9  12   3   -3.63   40.76
  -9  12  -3   17.14   26.79
   9 -12   3   14.83   26.62
  10   0  -8   35.03   26.06
  10   0  -7   11.52   18.16
 -10   0   7    8.34   15.76
  10   0  -6  406.79   45.98
 -10   0   6  502.09   40.93
  10   0  -5   24.00   19.31
 -10   0   5   -9.06   11.10
  10   0  -4  140.97   29.84
 -10   0   4  100.83   20.02
  10   0  -3   -9.23   17.44
 -10   0   3    1.96   10.76
  10   0  -2  423.63   43.55
 -10   0   2  460.02   34.26
  10   0  -1   12.38   16.20
 -10   0   1    9.40    9.45
 -10   0   0  714.65   44.71
  10   0   0  668.35   63.74
  10   0   1    7.09   21.83
  10   0   2   39.16   22.81
  10   0   3    3.87   17.99
  10   0   4  325.94   47.55
  10   0   5   24.75   17.63
  10   0   5   -4.73   22.46
  10   0   6  831.66   62.99
  10   0   6  677.13   68.73
  10   0   7   -5.81   15.89
  10   0   8 1002.16   81.89
  10   1  -8    9.70   23.22
 -10   1   8   12.19   20.09
  10   1  -7  -16.78   19.06
 -10   1   7    2.62   15.99
  10  -1  -7   21.51   19.96
 -10   1   6  142.60   24.72
  10   1  -6  173.73   32.98
  10  -1  -6  178.56   32.96
 -10  -1   6  140.01   21.76
 -10   1   5  329.68   33.59
  10   1  -5  261.97   32.64
  10  -1  -5  204.04   32.11
 -10  -1   5  279.59   25.62
 -10   1   4   97.82   16.77
  10   1  -4   88.67   22.10
 -10  -1   4   65.16   16.49
  10  -1  -4   48.70   29.40
 -10   1   3 2253.21  117.54
  10   1  -3 2085.12  127.65
 -10  -1   3 2273.59  115.29
  10  -1  -3 2428.39  140.86
 -10   1   2  214.71   23.63
  10   1  -2  412.63   38.31
 -10  -1   2  277.58   25.11
  10  -1  -2  157.42   32.18
  10   1  -1   83.48   30.42
 -10   1   1   94.06   19.06
  10  -1  -1  132.59   25.27
 -10  -1   1  110.09   14.67
  10   1   0   85.12   23.58
 -10   1   0   72.11   14.46
  10  -1   0   70.61   23.20
  10   1   1   11.66   19.62
 -10   1  -1   18.87   14.65
  10  -1   1   10.80   17.91
  10   1   2  845.17   39.46
  10   1   2 1062.23   74.95
  10  -1   2  933.73   76.60
  10   1   3 1287.68   87.78
  10  -1   3 1219.52   88.13
  10   1   4   -0.84   19.17
  10  -1   4   38.97   20.99
  10   1   5  216.75   34.63
  10   1   5  146.89   26.54
  10  -1   5  109.24   22.67
  10  -1   5  253.08   39.85
  10   1   6  182.01   34.54
  10   1   6  217.52   32.45
  10  -1   6  210.00   30.45
  10   1   7   -5.77   23.11
  10   1   7   -0.34   20.10
  10  -1   7  -13.28   24.04
  10   1   8  170.54   36.09
  10  -1   8  241.99   41.95
 -10   2   8  199.32   32.94
  10   2  -8  110.68   31.84
 -10   2   7   13.33   17.98
  10   2  -7   -6.80   20.04
  10  -2  -7    1.94   21.67
  10   2  -6  154.02   31.06
 -10   2   6  124.46   27.54
  10  -2  -6  143.11   31.41
  10   2  -5   24.86   15.54
 -10   2   5   13.93   18.14
  10  -2  -5   23.55   23.82
 -10  -2   5    7.45   10.80
  10   2  -4  201.32   35.15
 -10   2   4  183.78   23.81
  10  -2  -4  139.93   32.49
 -10  -2   4  171.53   19.99
  10   2  -3  150.50   25.86
 -10   2   3  148.02   20.17
 -10  -2   3  139.75   17.87
  10  -2  -3  118.28   26.24
 -10   2   2    5.94   14.67
  10   2  -2    5.65   20.73
  10  -2  -2   20.64   16.94
 -10  -2   2    8.37    8.55
 -10   2   1   85.59   14.20
  10   2  -1  154.81   28.63
 -10  -2   1   68.57   15.78
  10  -2  -1   86.88   28.88
 -10   2   0   40.61   13.60
  10   2   0   57.49   25.49
  10  -2   0   59.59   28.81
 -10   2  -1  163.83   23.38
  10   2   1  162.33   33.36
  10   2   1  148.07   14.83
  10  -2   1  174.39   31.52
  10   2   2  326.43   45.88
 -10   2  -2  374.31   32.55
  10  -2   2  426.62   48.50
  10   2   3  156.09   32.81
  10  -2   3   87.18   27.73
  10   2   4  -11.25   22.71
  10  -2   4    7.33   24.13
  10   2   5  442.51   38.39
  10   2   5  404.75   46.85
  10  -2   5  477.03   46.14
  10   2   6  344.37   36.08
  10   2   6  231.58   37.27
  10  -2   6  281.33   40.04
  10   2   7   72.08   19.07
  10   2   7   27.69   37.85
  10  -2   7   56.31   30.23
  10  -2   8  315.58   43.82
 -10   3   9   57.30   32.13
  10   3  -8  210.55   37.81
 -10   3   8  139.69   37.53
  10   3  -7   43.03   29.65
 -10   3   7  107.39   24.11
  10   3  -6  310.37   39.77
 -10   3   6  206.79   32.89
  10   3  -5   21.41   23.84
 -10   3   5   15.27   19.56
 -10  -3   5   19.30    9.77
  10  -3  -5   16.80   26.20
  10   3  -4  319.40   34.76
 -10   3   4  330.29   38.79
 -10  -3   4  268.64   22.37
  10  -3  -4  316.16   39.92
  10   3  -3  -12.42   20.94
 -10   3   3    6.93   13.15
  10  -3  -3   11.71   16.85
 -10  -3   3    8.85    9.48
 -10   3   2  173.30   23.69
  10   3  -2  198.81   26.91
  10  -3  -2  164.07   31.60
 -10  -3   2  154.41   18.54
 -10   3   1   26.61   13.10
  10   3  -1   11.27   17.33
  10  -3  -1   14.61   19.25
 -10   3   0  574.77   45.05
  10   3   0  458.77   44.12
  10  -3   0  612.12   61.55
 -10   3  -1   48.80   20.46
  10   3   1   92.75   27.95
  10  -3   1   25.01   22.73
  10   3   2  162.27   32.70
 -10   3  -2  153.87   22.67
  10  -3   2  183.49   32.85
  10   3   3  175.85   27.28
 -10   3  -3  197.26   26.04
 -10   3  -4  124.31   28.78
  10   3   4  186.88   28.94
  10   3   5   66.73   37.47
  10   3   5  136.27   21.24
  10  -3   5  134.58   27.61
  10   3   6  112.89   36.16
  10   3   6  186.26   26.17
  10  -3   6  164.75   34.16
  10   3   7  135.84   38.58
  10  -3   7  144.73   30.03
  10  -3   8  170.57   48.33
 -10   4   9   75.17   37.57
 -10   4   8   15.45   22.22
  10   4  -8   25.08   25.60
  10   4  -7   97.39   35.00
 -10   4   7  182.12   36.91
  10   4  -7  156.03   29.27
  10   4  -6   -9.70   22.87
 -10   4   6   21.42   21.35
 -10   4   5  110.87   28.04
  10   4  -5  124.14   27.93
 -10   4   4    7.63   14.73
  10   4  -4  -10.87   22.20
 -10  -4   4    9.32    8.06
 -10   4   3  181.80   25.64
  10   4  -3  267.88   39.60
 -10  -4   3  190.18   19.49
  10   4  -2   21.38   17.50
 -10   4   2   10.22   13.97
 -10  -4   2    9.86    9.49
  10   4  -1   18.94   24.13
 -10   4   1  221.07   26.27
  10   4   0  319.15   38.35
 -10   4   0  241.33   27.07
  10   4   1  215.36   30.09
 -10   4  -1  182.16   24.36
 -10   4  -2  105.89   20.99
  10   4   2  172.71   33.16
 -10   4  -3  214.68   27.87
  10   4   3  248.20   38.63
  10   4   4  203.70   31.60
 -10   4  -4  139.61   27.82
  10   4   5  576.86   66.34
 -10   4  -5  746.25   57.26
  10   4   5  667.94   45.89
  10  -4   5  793.09   58.89
 -10   4  -6   35.30   20.28
  10   4   6   73.48   30.16
  10  -4   6   22.90   22.00
 -10   4  -7   34.32   20.38
  10   4   7    7.19   29.96
  10  -4   7   48.00   24.42
 -10   4  -8   22.72   29.30
  10  -4   8   29.59   34.69
 -10   5   9   70.73   38.65
 -10   5   8   41.67   27.08
  10   5  -8    3.46   29.78
 -10   5   7  725.26   75.56
  10   5  -7  825.67   73.68
  10   5  -6   -2.06   20.36
 -10   5   6  -32.58   19.78
 -10   5   5   70.35   22.06
  10   5  -5   12.47   30.09
  10   5  -4    6.75   24.23
 -10   5   4   -6.08   14.08
 -10   5   3  174.95   24.36
  10   5  -3  205.62   33.28
 -10  -5   3  134.12   15.49
  10   5  -2    7.44   22.13
 -10   5   2   86.84   18.66
  10   5  -1  511.17   51.53
 -10   5   1  560.22   49.97
 -10   5   0   -1.37   16.88
  10   5   0   -5.99   16.60
  10   5   1  -15.17   17.69
 -10   5  -1   -5.51   14.06
 -10   5  -2   22.31   15.94
  10   5   2   55.24   22.51
  10   5   3  216.05   43.36
 -10   5  -3  302.62   31.74
 -10   5  -4   10.08   21.65
  10   5   4   -3.20   26.09
  10  -5   4   35.16   17.30
  10   5   5   26.46   20.10
 -10   5  -5   -1.28   15.59
  10  -5   5    6.73   17.95
  10   5   6    3.62   32.73
 -10   5  -6   13.98   17.83
  10  -5   6   39.78   28.02
  10   5   7    4.21   32.46
 -10   5  -7   26.04   25.85
  10  -5   7   17.98   32.24
 -10   5  -8   -6.52   19.66
  10  -5   8   52.99   36.41
 -10   6   9   61.23   34.08
 -10   6   8  174.19   46.33
  10   6  -8  104.90   43.18
  10   6  -7   14.72   23.95
 -10   6   7   39.32   25.39
 -10   6   6  102.80   37.13
  10   6  -6  168.69   38.73
 -10   6   5  251.71   36.24
  10   6  -5  234.46   43.93
 -10   6   4  194.94   40.41
  10   6  -4  239.29   39.31
  10   6  -3  618.57   53.34
 -10   6   3  573.21   51.20
 -10  -6   3  520.35   32.16
 -10   6   2  481.84   50.59
  10   6  -2  479.41   49.29
 -10   6   1  215.90   31.29
  10   6  -1  316.26   39.86
  10   6   0   28.13   21.57
 -10   6   0    4.93   16.48
  10   6   1    9.63   24.31
 -10   6  -1   55.75   18.90
 -10   6  -2  279.18   36.28
  10   6   2  253.93   38.92
 -10   6  -3 1044.78   71.32
  10   6   3  949.31   76.25
 -10   6  -4  -14.12   16.11
  10   6   4   -4.26   15.58
  10  -6   4   11.68   12.68
  10   6   5    0.23   27.29
 -10   6  -5   28.83   17.59
  10  -6   5  -15.05   25.62
  10   6   6   14.14   30.19
 -10   6  -6   14.87   25.01
  10  -6   6   28.48   23.93
 -10   6  -7  153.17   28.83
  10   6   7  131.60   43.79
  10  -6   7   96.25   34.01
  10   7  -8   70.23   31.75
 -10   7   8   64.27   42.28
  10   7  -7   94.73   39.03
 -10   7   7  112.13   34.07
  10   7  -6   17.81   35.41
 -10   7   6   67.66   29.07
 -10   7   5   90.97   38.15
  10   7  -5   72.29   36.97
  10   7  -4  922.59   86.53
 -10   7   4  938.47   74.37
 -10   7   3   33.11   22.21
  10   7  -3   34.17   25.50
 -10   7   2  266.36   35.82
  10   7  -2  337.78   42.30
  10   7  -1  380.08   46.17
 -10   7   1  265.20   36.00
  10   7   0   56.14   26.36
 -10   7   0   83.07   23.67
  10   7   1  479.19   51.68
 -10   7  -1  424.41   49.13
  10   7   2  467.29   58.40
  10   7   3   17.23   39.26
 -10   7  -3  152.91   30.56
  10   7   4   16.96   29.58
 -10   7  -4   24.08   17.33
  10  -7   4  -13.50   23.45
 -10   7  -5   65.84   24.16
  10   7   5  132.70   40.06
  10  -7   5   70.08   26.68
 -10   7  -6  335.14   52.34
  10   7   6  392.15   57.09
  10  -7   6  335.66   47.20
 -10   7  -7   27.36   27.64
  10  -7   7   24.60   38.98
  10   8  -8   20.60   38.48
 -10   8   8   16.65   32.24
 -10   8   7    0.40   26.77
  10   8  -7  -21.34   34.19
 -10   8   6   27.16   30.06
  10   8  -6   70.57   37.01
 -10   8   5  272.52   51.77
  10   8  -5  171.07   46.66
 -10   8   4  120.95   33.87
  10   8  -4  166.54   45.95
  10   8  -3   22.90   35.43
 -10   8   3   72.79   26.80
 -10   8   2   -2.68   17.98
  10   8  -2    0.56   18.93
 -10   8   1   50.44   26.29
  10   8  -1   79.67   26.71
  10   8   0  243.10   38.29
 -10   8   0  183.60   35.24
 -10   8  -1   -2.38   14.46
  10   8   1    6.53   23.22
  10   8   2  193.96   39.52
 -10   8  -2  240.66   33.60
  10   8   3  -10.22   25.70
 -10   8  -3    0.43   18.65
  10  -8   3  -10.64   17.39
  10  -8   3   -8.94   15.31
  10   8   4    6.31   30.29
 -10   8  -4  -12.67   20.56
  10  -8   4  -18.65   21.89
  10   8   5   89.01   31.64
 -10   8  -5  117.88   28.36
  10   8   5  108.58   39.62
  10  -8   5  134.95   32.40
 -10   8  -6  469.74   60.40
  10   8   6  484.47   67.10
  10  -8   6  497.70   69.10
  10   9  -7  137.76   40.83
 -10   9   7  269.25   61.22
 -10   9   6   23.60   32.38
  10   9  -6  -10.09   22.77
 -10   9   5   29.18   42.36
  10   9  -5   90.57   40.36
  10   9  -4   55.75   36.74
 -10   9   4   13.39   40.12
  10   9  -3  181.77   48.27
 -10   9   3  182.68   37.11
 -10   9   2  606.40   60.61
  10   9  -2  674.71   66.53
 -10   9   1  926.14   83.97
  10   9  -1  699.01   76.10
  10   9   0   33.92   25.92
 -10   9   0   -8.65   29.49
  10   9   1   -8.22   29.85
 -10   9  -1   -3.51   20.14
 -10   9  -2  112.99   33.76
  10   9   2   58.34   33.30
 -10   9  -3   68.96   32.91
  10   9   3   41.61   41.21
  10  -9   3  106.39   24.29
  10  -9   3  118.52   33.37
 -10   9  -4  205.69   42.32
  10   9   4  243.12   53.74
  10  -9   4  279.16   41.59
 -10   9  -5  217.16   45.75
  10   9   5  130.09   48.52
  10  -9   5  237.97   40.21
  10  10  -6   39.01   32.17
 -10  10   6   34.16   33.30
 -10  10   5    7.70   35.08
  10  10  -5   -1.70   25.31
 -10  10   4   34.89   40.34
  10  10  -4   18.91   29.40
 -10  10   3   93.25   42.83
  10  10  -3   72.97   35.24
  10  10  -2   -1.04   24.22
 -10  10   2   -1.19   24.30
 -10  10   1  232.06   43.02
  10  10  -1  213.82   42.57
  10  10   0   26.87   39.22
 -10  10   0   58.68   35.90
 -10  10  -1   26.83   31.26
  10  10   1   38.96   30.51
 -10  10  -2   24.43   34.04
  10  10   2   58.52   32.33
  10 -10   2   43.57   26.20
 -10  10  -3   93.02   34.50
  10  10   3  131.60   48.34
  10 -10   3  199.24   36.05
  10 -10   3  176.58   29.65
  10  10   4  113.77   48.19
 -10  10  -4  100.34   35.91
  10 -10   4  166.48   36.77
  10  11  -4   15.48   29.21
 -10  11   4   -4.98   28.95
  10  11  -3   -3.53   26.91
 -10  11   3    7.65   27.44
 -10  11   2  -20.71   28.08
  10  11  -2    7.40   39.85
 -10  11   1  -17.90   32.10
  10  11  -1   16.19   38.39
  10  11   0   -2.61   29.27
 -10  11   0   32.43   36.49
 -10  11  -1  193.64   41.30
  10  11   1  157.24   43.27
  10  11   2  103.67   48.76
 -10  11  -2  230.15   38.56
  10 -11   2   96.11   43.19
  10  11   3   35.79   42.20
 -10  11  -3   19.31   26.03
  10 -11   3    5.51   24.98
  10 -11   3   18.43   18.57
  10  12  -2   37.06   36.37
 -10  12   2   19.31   34.96
 -10  12   1   51.31   37.61
  10  12  -1   43.31   47.60
  10  12   0   80.00   42.91
 -10  12   0  170.78   54.61
 -11   0   7   -4.39   15.59
  11   0  -7    4.49   20.63
  11   0  -6  101.87   32.68
 -11   0   6   47.03   20.32
  11   0  -5   14.45   17.36
 -11   0   5   -2.16   13.70
  11   0  -4  364.90   45.01
 -11   0   4  430.56   41.34
  11   0  -3  -16.25   18.88
 -11   0   3   -1.31   12.33
 -11   0   2  997.15   63.82
  11   0  -2 1257.84   94.04
  11   0  -1   10.99   19.08
 -11   0   1  -10.42   13.36
  11   0   0 2350.55  145.12
 -11   0   0 1962.98  108.30
 -11   0  -1  -14.46   13.96
  11   0   1  -26.42   27.10
  11   0   2 1520.82  103.98
  11   0   3    8.55   22.00
  11   0   4   83.13   35.36
  11   0   5    2.69   30.02
  11   0   5    9.06   19.93
  11   0   6  393.55   47.64
  11   0   6  326.23   59.03
  11   0   7    4.19   24.20
  11   0   8  183.74   36.14
  11   1  -8   -3.84   25.31
  11   1  -7  250.89   42.16
 -11   1   7  293.38   36.75
  11  -1  -7  194.22   47.65
  11   1  -6  190.22   39.81
 -11   1   6  193.26   30.10
  11  -1  -6  163.66   33.34
 -11  -1   6  189.25   27.01
 -11   1   5   28.67   17.45
  11   1  -5   20.77   24.47
 -11  -1   5    5.79   16.32
  11  -1  -5   -4.69   18.97
 -11   1   4  546.42   45.89
  11   1  -4  560.85   52.39
  11  -1  -4  528.33   50.39
 -11  -1   4  531.21   41.26
  11   1  -3  177.62   31.46
 -11   1   3  206.66   24.43
  11  -1  -3  168.70   35.87
 -11  -1   3  140.32   21.89
  11   1  -2  -10.06   22.00
 -11   1   2   10.25   10.15
 -11  -1   2   -3.99   11.24
  11  -1  -2   -4.72   17.29
 -11   1   1  479.86   43.12
  11   1  -1  505.81   49.44
  11  -1  -1  532.60   54.08
 -11  -1   1  520.92   36.81
 -11   1   0  175.96   22.24
  11   1   0  191.55   30.64
  11  -1   0  179.15   34.03
 -11  -1   0  190.45   25.50
  11   1   1  201.52   34.32
 -11   1  -1  250.33   27.28
  11  -1   1  235.23   36.67
  11   1   2  171.25   33.47
 -11   1  -2  144.09   22.77
  11  -1   2  206.33   34.17
  11   1   3   47.02   27.61
  11  -1   3  155.70   30.31
  11   1   4   -0.84   24.36
  11  -1   4   43.11   25.30
  11   1   5   -9.64   19.50
  11   1   5    4.34   15.11
  11  -1   5    2.66   15.02
  11  -1   5   -1.40   17.51
  11   1   6   31.67   33.54
  11   1   6   24.64   22.30
  11  -1   6    9.48   26.33
  11   1   7    7.18   24.90
  11   1   7   -6.48   19.11
  11  -1   7    7.87   23.60
  11  -1   8    7.69   32.15
 -11   2   8   81.24   32.76
  11   2  -8   45.88   32.41
  11   2  -7  159.80   27.46
 -11   2   7   96.73   29.64
  11  -2  -7   32.74   36.55
  11   2  -6  206.75   34.82
 -11   2   6  107.79   22.41
  11  -2  -6   76.33   36.40
  11   2  -5  183.11   31.21
 -11   2   5  137.38   23.84
  11  -2  -5  233.46   39.10
 -11  -2   5  157.06   21.44
 -11   2   4   10.16   22.52
  11   2  -4   29.19   20.38
 -11  -2   4   27.40   14.36
  11  -2  -4   18.42   22.89
  11   2  -3  666.18   59.26
 -11   2   3  662.12   48.59
 -11  -2   3  656.49   44.81
  11  -2  -3  673.12   65.01
 -11   2   2   25.08   18.45
  11   2  -2   -3.73   25.40
  11  -2  -2   21.19   23.32
 -11  -2   2   20.20   13.03
  11   2  -1  186.49   31.95
 -11   2   1  171.52   23.10
  11  -2  -1  199.13   34.96
 -11  -2   1  187.20   19.67
 -11   2   0  145.52   20.58
  11   2   0  151.51   29.10
  11  -2   0  104.40   31.38
 -11   2  -1   53.02   14.93
  11   2   1   75.50   32.76
  11  -2   1   46.40   26.45
 -11   2  -2  471.31   42.29
  11   2   2  351.77   43.94
  11  -2   2  360.03   57.25
  11   2   3  262.72   40.96
 -11   2  -3  279.07   31.47
  11  -2   3  319.71   50.81
  11   2   4    2.52   31.07
  11  -2   4   62.78   27.26
  11   2   5  118.55   27.08
  11   2   5  124.52   32.63
  11  -2   5  140.24   25.45
  11   2   6   40.45   37.52
  11   2   6   58.96   23.28
  11  -2   6   55.78   29.15
  11   2   7  101.95   48.87
  11  -2   7  181.25   33.44
  11  -2   8   75.98   39.20
 -11   3   8   23.84   27.07
  11   3  -8   28.66   27.75
 -11   3   7   40.78   26.66
  11   3  -7   12.84   27.42
 -11   3   6    7.45   22.25
  11   3  -6    9.96   25.37
 -11   3   5   -1.78   16.83
  11   3  -5   63.89   19.54
 -11  -3   5   -3.96   13.84
  11  -3  -5    7.83   22.13
 -11   3   4  334.85   34.95
  11   3  -4  311.44   46.82
  11  -3  -4  337.61   43.69
 -11  -3   4  384.05   30.93
  11   3  -3  274.05   38.83
 -11   3   3  250.32   31.23
 -11  -3   3  325.74   27.84
  11  -3  -3  283.58   41.66
  11   3  -2  162.25   28.54
 -11   3   2   97.52   26.50
 -11  -3   2  121.00   19.14
  11  -3  -2  181.54   33.62
  11   3  -1   30.39   20.41
 -11   3   1    8.73   18.30
  11  -3  -1   12.92   23.36
 -11   3   0  137.32   19.20
  11   3   0  111.86   34.41
  11  -3   0   84.13   27.60
  11   3   1  571.76   53.17
 -11   3  -1  524.44   46.17
  11  -3   1  462.76   59.72
  11   3   2  323.27   39.28
 -11   3  -2  368.34   35.24
  11  -3   2  323.37   46.08
 -11   3  -3   88.10   21.64
  11   3   3  150.40   31.83
 -11   3  -4  165.60   23.70
  11   3   4  150.47   42.36
  11   3   5   27.38   24.18
  11   3   5    5.65   15.97
 -11   3  -5   15.33   18.31
  11  -3   5    8.84   17.36
  11   3   6   11.15   24.06
  11  -3   6    8.28   24.01
  11   3   7   39.02   38.72
  11  -3   7   38.18   33.48
 -11   4   9   33.04   36.16
  11   4  -8  185.02   35.97
 -11   4   8  189.51   45.65
 -11   4   7  451.30   54.16
  11   4  -7  433.04   50.88
  11   4  -6  592.97   62.56
 -11   4   6  461.90   56.90
  11   4  -5   39.48   19.15
  11   4  -5    7.68   13.91
 -11   4   5   -5.76   24.26
 -11   4   4  184.46   36.07
  11   4  -4  201.02   35.10
  11   4  -4  212.02   32.13
 -11  -4   4  264.18   24.91
 -11   4   3   45.35   27.46
  11   4  -3  121.31   27.12
 -11  -4   3   79.78   15.34
  11   4  -2  141.38   37.05
  11   4  -2  185.76   31.61
 -11   4   2  212.87   29.05
 -11  -4   2  179.22   21.59
 -11   4   1   38.39   16.41
  11   4  -1   34.89   22.07
  11   4   0   15.90   19.73
 -11   4   0   14.01   20.43
  11   4   1    3.74   22.77
 -11   4  -1   71.90   20.76
 -11   4  -2  126.28   22.25
  11   4   2  136.27   36.05
  11   4   3  200.16   42.80
 -11   4  -3  270.82   37.42
 -11   4  -4   15.82   23.49
  11   4   4   39.17   23.92
 -11   4  -5   44.56   20.95
  11   4   5   38.86   30.69
  11  -4   5   25.21   26.13
 -11   4  -6   36.30   21.31
  11   4   6   47.61   39.28
  11  -4   6  106.14   32.87
  11   4   7   11.76   29.42
 -11   4  -7    4.51   23.19
  11  -4   7   -5.90   20.36
 -11   5   8   20.27   24.32
  11   5  -8   10.08   32.36
  11   5  -7   -1.30   23.33
 -11   5   7   19.79   28.83
  11   5  -6   28.43   32.17
 -11   5   6   15.70   29.10
  11   5  -5   18.88   32.64
 -11   5   5   44.31   26.31
  11   5  -4  101.55   28.25
 -11   5   4   79.49   31.99
  11   5  -3   -1.52   20.91
 -11   5   3  -10.48   17.80
 -11  -5   3   -1.88    9.94
 -11   5   2  420.70   48.99
  11   5  -2  295.90   45.07
 -11  -5   2  363.67   30.50
  11   5  -1  -11.23   20.40
 -11   5   1   -1.32   17.23
 -11   5   0  393.37   38.36
  11   5   0  360.69   52.49
  11   5   1   14.57   21.22
  11   5   1   14.04   14.76
 -11   5  -2    8.84   17.32
  11   5   2   40.40   24.52
 -11   5  -3  139.61   27.66
  11   5   3  246.13   33.80
  11   5   4  328.23   49.35
 -11   5  -4  303.37   39.71
  11  -5   4  264.66   35.48
 -11   5  -5    2.19   23.92
  11   5   5   -7.90   23.59
  11  -5   5   24.23   24.85
  11   5   6   31.84   28.46
 -11   5  -6    6.50   28.85
  11  -5   6   30.72   29.59
  11   5   7   58.47   30.34
 -11   5  -7   29.69   32.63
  11  -5   7   18.52   37.95
  11   6  -8   21.10   28.02
 -11   6   8   43.88   29.57
  11   6  -7  152.98   42.26
 -11   6   7   71.99   41.78
 -11   6   6    5.59   25.54
  11   6  -6   39.46   32.63
  11   6  -5  -22.87   28.02
 -11   6   5   16.99   20.65
  11   6  -4   19.92   35.13
 -11   6   4   53.97   24.81
 -11   6   3   85.90   31.40
  11   6  -3   19.98   24.48
 -11  -6   3   15.68   11.14
  11   6  -2  573.56   57.87
 -11   6   2  548.26   49.62
  11   6  -1   54.13   24.80
 -11   6   1    0.72   18.53
 -11   6   0   19.08   20.47
  11   6   0   53.41   26.42
 -11   6  -1   33.99   29.00
  11   6   1   86.23   35.41
 -11   6  -2   36.38   20.45
  11   6   2   57.75   26.55
 -11   6  -3   81.23   21.51
  11   6   3   27.56   25.60
  11   6   4   23.13   26.87
 -11   6  -4   -1.48   16.26
  11  -6   4   -4.35   16.49
  11   6   5   73.99   32.77
 -11   6  -5   42.63   22.90
  11  -6   5   99.88   27.26
  11   6   6  434.39   58.89
 -11   6  -6  527.13   53.75
  11  -6   6  569.96   62.86
  11   7  -7   10.77   38.80
 -11   7   7   28.29   37.55
 -11   7   6   50.76   31.02
  11   7  -6   16.90   36.67
  11   7  -5    7.50   37.05
 -11   7   5   21.99   34.87
 -11   7   4   -1.91   30.49
  11   7  -4   -6.74   30.06
 -11   7   3   19.52   22.29
  11   7  -3   12.71   30.85
  11   7  -2  171.10   39.10
 -11   7   2   81.45   28.73
  11   7  -1  111.83   32.38
 -11   7   1   60.43   34.32
 -11   7   0  211.97   32.39
  11   7   0  173.53   37.07
  11   7   1  274.62   55.06
 -11   7  -1  301.91   39.96
 -11   7  -2  315.39   42.85
  11   7   2  341.28   48.02
  11   7   3   26.39   36.18
 -11   7  -3   35.34   26.08
 -11   7  -4   39.12   28.21
  11   7   4   10.28   33.76
  11  -7   4   47.68   26.46
  11   7   5   18.24   23.28
 -11   7  -5    2.70   20.09
  11  -7   5   -3.58   29.04
 -11   7  -6   26.58   25.85
  11   7   6  -24.90   38.39
  11  -7   6   70.94   38.34
  11   8  -7   -5.22   33.71
 -11   8   7    9.73   28.77
 -11   8   6   13.42   27.68
  11   8  -6   67.14   38.80
  11   8  -5   29.63   43.36
 -11   8   5   75.02   43.07
  11   8  -4   32.33   37.96
 -11   8   4   33.70   36.94
 -11   8   3    6.57   31.21
  11   8  -2  -20.75   28.93
 -11   8   2   19.75   21.52
 -11   8   1   -5.36   29.82
  11   8  -1  -26.12   29.35
  11   8   0    2.64   25.79
 -11   8   0    6.42   20.62
  11   8   1  468.48   66.56
 -11   8  -1  319.49   41.91
  11   8   2  163.04   42.33
 -11   8  -2  321.77   38.63
  11   8   3   87.73   44.07
 -11   8  -3  114.66   36.64
  11  -8   3   94.75   28.36
 -11   8  -4  223.58   40.95
  11   8   4   82.98   46.26
  11   8   4  191.68   37.77
  11  -8   4  137.27   43.06
  11   8   5  152.56   46.84
 -11   8  -5  106.10   38.30
  11  -8   5   70.26   44.53
 -11   9   6  -11.70   37.50
  11   9  -6   -4.20   26.44
  11   9  -5   64.75   43.06
 -11   9   5   18.91   40.95
  11   9  -4   42.30   37.39
 -11   9   4   -1.47   30.31
 -11   9   3  -18.71   23.59
  11   9  -3   58.12   34.56
  11   9  -2   47.00   33.60
 -11   9   2  -19.22   23.05
  11   9  -1   10.23   24.46
 -11   9   1   -8.02   19.89
  11   9   0  364.16   51.23
 -11   9   0  295.67   46.20
 -11   9  -1  354.10   48.94
  11   9   1  336.23   51.61
  11   9   2   88.97   42.21
 -11   9  -2   18.96   26.78
 -11   9  -3   -1.90   31.26
  11   9   3   24.25   27.85
  11  -9   3   25.60   24.32
  11   9   4   13.03   28.67
 -11   9  -4  -11.43   21.32
  11  -9   4   -6.43   30.89
  11  10  -5   38.40   35.60
 -11  10   5   18.50   35.73
  11  10  -4    5.86   39.92
 -11  10   4   10.69   31.25
 -11  10   3   12.02   26.57
  11  10  -3  -13.10   33.22
 -11  10   2  111.90   36.27
  11  10  -2  118.00   39.94
 -11  10   1  137.90   37.09
  11  10  -1  161.39   38.81
 -11  10   0   77.00   36.62
  11  10   0  214.28   52.76
 -11  10  -1   30.38   37.49
  11  10   1   53.84   34.55
 -11  10  -2   31.16   32.74
  11  10   2   -7.79   28.96
  11 -10   2    8.79   23.30
  11  10   3   43.80   34.01
 -11  10  -3   40.59   41.28
  11 -10   3   20.08   37.03
  11  11  -3  238.05   50.29
 -11  11   3  337.12   69.00
  11  11  -2   -8.19   42.63
 -11  11   2   -8.14   30.60
  11  11  -1   29.41   37.33
 -11  11   1   51.57   46.97
 -11  11   0   49.09   33.93
  11  11   0   54.91   44.98
 -11  11  -1   40.89   46.12
  11  11   1  104.70   39.51
  12   0  -7   23.30   30.50
 -12   0   6    2.75   20.83
  12   0  -6   11.29   22.23
 -12   0   5  -14.01   16.52
  12   0  -5    2.18   27.19
 -12   0   4  296.91   37.15
  12   0  -4  332.55   42.52
  12   0  -3    9.97   20.29
 -12   0   3    3.76   16.08
 -12   0   2   88.03   22.51
  12   0  -2  158.74   32.59
  12   0  -1  -11.40   27.82
 -12   0   1   -4.59   15.98
  12   0   0   36.27   27.30
 -12   0   0   36.44   20.56
  12   0   1   14.50   22.06
 -12   0  -1   20.74   18.06
  12   0   2  243.03   39.75
  12   0   3  -12.25   23.90
  12   0   4  263.26   52.30
  12   0   5   -0.17   26.64
  12   0   5   -6.47   18.91
  12   0   6  185.99   40.20
  12   0   6  473.45   64.39
  12   0   7    7.91   27.67
 -12   1   7    0.50   18.54
  12   1  -7   46.55   29.30
  12  -1  -7    0.93   23.20
 -12   1   6   57.68   22.50
  12   1  -6   19.16   24.51
  12  -1  -6   -1.35   25.30
  12   1  -5  145.13   33.77
 -12   1   5  156.49   26.50
  12  -1  -5   36.99   37.12
 -12  -1   5  157.71   22.10
 -12   1   4   63.59   23.09
  12   1  -4   44.73   33.55
  12  -1  -4   31.60   32.50
 -12  -1   4   54.30   20.27
 -12   1   3  304.20   30.29
  12   1  -3  265.37   39.76
  12  -1  -3  263.99   49.68
 -12  -1   3  305.87   32.43
  12   1  -2   18.23   22.75
 -12   1   2   33.91   13.72
 -12  -1   2   -0.90   13.21
  12  -1  -2   29.76   27.60
  12   1  -1    7.33   22.35
 -12   1   1   14.64   14.97
  12  -1  -1    0.17   26.56
 -12  -1   1   -6.49   13.55
  12   1   0  229.36   39.04
 -12   1   0  202.70   25.47
  12  -1   0  289.87   48.48
 -12  -1   0  210.07   28.88
  12   1   1  148.76   38.82
 -12   1  -1  108.08   20.07
  12  -1   1  115.14   39.02
  12   1   2  280.49   47.69
 -12   1  -2  270.22   34.32
  12  -1   2  209.90   40.51
  12   1   3  383.49   49.19
  12  -1   3  360.25   51.09
  12   1   4  115.87   45.51
  12  -1   4  138.85   47.46
  12   1   5  -48.32   26.90
  12   1   5    7.24   18.79
  12  -1   5    2.91   18.65
  12  -1   5   26.75   24.73
  12   1   6    6.92   26.15
  12   1   6   63.70   41.24
  12  -1   6    6.37   25.72
  12   1   7  110.16   55.58
  12  -1   7  132.59   43.76
  12   2  -8   -7.68   31.39
  12   2  -7   65.10   38.71
 -12   2   7   90.52   32.05
  12  -2  -7   79.99   39.99
  12   2  -6   31.13   26.94
 -12   2   6   76.46   26.07
  12  -2  -6   25.52   36.35
  12   2  -5  -11.35   28.71
 -12   2   5   19.93   22.70
 -12  -2   5   -0.81   14.42
  12  -2  -5   33.50   22.84
 -12   2   4   12.17   18.63
  12   2  -4   79.82   24.49
  12  -2  -4   25.14   35.44
 -12  -2   4   67.79   20.21
  12   2  -3   15.43   26.50
 -12   2   3   45.64   22.43
 -12  -2   3   53.87   17.46
  12  -2  -3   49.70   27.65
  12   2  -2  109.31   30.65
 -12   2   2  146.80   25.98
 -12  -2   2  102.45   19.88
  12  -2  -2  174.28   33.53
 -12   2   1    3.84   21.23
  12   2  -1   14.43   30.97
 -12  -2   1   41.01   15.89
  12  -2  -1   79.38   28.06
  12   2   0   -2.95   24.18
 -12   2   0    5.53   13.97
  12  -2   0    8.81   30.08
 -12  -2   0  -30.05   14.44
  12   2   1   47.18   38.58
 -12   2  -1   69.05   24.74
  12  -2   1  119.42   42.11
 -12   2  -2  211.07   28.26
  12   2   2  230.89   37.88
  12  -2   2  284.51   43.00
 -12   2  -3   49.25   20.98
  12   2   3   76.60   29.94
  12  -2   3   64.39   41.45
 -12   2  -4  203.12   32.34
  12   2   4  382.86   49.23
  12  -2   4  364.20   50.72
  12   2   5   15.88   28.44
  12   2   5   22.76   21.88
  12  -2   5   41.12   21.56
  12   2   6   50.92   44.35
  12  -2   6   84.08   27.10
  12   2   7   16.36   43.94
  12  -2   7   33.03   32.81
 -12   3   8   43.42   29.94
  12   3  -8  -14.71   33.56
 -12   3   7   96.09   28.14
  12   3  -7   49.47   38.01
 -12   3   6   64.29   31.49
  12   3  -6   72.04   35.18
  12   3  -5   82.62   26.38
 -12   3   5   79.93   29.60
  12  -3  -5   17.60   29.63
  12   3  -4   12.52   22.68
 -12   3   4   19.18   21.16
  12  -3  -4   -2.86   29.41
 -12  -3   4    3.21   14.09
  12   3  -3  129.44   33.30
 -12   3   3   -7.88   20.49
 -12  -3   3   81.00   18.27
  12  -3  -3  118.03   28.27
 -12   3   2  171.70   28.99
  12   3  -2  190.27   31.54
 -12  -3   2  119.50   20.40
  12  -3  -2   83.98   42.20
 -12   3   1  180.91   31.87
  12   3  -1  180.41   36.45
 -12  -3   1  189.46   20.91
  12  -3  -1  249.12   39.48
  12   3   0  282.01   54.06
 -12   3   0  445.65   43.09
  12  -3   0  365.31   50.82
 -12   3  -1  509.67   46.18
  12   3   1  644.73   59.50
  12  -3   1  461.05   56.18
 -12   3  -2   28.29   22.93
  12   3   2   45.39   34.69
  12  -3   2   10.47   26.74
 -12   3  -3   38.42   26.23
  12   3   3   37.95   38.08
  12   3   4   29.99   24.82
 -12   3  -4   -3.27   17.47
  12   3   5   80.56   32.81
 -12   3  -5  110.69   27.81
  12  -3   5  104.88   28.75
 -12   3  -6  262.09   41.32
  12   3   6  346.78   70.99
  12  -3   6  324.92   49.01
 -12   3  -7   76.31   38.06
  12   4  -8   -5.25   21.93
 -12   4   8   19.50   31.25
 -12   4   7  100.83   29.65
  12   4  -7   96.28   38.97
 -12   4   6   18.78   23.87
  12   4  -6   28.09   24.48
 -12   4   5   45.87   28.76
  12   4  -5   11.64   25.18
 -12   4   4   39.23   21.54
  12   4  -4    3.05   28.33
  12   4  -3   67.81   36.40
 -12   4   3   70.90   28.53
 -12  -4   3   74.26   16.80
 -12   4   2  209.89   27.97
  12   4  -2  131.61   35.61
 -12  -4   2  132.04   17.81
 -12   4   1   98.23   23.68
  12   4  -1   84.72   29.47
  12   4   0   63.76   36.87
 -12   4   0  182.26   24.18
  12   4   1  482.98   51.77
 -12   4  -1  387.79   44.97
 -12   4  -2   29.36   19.15
  12   4   2   37.72   33.24
 -12   4  -3  122.99   25.99
  12   4   3  142.54   37.36
  12   4   4   83.99   33.06
 -12   4  -4  124.88   33.64
  12   4   5   16.85   41.19
 -12   4  -5   76.09   34.70
  12  -4   5   76.60   33.47
 -12   4  -6   15.46   23.54
  12   4   6   21.07   43.72
  12  -4   6   69.46   27.81
  12   5  -8    5.31   30.77
 -12   5   8  107.75   40.39
 -12   5   7   -2.45   32.77
  12   5  -7  -25.60   33.88
 -12   5   6   47.19   38.54
  12   5  -6  126.42   41.87
 -12   5   5   35.96   28.14
  12   5  -5   68.47   31.12
  12   5  -5   84.25   36.19
  12   5  -4  414.89   63.64
 -12   5   4  415.52   58.37
 -12   5   3  954.00   73.14
 -12  -5   3  801.32   50.90
  12   5  -2  223.83   34.30
 -12   5   2  161.40   28.69
  12   5  -2  211.28   38.02
 -12  -5   2  116.19   21.06
 -12   5   1  224.95   31.65
  12   5  -1   86.92   32.75
 -12   5   0  132.81   25.87
  12   5   0  137.16   38.89
 -12   5  -1  106.74   21.71
  12   5   1   33.12   28.25
  12   5   2  227.88   50.45
 -12   5  -2  357.92   38.44
 -12   5  -3  604.90   52.63
  12   5   3  618.64   65.42
  12   5   4   32.21   31.22
 -12   5  -4   56.80   23.84
  12  -5   4   64.25   31.24
 -12   5  -5   29.09   22.55
  12   5   5    3.16   35.78
  12  -5   5   -3.28   31.07
  12   5   6  107.85   51.51
 -12   5  -6  120.96   41.99
  12  -5   6  179.65   44.71
 -12   6   7   33.86   35.78
  12   6  -7  -12.99   27.39
 -12   6   6   -5.56   35.22
  12   6  -6   19.88   26.48
  12   6  -5  208.51   37.93
 -12   6   5  100.33   45.36
 -12   6   4   19.50   26.05
  12   6  -4   32.95   28.48
 -12   6   3  139.91   41.27
  12   6  -3  108.54   35.32
  12   6  -2   13.37   31.85
 -12   6   2   31.43   18.90
 -12  -6   2   -4.08   11.95
  12   6  -1  252.95   50.49
 -12   6   1  157.44   39.13
 -12   6   0    6.54   18.67
  12   6   0   17.67   27.59
  12   6   1  180.19   45.61
 -12   6  -1  180.78   33.41
 -12   6  -2   92.55   31.84
  12   6   2   65.08   33.06
 -12   6  -3   98.76   27.77
  12   6   3   23.53   41.20
 -12   6  -4  175.07   32.26
  12   6   4  171.06   51.40
  12  -6   4   88.49   30.22
 -12   6  -5  190.75   36.10
  12   6   5  151.18   52.99
  12  -6   5  188.92   35.52
  12   7  -7   54.34   34.09
  12   7  -6   13.12   24.08
 -12   7   6  -18.53   31.08
 -12   7   5  100.17   49.29
  12   7  -5  110.68   38.83
 -12   7   4   60.43   31.33
  12   7  -4   61.08   33.34
 -12   7   3   39.09   37.46
  12   7  -3   71.19   32.98
 -12   7   2   65.91   26.68
  12   7  -2    7.69   29.11
 -12   7   1   21.44   21.52
  12   7  -1   -0.62   29.43
 -12   7   0  330.17   41.88
  12   7   0  422.82   66.04
  12   7   1   10.97   28.08
 -12   7  -1  -22.59   26.46
  12   7   2   76.18   40.48
 -12   7  -2  323.50   38.47
  12   7   2  171.39   42.23
  12   7   3   99.71   43.70
 -12   7  -3   83.41   35.12
 -12   7  -4   -0.73   18.66
  12   7   4   44.82   34.51
  12  -7   4   -7.84   28.05
  12   7   5   87.60   39.14
 -12   7  -5  107.14   32.85
  12  -7   5  170.36   45.70
 -12   8   6   78.84   41.49
  12   8  -6   66.59   37.92
 -12   8   5   89.73   44.57
  12   8  -5   10.87   45.06
 -12   8   4  139.93   51.63
  12   8  -4  143.34   52.19
 -12   8   3   26.29   28.99
  12   8  -3   23.65   40.52
 -12   8   2  111.93   33.78
  12   8  -2   93.34   41.39
 -12   8   1   25.95   34.19
  12   8  -1   38.40   33.74
  12   8   0   -7.66   34.66
 -12   8   0   13.75   24.53
 -12   8  -1   58.54   27.50
  12   8   1   64.11   35.38
 -12   8  -2   23.28   31.06
  12   8   2    4.01   31.38
  12   8   3   17.60   36.51
  12   8   3   11.38   29.15
 -12   8  -3   34.29   26.35
  12  -8   3   -7.57   25.55
 -12   8  -4  -25.70   34.61
  12   8   4   49.91   38.97
  12  -8   4   38.14   25.96
  12   9  -5  126.24   42.10
 -12   9   4   54.23   34.35
  12   9  -4   16.25   44.63
  12   9  -3    0.47   33.12
 -12   9   2   23.08   28.55
  12   9  -2   22.76   31.22
 -12   9   1   44.14   28.43
  12   9  -1   -9.39   34.00
 -12   9   0  219.51   53.73
  12   9   0  218.34   59.47
  12   9   1  118.22   40.94
 -12   9  -1   53.26   32.73
 -12   9  -2   25.45   28.93
  12   9   2   36.95   36.22
  12   9   3   75.13   39.53
 -12   9  -3   66.13   31.40
  12  -9   3   29.80   36.59
 -12  10   3  157.85   53.75
  12  10  -3   47.26   40.05
 -12  10   2   40.42   43.76
  12  10  -2   34.58   36.33
 -12  10   1   73.01   41.80
  12  10  -1  126.22   52.77
 -12  10   0    9.30   28.60
  12  10   0    9.09   31.77
 -12  10  -1    8.46   28.18
  12  10   1    5.08   33.18
  13   0  -7   23.50   33.24
  13   0  -6  204.09   35.85
  13   0  -5   -6.74   22.14
 -13   0   5    0.90   17.85
 -13   0   4  233.59   35.99
  13   0  -4  240.67   50.57
 -13   0   3    8.49   17.76
  13   0  -3   -8.05   28.64
  13   0  -2    9.09   24.57
 -13   0   2   22.55   20.24
  13   0  -1  -13.60   20.50
 -13   0   1    2.24   12.52
 -13   0   0  106.06   23.81
  13   0   0   69.28   32.60
 -13   0  -1   15.52   14.13
  13   0   1  -10.58   27.07
 -13   0  -2  125.68   25.63
  13   0   2  225.05   38.90
  13   0   3  -26.33   40.70
  13   0   4  349.76   53.80
  13   0   5   40.97   39.01
  13   0   5   -3.94   24.53
  13   0   6   41.62   31.16
  13   0   6   38.74   49.93
  13   1  -7    4.62   35.62
  13  -1  -7   19.32   26.85
 -13   1   6   19.02   20.00
  13   1  -6   14.62   33.82
  13  -1  -6    1.71   32.71
  13   1  -5  121.81   40.75
 -13   1   5   73.63   23.80
  13  -1  -5   77.35   44.61
  13   1  -4  114.35   37.96
 -13   1   4  100.07   32.54
 -13  -1   4  106.74   25.98
  13  -1  -4  124.47   34.95
 -13   1   3   18.11   20.21
  13   1  -3   46.68   34.35
 -13  -1   3    9.56   20.36
  13  -1  -3   41.89   33.09
 -13   1   2  224.45   32.30
  13   1  -2  185.49   37.87
 -13  -1   2  193.75   25.54
  13  -1  -2  159.09   46.55
  13   1  -1  217.64   38.85
 -13   1   1  195.05   26.16
  13  -1  -1  253.81   48.02
 -13  -1   1  158.13   29.31
  13   1   0   14.84   31.34
 -13   1   0   -3.10   12.37
  13  -1   0  -17.26   22.66
 -13  -1   0   -0.44   13.39
  13   1   1  461.76   65.41
 -13   1  -1  399.23   41.80
 -13  -1  -1  532.83   50.42
  13  -1   1  555.88   63.09
 -13   1  -2   47.81   20.71
  13   1   2   14.46   39.49
  13  -1   2   40.78   32.36
  13   1   3  211.68   42.41
 -13   1  -3  205.97   30.23
  13  -1   3  193.63   43.02
  13   1   4  269.55   45.88
  13  -1   4  209.27   63.96
  13   1   5  392.08   68.81
  13   1   5  313.15   45.91
  13  -1   5  331.71   49.27
  13  -1   5  343.99   67.83
  13   1   6   60.28   47.45
  13   1   6    7.18   28.64
  13  -1   6   45.68   33.50
  13   2  -7  -16.60   33.60
 -13   2   7   -7.94   27.28
  13  -2  -7   -6.42   33.81
 -13   2   6   31.83   27.42
  13   2  -6   48.30   26.52
  13  -2  -6    1.90   28.70
  13   2  -5   31.29   25.88
 -13   2   5  -13.76   15.71
  13  -2  -5    8.72   27.13
 -13   2   4   92.57   35.10
  13   2  -4  102.39   34.12
 -13  -2   4  120.18   23.78
  13  -2  -4  133.77   43.71
  13   2  -3  123.07   44.11
 -13   2   3  222.88   29.67
  13  -2  -3  203.20   39.37
 -13  -2   3  194.36   27.58
  13   2  -2   -0.87   23.77
 -13   2   2  -27.08   21.65
 -13  -2   2  -16.31   17.14
  13  -2  -2   -0.71   26.50
 -13   2   1  130.18   27.73
  13   2  -1  103.21   45.88
 -13  -2   1  116.04   23.87
  13  -2  -1  133.69   32.81
 -13   2   0  321.91   36.47
  13   2   0  432.82   55.88
  13  -2   0  567.74   68.06
 -13  -2   0  395.31   39.29
  13   2   1  691.60   69.95
 -13   2  -1  717.71   63.67
  13  -2   1  665.17   69.88
 -13   2  -2   56.67   21.22
  13   2   2   37.97   31.07
  13  -2   2   34.96   44.85
  13   2   3   11.76   23.32
 -13   2  -3    0.68   16.67
  13  -2   3   -8.74   27.57
  13   2   4  119.27   38.54
 -13   2  -4   78.27   34.99
 -13   2  -5  163.16   28.49
  13   2   5  130.58   51.20
  13   2   5   44.98   27.60
  13  -2   5  113.63   37.41
  13   2   6   97.05   42.04
 -13   2  -6   77.02   38.42
  13  -2   6   54.07   37.97
 -13   3   7   25.86   33.13
  13   3  -7   51.84   39.06
 -13   3   6  111.75   36.19
  13   3  -6   83.28   35.42
 -13   3   5   87.43   37.55
  13   3  -5  187.75   36.80
  13  -3  -5   64.18   38.36
 -13   3   4   -1.64   24.62
  13   3  -4   16.48   29.80
  13  -3  -4  -14.36   36.83
 -13  -3   4   15.38   16.17
 -13   3   3   89.66   27.27
  13   3  -3  100.82   36.73
 -13  -3   3  120.31   22.18
  13  -3  -3   90.53   44.24
  13   3  -2  109.11   32.53
 -13   3   2   57.29   30.69
 -13  -3   2  154.86   22.48
  13  -3  -2  118.10   36.60
  13   3  -1   35.19   36.04
 -13   3   1   59.52   19.67
  13  -3  -1   60.65   40.64
 -13  -3   1    7.65   19.42
  13   3   0   74.78   32.66
 -13   3   0   58.33   29.09
  13  -3   0   68.04   34.20
 -13   3  -1   56.49   28.55
  13   3   1   16.46   30.00
  13  -3   1   -9.66   42.12
  13   3   2   55.16   43.52
 -13   3  -2   35.01   22.06
  13   3   3  110.08   46.46
 -13   3  -3  161.61   28.00
 -13   3  -4  208.25   41.13
  13   3   4  202.26   47.22
  13   3   5   25.95   33.65
 -13   3  -5   28.67   21.61
  13  -3   5   18.13   24.63
 -13   4   7   12.20   31.04
  13   4  -7    7.76   33.63
 -13   4   6   25.32   32.15
  13   4  -6  103.27   32.09
 -13   4   5   18.44   31.90
  13   4  -5   31.34   29.49
 -13   4   4   18.27   21.73
  13   4  -4   -0.81   25.59
  13   4  -3   14.79   23.41
 -13   4   3   12.63   21.42
 -13  -4   3   11.73   16.24
  13   4  -2  -38.65   32.29
 -13  -4   2   -1.75   14.38
 -13   4   1   71.24   27.87
  13   4  -1   34.61   28.29
 -13  -4   1   37.39   18.90
 -13   4   0  106.93   31.07
  13   4   0  150.22   46.92
  13   4   1  162.23   35.48
 -13   4  -1  132.33   33.47
  13   4   2   70.47   30.38
 -13   4  -2  -15.84   20.22
  13   4   3   36.32   31.23
 -13   4  -3   30.02   22.13
 -13   4  -4  242.42   42.14
  13   4   4  185.31   43.32
 -13   4  -5  212.77   35.13
  13   4   5   54.57   43.44
  13  -4   5  126.43   33.52
 -13   5   7   17.45   36.28
  13   5  -7    7.51   29.43
 -13   5   6   23.77   32.47
  13   5  -6   -7.83   25.62
 -13   5   5   50.76   35.82
  13   5  -5   -7.47   29.16
 -13   5   4  214.54   49.26
  13   5  -4  260.67   44.36
  13   5  -3   40.31   28.29
 -13   5   3   12.80   29.81
 -13   5   2  135.00   29.48
  13   5  -2  137.95   35.34
 -13  -5   2   98.63   21.40
  13   5  -1   36.76   39.17
 -13   5   1   19.30   26.95
  13   5   0  286.51   47.95
 -13   5   0  212.42   35.27
 -13   5  -1    5.46   23.84
  13   5   1  -15.30   24.59
  13   5   2  198.26   52.50
 -13   5  -2  190.87   33.58
  13   5   3   81.50   47.14
 -13   5  -3   60.04   33.44
 -13   5  -4   -2.69   22.89
  13   5   4   14.34   43.44
  13  -5   4   42.81   23.28
 -13   5  -5   19.28   22.64
  13   5   5  -50.48   40.32
  13  -5   5   13.41   23.05
 -13   6   6   91.25   50.17
  13   6  -6   99.10   42.48
  13   6  -5   12.61   18.94
 -13   6   5    8.32   27.66
  13   6  -5   26.11   27.97
  13   6  -4   47.16   29.37
 -13   6   4   20.95   29.75
  13   6  -4   22.42   31.27
  13   6  -3    9.40   24.03
 -13   6   3   31.45   26.14
  13   6  -3  -23.22   22.10
 -13   6   2   -9.77   20.60
  13   6  -2    7.92   17.61
  13   6  -2   32.83   32.44
  13   6  -1   22.58   37.08
 -13   6   1    8.99   22.14
 -13   6   0  135.70   31.56
  13   6   0  117.19   41.22
 -13   6  -1   18.66   31.60
  13   6   1   37.80   29.78
  13   6   2  148.45   49.95
 -13   6  -2  171.76   32.07
 -13   6  -3   65.87   27.09
  13   6   3   33.90   43.46
 -13   6  -4   43.37   26.25
  13   6   4   35.22   46.41
  13  -6   4   28.61   26.83
 -13   7   5   54.25   36.39
  13   7  -5   56.77   48.58
  13   7  -4  168.21   53.38
 -13   7   4  142.60   49.60
  13   7  -3   38.44   42.99
 -13   7   3   34.62   28.85
  13   7  -2   52.75   45.08
 -13   7   2   60.34   38.96
  13   7  -1  147.27   44.42
 -13   7   1  131.11   33.67
 -13   7   0  164.63   41.24
  13   7   0  118.22   51.29
  13   7   1  164.14   42.38
 -13   7  -1  101.44   40.59
 -13   7  -2   15.62   26.71
  13   7   2   31.42   33.37
 -13   7  -3  -18.31   24.37
  13   7   3    7.69   29.48
 -13   8   4   70.52   32.16
  13   8  -4   70.59   41.22
  13   8  -3   85.35   41.73
 -13   8   3  140.48   37.67
  13   8  -2   47.76   50.32
 -13   8   2   86.92   35.86
  13   8  -1  -26.51   48.82
 -13   8   1  -44.80   28.62
 -13   8   0   37.26   26.61
  13   8   0   58.62   37.93
  13   8   1   24.74   31.80
 -13   8  -1   -2.85   23.82
 -13   8  -2   -9.08   30.42
  13   8   2    0.96   27.40
 -13   9   2   65.72   37.84
  13   9  -2  123.05   45.23
 -13   9   1  149.56   52.42
  13   9  -1  121.14   63.25
  13   9   0    9.88   37.72
 -13   9   0   30.62   39.10
  14   0  -7   15.05   39.88
  14   0  -6    7.84   36.69
 -14   0   5    9.15   22.94
  14   0  -5    0.78   25.87
 -14   0   4  201.94   34.20
  14   0  -4  105.98   38.17
  14   0  -3  -16.76   38.70
 -14   0   3  -15.73   23.35
 -14   0   2   75.22   25.37
  14   0  -2   42.37   43.02
  14   0  -1   17.32   28.10
 -14   0   1    9.06   14.97
 -14   0   0   27.31   21.71
  14   0   0   -3.05   30.24
 -14   0  -1  -22.23   22.64
  14   0   1  -14.38   42.31
  14   0   2   53.79   32.28
 -14   0  -2   15.87   18.28
 -14   0  -3   26.96   26.47
  14   0   3   29.76   47.37
  14   0   4  155.90   59.88
  14   0   5  -12.19   29.06
  14   0   5   -2.03   47.30
  14   1  -7   54.41   35.22
  14  -1  -7   22.48   45.51
  14   1  -6   -3.25   32.68
  14  -1  -6    4.60   25.05
 -14   1   5   86.59   33.26
  14   1  -5   47.30   34.37
  14  -1  -5   38.53   34.55
  14   1  -4   75.84   46.99
 -14   1   4   64.33   29.29
 -14  -1   4   12.21   28.73
  14  -1  -4  104.50   35.44
  14   1  -3  -25.05   23.62
 -14   1   3    4.47   16.95
 -14  -1   3   16.34   18.88
  14  -1  -3    5.33   32.91
 -14   1   2   82.13   30.43
  14   1  -2   50.61   35.58
  14  -1  -2   71.83   48.06
 -14  -1   2  104.27   20.83
  14   1  -1  330.77   62.09
 -14   1   1  322.48   35.10
 -14  -1   1  172.05   33.33
  14  -1  -1  371.67   58.87
  14   1   0   19.49   39.05
 -14   1   0   24.72   23.11
 -14  -1   0   11.70   20.98
  14  -1   0   -0.02   32.69
  14   1   1  353.32   69.70
 -14   1  -1  298.83   43.98
 -14  -1  -1  350.72   45.12
  14  -1   1  394.35   62.79
 -14   1  -2   20.85   23.50
  14   1   2   70.59   35.97
  14  -1   2  141.40   38.52
 -14  -1  -2   41.42   22.64
  14   1   3   84.32   54.03
 -14   1  -3   54.15   33.95
  14  -1   3  204.72   56.74
  14   1   4   13.64   28.94
 -14   1  -4   -7.53   25.11
  14  -1   4    7.15   41.59
  14   1   5   17.24   29.45
  14   1   5  -30.13   25.82
 -14   1  -5    2.31   19.22
  14  -1   5    9.60   24.30
  14  -1   5    4.09   20.61
  14   2  -7   64.18   44.01
  14  -2  -7    1.02   48.33
 -14   2   6   10.66   30.46
  14   2  -6   16.70   38.76
  14  -2  -6   15.05   32.29
  14   2  -5  214.22   53.14
 -14   2   5  147.81   43.46
  14  -2  -5  244.64   58.03
  14   2  -4  -38.05   26.74
 -14   2   4   -1.07   26.68
  14  -2  -4  -12.94   37.23
 -14  -2   4    4.14   19.37
  14   2  -3   56.66   36.58
 -14   2   3   11.47   23.88
  14  -2  -3  -12.27   35.10
 -14  -2   3   -5.26   18.94
  14   2  -2   14.20   28.83
 -14   2   2   14.47   19.74
  14  -2  -2   74.73   40.56
 -14  -2   2   13.15   15.82
  14   2  -1  177.77   52.39
 -14   2   1   91.13   24.32
 -14  -2   1  114.61   22.55
  14  -2  -1   63.21   37.01
  14   2   0   -2.58   31.31
 -14   2   0    8.60   19.09
 -14  -2   0   26.33   18.00
  14  -2   0   38.44   31.37
  14   2   1   47.00   37.37
 -14   2  -1  108.32   23.50
 -14  -2  -1   95.02   26.59
  14  -2   1  -18.23   52.68
 -14   2  -2   16.17   25.58
  14   2   2   15.38   42.80
  14  -2   2   28.28   41.74
  14   2   3  225.40   45.08
 -14   2  -3  204.85   35.61
  14  -2   3  230.93   65.36
  14   2   4   29.15   44.31
 -14   2  -4   19.96   30.98
  14   3  -6   83.94   47.21
 -14   3   6   58.87   39.14
 -14   3   5   37.39   33.26
  14   3  -5   27.98   39.31
  14  -3  -5   10.50   41.83
  14   3  -4  195.09   45.96
 -14   3   4  230.37   45.09
  14  -3  -4  241.98   49.94
  14   3  -3   94.34   32.25
 -14   3   3   23.21   28.06
  14  -3  -3  118.84   33.81
 -14  -3   3   15.40   16.26
  14   3  -2   43.58   39.81
 -14   3   2   -9.82   27.96
  14  -3  -2   49.43   43.23
 -14  -3   2   27.29   15.69
  14   3  -1    8.83   27.50
 -14   3   1   -4.99   17.56
 -14  -3   1   13.43   17.07
  14  -3  -1   12.42   29.37
 -14   3   0    0.74   20.23
  14   3   0    3.51   31.11
  14  -3   0   36.55   32.44
 -14  -3   0   38.86   23.27
 -14   3  -1   12.05   27.39
  14   3   1   20.49   43.72
  14  -3   1   70.35   34.40
  14   3   2   -4.60   32.08
 -14   3  -2  -16.02   21.42
 -14   3  -3    5.77   25.57
  14   3   3   42.71   33.73
 -14   3  -4    7.16   24.20
  14   3   4   49.87   44.27
  14   4  -6   98.94   35.38
 -14   4   6   72.23   44.27
 -14   4   5  165.74   37.91
  14   4  -5  165.15   45.18
 -14   4   4   25.01   28.00
  14   4  -4   85.33   31.93
  14   4  -3   39.13   33.03
 -14   4   3   24.37   29.91
  14   4  -2  105.47   45.30
 -14   4   2   54.18   28.73
 -14  -4   2  122.86   23.77
  14   4  -1   35.71   30.29
 -14   4   1   20.28   21.58
 -14  -4   1    2.43   18.95
  14   4   0  240.19   59.05
 -14   4   0  130.79   40.65
 -14  -4   0  185.62   27.11
 -14   4  -1    8.07   22.00
  14   4   1   68.66   40.71
  14   4   2  -18.32   39.70
 -14   4  -2   -4.15   27.85
 -14   4  -3   20.48   21.02
  14   4   3    9.25   33.04
  14   4   4   14.72   35.24
 -14   4  -4   17.25   23.22
  14   5  -5   86.02   44.29
 -14   5   5   26.54   39.09
 -14   5   4    0.55   24.28
  14   5  -4   41.27   37.32
  14   5  -3  193.71   51.76
 -14   5   3  187.47   46.73
  14   5  -2   29.88   32.04
 -14   5   2   28.46   35.01
 -14   5   1   58.35   23.50
  14   5  -1   41.20   43.76
 -14  -5   1    2.64   19.88
  14   5   0   -4.06   31.05
 -14   5   0   21.20   27.69
  14   5   1   41.30   33.29
 -14   5  -1    2.54   27.52
 -14   5  -2    1.95   30.10
  14   5   2   32.80   33.72
 -14   5  -3    4.55   20.73
  14   5   3   11.72   31.50
  14   6  -4   29.53   39.26
 -14   6   4   -5.58   35.23
  14   6  -3  225.42   61.35
 -14   6   3  129.24   48.22
 -14   6   2   -7.24   22.20
  14   6  -2   43.65   36.33
  14   6  -1   13.96   30.77
 -14   6   1   21.05   32.35
 -14  -6   1    7.52   19.82
  14   6   0    2.40   39.72
 -14   6   0   22.86   25.77
  14   6   1    7.86   43.00
 -14   6  -1   14.65   23.34
  14   6   2   -3.40   42.11
 -14   6  -2   16.92   22.14
  14   7  -3    6.55   34.72
 -14   7   3   -2.66   30.09
 -14   7   2   63.01   39.10
  14   7  -2   -8.60   32.27
  14   7  -1  -20.43   37.32
 -14   7   1   96.34   37.91
 -14   7   0   84.01   33.99
  14   7   0  342.04   51.63
  14   7   1  284.91   61.79
 -14   7  -1  114.64   46.01
  15   0  -5   42.74   42.24
 -15   0   4   82.01   30.02
  15   0  -4  152.61   43.60
 -15   0   3   -8.56   29.50
  15   0  -3   86.60   37.50
 -15   0   2  123.10   31.23
  15   0  -2   28.93   52.62
 -15   0   1    1.80   20.59
  15   0  -1  -17.73   37.80
  15   0   0  -12.56   36.58
 -15   0   0    8.06   22.65
  15   0   1   19.93   34.58
 -15   0  -1   17.35   21.16
  15   0   2  105.74   49.76
 -15   0  -2   15.16   28.77
  15   0   3  -13.87   45.38
 -15   0  -3   15.23   28.04
 -15   1   5   40.85   34.05
  15   1  -5   17.02   32.71
  15  -1  -5   52.27   37.67
  15   1  -4   29.40   43.60
 -15   1   4   40.50   31.36
  15  -1  -4   13.35   46.86
 -15  -1   4   43.80   26.90
  15   1  -3  106.42   45.25
 -15   1   3  164.01   40.23
  15  -1  -3  207.60   57.95
 -15  -1   3  172.72   35.58
  15   1  -2  -38.23   38.13
 -15   1   2    1.64   19.35
  15  -1  -2   94.23   41.16
 -15  -1   2   12.75   23.41
 -15   1   1   15.04   18.91
  15   1  -1   29.60   33.19
 -15  -1   1  -20.40   22.46
  15  -1  -1   82.42   45.80
  15   1   0  -35.52   37.81
 -15   1   0   10.97   17.68
 -15  -1   0  -12.90   15.39
  15  -1   0   23.30   30.92
  15   1   1  -14.00   48.15
 -15   1  -1   27.33   28.36
  15  -1   1   12.76   35.88
 -15  -1  -1   56.82   28.25
  15   1   2  102.52   39.09
 -15   1  -2   22.91   29.78
 -15  -1  -2   30.45   23.87
  15  -1   2   -0.93   40.28
 -15   1  -3   97.94   31.27
  15   1   3  126.56   50.17
 -15  -1  -3  162.97   32.73
  15  -1   3  271.98   54.53
  15   2  -5   96.19   42.33
 -15   2   5  136.20   42.90
  15  -2  -5   92.89   44.96
  15   2  -4   17.57   38.54
 -15   2   4  123.15   38.14
  15  -2  -4   63.63   41.67
  15   2  -3   44.59   36.96
 -15   2   3  -16.87   19.81
  15  -2  -3    2.50   30.07
 -15  -2   3    6.10   20.18
  15   2  -2    5.05   28.13
 -15   2   2   11.86   25.51
 -15  -2   2   -7.54   20.33
  15  -2  -2   30.11   32.12
 -15   2   1  129.70   35.89
  15   2  -1   98.61   44.93
  15  -2  -1  114.56   48.02
 -15  -2   1  175.65   33.54
  15   2   0   74.82   47.18
 -15   2   0    1.17   21.61
 -15  -2   0   37.80   19.95
  15  -2   0  -21.93   43.79
 -15   2  -1  130.78   40.47
  15   2   1  243.02   51.41
  15  -2   1  158.74   48.53
 -15  -2  -1  234.78   34.86
  15   2   2    9.99   36.15
 -15   2  -2    4.08   27.02
  15  -2   2   76.37   38.84
 -15  -2  -2    2.73   25.36
  15   2   3   26.84   35.86
 -15   2  -3   -1.37   23.20
  15  -2   3   52.75   40.78
 -15   3   5   -6.90   29.28
  15   3  -5   -8.95   36.76
  15  -3  -5    8.57   19.99
 -15   3   4   11.33   25.54
  15   3  -4  -17.42   40.68
  15  -3  -4   19.10   31.13
 -15   3   3   -4.54   33.37
  15   3  -3    8.53   43.67
  15  -3  -3   83.87   36.31
 -15   3   2   50.62   31.40
  15   3  -2   82.84   36.22
 -15  -3   2   -6.45   22.60
  15  -3  -2   60.63   52.20
 -15   3   1  345.08   43.51
  15   3  -1  231.35   55.79
  15  -3  -1  254.69   58.09
 -15  -3   1  271.64   40.63
  15   3   0  364.19   73.08
 -15   3   0   60.07   33.55
 -15  -3   0  260.96   31.41
  15  -3   0  142.17   66.63
 -15   3  -1   31.51   29.79
  15   3   1   55.46   49.02
 -15  -3  -1   31.45   22.38
 -15   3  -2    2.55   30.19
  15   3   2   21.84   34.06
 -15   4   4  155.80   40.25
  15   4  -4  123.67   46.21
 -15   4   3   19.53   34.40
  15   4  -3  -85.80   43.90
 -15   4   2   50.43   37.31
  15   4  -2  146.27   45.00
  15   4  -1   67.52   39.66
 -15   4   1   73.50   37.02
 -15  -4   1   25.91   23.97
  15   4   0    4.36   38.65
 -15   4   0   59.29   38.48
 -15  -4   0   70.81   29.35
  15   4   1    7.92   34.93
 -15   4  -1    8.95   30.68
  15   4   2   95.81   60.33
 -15   4  -2   19.76   34.12
 -15   5   3  -24.21   25.58
  15   5  -3   32.99   43.27
 -15   5   2  102.02   44.39
  15   5  -2   85.09   40.94
 -15   5   1   -0.14   21.29
  15   5  -1   -0.16   28.27
 -15  -5   1   -3.02   16.81
  15   5   0  -15.27   31.73
 -15   5   0   55.49   29.89
 -15  -5   0  -14.10   15.16
 -15   5  -1   15.78   24.58
  15   5   1   56.69   41.95
 -16   0   3    2.58   28.63
  16   0  -3   42.60   39.27
 -16   0   2   74.23   34.50
  16   0  -2  162.79   51.99
  16   0  -1  -22.35   36.93
 -16   0   1    1.82   26.99
  16   0   0   16.51   36.28
 -16   0   0   23.16   25.30
 -16   1   2  -16.79   20.33
  16   1  -2   17.96   39.41
 -16  -1   2   24.44   19.56
  16  -1  -2   77.04   41.37
 -16   1   1   30.30   31.62
  16   1  -1   53.42   44.85
 -16  -1   1   54.16   29.99
  16  -1  -1   41.80   41.91
 -16   1   0   28.59   21.65
  16   1   0    9.62   40.38
  16  -1   0   40.44   56.11
 -16  -1   0   34.59   24.88
  16   2  -2  -39.33   32.00
 -16   2   2    3.66   26.20
  16  -2  -2   21.07   32.82
 -16  -2   2    3.64   21.89
 -16   2   1   -6.12   32.46
  16   2  -1  -21.32   37.73
 -16  -2   1  -17.03   20.28
  16  -2  -1   -7.14   55.79
;
_shelx_hkl_checksum              71943
_shelx_res_file
;
    shelxl.res created by SHELXL-2014/7
TITL 2015-11Aug-JP-Madhu-ITD4
REM SPACEGROUP P21/c 14
CELL 0.71075 12.4679 11.9467 9.5278 90 95.701 90
ZERR 4 0.0012 0.0011 0.0008 0 0.007 0
LATT 1
SYMM -X,0.5+Y,0.5-Z
SFAC C H Cl N O S
UNIT 40 28 12 16 4 8
L.S. 5
PLAN  20
TEMP 0
BOND $H
CONF
MORE -1
fmap 2
acta
REM <olex2.extras>
REM <HklSrc "%.\\shelxl.hkl">
REM </olex2.extras>
WGHT    0.055400    0.436300
FVAR       1.00294
CL1   3    0.274314    0.333243    0.750049    11.00000    0.06942    0.04120 =
         0.04128    0.00657   -0.01726    0.00114
CL2   3    0.100229    0.191647    0.560970    11.00000    0.07157    0.02911 =
         0.04173    0.00568   -0.00038   -0.01208
CL3   3    0.019521    0.545374    0.222293    11.00000    0.04872    0.03546 =
         0.03157    0.00170   -0.00649   -0.00097
S1    6    0.388177    1.082395    0.624618    11.00000    0.05669    0.03079 =
         0.03731   -0.00203   -0.01165    0.00175
S2    6    0.353226    0.878233    0.434985    11.00000    0.04610    0.03875 =
         0.02947   -0.00462    0.00429   -0.00961
O8    5    0.184387    0.734271    0.636205    11.00000    0.06803    0.03458 =
         0.02237   -0.00424    0.00668   -0.00343
N1    4    0.432135    0.883345    0.708168    11.00000    0.06545    0.03037 =
         0.03567    0.00028   -0.00803   -0.00708
N2    4    0.462319    0.951181    0.823679    11.00000    0.07818    0.03640 =
         0.03293   -0.00096   -0.01367   -0.00654
N3    4    0.472765    1.140272    0.889363    11.00000    0.08610    0.04220 =
         0.04146   -0.00716   -0.00879   -0.00424
AFIX   7
H3A   2    0.477284    1.202714    0.845284    11.00000   -1.20000
H3B   2    0.423720    1.145444    0.946612    11.00000   -1.20000
AFIX   0
N4    4    0.184081    0.663187    0.415193    11.00000    0.05118    0.02661 =
         0.02176   -0.00263    0.00283   -0.00726
AFIX  43
H4    2    0.189376    0.679654    0.328283    11.00000   -1.20000
AFIX   0
C1    1    0.445203    1.056991    0.793859    11.00000    0.04586    0.03410 =
         0.03480   -0.00239   -0.00672   -0.00525
C2    1    0.392937    0.938901    0.599147    11.00000    0.03622    0.03034 =
         0.03242    0.00140   -0.00070   -0.00548
C3    1    0.210166    0.860688    0.447875    11.00000    0.03911    0.02717 =
         0.03100   -0.00263   -0.00732    0.00015
AFIX  23
H3C   2    0.184525    0.918955    0.507090    11.00000   -1.20000
H3D   2    0.170973    0.866522    0.354992    11.00000   -1.20000
AFIX   0
C4    1    0.191041    0.747759    0.510235    11.00000    0.03056    0.02949 =
         0.02658   -0.00429   -0.00117   -0.00162
C5    1    0.168720    0.549874    0.449396    11.00000    0.03679    0.02549 =
         0.02358   -0.00388    0.00542   -0.00270
C6    1    0.226121    0.499738    0.565601    11.00000    0.03874    0.03166 =
         0.02979   -0.00330    0.00034   -0.00473
AFIX  43
H6    2    0.278378    0.540489    0.620213    11.00000   -1.20000
AFIX   0
C7    1    0.206069    0.389887    0.600463    11.00000    0.03977    0.03277 =
         0.02787    0.00162    0.00105    0.00303
C8    1    0.129746    0.328425    0.518053    11.00000    0.04471    0.02331 =
         0.02715   -0.00079    0.00612   -0.00530
C9    1    0.073322    0.376154    0.401455    11.00000    0.03957    0.02965 =
         0.02538   -0.00399    0.00323   -0.00531
AFIX  43
H9    2    0.022360    0.334608    0.345733    11.00000   -1.20000
AFIX   0
C10   1    0.092983    0.485405    0.368343    11.00000    0.03472    0.03187 =
         0.02163   -0.00389    0.00113    0.00063
HKLF 4
REM  2015-11Aug-JP-Madhu-ITD4
REM R1 =  0.0507 for    2292 Fo > 4sig(Fo)  and  0.0757 for all    3200 data
REM    182 parameters refined using      0 restraints
END
WGHT      0.0554      0.4362
REM Highest difference peak  0.459,  deepest hole -0.405,  1-sigma level  0.079
Q1    1   0.4873  1.1113  0.9841  11.00000  0.05    0.46
Q2    1   0.3365  1.0394  0.6500  11.00000  0.05    0.36
Q3    1   0.3431  0.3115  0.6958  11.00000  0.05    0.31
Q4    1   0.2796  0.8812  0.4401  11.00000  0.05    0.31
Q5    1   0.2367  0.4314  0.5723  11.00000  0.05    0.30
Q6    1   0.3212  0.3359  0.6802  11.00000  0.05    0.30
Q7    1   0.1169  0.2765  0.5393  11.00000  0.05    0.29
Q8    1   0.4617  1.0802  0.6826  11.00000  0.05    0.29
Q9    1   0.3986  1.0782  0.7187  11.00000  0.05    0.28
Q10   1   0.2197  0.5191  0.4924  11.00000  0.05    0.28
Q11   1   0.0961  0.5436  0.1675  11.00000  0.05    0.28
Q12   1   0.1640  0.2197  0.5152  11.00000  0.05    0.28
Q13   1   0.3568  0.9692  0.4352  11.00000  0.05    0.27
Q14   1   0.0666  0.2409  0.6073  11.00000  0.05    0.27
Q15   1   0.3733  0.9950  0.6064  11.00000  0.05    0.27
Q16   1   0.3783  1.0766  0.4169  11.00000  0.05    0.26
Q17   1   0.2431  0.7154  0.6681  11.00000  0.05    0.26
Q18   1   0.4202  1.0958  0.8984  11.00000  0.05    0.26
Q19   1   0.2432  0.6662  0.4304  11.00000  0.05    0.26
Q20   1   0.1983  0.3089  0.5529  11.00000  0.05    0.25
;
_shelx_res_checksum              69721
loop_
_space_group_symop_operation_xyz
'x, y, z'
'-x, y+1/2, -z+1/2'
'-x, -y, -z'
'x, -y-1/2, z-1/2'
loop_
_atom_site_type_symbol
_atom_site_label
_atom_site_fract_x
_atom_site_fract_y
_atom_site_fract_z
_atom_site_U_iso_or_equiv
_atom_site_adp_type
_atom_site_calc_flag
_atom_site_occupancy
Cl Cl1 0.27431(8) 0.33324(7) 0.75005(10) 0.0522(3) Uani d 1
Cl Cl2 0.10023(8) 0.19165(6) 0.56097(9) 0.0479(3) Uani d 1
Cl Cl3 0.01952(7) 0.54537(6) 0.22229(8) 0.0393(2) Uani d 1
S S1 0.38818(8) 1.08239(7) 0.62462(9) 0.0427(3) Uani d 1
S S2 0.35323(7) 0.87823(7) 0.43499(8) 0.0381(2) Uani d 1
O O8 0.1844(2) 0.73427(18) 0.6362(2) 0.0415(6) Uani d 1
N N1 0.4321(3) 0.8833(2) 0.7082(3) 0.0447(7) Uani d 1
N N2 0.4623(3) 0.9512(2) 0.8237(3) 0.0505(8) Uani d 1
N N3 0.4728(3) 1.1403(3) 0.8894(3) 0.0576(9) Uani d 1
H H3A 0.4773 1.2027 0.8453 0.069 Uiso d 1
H H3B 0.4237 1.1454 0.9466 0.069 Uiso d 1
N N4 0.1841(2) 0.6632(2) 0.4152(3) 0.0332(6) Uani d 1
H H4 0.1894 0.6797 0.3283 0.040 Uiso calc 1
C C1 0.4452(3) 1.0570(3) 0.7939(3) 0.0390(8) Uani d 1
C C2 0.3929(3) 0.9389(3) 0.5991(3) 0.0333(7) Uani d 1
C C3 0.2102(3) 0.8607(2) 0.4479(3) 0.0331(7) Uani d 1
H H3C 0.1845 0.9190 0.5071 0.040 Uiso calc 1
H H3D 0.1710 0.8665 0.3550 0.040 Uiso calc 1
C C4 0.1910(2) 0.7478(2) 0.5102(3) 0.0291(7) Uani d 1
C C5 0.1687(2) 0.5499(2) 0.4494(3) 0.0285(7) Uani d 1
C C6 0.2261(3) 0.4997(2) 0.5656(3) 0.0336(7) Uani d 1
H H6 0.2784 0.5405 0.6202 0.040 Uiso calc 1
C C7 0.2061(3) 0.3899(3) 0.6005(3) 0.0336(7) Uani d 1
C C8 0.1297(3) 0.3284(2) 0.5181(3) 0.0316(7) Uani d 1
C C9 0.0733(3) 0.3762(2) 0.4015(3) 0.0315(7) Uani d 1
H H9 0.0224 0.3346 0.3457 0.038 Uiso calc 1
C C10 0.0930(2) 0.4854(2) 0.3683(3) 0.0295(7) Uani d 1
loop_
_atom_site_aniso_label
_atom_site_aniso_U_11
_atom_site_aniso_U_22
_atom_site_aniso_U_33
_atom_site_aniso_U_12
_atom_site_aniso_U_13
_atom_site_aniso_U_23
Cl1 0.0694(7) 0.0412(5) 0.0413(5) 0.0011(4) -0.0173(4) 0.0066(4)
Cl2 0.0716(7) 0.0291(4) 0.0417(5) -0.0121(4) -0.0004(4) 0.0057(3)
Cl3 0.0487(5) 0.0355(4) 0.0316(4) -0.0010(4) -0.0065(4) 0.0017(3)
S1 0.0567(6) 0.0308(4) 0.0373(5) 0.0017(4) -0.0116(4) -0.0020(4)
S2 0.0461(5) 0.0388(4) 0.0295(5) -0.0096(4) 0.0043(4) -0.0046(4)
O8 0.0680(17) 0.0346(12) 0.0224(12) -0.0034(11) 0.0067(11) -0.0042(9)
N1 0.065(2) 0.0304(14) 0.0357(16) -0.0071(14) -0.0080(14) 0.0003(12)
N2 0.078(2) 0.0364(16) 0.0329(16) -0.0065(15) -0.0137(15) -0.0010(13)
N3 0.086(3) 0.0422(17) 0.0415(19) -0.0042(17) -0.0088(17) -0.0072(15)
N4 0.0512(18) 0.0266(12) 0.0218(13) -0.0073(12) 0.0028(12) -0.0026(10)
C1 0.046(2) 0.0341(16) 0.0348(18) -0.0052(15) -0.0067(15) -0.0024(14)
C2 0.0362(18) 0.0303(15) 0.0324(17) -0.0055(13) -0.0007(14) 0.0014(13)
C3 0.0391(19) 0.0272(15) 0.0310(17) 0.0001(14) -0.0073(14) -0.0026(13)
C4 0.0306(17) 0.0295(15) 0.0266(17) -0.0016(13) -0.0012(13) -0.0043(13)
C5 0.0368(18) 0.0255(14) 0.0236(15) -0.0027(13) 0.0054(12) -0.0039(12)
C6 0.0387(19) 0.0317(16) 0.0298(17) -0.0047(14) 0.0003(14) -0.0033(13)
C7 0.0398(19) 0.0328(16) 0.0279(16) 0.0030(14) 0.0011(14) 0.0016(13)
C8 0.045(2) 0.0233(14) 0.0271(16) -0.0053(13) 0.0061(14) -0.0008(12)
C9 0.0396(18) 0.0297(15) 0.0254(16) -0.0053(14) 0.0032(13) -0.0040(13)
C10 0.0347(18) 0.0319(15) 0.0216(15) 0.0006(13) 0.0011(13) -0.0039(12)
loop_
_atom_type_symbol
_atom_type_description
_atom_type_scat_dispersion_real
_atom_type_scat_dispersion_imag
_atom_type_scat_source
C C 0.0033 0.0016 'International Tables Vol C Tables 4.2.6.8 and 6.1.1.4'
H H 0.0000 0.0000 'International Tables Vol C Tables 4.2.6.8 and 6.1.1.4'
Cl Cl 0.1484 0.1585 'International Tables Vol C Tables 4.2.6.8 and 6.1.1.4'
N N 0.0061 0.0033 'International Tables Vol C Tables 4.2.6.8 and 6.1.1.4'
O O 0.0106 0.0060 'International Tables Vol C Tables 4.2.6.8 and 6.1.1.4'
S S 0.1246 0.1234 'International Tables Vol C Tables 4.2.6.8 and 6.1.1.4'
loop_
_geom_angle_atom_site_label_1
_geom_angle_atom_site_label_2
_geom_angle_atom_site_label_3
_geom_angle
C1 S1 C2 86.57(15)
C2 S2 C3 100.39(15)
C2 N1 N2 113.0(3)
C1 N2 N1 111.5(3)
H3A N3 H3B 109.4
C1 N3 H3A 109.3
C1 N3 H3B 109.0
C4 N4 H4 117.9
C4 N4 C5 124.3(3)
C5 N4 H4 117.9
N2 C1 S1 114.6(2)
N2 C1 N3 122.2(3)
N3 C1 S1 123.2(3)
S1 C2 S2 121.61(18)
N1 C2 S1 114.4(2)
N1 C2 S2 124.0(3)
S2 C3 H3C 109.9
S2 C3 H3D 109.9
H3C C3 H3D 108.3
C4 C3 S2 109.1(2)
C4 C3 H3C 109.9
C4 C3 H3D 109.9
O8 C4 N4 123.5(3)
O8 C4 C3 122.4(3)
N4 C4 C3 114.1(3)
C6 C5 N4 121.7(3)
C10 C5 N4 120.2(3)
C10 C5 C6 118.0(3)
C5 C6 H6 119.7
C7 C6 C5 120.6(3)
C7 C6 H6 119.7
C6 C7 Cl1 119.0(2)
C6 C7 C8 119.9(3)
C8 C7 Cl1 121.1(2)
C7 C8 Cl2 121.1(2)
C9 C8 Cl2 118.5(2)
C9 C8 C7 120.4(3)
C8 C9 H9 120.3
C10 C9 C8 119.4(3)
C10 C9 H9 120.3
C5 C10 Cl3 119.3(2)
C9 C10 Cl3 118.9(2)
C9 C10 C5 121.8(3)
loop_
_geom_bond_atom_site_label_1
_geom_bond_atom_site_label_2
_geom_bond_distance
Cl1 C7 1.724(3)
Cl2 C8 1.733(3)
Cl3 C10 1.742(3)
S1 C1 1.723(3)
S1 C2 1.733(3)
S2 C2 1.750(3)
S2 C3 1.812(3)
O8 C4 1.222(4)
N1 N2 1.388(4)
N1 C2 1.287(4)
N2 C1 1.308(4)
N3 H3A 0.8607
N3 H3B 0.8611
N3 C1 1.369(4)
N4 H4 0.8600
N4 C4 1.354(4)
N4 C5 1.410(4)
C3 H3C 0.9700
C3 H3D 0.9700
C3 C4 1.503(4)
C5 C6 1.393(4)
C5 C10 1.392(4)
C6 H6 0.9300
C6 C7 1.383(4)
C7 C8 1.383(4)
C8 C9 1.378(4)
C9 H9 0.9300
C9 C10 1.371(4)
loop_
_geom_hbond_atom_site_label_D
_geom_hbond_atom_site_label_H
_geom_hbond_atom_site_label_A
_geom_hbond_site_symmetry_A
_geom_hbond_distance_DH
_geom_hbond_distance_HA
_geom_hbond_distance_DA
_geom_hbond_angle_DHA
N4 H4 O8 4_575 0.86 2.09 2.927(3) 163
C3 H3D O8 4_575 0.97 2.43 3.166(3) 133
N3 H3A N1 2_656 0.86 2.51 3.304(4) 154
loop_
_geom_torsion_atom_site_label_1
_geom_torsion_atom_site_label_2
_geom_torsion_atom_site_label_3
_geom_torsion_atom_site_label_4
_geom_torsion
Cl1 C7 C8 Cl2 -0.5(4)
Cl1 C7 C8 C9 177.8(2)
Cl2 C8 C9 C10 177.9(2)
S2 C3 C4 O8 95.0(3)
S2 C3 C4 N4 -83.7(3)
N1 N2 C1 S1 1.5(4)
N1 N2 C1 N3 -177.3(3)
N2 N1 C2 S1 0.0(4)
N2 N1 C2 S2 177.0(3)
N4 C5 C6 C7 177.1(3)
N4 C5 C10 Cl3 1.3(4)
N4 C5 C10 C9 -177.7(3)
C1 S1 C2 S2 -176.4(2)
C1 S1 C2 N1 0.6(3)
C2 S1 C1 N2 -1.2(3)
C2 S1 C1 N3 177.5(3)
C2 S2 C3 C4 -90.1(2)
C2 N1 N2 C1 -1.0(5)
C3 S2 C2 S1 -87.5(2)
C3 S2 C2 N1 95.8(3)
C4 N4 C5 C6 -44.6(5)
C4 N4 C5 C10 134.0(3)
C5 N4 C4 O8 -0.2(5)
C5 N4 C4 C3 178.6(3)
C5 C6 C7 Cl1 -176.9(2)
C5 C6 C7 C8 1.1(5)
C6 C5 C10 Cl3 179.9(2)
C6 C5 C10 C9 0.9(5)
C6 C7 C8 Cl2 -178.4(2)
C6 C7 C8 C9 -0.2(5)
C7 C8 C9 C10 -0.4(5)
C8 C9 C10 Cl3 -179.0(2)
C8 C9 C10 C5 0.0(5)
C10 C5 C6 C7 -1.5(5)

_cod_database_fobs_code 1543683
