#------------------------------------------------------------------------------
#$Date: 2016-08-12 04:10:50 +0300 (Fri, 12 Aug 2016) $
#$Revision: 185757 $
#$URL: file:///home/coder/svn-repositories/cod/cif/1/54/38/1543883.cif $
#------------------------------------------------------------------------------
#
# This file is available in the Crystallography Open Database (COD),
# http://www.crystallography.net/
#
# All data on this site have been placed in the public domain by the
# contributors.
#
data_1543883
loop_
_publ_author_name
'Liu, Chengwei'
'Meng, Guangrong'
'Liu, Yongmei'
'Liu, Ruzhang'
'Lalancette, Roger'
'Szostak, Roman'
'Szostak, Michal'
_publ_section_title
;
 N-Acylsaccharins: Stable Electrophilic Amide-Based Acyl Transfer Reagents
 in Pd-Catalyzed Suzuki--Miyaura Coupling via N--C Cleavage
;
_journal_name_full               'Organic Letters'
_journal_paper_doi               10.1021/acs.orglett.6b01836
_journal_year                    2016
_chemical_formula_sum            'C14 H9 N O4 S'
_chemical_formula_weight         287.28
_space_group_crystal_system      orthorhombic
_space_group_IT_number           19
_space_group_name_Hall           'P 2ac 2ab'
_space_group_name_H-M_alt        'P 21 21 21'
_symmetry_space_group_name_Hall  'P 2ac 2ab'
_symmetry_space_group_name_H-M   'P 21 21 21'
_atom_sites_solution_hydrogens   geom
_atom_sites_solution_primary     direct
_atom_sites_solution_secondary   difmap
_audit_creation_method           SHELXL-2014/7
_cell_angle_alpha                90
_cell_angle_beta                 90
_cell_angle_gamma                90
_cell_formula_units_Z            4
_cell_length_a                   10.0936(6)
_cell_length_b                   10.3894(6)
_cell_length_c                   12.0481(7)
_cell_measurement_reflns_used    9897
_cell_measurement_temperature    100(2)
_cell_measurement_theta_max      68.52
_cell_measurement_theta_min      3.67
_cell_volume                     1263.44(13)
_computing_cell_refinement       'APEX 2'
_computing_data_collection       'APEX 2 (Bruker, 2006)'
_computing_data_reduction        'SAINT (Bruker, 2005)'
_computing_molecular_graphics    SHELXTL
_computing_publication_material  SHELXTL
_computing_structure_refinement  'SHELXL-2014/7 (Sheldrick, 2014)'
_computing_structure_solution    'SHELXL-2014/7 (Sheldrick, 2014)'
_diffrn_ambient_temperature      100(2)
_diffrn_measured_fraction_theta_full 0.993
_diffrn_measured_fraction_theta_max 0.981
_diffrn_measurement_device_type  'Bruker SMART CCD Apex-II area-detector'
_diffrn_measurement_method       '\f and \w'
_diffrn_radiation_monochromator  graphite
_diffrn_radiation_source         'fine-focus sealed tube'
_diffrn_radiation_type           CuK\a
_diffrn_radiation_wavelength     1.54178
_diffrn_reflns_av_R_equivalents  0.0341
_diffrn_reflns_av_unetI/netI     0.0248
_diffrn_reflns_Laue_measured_fraction_full 0.993
_diffrn_reflns_Laue_measured_fraction_max 0.981
_diffrn_reflns_limit_h_max       12
_diffrn_reflns_limit_h_min       -11
_diffrn_reflns_limit_k_max       12
_diffrn_reflns_limit_k_min       -12
_diffrn_reflns_limit_l_max       13
_diffrn_reflns_limit_l_min       -14
_diffrn_reflns_number            11389
_diffrn_reflns_point_group_measured_fraction_full 0.978
_diffrn_reflns_point_group_measured_fraction_max 0.963
_diffrn_reflns_theta_full        67.679
_diffrn_reflns_theta_max         68.455
_diffrn_reflns_theta_min         5.623
_exptl_absorpt_coefficient_mu    2.414
_exptl_absorpt_correction_T_max  0.545
_exptl_absorpt_correction_T_min  0.446
_exptl_absorpt_correction_type   numerical
_exptl_absorpt_process_details   'SADABS (Sheldrick, 2008a)'
_exptl_crystal_colour            colourless
_exptl_crystal_density_diffrn    1.510
_exptl_crystal_description       block
_exptl_crystal_F_000             592
_exptl_crystal_size_max          0.365
_exptl_crystal_size_mid          0.336
_exptl_crystal_size_min          0.218
_refine_diff_density_max         0.274
_refine_diff_density_min         -0.258
_refine_diff_density_rms         0.039
_refine_ls_abs_structure_details
;
 Flack x determined using 892 quotients [(I+)-(I-)]/[(I+)+(I-)]
 (Parsons, Flack and Wagner, Acta Cryst. B69 (2013) 249-259).
;
_refine_ls_abs_structure_Flack   0.060(5)
_refine_ls_extinction_coef       0.0038(4)
_refine_ls_extinction_expression Fc^*^=kFc[1+0.001xFc^2^\l^3^/sin(2\q)]^-1/4^
_refine_ls_extinction_method     'SHELXL-2014/7 (Sheldrick 2014'
_refine_ls_goodness_of_fit_ref   1.091
_refine_ls_hydrogen_treatment    constr
_refine_ls_matrix_type           full
_refine_ls_number_parameters     182
_refine_ls_number_reflns         2242
_refine_ls_number_restraints     0
_refine_ls_restrained_S_all      1.091
_refine_ls_R_factor_all          0.0225
_refine_ls_R_factor_gt           0.0223
_refine_ls_shift/su_max          0.000
_refine_ls_shift/su_mean         0.000
_refine_ls_structure_factor_coef Fsqd
_refine_ls_weighting_details
'w=1/[\s^2^(Fo^2^)+(0.0293P)^2^+0.2990P] where P=(Fo^2^+2Fc^2^)/3'
_refine_ls_weighting_scheme      calc
_refine_ls_wR_factor_gt          0.0578
_refine_ls_wR_factor_ref         0.0579
_reflns_Friedel_coverage         0.684
_reflns_Friedel_fraction_full    0.956
_reflns_Friedel_fraction_max     0.937
_reflns_number_gt                2225
_reflns_number_total             2242
_reflns_threshold_expression     'I > 2\s(I)'
_cod_data_source_file            ol6b01836_si_002.cif
_cod_data_source_block           151112RAL_YL_100K_0m_a
_cod_database_code               1543883
_shelx_shelxl_version_number     2014/7
_shelx_space_group_comment
;
The symmetry employed for this shelxl refinement is uniquely defined
by the following loop, which should always be used as a source of
symmetry information in preference to the above space-group names.
They are only intended as comments.
;
_shelx_res_file
;

    151112RAL_YL_100K_0m_a.res created by SHELXL-2014/7

TITL 151112RAL_YL_100K_0m_a.res in P2(1)2(1)2(1)
CELL  1.54178  10.0936  10.3894  12.0481   90.000   90.000   90.000
ZERR    4.000   0.0006   0.0006   0.0007    0.000    0.000    0.000
LATT -1
SYMM 1/2-X, -Y, 1/2+Z
SYMM -X, 1/2+Y, 1/2-Z
SYMM 1/2+X, 1/2-Y, -Z
SFAC C  H  N  O  S
UNIT 56  36  4  16  4
OMIT 3 0 3
OMIT 1 3 3
OMIT -1 3 3
L.S. 15
ACTA
BOND $H
FMAP 2
PLAN 2
TEMP -173.270
WGHT    0.029300    0.299000
EXTI    0.003820
FVAR       0.94386
S1    5    0.187810    0.554759    0.564221    11.00000    0.01238    0.01085 =
         0.01192    0.00042    0.00110    0.00001
O1    4   -0.001632    0.744111    0.488049    11.00000    0.01528    0.01811 =
         0.02795    0.00392    0.00736    0.00312
O2    4    0.318757    0.676035    0.288785    11.00000    0.02088    0.01983 =
         0.01345    0.00425    0.00293    0.00195
O3    4    0.069412    0.480891    0.554325    11.00000    0.01416    0.01568 =
         0.02120    0.00070    0.00128   -0.00218
O4    4    0.211846    0.624427    0.664170    11.00000    0.01920    0.01587 =
         0.01415   -0.00179    0.00126    0.00071
N1    3    0.201834    0.659593    0.454617    11.00000    0.01325    0.01224 =
         0.01331    0.00171    0.00050    0.00100
C1    1    0.301785    0.623625    0.376117    11.00000    0.01092    0.01420 =
         0.01689   -0.00197   -0.00101   -0.00183
C2    1    0.372407    0.509862    0.419741    11.00000    0.01327    0.01274 =
         0.01439   -0.00086   -0.00238   -0.00092
C3    1    0.325071    0.465049    0.520031    11.00000    0.01348    0.01321 =
         0.01406   -0.00370   -0.00066   -0.00019
C4    1    0.379379    0.359045    0.573690    11.00000    0.02136    0.01363 =
         0.01488    0.00150   -0.00003    0.00125
AFIX  43
H4    2    0.345452    0.328892    0.642490    11.00000   -1.20000
AFIX   0
C5    1    0.485422    0.299574    0.521848    11.00000    0.02410    0.01548 =
         0.02174   -0.00128   -0.00380    0.00427
AFIX  43
H5    2    0.526453    0.227728    0.556453    11.00000   -1.20000
AFIX   0
C6    1    0.533053    0.342787    0.420292    11.00000    0.01874    0.02137 =
         0.02018   -0.00579   -0.00008    0.00676
AFIX  43
H6    2    0.605199    0.299207    0.386352    11.00000   -1.20000
AFIX   0
C7    1    0.477396    0.448163    0.367579    11.00000    0.01696    0.02066 =
         0.01388   -0.00317    0.00232   -0.00052
AFIX  43
H7    2    0.509967    0.477303    0.297999    11.00000   -1.20000
AFIX   0
C8    1    0.102807    0.755412    0.440132    11.00000    0.01410    0.01437 =
         0.01460   -0.00217   -0.00140    0.00098
C9    1    0.135893    0.866144    0.366967    11.00000    0.01446    0.01150 =
         0.01581   -0.00088    0.00273    0.00175
C10   1    0.047361    0.897757    0.282904    11.00000    0.01355    0.01523 =
         0.01983   -0.00214   -0.00105    0.00082
AFIX  43
H10   2   -0.030936    0.848529    0.272287    11.00000   -1.20000
AFIX   0
C11   1    0.074629    1.001953    0.214730    11.00000    0.02138    0.01959 =
         0.01870    0.00350   -0.00131    0.00547
AFIX  43
H11   2    0.017416    1.021143    0.154346    11.00000   -1.20000
AFIX   0
C12   1    0.184959    1.078380    0.234144    11.00000    0.02328    0.01399 =
         0.02340    0.00447    0.00625    0.00243
AFIX  43
H12   2    0.202096    1.150710    0.188090    11.00000   -1.20000
AFIX   0
C13   1    0.270445    1.049021    0.321074    11.00000    0.01673    0.01502 =
         0.02474   -0.00204    0.00499   -0.00172
AFIX  43
H13   2    0.343917    1.103390    0.336256    11.00000   -1.20000
AFIX   0
C14   1    0.248644    0.940445    0.385705    11.00000    0.01464    0.01882 =
         0.01824    0.00018   -0.00050    0.00216
AFIX  43
H14   2    0.309898    0.917059    0.442073    11.00000   -1.20000
AFIX   0
HKLF 4

REM  151112RAL_YL_100K_0m_a.res in P2(1)2(1)2(1)
REM R1 =  0.0223 for    2225 Fo > 4sig(Fo)  and  0.0225 for all    2242 data
REM    182 parameters refined using      0 restraints

END

WGHT      0.0293      0.2995

REM Highest difference peak  0.274,  deepest hole -0.258,  1-sigma level  0.039
Q1    1   0.2608  0.4943  0.5413  11.00000  0.05    0.27
Q2    1   0.1918  0.6063  0.4964  11.00000  0.05    0.24
;
_shelx_res_checksum              40442
_shelx_hkl_file
;
  -1   0   0    3.80    0.60
   1   0   0    3.40    0.70
   2   0   0 1666.23   67.19
  -2   0   0 1552.54   66.49
   2   0   0 1579.94   67.89
   2   0   0 1520.05   64.89
   2   0   0 1442.46   66.29
  -2   0   0 1525.15   65.09
   2   0   0 1598.24   66.39
  -2   0   0 1554.24   67.09
   3   0   0    2.40    1.20
   3   0   0    5.40    1.50
  -3   0   0    3.20    0.80
   3   0   0    4.20    1.50
   3   0   0    1.90    1.30
  -3   0   0    2.90    1.20
   3   0   0    4.20    0.80
  -4   0   0 1668.23   75.99
   4   0   0 1819.62   77.59
   4   0   0 1753.02   75.59
   4   0   0 1711.43   75.89
  -4   0   0 1636.14   72.69
   5   0   0    2.90    2.10
   5   0   0    1.00    1.20
   5   0   0    2.40    1.60
   5   0   0    3.20    1.30
   6   0   0 2200.08   99.79
   6   0   0 2221.88   94.09
   6   0   0 2058.39   97.79
   6   0   0 2162.08   96.99
   7   0   0    0.30    1.20
   7   0   0    3.90    2.80
   7   0   0    2.90    2.40
   7   0   0    1.10    2.30
   7   0   0    1.80    1.50
   8   0   0 1081.79   48.70
   8   0   0 1082.49   49.00
   8   0   0 1054.99   50.79
   8   0   0 1053.09   53.19
   8   0   0 1009.70   48.40
   9   0   0    2.00    2.30
   9   0   0    2.70    1.90
   9   0   0    1.10    2.20
   9   0   0    2.80    2.20
   9   0   0    0.30    1.40
  10   0   0 1030.40   51.19
  10   0   0 1044.40   52.99
  10   0   0 1069.69   48.60
  11   0   0    2.50    2.30
  11   0   0    0.90    1.30
  12   0   0   54.79    5.10
   0   1   0    6.50    1.00
   0  -1   0    6.20    0.80
   0  -1   0    6.60    0.80
   0   1   0    6.00    0.80
   0   1   0    5.60    0.80
  -1  -1   0 4705.13  193.78
   1   1   0 4110.29  192.38
   1  -1   0 4643.04  195.28
   1  -1   0 4607.54  194.38
   1   1   0 4908.01  204.38
   2  -1   0 2177.68   88.89
   2  -1   0 2126.49   87.89
  -2   1   0 2062.49   86.69
   2  -1   0 2180.08   88.69
   2   1   0 2141.29   92.89
   2   1   0 2108.19   88.89
   2  -1   0 2045.90   86.99
  -2  -1   0 2051.09   86.59
   2   1   0 2033.20   88.69
   2   1   0 1875.81   87.39
  -2  -1   0 2005.10   88.39
   2   1   0 2028.50   86.49
   3  -1   0    5.00    1.80
   3   1   0    6.60    2.20
  -3   1   0    5.60    1.10
   3   1   0    4.10    1.70
   3  -1   0    4.90    1.20
   3   1   0    6.30    1.10
  -3  -1   0    4.40    1.00
   3  -1   0    5.50    1.70
  -3   1   0    4.70    1.00
   3  -1   0    4.70    0.90
  -3  -1   0    4.00    1.50
   3  -1   0    5.10    1.30
   3   1   0    4.70    1.50
   4  -1   0   43.80    5.20
   4   1   0   41.50    5.10
   4   1   0   39.90    4.50
   4   1   0   43.70    4.00
  -4   1   0   45.60    3.40
   4   1   0   44.50    3.10
   4   1   0   48.30    5.80
   4  -1   0   43.90    4.80
  -4   1   0   43.40    4.20
   4  -1   0   41.10    4.20
  -4  -1   0   42.10    3.30
   5  -1   0 1379.66   64.99
   5  -1   0 1414.96   61.49
   5   1   0 1392.06   66.89
   5   1   0 1478.95   65.29
   5   1   0 1383.46   63.09
   5  -1   0 1398.86   66.69
   5  -1   0 1451.85   64.79
   5   1   0 1566.94   68.39
  -5   1   0 1409.36   64.89
   6   1   0   11.40    2.50
   6  -1   0   10.50    3.60
   6  -1   0   10.20    2.20
   6   1   0   15.30    3.60
   6  -1   0   15.00    3.70
   6   1   0   10.30    3.90
   7   1   0 1469.75   73.69
   7   1   0 1696.83   78.09
   7  -1   0 1707.33   79.49
   7   1   0 1741.93   79.49
   7   1   0 1693.03   81.59
   7  -1   0 1749.32   75.19
   7  -1   0 1744.93   78.59
   8  -1   0  160.28   11.70
   8   1   0  158.88   13.60
   8   1   0  157.08   12.40
   8   1   0  161.08   11.00
   8  -1   0  152.68   13.60
   8  -1   0  166.68   12.20
   8   1   0  146.79   10.60
   8  -1   0  150.88   10.40
   8   1   0  154.68   10.50
   9   1   0 1305.17   60.29
   9  -1   0 1320.97   60.49
   9  -1   0 1354.96   65.69
   9   1   0 1348.37   63.69
  -9  -1   0 1341.77   59.79
   9   1   0 1325.57   64.99
   9   1   0 1330.97   60.89
  10   1   0  185.98   14.40
  10  -1   0  193.38   12.30
  10  -1   0  191.38   15.50
  10   1   0  185.68   15.10
  10   1   0  198.48   12.70
  10  -1   0  183.78   13.80
 -10  -1   0  193.78   11.80
  10   1   0  191.18   12.20
  11  -1   0  571.44   31.10
  11   1   0  565.74   30.60
  11  -1   0  570.44   27.60
  11   1   0  555.74   27.30
  12  -1   0    9.50    2.20
   0   2   0 5034.30  231.88
   0  -2   0 5989.90  238.08
   0  -2   0 5650.73  239.48
   1   2   0 1196.28   51.99
  -1   2   0 1241.08   53.39
  -1  -2   0 1216.58   52.09
   1   2   0 1148.79   53.29
  -1  -2   0 1257.17   53.49
   1  -2   0 1213.68   51.99
   1  -2   0 1211.08   52.19
   1   2   0 1269.67   51.69
  -1   2   0 1234.98   51.99
   2  -2   0 2976.80  124.39
   2   2   0 2883.41  124.39
   2   2   0 3027.30  124.09
   2   2   0 2920.01  126.69
   2  -2   0 2866.91  124.79
  -2  -2   0 2932.11  126.39
   2   2   0 2852.11  127.09
   2  -2   0 3091.59  126.29
   2  -2   0 3090.79  126.19
   2   2   0 3116.29  134.29
  -2  -2   0 2818.52  124.09
  -3  -2   0  415.06   19.40
   3  -2   0  411.16   18.80
   3  -2   0  435.16   21.00
  -3  -2   0  416.16   22.10
   3  -2   0  404.96   19.20
   3   2   0  419.56   19.30
   3  -2   0  424.76   18.70
   3   2   0  429.76   22.90
  -3   2   0  430.16   19.50
   3   2   0  418.66   20.40
   3   2   0  411.96   22.50
   3  -2   0  413.86   21.70
   3   2   0  429.06   22.60
  -4  -2   0  115.09    7.00
   4  -2   0  104.89    9.10
   4  -2   0  115.59    8.70
  -4   2   0  114.09    7.00
   4   2   0  127.99    8.70
   4   2   0  122.09   10.50
   4  -2   0  114.29    7.20
   4   2   0  124.99    6.90
   4   2   0  117.19    8.00
   4   2   0  118.19   10.00
   5  -2   0 2413.96  108.99
   5  -2   0 2585.94  111.19
   5   2   0 2489.35  113.59
   5   2   0 2676.43  110.99
   5   2   0 2447.26  114.09
  -5   2   0 2505.55  108.99
   5   2   0 2579.64  109.39
   6   2   0  350.66   20.90
   6  -2   0  313.07   18.70
   6   2   0  337.27   23.20
   6  -2   0  315.67   16.10
   6  -2   0  322.87   20.30
   6   2   0  313.67   22.20
   6   2   0  322.17   18.70
   7   2   0   62.89    6.90
   7   2   0   64.09    8.00
   7  -2   0   59.49    5.60
   7   2   0   53.89    7.30
   7  -2   0   60.59    7.80
   7   2   0   52.99    5.60
   7  -2   0   58.79    7.90
   8  -2   0 1267.47   57.89
   8   2   0 1245.58   57.49
   8  -2   0 1292.57   62.79
  -8  -2   0 1271.27   57.39
   8   2   0 1290.67   58.39
   8   2   0 1295.57   61.09
   8   2   0 1263.07   61.79
   8  -2   0 1303.07   58.99
  -9  -2   0   78.59    7.00
   9   2   0   75.09    8.60
   9  -2   0   77.59    7.70
   9  -2   0   81.79   10.00
   9  -2   0   83.29    7.30
   9   2   0   82.49    7.30
   9   2   0   82.89    7.60
   9   2   0   77.39    9.40
 -10  -2   0  135.69    9.10
  10   2   0  114.79    9.30
  10  -2   0  126.59    9.30
  10   2   0  122.29    8.90
  10   2   0  126.69   11.60
  10  -2   0  119.19   10.30
  10  -2   0  122.89   12.00
  11   2   0  298.77   18.60
  11  -2   0  316.37   19.70
  11   2   0  304.47   16.80
  11   2   0  314.37   16.20
  11  -2   0  310.27   16.60
   0  -3   0    0.20    0.60
   0  -3   0    1.00    0.80
   0   3   0    0.30    0.80
   0   3   0    0.80    1.10
   0  -3   0    0.40    0.70
   1  -3   0  910.61   39.60
   1  -3   0  923.31   39.00
   1   3   0  953.20   42.30
   1  -3   0  767.52   38.60
  -1  -3   0  829.12   39.30
   1   3   0  928.21   39.40
  -1   3   0  915.81   38.80
   1   3   0  886.91   38.40
   1   3   0  860.01   40.70
  -1  -3   0  962.30   41.20
   2  -3   0 1110.69   50.29
   2   3   0 1139.39   49.70
  -2  -3   0 1139.89   52.69
   2   3   0 1109.49   52.69
  -2  -3   0 1150.68   50.09
  -2   3   0 1140.29   51.99
   2   3   0 1207.98   54.39
  -2   3   0 1126.59   49.80
   2   3   0 1173.38   49.90
   2  -3   0 1186.78   50.49
   3  -3   0 3265.17  133.69
  -3  -3   0 2794.12  133.69
   3  -3   0 3121.09  130.89
   3   3   0 3173.38  131.09
  -3   3   0 2979.80  130.09
   3   3   0 3105.39  130.49
  -3  -3   0 3070.39  130.59
   3   3   0 3189.08  134.69
   3   3   0 3166.38  135.89
   3  -3   0 3015.00  131.59
   4  -3   0 1527.15   71.09
  -4   3   0 1541.75   67.49
   4   3   0 1515.15   68.99
   4   3   0 1629.34   72.99
  -4  -3   0 1445.76   67.29
   4  -3   0 1586.74   66.49
   4  -3   0 1536.25   69.49
   4   3   0 1627.64   77.89
   4   3   0 1583.24   67.19
   5   3   0  104.99    8.50
   5  -3   0  113.19    7.50
   5   3   0  110.29    9.10
   5  -3   0  111.09    9.50
   5   3   0  115.29   11.80
   6   3   0  873.31   49.00
   6  -3   0  906.21   45.50
   6   3   0  920.61   45.50
   6  -3   0  875.91   42.10
   6   3   0  934.91   43.80
   7  -3   0  131.99    9.10
   7  -3   0  127.89   11.60
  -7  -3   0  120.59    8.70
   7  -3   0  130.39    8.50
   7   3   0  139.09   16.20
   7   3   0  114.69    9.00
   7  -3   0  118.59   11.90
   7   3   0  127.49   11.90
   8  -3   0   52.29    5.70
   8   3   0   66.39    6.40
   8  -3   0   55.09    8.00
   8  -3   0   60.69    6.10
  -8  -3   0   55.89    5.70
   8   3   0   55.09    7.80
   9   3   0  114.49    9.40
   9  -3   0  117.19   12.00
   9  -3   0  120.29    9.60
   9   3   0  118.09   11.80
  -9  -3   0  114.59    8.70
   9  -3   0  123.39    9.20
  10  -3   0    1.00    2.00
  10   3   0    2.50    1.70
 -10  -3   0    1.90    1.70
  10  -3   0    2.20    1.70
  11  -3   0   24.60    4.80
  11  -3   0   22.20    3.20
  11   3   0   20.10    3.50
   0   4   0   34.50    4.50
   0  -4   0   33.80    3.90
   0   4   0   32.20    3.40
   0  -4   0   33.40    3.60
  -1  -4   0    1.40    1.00
   1  -4   0    1.50    1.10
  -1   4   0    1.20    1.00
   1  -4   0    3.20    1.20
  -1   4   0    2.70    1.80
   1   4   0    2.80    1.30
  -1  -4   0    5.30    1.90
  -2  -4   0 4430.36  176.18
  -2  -4   0 4234.08  175.98
   2  -4   0 4245.68  177.48
  -2  -4   0 3981.20  178.98
   2  -4   0 3953.30  175.78
   2  -4   0 4087.89  176.08
  -2   4   0 4344.77  178.48
   2   4   0 3899.91  180.58
   2   4   0 4334.97  175.78
   3  -4   0 3645.94  147.89
   3  -4   0 3592.24  148.29
  -3   4   0 2963.50  146.79
  -3  -4   0 3440.26  147.89
   3   4   0 3409.06  153.58
  -3   4   0 2925.21  149.39
   3   4   0 3804.82  153.28
  -3  -4   0 3627.44  152.28
  -3  -4   0 3873.51  147.69
   4  -4   0    1.30    1.30
  -4   4   0    3.30    1.60
   4   4   0    2.00    2.10
   4   4   0   -0.40    0.80
   5   4   0 1473.45   72.99
   5  -4   0 1425.16   67.69
   5  -4   0 1499.85   63.39
   6  -4   0   94.79    9.70
   6   4   0   88.29    7.40
   6  -4   0   98.09    9.50
   7   4   0    1.20    1.50
  -7  -4   0    1.80    1.90
   7  -4   0    3.80    2.70
   7  -4   0    2.80    1.70
   8  -4   0  130.49    9.20
   8   4   0  115.79    9.60
   8  -4   0  134.69    9.60
   8  -4   0  135.49   12.60
  -8  -4   0  125.09    9.20
   9  -4   0  453.45   23.70
   9   4   0  455.05   24.40
   9  -4   0  470.85   28.10
  -9  -4   0  451.55   23.40
   9  -4   0  460.45   24.20
 -10  -4   0   12.60    2.90
  10   4   0   11.90    3.10
  10  -4   0   13.50    4.30
  10  -4   0   10.60    2.80
  11   4   0 1069.39   48.00
  11  -4   0 1098.79   50.49
 -11  -4   0 1050.29   47.00
  11  -4   0 1039.80   47.10
   0  -5   0    8.20    2.20
   0   5   0    4.80    1.90
  -1  -5   0  450.75   25.10
  -1   5   0  422.36   24.70
  -1  -5   0  449.16   22.30
  -1   5   0  443.86   22.50
   1   5   0  478.15   23.00
   1  -5   0  481.25   23.30
   1   5   0  427.66   26.80
   1  -5   0  454.35   23.20
  -1  -5   0  477.35   23.30
   2   5   0  214.68   17.10
   2  -5   0  213.88   12.40
  -2  -5   0  236.98   13.50
   2   5   0  236.58   17.90
  -2   5   0  227.98   13.20
  -2   5   0  224.28   15.30
   2   5   0  229.88   13.20
  -2  -5   0  251.17   16.50
  -2  -5   0  196.98   13.00
   2  -5   0  237.08   13.80
  -3   5   0  361.26   18.90
   3  -5   0  354.86   19.50
  -3  -5   0  362.06   19.20
   3   5   0  364.46   25.20
   3   5   0  364.96   23.70
  -3  -5   0  351.56   19.50
   3   5   0  358.46   19.30
   3  -5   0  348.77   17.30
   4   5   0  672.53   38.10
   4   5   0  669.73   32.60
   5   5   0   27.00    3.80
  -6  -5   0 1119.39   50.39
   6   5   0 1129.49   51.19
   6  -5   0 1091.59   53.89
   7  -5   0  132.59   12.30
   7   5   0  139.19   10.20
  -7  -5   0  145.79    9.90
  -8  -5   0   88.39    7.30
   8  -5   0   88.89   10.50
   8  -5   0   86.79    9.80
   8   5   0   81.59    7.70
   9   5   0  137.59   10.10
   9  -5   0  128.39    9.10
   9  -5   0  138.09   12.20
  -9  -5   0  124.89    9.10
  10  -5   0  228.98   12.90
 -10  -5   0  231.08   13.10
  10   5   0  239.88   14.00
  10  -5   0  230.78   15.90
   0   6   0  123.29   11.70
   0  -6   0  119.39    8.00
   0   6   0  116.29    8.80
   0  -6   0  113.49    9.10
   0  -6   0  116.89   10.00
   1  -6   0  603.74   29.60
   1   6   0  555.74   33.30
   1   6   0  540.05   34.00
  -1  -6   0  557.04   28.20
  -1  -6   0  581.64   31.60
   1  -6   0  592.24   29.50
  -1   6   0  583.64   32.00
  -1   6   0  574.64   28.70
  -1  -6   0  574.04   29.20
   1   6   0  582.44   28.80
   1  -6   0  565.14   26.40
  -2  -6   0   31.40    4.30
   2   6   0   31.20    6.60
  -2  -6   0   24.00    5.00
   2   6   0   28.00    6.00
  -2   6   0   32.20    4.30
   2   6   0   25.50    4.10
  -2  -6   0   27.60    4.20
  -3  -6   0   45.90    5.60
   3  -6   0   47.10    4.50
   3  -6   0   52.29    6.00
   3   6   0   52.89    8.40
  -3   6   0   61.39    6.00
   3   6   0   45.80    5.90
  -3  -6   0   48.50    5.70
   4   6   0  491.35   24.60
   5   6   0 1210.78   55.19
  -5  -6   0 1217.48   55.19
   6   6   0   94.49    8.20
  -6  -6   0  110.49    8.20
  -7  -6   0  227.98   14.10
   7   6   0  238.78   14.80
   8   6   0   13.40    3.40
   8  -6   0   12.20    4.20
  -8  -6   0   14.50    3.50
  -9  -6   0  232.48   13.50
   9   6   0  231.98   14.30
   9  -6   0  239.18   16.30
 -10  -6   0   97.09    6.70
  10   6   0   95.29    7.30
   0  -7   0    0.20    1.40
   0  -7   0    0.50    1.10
   0  -7   0    1.50    1.70
   1  -7   0  464.85   26.50
   1  -7   0  475.25   26.40
  -1  -7   0  493.05   28.70
   1   7   0  435.56   31.20
  -1  -7   0  476.55   26.10
   1   7   0  457.35   30.90
   1  -7   0  498.95   23.90
  -1  -7   0  515.25   25.60
  -2  -7   0   49.00    7.80
   2  -7   0   51.89    4.50
  -2  -7   0   54.39    6.40
  -2  -7   0   49.60    6.00
   2   7   0   51.39    9.10
   2  -7   0   49.70    6.40
   3   7   0  150.08   10.00
  -3  -7   0  149.88   10.00
  -3  -7   0  167.58   12.20
   3  -7   0  148.49   12.00
  -3  -7   0  148.29   11.70
  -4  -7   0 1363.26   62.39
  -4   7   0 1372.06   64.99
   4   7   0 1445.66   62.99
   4  -7   0 1406.06   62.29
  -4  -7   0 1408.36   64.09
  -5  -7   0   34.10    4.40
   5   7   0   36.10    4.80
  -5  -7   0   34.10    4.80
  -6  -7   0  340.17   19.10
   6   7   0  371.26   20.10
  -7  -7   0  625.24   31.50
   7   7   0  674.83   32.70
   8   7   0    4.50    2.30
  -8  -7   0    3.70    2.00
   9   7   0    5.10    2.20
  -9  -7   0    3.50    1.80
   0  -8   0    4.10    3.10
   0  -8   0    6.40    2.40
   0  -8   0    3.40    1.90
  -1  -8   0   67.79    7.30
   1  -8   0   63.59    8.90
  -1  -8   0   60.29    7.50
  -1  -8   0   69.69    6.20
   1  -8   0   66.79    6.20
   1  -8   0   67.39    8.20
  -1  -8   0   60.69    8.90
   1  -8   0   70.49    6.70
  -2  -8   0 1195.08   55.29
  -2  -8   0 1192.08   52.59
   2  -8   0 1131.39   58.19
   2  -8   0 1120.19   51.89
   2  -8   0 1158.98   52.49
  -2  -8   0 1105.19   58.39
   3  -8   0   56.59    5.60
  -3  -8   0   52.29    8.70
  -3  -8   0   58.09    5.90
  -3  -8   0   74.29    7.60
   3  -8   0   58.39    8.60
   3   8   0   64.29    6.00
  -3  -8   0   62.79    7.40
  -4  -8   0  436.76   28.00
   4  -8   0  436.06   22.40
   4   8   0  420.26   22.70
  -4  -8   0  453.55   24.20
  -4  -8   0  418.46   22.50
   5   8   0  151.28   10.70
  -5  -8   0  148.29   10.30
  -5  -8   0  140.49   10.40
  -6  -8   0  630.54   30.50
   6   8   0  610.54   30.80
   7   8   0   17.70    3.60
  -7  -8   0   15.80    3.30
  -8  -8   0  393.36   19.90
   8   8   0  391.56   20.50
  -9  -8   0   27.60    3.20
   0  -9   0    0.90    1.40
   0  -9   0    1.40    2.70
   0  -9   0    1.20    1.70
   1  -9   0  292.17   16.30
   1  -9   0  293.47   21.60
   1  -9   0  277.07   17.50
  -1  -9   0  290.97   21.80
  -1  -9   0  291.67   18.50
  -1  -9   0  280.77   16.30
  -2  -9   0  294.07   18.90
  -2  -9   0  308.77   19.70
   2  -9   0  306.27   17.00
  -2  -9   0  313.67   17.30
  -2  -9   0  318.47   23.00
   2  -9   0  312.77   18.00
   2  -9   0  285.47   21.70
  -3  -9   0   32.20    5.40
   3  -9   0   32.30    4.40
   3  -9   0   32.90    7.20
  -3  -9   0   28.00    4.30
   3  -9   0   34.00    4.50
  -3  -9   0   33.20    7.10
  -4  -9   0  783.72   37.10
  -4  -9   0  752.72   42.50
  -4  -9   0  780.82   38.30
  -5  -9   0  285.97   16.40
  -5  -9   0  284.47   16.20
   6   9   0   57.89    5.90
  -6  -9   0   52.99    5.50
   7   9   0  939.11   45.90
  -7  -9   0 1091.39   46.10
  -8  -9   0   37.30    3.70
   0 -10   0 1805.12   82.89
   0 -10   0 1853.01   80.39
   0 -10   0 1828.32   87.89
  -1 -10   0  126.99   10.90
   1 -10   0  132.29   13.70
  -1 -10   0  127.49    9.20
   1 -10   0  124.39    9.00
  -1 -10   0  117.49   13.20
   1 -10   0  127.79   10.30
  -2 -10   0  657.63   32.10
  -2 -10   0  652.33   38.40
  -2 -10   0  683.53   35.40
   2 -10   0  684.03   38.40
  -2 -10   0  656.23   34.10
   2 -10   0  668.63   31.80
   2 -10   0  656.13   33.30
   3 -10   0   46.00    8.20
  -3 -10   0   44.60    7.50
   3 -10   0   40.50    4.90
   3 -10   0   41.60    4.90
  -3 -10   0   39.50    5.50
  -3 -10   0   39.70    4.70
  -4 -10   0   89.59    7.20
  -4 -10   0   90.19   10.20
  -4 -10   0   92.19    7.80
  -5 -10   0    0.90    1.40
  -6 -10   0  280.37   14.90
  -7 -10   0   35.10    3.50
   0 -11   0    2.50    3.40
   0 -11   0    0.60    1.40
   1 -11   0  228.48   13.00
  -1 -11   0  236.08   18.20
   1 -11   0  240.18   18.30
  -1 -11   0  224.18   14.90
  -1 -11   0  240.18   13.40
   2 -11   0  215.28   12.30
  -2 -11   0  218.38   12.60
   2 -11   0  210.28   16.80
  -2 -11   0  215.68   14.00
  -2 -11   0  225.18   17.10
  -3 -11   0    6.80    3.30
   3 -11   0    8.40    4.00
  -3 -11   0    6.60    2.60
  -4 -11   0   54.79    4.90
  -4 -11   0   52.69    4.90
  -5 -11   0    2.30    1.40
   0 -12   0   66.09    5.00
   0 -12   0   62.59    6.00
   0 -12   0   63.99    7.70
   1 -12   0  469.45   25.90
  -1 -12   0  442.76   21.50
  -1 -12   0  451.85   23.10
  -1 -12   0  467.75   26.00
   2 -12   0  341.87   20.10
  -2 -12   0  339.97   20.40
  -2 -12   0  343.47   17.70
  -2 -12   0  340.67   16.70
  -3 -12   0  150.28    8.60
   0   0  -1    6.20    0.90
   0   0   1    5.90    0.90
   0   0  -1    6.50    0.90
   0   0   1    5.90    0.60
   0   0   1    6.80    0.80
   1   0   1   31.70    2.40
   1   0  -1   30.10    2.30
  -1   0  -1   30.90    2.30
   1   0  -1   33.00    2.60
  -1   0  -1   30.80    2.30
   1   0   1   30.90    2.40
   1   0  -1   31.70    2.60
   1   0   1   36.10    2.20
   1   0   1   28.70    2.00
  -1   0   1   32.00    2.10
   1   0   1   33.50    2.50
   1   0  -1   31.00    2.40
   1   0   1   29.70    2.70
  -1   0   1   31.20    2.50
   2   0  -1  940.41   41.90
   2   0  -1  943.31   41.80
   2   0   1  897.91   41.40
  -2   0   1  958.50   40.60
  -2   0  -1  930.91   41.80
   2   0   1  950.80   41.70
   2   0   1  979.50   41.70
  -2   0  -1  969.60   41.50
   2   0  -1  930.71   41.40
   2   0   1 1030.00   43.00
   2   0  -1  926.41   41.60
  -3   0  -1 1142.39   48.30
   3   0   1 1056.09   48.20
   3   0   1 1046.50   49.50
  -3   0  -1 1113.39   48.80
   3   0  -1 1039.20   47.80
   3   0   1 1101.09   46.40
   3   0  -1  911.81   48.10
  -3   0   1 1129.79   46.60
   3   0  -1  983.50   48.30
   3   0   1 1164.28   48.50
   3   0  -1 1150.18   48.50
   3   0   1 1134.59   48.30
   4   0  -1   26.40    3.80
   4   0   1   25.60    3.70
   4   0   1   31.80    4.00
   4   0  -1   28.00    3.70
   4   0   1   30.00    2.70
   4   0  -1   28.00    4.10
  -4   0   1   27.40    2.80
   4   0   1   29.60    4.60
  -4   0  -1   25.60    3.70
   5   0   1 2767.32  122.09
   5   0  -1 2851.61  120.69
   5   0  -1 2660.63  116.69
   5   0  -1 2830.52  119.39
  -5   0   1 2618.24  115.99
   5   0   1 2718.33  119.59
  -5   0  -1 2783.32  120.69
   5   0   1 2705.53  116.49
   5   0   1 2699.63  119.79
   5   0  -1 2758.42  121.09
   6   0   1 1192.68   57.69
   6   0  -1 1164.08   57.99
   6   0   1 1058.59   59.19
   6   0  -1 1277.07   59.69
   6   0  -1 1230.38   57.39
   6   0   1 1256.37   57.69
   6   0   1 1202.98   54.09
   6   0  -1 1213.18   54.49
   7   0  -1  221.18   16.10
   7   0  -1  241.88   26.30
   7   0  -1  234.48   14.60
   7   0  -1  220.88   16.60
   7   0   1  226.48   14.30
   7   0   1  213.08   16.50
   7   0   1  221.18   13.40
   7   0   1  214.78   15.90
   8   0  -1  321.57   21.30
   8   0   1  323.87   17.60
   8   0  -1  313.17   19.10
   8   0   1  315.37   19.20
   8   0  -1  304.17   17.20
   8   0  -1  310.17   17.50
   8   0   1  289.47   17.60
   9   0   1   39.70    5.10
   9   0  -1   42.20    5.40
   9   0   1   41.30    7.10
   9   0  -1   36.90    4.90
   9   0  -1   39.20    5.90
   9   0  -1   46.40    7.40
   9   0   1   40.90    6.00
   9   0   1   41.00    5.40
 -10   0   1  358.96   19.00
  10   0   1  360.56   19.50
  10   0  -1  358.86   23.10
  10   0   1  353.96   19.80
  10   0  -1  357.46   22.00
  10   0   1  340.37   21.50
  10   0  -1  364.86   19.60
  10   0   1  343.97   23.00
  11   0   1   41.20    6.30
  11   0  -1   35.30    5.90
  11   0   1   40.10    4.50
 -11   0   1   37.90    4.20
  11   0  -1   41.90    4.60
  12   0  -1   57.79    5.20
   0  -1   1 3930.71  155.08
   0  -1  -1 3755.62  155.68
   0   1  -1 3628.44  153.48
   0  -1   1 3346.37  152.78
   0   1  -1 3045.20  151.28
   0  -1  -1 3735.03  155.58
   0  -1  -1 3694.73  151.38
   0   1   1 3475.45  155.98
   0   1  -1 3247.88  154.98
   0  -1   1 3880.11  151.18
   1   1  -1  883.11   39.80
  -1   1   1  905.91   38.10
   1  -1   1  900.11   38.30
   1  -1   1  882.91   37.60
   1   1  -1  891.01   37.90
   1  -1   1  894.21   39.80
  -1  -1  -1  864.31   37.70
   1  -1   1  844.82   37.90
   1   1  -1  880.71   39.30
   1  -1   1  849.61   38.70
  -1  -1  -1  930.61   39.50
   1   1  -1  888.61   39.30
   1   1  -1  847.62   38.40
  -1  -1  -1  873.51   39.10
  -1   1   1  856.71   38.10
   1  -1   1  882.61   37.50
   1   1   1  849.91   39.30
  -1  -1   1  992.30   39.60
   1  -1  -1  896.21   38.10
  -1  -1   1  964.70   37.90
   1  -1  -1  879.31   38.40
   1   1   1  914.81   38.10
   1  -1  -1  893.51   38.50
   1   1   1  899.61   38.10
   1   1   1  932.61   39.30
  -1  -1   1  934.61   38.30
   1  -1  -1  930.61   37.70
   2  -1   1 7014.20  311.17
  -2  -1  -1 7743.83  325.87
  -2  -1  -1 7756.02  321.17
  -2   1   1 7725.83  312.17
   2  -1   1 7851.21  312.57
   2   1  -1 7606.94  326.07
   2   1  -1 7542.85  319.77
   2  -1   1 7275.37  308.77
  -2   1   1 7950.50  314.47
  -2  -1  -1 7243.18  307.77
   2  -1   1 7899.01  322.27
   2  -1  -1 6131.59  313.87
   2  -1  -1 7343.67  315.07
  -2  -1   1 8021.20  320.37
   2   1   1 6991.10  321.67
   2   1   1 6920.91  311.67
   2  -1  -1 6678.53  314.07
  -2  -1   1 7131.69  310.17
   3   1  -1 1212.68   54.49
  -3  -1  -1 1330.57   55.39
  -3  -1  -1 1313.37   56.39
   3   1  -1 1349.07   56.49
  -3  -1  -1 1293.87   52.29
  -3   1   1 1329.17   53.39
   3  -1   1 1154.78   53.49
   3   1  -1 1347.27   56.19
   3  -1   1 1357.06   56.69
   3  -1   1 1315.57   53.29
   3  -1   1 1329.57   53.89
  -3   1   1 1287.97   54.39
   3   1  -1 1362.96   55.49
   3  -1   1 1288.27   55.19
   3   1  -1 1281.37   52.19
  -3  -1   1 1098.39   53.09
   3  -1  -1 1205.98   54.59
   3   1   1 1163.48   52.99
   3   1   1 1146.49   54.59
  -3   1  -1 1247.08   52.79
  -3   1  -1 1088.89   52.39
   3  -1  -1 1203.68   54.39
   3  -1  -1 1218.38   54.69
   3   1   1 1142.89   54.69
   3   1   1 1201.08   56.39
   3   1   1 1194.18   55.79
  -3  -1   1 1219.68   55.39
  -3   1  -1 1116.29   52.69
   3  -1  -1 1208.88   54.19
  -4  -1  -1  257.87   16.20
   4  -1   1  249.18   14.80
   4   1  -1  234.38   13.40
   4   1  -1  264.87   16.40
   4   1  -1  228.18   14.20
   4  -1   1  241.78   13.90
  -4   1   1  242.88   12.80
   4  -1   1  248.38   12.70
   4  -1   1  243.08   15.90
   4   1  -1  251.27   15.90
  -4   1  -1  256.77   13.70
   4   1   1  254.57   15.70
   4   1   1  261.47   12.70
   4  -1  -1  280.57   14.90
   4  -1  -1  254.47   14.30
   4   1   1  296.97   17.30
   4  -1  -1  258.37   15.00
   4   1   1  271.27   15.00
   4   1   1  260.27   13.50
  -4  -1   1  263.37   13.00
   5   1  -1  702.03   32.40
   5  -1   1  703.13   30.50
   5  -1   1  748.93   33.90
   5   1  -1  766.82   36.70
   5   1  -1  709.93   34.20
   5   1  -1  731.83   36.20
   5  -1   1  669.73   34.20
  -5   1   1  707.73   31.30
   5  -1   1  679.33   36.10
   5   1   1  621.54   33.50
   5   1   1  651.43   32.00
   5  -1  -1  660.13   30.90
   5  -1  -1  649.74   33.70
   5  -1  -1  679.33   33.90
   5   1   1  679.63   35.30
   5   1   1  661.53   36.70
  -5   1  -1  622.84   33.00
  -5  -1   1  647.74   31.90
   5  -1  -1  633.74   34.40
   6   1  -1 1021.00   52.39
   6   1  -1 1023.80   49.30
   6  -1   1  996.30   48.70
   6   1  -1 1027.50   51.89
   6  -1   1  925.21   51.49
   6  -1   1 1009.60   45.50
   6   1  -1 1005.90   47.10
   6  -1   1  967.50   49.40
   6  -1  -1 1041.10   46.00
  -6   1  -1  981.10   49.50
   6   1   1 1003.90   52.79
   6  -1  -1 1058.29   49.90
   6   1   1 1011.20   51.09
   6  -1  -1 1042.90   49.80
   6   1   1 1027.00   49.60
   6   1   1 1039.50   47.10
   7  -1   1 1831.22   84.09
   7   1  -1 2013.60   86.39
   7   1  -1 1874.11   87.69
   7  -1   1 1853.51   89.19
   7  -1   1 1952.40   84.89
   7  -1   1 1947.11   88.39
   7   1  -1 1981.80   89.79
   7   1  -1 1828.22   91.59
   7   1  -1 2032.00   84.29
   7   1   1 1905.11   89.09
   7  -1  -1 1984.20   85.39
   7   1   1 2029.40   86.69
   7   1   1 1838.82   84.19
   7  -1  -1 1871.41   87.99
   7   1   1 1989.30  101.99
   7  -1  -1 1894.31   89.09
   7   1   1 1883.11   87.99
   8  -1   1  108.49    8.30
   8   1  -1  106.79    8.40
   8   1  -1   96.89    8.10
   8  -1   1  104.89    8.90
   8   1  -1   99.99    7.90
   8  -1   1   99.79   10.70
   8   1  -1   99.39    9.50
   8  -1   1   98.59    8.30
   8   1  -1  104.69   10.70
   8  -1  -1  101.09    8.00
   8   1   1   95.49    8.20
   8  -1  -1  103.39    9.10
   8   1   1   99.89    8.00
   8   1   1  105.99    9.70
   8  -1  -1  100.19   10.70
   8  -1  -1  100.29    8.10
   8   1   1   97.89   10.40
   9   1  -1  122.19    9.10
   9  -1   1  111.39    9.00
   9   1  -1  111.49    9.10
   9  -1   1  117.39   10.30
   9  -1   1  126.09    9.60
   9  -1   1  124.79   12.30
   9   1  -1  128.69   12.20
   9   1  -1  120.79   11.00
   9   1   1  113.89   11.70
   9  -1  -1  118.69    9.00
   9   1   1  119.19    9.10
   9   1   1  115.39   10.70
   9   1   1  115.49    9.50
   9  -1  -1  123.29    9.40
  -9  -1   1  115.29    8.70
   9  -1  -1  114.19   12.00
   9  -1  -1  107.09    9.90
  10  -1   1  584.24   31.40
  10   1  -1  574.54   32.80
  10   1  -1  591.84   29.40
  10  -1   1  584.04   33.50
  10   1  -1  552.24   32.00
  10  -1   1  614.24   29.60
  10   1   1  567.14   32.20
  10  -1  -1  624.74   34.30
  10   1   1  606.64   29.40
 -10  -1   1  589.14   28.90
  10  -1  -1  570.24   31.70
  10  -1  -1  599.54   29.50
  10   1   1  607.74   33.50
  10  -1  -1  595.74   29.50
  10   1   1  614.94   30.10
  11  -1   1  300.67   19.50
  11  -1   1  307.47   16.60
  11   1  -1  303.87   19.00
  11   1  -1  311.97   16.50
  11  -1  -1  306.37   19.70
  11   1   1  304.17   16.90
 -11  -1   1  298.67   16.00
  11   1   1  301.57   16.30
  11   1   1  312.47   19.40
  11  -1  -1  309.27   16.70
  12  -1   1   79.39    5.90
  12  -1  -1   83.99    5.90
   0  -2   1  139.79    7.50
   0  -2   1  134.39    7.50
   0  -2  -1  129.89    7.30
   0  -2   1  152.98    7.80
   0   2   1  150.68    7.40
   0  -2  -1  139.19    8.10
   0   2   1  147.59    8.10
   0   2   1  133.49    7.80
   0  -2   1  148.89    7.90
   0   2  -1  145.49    9.00
   0   2   1  144.29    8.10
   0  -2  -1  135.79    7.90
   0   2  -1  133.89    7.40
  -1  -2  -1 1479.05   65.49
  -1  -2  -1 1697.83   67.49
  -1   2   1 1504.65   65.49
   1  -2   1 1530.55   64.89
   1  -2   1 1569.74   66.09
   1  -2   1 1477.45   64.89
   1   2  -1 1542.65   65.89
   1  -2   1 1574.64   68.29
   1   2  -1 1631.04   65.79
   1  -2   1 1568.24   66.49
   1  -2   1 1464.95   65.69
   1   2  -1 1490.85   67.89
  -1   2   1 1670.03   66.19
   1   2  -1 1479.05   67.09
  -1  -2   1 1623.44   66.09
   1  -2  -1 1483.65   66.79
   1   2   1 1419.26   64.89
   1   2   1 1515.15   65.79
   1  -2  -1 1530.35   65.19
   1  -2  -1 1515.25   65.99
  -1   2  -1 1674.23   68.09
   1   2   1 1528.85   67.39
   1  -2  -1 1538.65   65.99
   1   2   1 1590.24   67.49
  -1  -2   1 1654.03   67.49
   2  -2   1 1375.76   60.39
   2   2  -1 1230.18   59.49
  -2  -2  -1 1388.26   57.09
  -2  -2  -1 1417.56   59.89
   2   2  -1 1295.37   58.09
   2   2  -1 1322.37   61.09
   2  -2   1 1350.26   57.69
   2   2  -1 1309.67   57.09
   2   2  -1 1301.37   60.69
  -2   2   1 1336.17   56.89
   2  -2   1 1270.07   58.49
  -2  -2   1 1372.56   57.69
   2  -2  -1 1485.65   57.99
   2   2   1 1492.45   60.19
   2   2   1 1510.15   61.39
   2  -2  -1 1431.76   57.99
   2   2   1 1229.18   59.99
   2  -2  -1 1371.36   58.09
  -2  -2   1 1134.89   59.19
   2   2   1 1458.05   57.69
   2   2   1 1304.87   57.59
   2  -2  -1 1176.78   57.29
   2  -2  -1 1341.07   57.29
   3  -2   1 2106.79   94.59
   3   2  -1 2000.50   94.29
  -3   2   1 2076.69   90.19
   3   2  -1 2192.38   95.09
   3   2  -1 2201.48   95.09
   3  -2   1 2090.69   90.89
  -3  -2  -1 1851.51   90.29
   3  -2   1 2108.69   90.19
   3  -2   1 2189.18   91.39
  -3  -2  -1 2159.48   94.09
   3   2  -1 2170.68   92.39
  -3   2   1 2164.18   91.49
   3  -2   1 2197.68   93.09
   3   2   1 1942.21   94.59
   3  -2  -1 2228.18   92.49
  -3  -2   1 1951.50   93.89
   3  -2  -1 2261.17   91.59
   3   2   1 2270.17   95.39
   3  -2  -1 2315.77   92.89
  -3  -2   1 2279.17   91.59
   3   2   1 2303.97   95.19
   3   2   1 2086.09   92.19
   3  -2  -1 2319.37   92.99
   4   2  -1  424.36   22.50
   4  -2   1  413.66   18.40
   4   2  -1  432.16   19.60
   4   2  -1  435.76   22.90
   4  -2   1  438.06   18.50
   4  -2   1  435.26   21.10
  -4   2   1  422.36   18.70
   4   2   1  328.57   21.30
  -4   2  -1  348.77   17.60
   4   2   1  339.57   17.90
   4   2   1  335.67   19.60
   4  -2  -1  333.07   19.70
   4   2   1  334.37   18.90
  -4  -2   1  326.87   18.10
   4  -2  -1  368.06   20.30
   4   2   1  328.47   21.80
   4  -2  -1  347.57   18.80
   5  -2   1   33.90    5.00
  -5   2   1   30.70    3.70
   5   2  -1   31.40    4.70
   5   2  -1   36.80    6.20
   5   2  -1   39.20    6.20
   5  -2   1   36.60    4.20
   5   2   1   49.90    6.70
   5   2   1   46.50    4.90
   5  -2  -1   52.99    5.80
   5   2   1   46.90    6.90
   5  -2  -1   45.40    4.90
   5   2   1   48.40    5.50
  -5   2  -1   45.60    4.50
   6   2  -1  635.84   36.50
   6  -2   1  679.83   34.30
   6   2  -1  628.54   33.20
   6  -2   1  660.53   31.80
   6   2  -1  664.93   36.70
   6  -2   1  625.44   36.00
   6  -2   1  675.33   29.30
   6   2   1  605.44   31.40
   6  -2  -1  602.34   29.10
   6  -2  -1  602.84   33.10
   6   2   1  607.74   36.90
  -6   2  -1  591.24   32.00
   6  -2  -1  631.24   32.50
   6   2   1  578.14   32.80
   6   2   1  584.34   35.50
   7  -2   1  894.81   46.10
   7   2  -1  886.71   40.70
   7  -2   1  904.91   40.50
   7   2  -1  901.71   43.30
   7   2  -1  890.71   44.00
   7  -2   1  915.51   44.80
   7   2  -1  819.52   45.10
   7   2   1  875.81   42.90
   7   2   1  916.81   40.90
   7   2   1  817.32   43.60
   7  -2  -1  887.51   40.90
   7  -2  -1  836.32   44.10
   7   2   1  805.12   44.60
   7  -2  -1  819.82   44.80
   8   2  -1   44.80    7.00
  -8  -2  -1   47.50    5.20
   8   2  -1   45.00    5.20
   8  -2   1   46.20    7.40
   8  -2   1   42.40    5.20
   8   2  -1   43.70    6.40
   8  -2   1   56.09    5.80
   8   2  -1   52.79    5.60
   8  -2  -1   45.40    5.20
   8   2   1   46.10    6.40
   8  -2  -1   50.79    5.60
   8   2   1   48.50    7.40
   8  -2  -1   43.80    7.20
   8  -2  -1   45.50    5.60
   8   2   1   47.30    5.40
  -8  -2   1   53.19    5.40
   8   2   1   44.80    5.50
   9   2  -1 1065.29   54.39
   9  -2   1 1055.69   51.89
   9   2  -1 1086.99   51.09
   9   2  -1 1087.29   50.49
   9  -2   1 1024.20   50.39
   9  -2   1 1079.99   55.59
  -9  -2   1 1122.29   50.39
   9   2   1 1121.69   51.49
   9  -2  -1 1113.89   52.69
   9  -2  -1 1106.49   50.69
   9   2   1 1133.79   55.29
   9  -2  -1 1157.08   51.09
   9   2   1 1142.89   50.69
   9   2   1 1064.39   53.99
   9  -2  -1 1134.79   56.09
  10   2  -1  425.46   22.90
  10  -2   1  436.46   23.10
  10  -2   1  432.66   26.90
  10   2  -1  407.56   23.20
  10   2  -1  410.46   25.70
  10  -2   1  412.06   24.40
  10  -2  -1  474.75   23.50
  10  -2  -1  452.45   25.10
  10   2   1  471.55   26.90
  10   2   1  465.65   24.10
  10   2   1  472.85   23.10
  10  -2  -1  469.85   27.70
  10  -2  -1  484.95   23.60
 -10  -2   1  460.15   23.00
  11   2  -1  182.08   11.60
  11  -2   1  197.88   14.80
  11  -2   1  197.88   12.10
  11  -2  -1  224.28   12.50
  11  -2  -1  217.78   15.20
  11   2   1  215.18   14.50
  11   2   1  211.58   12.70
 -11  -2   1  221.18   12.00
   0  -3  -1  185.38   11.40
   0   3   1  215.18   10.90
   0  -3   1  192.28   11.50
   0  -3   1  208.98   11.10
   0   3   1  233.48   12.30
   0  -3   1  214.18   11.60
   0   3   1  216.28   12.20
   0  -3  -1  203.68   12.10
   0   3  -1  222.88   11.20
   0   3  -1  223.88   13.20
   0   3  -1  219.68   10.80
   0  -3  -1  203.98   11.00
   1  -3   1 3247.38  132.59
   1  -3   1 3071.09  134.69
  -1  -3  -1 3406.16  140.19
  -1   3   1 2869.71  131.79
  -1  -3  -1 3235.38  132.29
  -1   3   1 3115.19  132.79
   1  -3   1 3139.09  133.09
   1   3  -1 2628.84  134.09
   1   3  -1 2991.00  133.49
   1   3  -1 2821.52  138.39
   1  -3   1 3289.77  132.59
   1   3  -1 2901.41  132.19
   1   3   1 3317.27  132.29
  -1   3  -1 3272.27  135.09
   1  -3  -1 3080.99  130.99
  -1   3  -1 3126.29  132.29
   1  -3  -1 3436.56  136.19
  -1  -3   1 3276.97  137.09
   1   3   1 3180.88  134.09
   1  -3  -1 3470.65  132.79
  -1  -3   1 3072.59  132.49
   2   3  -1 4378.66  183.98
  -2   3   1 4535.55  180.58
   2  -3   1 4362.26  184.68
  -2  -3  -1 4490.15  180.88
   2   3  -1 4399.56  185.38
   2  -3   1 4697.23  181.48
  -2   3   1 3551.54  181.08
   2  -3   1 4368.36  181.08
  -2  -3  -1 4605.54  196.08
   2   3  -1 4145.69  180.68
   2   3  -1 4466.05  186.08
   2   3   1 4302.87  184.08
  -2   3  -1 4635.64  184.48
   2  -3  -1 3838.02  182.68
   2   3   1 4407.06  181.18
   2  -3  -1 3845.72  184.78
   2  -3  -1 4437.76  180.78
   2   3   1 4168.38  180.28
   2  -3  -1 4365.16  184.88
  -3   3   1  803.92   36.00
   3   3  -1  833.32   34.40
  -3  -3  -1  827.62   34.30
  -3   3   1  804.42   33.90
   3   3  -1  771.82   38.70
   3  -3   1  790.72   36.30
   3   3  -1  831.52   35.70
   3   3  -1  821.72   39.80
   3  -3   1  841.12   38.80
   3  -3   1  844.22   35.10
  -3   3   1  807.22   35.00
  -3  -3  -1  710.53   37.60
   3   3  -1  836.42   40.00
   3  -3  -1  666.13   35.60
  -3  -3   1  678.13   34.70
  -3  -3   1  684.73   37.60
   3  -3  -1  722.33   34.00
   3  -3  -1  705.53   35.00
   3   3   1  687.93   34.70
   3   3   1  733.83   34.60
   3   3   1  740.13   39.30
   3   3   1  738.13   38.00
  -4   3   1 1562.84   76.99
   4  -3   1 1847.92   79.59
   4  -3   1 1773.22   77.09
   4  -3   1 1862.91   82.09
   4   3  -1 1823.52   78.69
   4   3  -1 1802.82   82.09
  -4   3  -1 1782.22   76.59
   4   3   1 1771.52   82.79
   4  -3  -1 1708.13   76.59
   4   3   1 1829.42   78.59
   4  -3  -1 1850.91   78.79
   4   3   1 1764.52   78.09
   4   3   1 1889.61   84.29
  -4  -3   1 1648.34   77.09
   5  -3   1   84.29    8.50
   5   3  -1  102.39    8.80
  -5   3   1   88.59    7.10
   5   3  -1   86.59   10.10
   5  -3   1   91.79    6.60
   5  -3   1   83.99    9.70
   5   3   1  113.89    8.40
   5  -3  -1  117.99    9.30
   5   3   1  109.09    8.80
   5  -3  -1  109.69    7.70
   6  -3   1  158.28   12.60
   6  -3   1  155.18    9.70
   6   3  -1  166.08   15.40
   6   3  -1  139.29   11.60
   6  -3  -1  124.29    9.90
   6  -3  -1  123.79   11.20
   6   3   1  128.49   10.30
   6   3   1  126.49   11.20
  -6   3  -1  125.09    9.70
   7   3  -1  169.68   14.60
   7  -3   1  164.08   11.00
   7  -3   1  181.68   14.20
   7   3  -1  177.28   11.40
  -7  -3  -1  169.08   10.80
   7  -3   1  158.68   14.30
   7  -3  -1  178.78   14.10
   7  -3  -1  158.88   14.00
   7  -3  -1  172.28   11.00
   7   3   1  194.68   11.90
  -7  -3   1  171.98   11.00
   7  -3  -1  174.38   10.90
   7  -3  -1  165.58   11.10
   7   3   1  152.78   16.90
   7   3   1  175.28   13.70
   7   3   1  175.58   14.40
   8  -3   1  713.43   35.00
   8  -3   1  734.43   39.70
   8   3  -1  809.62   36.20
   8  -3   1  750.52   35.40
  -8  -3  -1  752.82   34.90
   8  -3  -1  718.13   35.70
  -8  -3   1  718.73   34.70
   8  -3  -1  735.73   35.20
   8   3   1  703.83   38.60
   8   3   1  671.43   35.30
   8  -3  -1  710.63   35.00
   8  -3  -1  733.43   39.90
   9   3  -1  317.67   18.20
  -9  -3  -1  296.97   17.00
   9  -3   1  307.67   21.30
   9  -3   1  309.67   17.60
   9  -3  -1  320.77   17.80
  -9  -3   1  300.07   17.20
   9   3   1  318.77   20.80
   9  -3  -1  314.77   17.60
   9  -3  -1  306.57   18.60
   9   3   1  321.17   18.40
   9  -3  -1  307.37   21.50
  10  -3   1   28.80    5.60
  10   3  -1   30.00    4.30
  10  -3   1   29.50    4.10
  10   3   1   22.30    4.00
 -10  -3   1   26.10    4.00
  10  -3  -1   22.40    3.70
  10  -3  -1   23.10    5.30
  10   3   1   21.30    5.10
  11   3  -1  121.69    8.20
  11  -3   1  125.89   10.40
  11  -3   1  124.19    8.00
  11   3   1  110.39    8.20
  11  -3  -1  108.09    9.90
 -11  -3   1  100.99    7.30
  11  -3  -1  102.89    7.50
   0  -4   1  887.01   41.10
   0  -4  -1  876.81   41.40
   0  -4  -1  908.41   40.50
   0  -4   1  867.41   40.40
   0   4   1  876.71   40.00
   0   4  -1  902.81   39.50
   0   4  -1  898.31   43.30
   0   4  -1  941.21   40.60
  -1   4   1  110.19    7.10
   1  -4   1  112.29    7.10
   1   4  -1  113.79    6.70
   1   4  -1  112.29    9.40
  -1   4  -1   84.99    8.40
  -2   4   1   79.39    6.60
  -2  -4  -1   71.09    7.30
  -2  -4  -1   74.99    6.00
   2  -4   1   80.89    5.10
  -2  -4  -1   77.79    5.90
   2  -4   1   82.39    6.20
  -2   4   1   79.09    5.70
   2   4  -1   82.79    5.90
   2   4  -1   76.59    8.80
   2   4  -1   84.19    6.00
   2  -4   1   81.29    5.00
   2   4  -1   77.49    8.40
  -2  -4   1   67.59    5.70
   2   4   1   77.79    7.90
  -2  -4   1   71.29    6.00
   2   4   1   80.69    6.20
  -2   4  -1   79.39    6.00
   2  -4  -1   81.39    5.80
  -2  -4   1   75.59    7.60
  -2   4  -1   94.19    8.30
  -2   4  -1   83.29    6.30
   2  -4  -1   73.29    6.10
   3   4  -1   31.10    3.60
  -3  -4  -1   36.40    4.10
   3   4  -1   33.80    3.90
  -3  -4  -1   30.00    3.50
   3   4  -1   31.30    5.90
  -3   4   1   30.60    3.40
  -3  -4  -1   33.70    5.60
   3  -4   1   32.10    3.90
   3   4  -1   32.30    5.90
  -3  -4   1   41.20    5.80
  -3  -4   1   37.90    4.20
  -3   4  -1   41.80    5.80
  -3  -4   1   37.20    4.20
   3   4   1   38.10    4.20
  -3   4  -1   37.80    4.00
   3   4   1   39.70    6.40
   3  -4  -1   43.00    4.50
   4  -4   1  315.37   21.50
   4   4  -1  353.96   22.60
  -4   4   1  345.47   18.10
   4  -4   1  348.07   19.70
   4   4  -1  306.97   18.20
  -4  -4   1  312.27   17.80
  -4   4  -1  337.87   21.40
  -4   4  -1  327.77   17.60
   4   4   1  341.37   17.80
   4   4   1  342.37   22.50
   4  -4  -1  356.26   17.10
   5   4  -1  678.83   33.90
  -5   4   1  656.03   32.00
   5  -4   1  659.63   34.40
   5   4  -1  618.24   37.30
   5   4   1  705.23   39.30
   5  -4  -1  616.04   30.70
   6   4  -1  268.97   19.10
   6  -4   1  254.37   18.10
   6  -4   1  258.37   17.40
   6   4  -1  248.88   14.80
   6   4   1  245.78   14.80
   6  -4  -1  278.97   17.80
   7   4  -1  290.37   15.70
   7  -4   1  316.07   19.30
   7  -4  -1  226.88   14.50
  -7  -4   1  237.88   14.50
   7  -4  -1  235.78   14.40
   7   4   1  233.98   15.10
   7  -4  -1  250.77   18.00
   8   4  -1  285.47   16.90
   8  -4   1  305.27   20.20
  -8  -4  -1  295.67   16.00
   8  -4   1  304.57   16.40
   8  -4  -1  277.17   16.00
  -8  -4   1  266.47   15.90
   8  -4  -1  273.87   16.20
   8  -4  -1  265.97   19.60
   8  -4  -1  256.47   16.00
   8   4   1  255.07   16.30
   9   4  -1  184.48   12.40
   9  -4   1  196.48   15.30
   9  -4   1  183.48   11.80
  -9  -4  -1  184.78   11.60
   9  -4   1  186.78   12.00
   9  -4  -1  168.58   14.70
   9  -4  -1  184.98   11.80
   9   4   1  168.68   12.30
  -9  -4   1  179.48   11.70
   9  -4  -1  176.88   12.30
   9  -4  -1  199.48   14.20
  10  -4   1  196.38   12.10
  10  -4   1  188.28   14.60
  10   4  -1  193.88   12.60
 -10  -4  -1  198.58   13.80
 -10  -4   1  210.68   12.20
  10   4   1  211.98   13.10
  10  -4  -1  204.08   15.40
  10  -4  -1  213.88   12.30
  11  -4   1  205.78   11.90
  11  -4   1  190.78   14.10
  11  -4  -1  214.08   11.80
  11   4   1  229.98   12.70
  11  -4  -1  231.08   14.70
 -11  -4   1  224.08   11.80
   0  -5  -1  664.73   32.70
   0  -5   1  682.33   32.60
   0   5   1  670.83   34.50
   0  -5  -1  671.13   31.50
   0  -5  -1  617.24   29.80
   0  -5   1  681.03   31.70
   0   5  -1  628.74   31.00
   0  -5   1  619.54   29.50
   0   5  -1  636.04   34.20
   0   5   1  631.84   30.80
   1  -5   1 1258.67   55.79
  -1  -5  -1 1270.57   57.99
   1   5  -1 1225.88   55.09
  -1   5   1 1278.97   56.99
   1   5  -1 1251.37   59.79
  -1   5   1 1241.18   54.99
   1  -5   1 1321.77   55.79
   1   5  -1 1292.47   59.89
  -1  -5  -1 1236.38   55.39
  -1  -5  -1 1276.67   54.99
  -1  -5   1 1144.79   57.19
   1   5   1 1245.88   55.19
  -1   5  -1 1246.58   55.69
  -1   5  -1 1274.17   59.19
  -1  -5   1 1224.48   55.59
   1   5   1 1058.49   58.59
  -1  -5   1 1181.48   54.49
   1  -5  -1 1163.08   55.69
   1  -5  -1 1213.48   53.09
   1  -5  -1 1235.08   55.69
  -2  -5  -1  200.18   14.80
  -2   5   1  204.98   12.00
  -2  -5  -1  196.18   12.30
   2  -5   1  217.08   12.80
   2   5  -1  191.78   15.80
   2   5  -1  204.08   12.20
  -2  -5  -1  195.08   12.20
   2  -5   1  199.48   11.30
   2   5  -1  193.58   16.60
   2   5   1  207.88   15.30
   2   5   1  205.58   16.60
  -2  -5   1  197.78   12.30
   2  -5  -1  198.98   12.60
  -2  -5   1  192.58   14.60
   2   5   1  198.18   12.40
  -2  -5   1  201.08   12.50
  -2   5  -1  222.98   15.40
  -2   5  -1  216.58   12.70
   2  -5  -1  206.58   12.20
  -3  -5  -1  145.19    9.70
   3  -5   1  151.28   10.30
   3   5  -1  150.38    9.80
   3   5  -1  154.38   14.40
  -3   5   1  142.99    9.40
  -3  -5  -1  152.28   10.20
   3   5  -1  146.19   14.20
  -3  -5   1  140.69    9.90
  -3   5  -1  142.79    9.90
   3  -5  -1  136.49   10.00
   3  -5  -1  140.19    9.00
  -3  -5   1  129.39    9.80
   3   5   1  135.49    9.90
  -3  -5   1  141.09   13.10
  -3   5  -1  140.89   12.30
   3   5   1  135.69   12.40
   4  -5   1  201.08   13.10
   4   5  -1  206.98   17.30
  -4   5   1  204.48   13.00
  -4   5  -1  235.98   17.30
  -4  -5   1  193.28   12.80
   4  -5  -1  205.58   11.60
   4   5   1  204.88   17.10
   4   5   1  208.58   13.00
  -5   5   1  368.06   19.80
   5   5  -1  335.97   18.20
   5  -5  -1  319.57   21.00
   5   5   1  340.07   18.10
   5  -5  -1  321.37   17.20
  -6  -5  -1  476.05   22.40
   6   5  -1  474.65   23.10
   6  -5  -1  429.56   22.30
  -6  -5   1  417.46   22.00
   6  -5  -1  427.56   25.30
   6   5   1  376.06   22.10
   7   5  -1  783.32   36.00
  -7  -5  -1  712.53   34.70
   7  -5   1  711.13   38.60
   7  -5  -1  661.63   34.70
   7   5   1  797.02   36.30
  -7  -5   1  716.33   34.90
   7  -5  -1  739.73   39.20
   8  -5   1   56.59    5.70
   8  -5   1   49.30    7.50
  -8  -5  -1   49.30    5.50
   8   5  -1   53.79    6.20
   8  -5  -1   64.89    8.50
   8  -5  -1   57.79    6.10
  -8  -5   1   49.80    5.60
   8   5   1   58.89    6.20
   9   5  -1   45.20    5.60
   9  -5   1   47.80    7.10
  -9  -5  -1   44.00    5.20
   9  -5   1   46.30    5.10
   9  -5  -1   63.89    8.00
  -9  -5   1   62.09    5.80
   9   5   1   60.79    6.30
   9  -5  -1   55.39    6.80
  10  -5   1  231.48   12.80
 -10  -5  -1  226.48   12.50
  10  -5   1  238.98   15.50
  10   5  -1  242.28   13.70
 -10  -5   1  206.48   12.60
  10   5   1  220.98   13.50
  10  -5  -1  199.88   15.10
   0   6   1  180.18   11.60
   0  -6  -1  178.38   13.20
   0   6  -1  170.48   13.90
   0   6  -1  176.08   14.60
   0  -6   1  175.98   10.50
   0  -6  -1  188.78   12.30
   0  -6   1  184.08   13.00
   0  -6   1  176.98   12.20
   0   6  -1  168.48   11.50
   0  -6  -1  170.48   10.80
  -1   6  -1   86.69    9.50
  -1   6  -1   89.69    7.60
   1  -6  -1   89.39    8.10
   1  -6  -1   84.79    6.30
  -1  -6   1   89.09    9.10
   1  -6  -1   92.59    8.00
  -1  -6   1   83.79    7.00
  -1  -6   1   87.59    7.80
   1   6   1   84.09    9.80
   1   6   1   92.89    7.70
  -2   6   1  253.77   14.80
   2   6  -1  281.57   15.60
   2   6  -1  249.48   19.70
   2   6  -1  247.78   20.70
  -2  -6  -1  256.77   15.20
  -2  -6  -1  255.47   18.40
   2  -6   1  260.97   14.70
   2  -6   1  278.57   16.00
  -2  -6  -1  268.37   15.40
  -2  -6   1  236.98   15.20
  -2  -6   1  260.47   15.30
   2  -6  -1  252.57   14.40
  -2  -6   1  220.88   17.70
   2   6   1  236.78   18.20
   2   6   1  218.78   19.30
   2  -6  -1  238.68   15.30
  -2   6  -1  236.38   17.80
   2   6   1  245.48   15.30
  -2   6  -1  230.58   14.90
   2  -6  -1  216.68   14.50
   3   6  -1   20.80    4.00
   3  -6  -1   14.40    3.40
   3   6   1   23.50    4.40
  -3   6  -1   16.30    3.50
  -3  -6   1   15.80    3.30
   3  -6  -1   15.80    2.80
  -3  -6   1   16.50    3.50
   4  -6   1  181.68   12.90
  -4   6   1  177.98   12.60
   4   6  -1  190.08   11.50
  -4  -6   1  177.58   12.60
   4   6   1  185.08   11.40
  -5   6   1  745.83   37.60
   5   6  -1  730.43   35.60
  -5  -6  -1  726.83   35.10
  -5  -6  -1  741.43   35.30
  -5  -6   1  734.83   35.50
   5   6   1  780.32   35.70
   5  -6  -1  724.43   35.10
  -5  -6   1  746.93   35.00
  -6  -6  -1  273.37   14.90
   6   6  -1  267.47   15.30
   6  -6  -1  238.58   17.00
   6   6   1  215.48   14.40
  -6  -6   1  243.98   14.30
   6  -6  -1  233.78   14.40
  -7  -6  -1   10.90    3.00
   7  -6  -1    1.50    2.30
   7  -6  -1    1.80    2.20
   7   6   1    2.30    2.00
  -7  -6   1    0.40    1.50
   8   6  -1   13.60    3.40
  -8  -6  -1   16.30    3.50
   8  -6  -1   18.70    4.70
  -8  -6   1   21.40    3.90
   8   6   1   20.00    3.80
  -9  -6  -1  101.89    7.10
  -9  -6   1   73.39    6.60
   9  -6  -1   74.79    8.50
   9   6   1   84.29    7.40
 -10  -6  -1  109.09    7.20
  10   6  -1  106.89    7.90
  10   6   1  115.59    8.10
 -10  -6   1  111.39    7.40
  10  -6  -1  112.19   10.10
   0  -7  -1  712.43   36.70
   0  -7   1  686.93   36.50
   0  -7   1  755.12   35.20
   0   7  -1  733.53   42.20
   0  -7   1  725.23   38.40
   0  -7  -1  715.03   35.20
   0  -7  -1  699.43   38.60
   0   7  -1  794.82   41.70
  -1  -7  -1   90.19    8.40
   1  -7   1   94.49   11.10
  -1  -7  -1   88.19   10.00
  -1  -7  -1  103.89    8.40
   1  -7   1   96.99    8.80
   1  -7   1   92.89    6.80
   1   7  -1   96.49   15.80
   1   7  -1   95.49   11.40
   1  -7  -1   80.29    6.90
  -1  -7   1   77.59    9.40
  -1  -7   1   80.59    8.20
  -1  -7   1   82.29    7.70
   1  -7  -1   79.09   10.80
   1  -7  -1   77.39    8.10
  -2  -7  -1 1465.95   61.59
   2   7  -1 1369.66   69.79
   2  -7   1 1301.17   61.49
  -2  -7  -1 1319.17   66.19
   2   7  -1 1303.67   59.39
  -2  -7  -1 1319.57   61.19
   2   7   1 1200.28   68.49
  -2  -7   1 1271.07   65.59
   2  -7  -1 1282.97   61.29
  -2  -7   1 1348.07   61.09
  -2  -7   1 1273.27   61.29
   2  -7  -1 1297.57   58.29
  -3  -7  -1  894.91   40.60
  -3  -7  -1  847.12   43.10
   3   7  -1  912.51   40.90
  -3  -7  -1  832.72   47.30
   3  -7   1  917.51   43.60
   3  -7  -1  847.92   43.30
  -3  -7   1  927.81   43.60
  -3  -7   1  891.41   40.50
  -3  -7   1  801.12   42.90
   3  -7  -1  842.72   40.10
  -4  -7  -1  172.08   14.90
   4  -7   1  146.09   12.40
  -4  -7  -1  155.08   11.60
  -4   7   1  155.68   13.80
  -4  -7  -1  154.98   10.60
   4   7  -1  164.48   11.00
   4  -7  -1  183.18   11.10
  -4  -7   1  170.58   10.80
  -4  -7   1  168.28   11.90
   4   7   1  169.78   11.00
   5   7  -1   85.09    8.00
  -5  -7  -1   85.99    7.70
  -5  -7  -1   87.99    8.00
   5  -7  -1  117.29    8.60
  -5  -7   1  123.89    9.10
  -5  -7   1  120.09    8.50
   5   7   1  127.19    9.10
  -6  -7  -1   47.20    5.10
   6   7   1   30.20    4.70
   6  -7  -1   31.30    4.70
  -6  -7   1   32.30    4.60
  -7  -7  -1   92.99    7.40
   7   7  -1   86.39    7.70
   7   7   1   71.99    7.30
   7  -7  -1   76.79    7.10
  -7  -7   1   74.79    6.80
   8   7  -1  241.58   15.80
  -8  -7  -1  244.58   15.00
   8   7   1  300.57   16.40
  -8  -7   1  312.57   15.90
   9   7  -1   12.40    2.90
  -9  -7  -1   13.80    2.70
   9   7   1    9.30    2.60
  -9  -7   1    8.40    2.40
   0  -8   1   66.79    6.20
   0  -8   1   68.09    8.00
   0  -8  -1   69.69    8.10
   0  -8   1   65.39    9.00
   0  -8   1   68.69    7.00
   0  -8  -1   69.09    7.00
   0  -8  -1   62.49    9.10
   0  -8  -1   70.19    6.30
  -1  -8  -1  340.27   20.30
  -1  -8  -1  316.27   20.90
  -1  -8  -1  327.97   23.30
   1  -8   1  322.87   22.80
   1  -8   1  343.67   19.10
  -1  -8  -1  327.97   18.30
   1  -8   1  335.67   29.00
   1  -8   1  315.27   18.00
  -1  -8   1  341.77   23.50
  -1  -8   1  343.07   20.40
   1  -8  -1  356.96   18.60
   1  -8  -1  366.86   29.50
  -1  -8   1  355.86   18.60
   1  -8  -1  344.77   23.40
   1  -8  -1  373.06   19.90
  -1  -8   1  368.36   25.50
  -2  -8  -1   81.49    8.60
   2  -8   1   92.49   10.40
  -2  -8  -1   87.79    7.20
  -2  -8  -1   81.59   10.50
   2  -8   1   87.99    6.90
  -2  -8  -1   96.69    8.90
   2   8  -1   83.69    7.30
   2  -8  -1   66.19    6.40
  -2  -8   1   68.99    6.60
   2  -8  -1   74.59    6.90
  -2  -8   1   69.09    9.60
   2  -8  -1   68.59    9.50
  -2  -8   1   73.39    8.10
   3  -8   1  137.89   13.20
  -3  -8  -1  149.39   10.00
  -3  -8  -1  148.69   11.10
  -3  -8  -1  136.29   13.70
   3   8  -1  154.58    9.90
   3  -8  -1  128.59    9.20
   3  -8  -1  121.49    9.10
  -3  -8   1  111.79   10.30
  -3  -8   1  116.79   12.90
   3  -8  -1  126.39   13.90
  -3  -8   1  120.99    9.10
  -3  -8   1  129.09   11.30
   4   8  -1  728.33   34.90
  -4  -8  -1  708.13   40.20
  -4  -8  -1  715.73   35.80
  -4  -8  -1  678.13   34.20
  -4  -8   1  717.03   36.00
   4  -8  -1  719.33   34.30
  -4  -8   1  739.03   34.60
   4   8   1  706.93   36.30
  -5  -8  -1   24.40    4.00
   5   8  -1   25.20    4.20
  -5  -8  -1   27.20    4.00
  -5  -8   1   13.20    3.30
   5  -8  -1   19.00    3.90
  -5  -8   1   15.80    3.50
  -6  -8  -1  132.39    9.10
   6   8  -1  140.89    9.80
   6  -8  -1  109.09    8.50
   6   8   1   96.89    8.60
  -6  -8   1  104.89    8.50
  -7  -8  -1  123.19    8.80
   7   8  -1  114.69    9.10
  -7  -8   1  138.39    9.20
   7   8   1  125.69    9.40
   8   8  -1    5.40    2.20
  -8  -8  -1    4.80    1.90
   8   8   1    5.80    2.30
  -8  -8   1    7.40    2.20
  -9  -8  -1   31.30    3.60
  -9  -8   1   35.30    3.60
   0  -9   1   87.69    8.50
   0  -9  -1   90.69   11.30
   0  -9  -1   93.69    8.70
   0  -9  -1   85.09    7.40
   0  -9   1   88.29   10.80
   0  -9   1   94.09    7.40
  -1  -9  -1   27.30    6.70
   1  -9   1   32.90    4.30
   1  -9   1   31.70    4.70
  -1  -9  -1   33.00    5.10
   1  -9   1   29.40    6.40
  -1  -9  -1   29.80    4.20
   1  -9  -1   21.20    3.90
  -1  -9   1   20.70    6.00
  -1  -9   1   19.00    4.20
  -1  -9   1   20.90    3.80
   1  -9  -1   22.50    6.50
   1  -9  -1   21.40    3.70
  -2  -9  -1   41.30    4.90
  -2  -9  -1   36.70    5.80
   2  -9   1   37.40    7.10
  -2  -9  -1   37.70    7.60
   2  -9   1   43.00    5.30
  -2  -9  -1   36.90    6.00
  -2  -9   1   50.89    5.40
   2  -9  -1   45.30    5.10
   2  -9  -1   43.20    5.30
  -2  -9   1   43.70    6.50
  -2  -9   1   50.79    8.60
  -2  -9   1   42.60    6.10
   2  -9  -1   48.50    8.50
   3  -9   1 1204.18   55.59
  -3  -9  -1 1214.48   57.69
  -3  -9  -1 1225.08   55.79
   3  -9   1 1181.48   61.59
  -3  -9  -1 1203.18   62.39
   3  -9  -1 1256.87   55.59
   3  -9  -1 1219.08   61.79
  -3  -9   1 1220.98   55.69
   3  -9  -1 1242.08   56.19
  -3  -9   1 1225.18   57.69
  -3  -9   1 1283.87   62.89
  -4  -9  -1  318.67   22.00
   4   9  -1  289.07   16.70
  -4  -9  -1  310.57   16.80
  -4  -9  -1  290.57   17.50
   4  -9  -1  273.07   16.20
   4  -9  -1  265.97   15.90
  -4  -9   1  270.67   16.30
  -4  -9   1  283.97   17.50
  -4  -9   1  303.17   28.70
   5   9  -1  364.36   20.30
  -5  -9  -1  356.36   19.70
  -5  -9  -1  333.17   19.70
  -5  -9   1  394.26   20.10
   5  -9  -1  387.96   19.80
  -5  -9   1  414.66   20.60
  -6  -9  -1   81.69    7.00
   6   9  -1   88.39    7.40
  -6  -9   1   90.79    7.10
   7   9  -1  101.49    7.80
  -7  -9  -1  105.69    7.40
  -7  -9   1   99.59    7.30
   7   9   1  104.89    7.70
  -8  -9  -1  266.77   13.80
  -8  -9   1  268.97   13.90
   0 -10  -1   58.99    5.70
   0 -10   1   56.09    5.60
   0 -10   1   54.19    8.90
   0 -10  -1   49.99    9.00
   0 -10   1   52.49    6.40
   0 -10  -1   47.90    6.30
   1 -10   1  218.88   12.90
   1 -10   1  225.88   18.20
  -1 -10  -1  212.28   18.10
  -1 -10  -1  226.08   13.40
  -1 -10  -1  222.08   15.30
   1 -10   1  212.78   14.50
  -1 -10  -1  214.38   15.40
   1 -10  -1  219.98   18.30
  -1 -10   1  201.28   14.70
   1 -10  -1  213.98   13.10
  -1 -10   1  217.68   13.00
   1 -10  -1  203.08   14.30
  -1 -10   1  205.48   17.80
  -2 -10  -1  465.65   26.40
   2 -10   1  475.55   25.60
   2 -10   1  478.85   30.10
  -2 -10  -1  476.85   30.30
  -2 -10  -1  465.85   28.10
  -2 -10  -1  470.45   24.50
  -2 -10   1  502.05   26.80
   2 -10  -1  492.55   24.40
   2 -10  -1  485.65   30.30
  -2 -10   1  544.45   31.50
  -2 -10   1  466.75   27.20
   2 -10  -1  465.55   25.70
  -2 -10   1  501.65   24.60
  -3 -10  -1  171.88   10.80
  -3 -10  -1  175.18   12.10
   3 -10   1  174.28   15.20
   3 -10   1  167.78   11.60
  -3 -10  -1  179.58   15.30
   3 -10  -1  149.69   11.00
   3 -10  -1  161.48   14.80
  -3 -10   1  146.89   11.50
   3 -10  -1  151.48   10.30
  -3 -10   1  147.99   10.20
  -3 -10   1  149.88   14.20
  -4 -10  -1  325.77   18.00
  -4 -10  -1  355.96   18.90
  -4 -10   1  328.47   17.90
  -4 -10   1  352.26   25.80
   4 -10  -1  333.77   17.80
  -4 -10   1  328.37   18.80
  -5 -10  -1  210.68   12.20
   5  10  -1  204.18   12.20
  -5 -10   1  211.18   12.20
  -5 -10   1  201.48   13.30
  -6 -10  -1  187.78   10.60
   6  10  -1  182.48   10.80
  -6 -10   1  167.78   10.40
  -7 -10  -1  219.18   11.80
  -7 -10   1  232.58   11.90
   0 -11   1  802.22   37.10
   0 -11  -1  809.02   43.30
   0 -11  -1  791.32   37.30
   0 -11   1  822.42   43.60
  -1 -11  -1   15.10    3.90
  -1 -11  -1   10.90    4.70
   1 -11   1   19.40    6.20
  -1 -11  -1   15.40    3.10
   1 -11  -1   12.50    2.80
   1 -11  -1   11.60    5.30
  -1 -11   1    8.20    2.50
  -1 -11   1   12.30    5.50
  -1 -11   1   10.10    3.90
  -2 -11  -1   28.90    3.90
  -2 -11  -1   23.20    5.70
  -2 -11  -1   21.80    4.10
   2 -11   1   27.20    6.70
   2 -11  -1   36.10    4.10
  -2 -11   1   36.30    4.00
  -2 -11   1   34.90    5.00
  -2 -11   1   31.20    6.50
   2 -11  -1   35.80    6.90
   3 -11   1   68.49    9.00
  -3 -11  -1   68.09    5.90
  -3 -11  -1   68.09    6.40
  -3 -11  -1   63.89    8.30
  -3 -11   1   80.39    6.90
   3 -11  -1   84.89    6.20
  -3 -11   1   75.69    8.70
  -3 -11   1   84.59    6.20
  -4 -11  -1   91.79    6.70
  -4 -11  -1   98.79    6.90
  -4 -11   1  106.19    7.00
  -4 -11   1  102.69    7.10
   4  11   1   98.09    9.10
  -5 -11  -1  314.77   16.10
  -5 -11   1  335.57   16.20
   0 -12  -1  136.39    8.20
   0 -12   1  133.29    9.40
   0 -12   1  134.89   11.50
   0 -12  -1  136.59   11.30
   0 -12  -1  133.19    9.30
   1 -12   1  171.28   12.80
  -1 -12  -1  172.88   12.70
  -1 -12  -1  162.18    9.00
  -1 -12  -1  159.58   10.10
   1 -12  -1  133.69   11.40
  -1 -12   1  149.59   12.10
   1 -12  -1  143.79    8.80
  -1 -12   1  137.49    9.80
   2 -12  -1   14.40    3.80
   2 -12  -1   16.00    3.60
  -2 -12   1   18.20    3.70
  -2 -12   1   18.30    4.30
  -2 -12   1   15.70    2.90
  -3 -12  -1   73.89    5.40
  -3 -12   1   70.79    5.30
   0   0   2 4717.53  235.78
   0   0   2 6242.08  237.48
   0   0  -2 5945.40  248.48
   0   0   2 5577.94  243.98
   0   0  -2 5710.03  245.78
   1   0  -2  363.96   17.20
   1   0   2  395.96   18.10
   1   0   2  353.46   16.00
   1   0   2  363.16   18.20
   1   0   2  357.76   16.80
  -1   0  -2  382.86   17.60
  -1   0   2  372.16   18.10
  -1   0   2  373.06   16.80
   1   0   2  397.16   17.70
   1   0  -2  389.86   18.10
  -1   0  -2  391.46   18.00
   1   0  -2  356.76   17.80
   1   0  -2  369.66   17.00
  -1   0   2  353.16   16.20
   2   0   2 1239.18   55.29
  -2   0   2 1228.68   54.29
   2   0   2 1263.27   54.29
   2   0  -2 1346.47   56.09
   2   0  -2 1316.37   55.09
   2   0  -2 1190.88   54.89
  -2   0  -2 1301.77   55.69
   2   0   2 1326.27   56.89
   2   0   2 1273.57   55.59
   2   0  -2 1262.57   55.29
   2   0   2 1199.48   55.39
  -2   0   2 1286.77   55.79
   3   0   2  310.57   17.30
   3   0   2  281.77   14.20
   3   0   2  294.37   15.70
   3   0   2  298.07   16.10
   3   0  -2  292.17   16.20
   3   0  -2  293.07   15.50
   3   0  -2  263.67   15.10
  -3   0   2  297.77   14.40
  -3   0  -2  296.27   15.90
   4   0   2    5.70    2.00
   4   0  -2    8.90    2.30
   4   0  -2    8.70    1.70
   4   0   2    4.90    1.40
   4   0   2    7.10    1.70
  -4   0   2    6.30    1.60
   4   0   2    6.60    2.60
   4   0   2    6.90    2.20
   4   0  -2    4.90    1.90
   4   0  -2    6.80    2.10
  -4   0  -2    5.00    1.90
   5   0   2   13.20    3.20
  -5   0   2   14.80    2.50
  -5   0  -2   17.10    3.60
   5   0  -2   13.00    2.40
   5   0  -2   16.20    3.70
   5   0   2   13.90    3.90
   5   0  -2   16.80    3.70
   5   0   2   15.10    2.40
   5   0   2   15.10    3.40
   5   0  -2   13.00    3.10
   6   0  -2  753.32   40.00
  -6   0  -2  721.73   39.90
   6   0   2  676.33   40.80
   6   0  -2  771.02   36.10
   6   0   2  749.03   38.80
   6   0   2  787.92   39.90
   6   0  -2  763.32   38.40
   7   0   2  704.23   34.90
   7   0  -2  731.73   35.40
   7   0   2  677.23   38.20
   7   0  -2  712.13   38.30
   7   0   2  689.43   33.80
   7   0   2  676.13   37.00
   7   0  -2  708.63   37.00
   8   0  -2   46.00    5.60
   8   0  -2   47.20    7.30
   8   0   2   41.50    5.00
   8   0  -2   40.50    5.00
   8   0   2   42.80    5.30
   8   0   2   44.40    5.90
   8   0  -2   48.50    6.20
   8   0   2   44.50    7.00
   9   0   2  752.82   37.80
   9   0  -2  775.32   37.10
   9   0   2  773.52   39.60
   9   0  -2  796.32   41.90
   9   0   2  765.72   41.60
   9   0   2  774.82   37.20
   9   0  -2  775.22   37.50
  10   0   2  552.44   27.30
  10   0   2  525.55   29.60
  10   0  -2  549.25   27.40
  10   0   2  563.14   31.60
  10   0   2  554.24   28.00
 -10   0   2  537.65   26.80
  10   0  -2  536.35   30.20
  10   0  -2  523.25   31.00
 -11   0   2    0.30    1.40
  11   0   2    1.40    2.10
  11   0   2    0.10    1.50
  11   0   2    1.10    1.40
  11   0  -2   -0.10    1.20
  11   0  -2   -0.10    1.80
   0   1  -2 2791.42  117.09
   0  -1   2 2785.22  120.09
   0   1   2 2678.23  117.19
   0  -1  -2 2938.11  121.39
   0   1  -2 2853.41  123.19
   0   1  -2 2852.61  118.19
   0  -1  -2 2699.33  116.09
   0   1   2 3025.40  116.29
   0  -1   2 2743.53  117.79
   0   1  -2 2446.86  116.89
   0   1   2 2701.33  121.09
   0   1   2 2846.72  116.09
   1  -1   2 7830.42  353.96
   1  -1   2 7961.20  336.57
   1   1  -2 8683.43  355.26
  -1   1   2 8522.65  340.57
   1   1  -2 7988.40  346.77
   1  -1   2 8697.73  345.37
   1  -1   2 7751.12  342.57
  -1  -1  -2 7354.06  351.16
  -1   1  -2 8433.56  344.47
   1   1   2 8410.86  348.57
   1   1   2 8543.34  336.27
  -1   1  -2 7120.49  339.87
   1  -1  -2 7872.61  347.07
   1   1   2 7934.71  343.97
   1  -1  -2 7944.10  343.07
  -1  -1   2 7794.82  348.07
   1   1   2 7609.04  339.77
   1   1   2 8264.27  338.67
   2  -1   2 5364.96  225.88
   2  -1   2 5817.52  237.98
  -2   1   2 5426.46  234.18
  -2  -1  -2 5386.76  242.18
   2   1  -2 5501.05  234.38
   2  -1   2 5587.44  234.38
   2  -1   2 5186.48  233.18
   2   1  -2 5789.42  225.38
   2  -1   2 5477.65  225.48
  -2   1   2 5386.76  225.68
   2  -1   2 4752.82  231.78
  -2   1   2 4612.44  224.68
  -2  -1  -2 5298.57  234.98
   2   1  -2 5700.43  240.78
   2  -1  -2 6171.88  235.88
   2   1   2 5385.06  224.88
   2   1   2 5326.57  237.38
   2  -1  -2 5743.33  230.98
   2   1   2 5033.10  233.18
   2   1   2 4733.23  226.98
   2  -1  -2 5508.45  229.18
  -2  -1   2 5596.04  240.38
  -2  -1   2 5122.39  228.88
   2   1   2 5289.07  226.58
  -2   1  -2 5512.45  231.58
   2  -1  -2 5664.73  240.68
   3   1  -2 1809.12   78.49
   3   1  -2 1684.43   81.99
   3   1  -2 1758.92   77.89
  -3   1   2 1718.33   75.39
   3   1  -2 1781.42   76.79
   3  -1   2 1626.74   75.99
   3  -1   2 1776.32   77.39
   3  -1   2 1661.03   78.79
  -3  -1  -2 1774.02   78.49
   3  -1   2 1772.22   75.49
   3   1   2 1844.82   78.59
   3   1   2 1835.72   76.89
   3  -1  -2 1801.02   75.89
   3  -1  -2 1777.62   76.99
   3   1   2 1749.12   79.19
  -3  -1   2 1764.32   75.49
  -3  -1   2 1740.23   77.89
  -3   1  -2 1800.62   75.69
   3   1   2 1792.12   75.49
   3  -1  -2 1818.22   76.59
  -3   1  -2 1804.42   76.09
   4   1  -2 1633.54   68.99
   4   1  -2 1542.05   70.69
   4  -1   2 1670.53   72.19
   4   1  -2 1517.35   69.99
   4  -1   2 1479.45   66.79
  -4   1   2 1589.24   67.09
   4  -1   2 1582.94   68.39
  -4  -1  -2 1499.05   70.59
   4   1  -2 1492.05   67.49
   4  -1   2 1525.25   69.39
   4  -1  -2 1583.54   69.29
   4  -1  -2 1548.35   66.39
  -4   1  -2 1528.35   68.09
   4  -1  -2 1528.65   68.29
   4   1   2 1488.85   71.49
  -4  -1   2 1563.54   67.09
   4   1   2 1494.55   67.29
   4   1   2 1579.84   68.99
   4  -1  -2 1529.55   68.59
   5  -1   2  489.95   29.80
   5  -1   2  540.95   27.20
  -5   1   2  538.85   25.30
   5   1  -2  545.95   29.80
   5   1  -2  551.24   27.60
   5   1  -2  594.44   30.10
   5  -1   2  506.45   24.00
   5  -1   2  570.54   28.60
   5   1  -2  520.75   25.90
  -5  -1  -2  541.45   30.00
   5   1   2  478.75   29.80
   5   1   2  534.55   29.50
   5  -1  -2  495.85   24.80
   5   1   2  521.15   25.80
  -5  -1   2  494.05   25.00
   5   1   2  496.65   27.40
   5  -1  -2  503.05   27.50
  -5   1  -2  467.15   26.80
   5  -1  -2  520.65   27.40
   6   1  -2  168.18   14.90
   6  -1   2  167.88   10.70
   6   1  -2  174.68   13.60
   6   1  -2  177.98   12.20
   6   1  -2  165.58   14.90
   6  -1   2  166.38   13.70
   6  -1   2  165.28   15.40
   6  -1   2  184.88   13.70
  -6   1  -2  194.88   14.40
   6   1   2  189.58   16.30
   6  -1  -2  197.18   11.70
   6   1   2  199.08   12.40
   6  -1  -2  199.38   14.60
   6   1   2  204.38   15.80
   6  -1  -2  189.78   13.80
   6   1   2  197.08   14.20
   7  -1   2  641.64   31.00
   7  -1   2  625.34   34.20
   7   1  -2  635.74   33.80
   7  -1   2  640.54   35.70
   7   1  -2  680.43   33.00
   7   1  -2  620.54   34.80
   7   1   2  633.84   31.00
   7  -1  -2  643.24   31.90
   7  -1  -2  618.34   35.00
   7   1   2  599.84   34.90
   7  -1  -2  625.14   34.10
   7   1   2  647.44   32.60
   7   1   2  587.94   33.60
   8  -1   2  130.99   12.60
   8   1  -2  125.09    9.80
   8  -1   2  139.99   10.90
   8   1  -2  135.59    9.80
   8  -1   2  128.89    9.70
   8  -1   2  134.49   10.20
   8   1  -2  137.89   12.60
   8   1   2  149.29   10.60
   8   1   2  145.29   12.90
   8  -1  -2  147.59   13.20
   8   1   2  146.59   10.00
   8   1   2  147.39   11.70
   8  -1  -2  148.69   11.40
   8  -1  -2  137.99   10.00
   8  -1  -2  134.99    9.70
   9   1  -2  513.25   25.50
   9  -1   2  485.65   29.50
   9  -1   2  501.75   25.50
   9  -1   2  490.25   27.10
   9  -1   2  512.05   26.20
   9   1  -2  480.45   28.30
   9   1  -2  488.45   29.20
   9   1   2  504.15   26.20
   9  -1  -2  486.35   25.30
   9   1   2  488.65   28.00
   9  -1  -2  468.95   25.40
   9   1   2  487.45   29.50
   9  -1  -2  494.25   29.80
   9  -1  -2  475.05   27.30
   9   1   2  506.05   25.40
  10   1  -2  108.39   10.40
  10  -1   2  104.89    8.20
  10  -1   2  101.69    9.10
  10   1  -2  108.19    8.00
  10  -1   2  109.59   10.80
  10  -1   2  110.39    8.10
 -10  -1   2   80.19    7.10
  10   1   2   81.59    7.70
  10  -1  -2   72.69    7.20
  10   1   2   80.99    7.20
  10  -1  -2   74.79    7.10
  10  -1  -2   78.49    8.50
  10   1   2   75.79    9.40
  10  -1  -2   81.99    9.70
  10   1   2   73.59    8.80
  11  -1   2   79.99    6.60
  11   1  -2   68.49    8.10
 -11   1   2   76.39    6.20
  11  -1   2   79.79    8.60
  11   1  -2   75.69    6.40
  11  -1  -2   96.99    7.00
  11  -1  -2   89.99    9.00
 -11  -1   2   88.49    6.60
  11   1   2   88.99    7.20
  11   1   2   87.79    6.60
  11   1   2   87.49    8.70
   0   2  -2  434.66   20.20
   0   2   2  429.46   19.50
   0  -2   2  429.86   19.70
   0  -2   2  418.76   19.60
   0   2  -2  404.86   21.70
   0   2  -2  469.75   21.00
   0  -2  -2  390.36   20.50
   0  -2  -2  439.16   20.30
   0  -2   2  452.35   20.50
   0  -2  -2  391.26   19.30
   0   2   2  432.56   19.50
   0  -2   2  415.56   20.40
   0   2   2  430.46   20.90
   1   2  -2 2606.94  122.19
   1  -2   2 3041.10  121.19
  -1  -2  -2 2964.00  124.79
  -1   2   2 2889.41  120.79
   1   2  -2 3039.80  123.59
   1  -2   2 2883.91  120.69
  -1  -2  -2 2928.51  120.39
  -1   2   2 2962.80  122.09
   1  -2   2 2748.43  123.19
   1  -2   2 2972.30  123.09
   1  -2   2 2876.51  123.99
  -1   2   2 2994.20  120.49
  -1  -2  -2 3033.10  127.69
  -1   2  -2 2896.61  123.29
   1  -2  -2 2844.52  122.19
   1   2   2 2868.21  123.09
  -1  -2   2 2752.52  120.99
   1   2   2 2853.01  120.89
   1  -2  -2 2574.54  119.89
  -1  -2   2 2855.11  120.79
  -1   2  -2 2698.63  121.59
  -1  -2   2 2943.61  122.89
   2  -2   2 9083.69  380.46
  -2  -2  -2 9999.00  376.36
   2  -2   2 8387.66  376.06
   2  -2   2 8049.99  379.46
  -2   2   2 8979.80  386.16
   2  -2   2 9318.37  387.96
   2  -2   2 9922.81  383.36
   2  -2   2 9553.74  393.76
  -2   2   2 9360.66  383.56
  -2  -2  -2 8258.27  389.46
  -2  -2  -2 8638.24  395.66
   2   2  -2 8275.97  400.06
   2   2   2 9043.79  390.26
  -2  -2   2 8387.16  380.46
  -2  -2   2 9069.59  396.16
   2   2   2 8650.33  378.76
   2  -2  -2 9713.53  389.96
  -3   2   2  471.55   21.10
   3  -2   2  506.65   24.70
   3   2  -2  525.05   21.70
   3   2  -2  509.65   24.20
   3   2  -2  505.35   26.40
   3  -2   2  481.05   22.90
   3   2  -2  477.25   26.50
   3  -2   2  511.15   22.30
   3  -2   2  483.95   21.90
  -3  -2  -2  493.45   26.30
   3  -2   2  515.25   26.70
   3  -2   2  496.65   22.20
  -3   2   2  532.65   23.10
   3   2   2  455.35   25.70
  -3  -2   2  480.45   25.60
   3  -2  -2  439.46   23.10
   3  -2  -2  423.36   23.20
   3   2   2  459.85   22.60
   3   2   2  447.76   25.50
   3   2   2  453.35   23.20
  -3  -2   2  474.55   22.90
  -4   2   2 3405.36  143.69
   4   2  -2 3289.07  144.29
   4  -2   2 3202.88  148.29
   4  -2   2 3076.09  143.49
   4   2  -2 3423.96  148.59
   4   2  -2 3356.46  147.69
   4  -2   2 3290.17  146.19
   4   2  -2 3432.16  145.49
  -4  -2  -2 3433.66  148.99
   4   2   2 3175.88  148.29
   4   2   2 3222.08  144.29
   4   2   2 3690.13  149.09
   4  -2  -2 3347.96  142.09
   4   2   2 3620.04  143.79
   4   2   2 3635.94  145.59
  -4   2  -2 3431.46  144.09
   4  -2  -2 3550.64  145.39
  -4  -2   2 3417.06  143.89
   4  -2  -2 3495.05  145.19
   5   2  -2 1100.99   50.39
   5  -2   2 1113.99   55.39
   5   2  -2 1182.68   55.29
   5  -2   2 1191.38   50.69
   5   2  -2 1067.79   51.49
   5   2  -2 1060.19   54.59
  -5   2   2 1106.89   49.60
   5  -2   2 1130.99   52.79
   5   2   2 1093.39   54.79
   5  -2  -2 1079.29   51.59
   5   2   2 1063.09   50.29
  -5   2  -2 1032.40   49.99
   5   2   2 1168.28   52.09
   5  -2  -2 1077.19   51.39
  -5  -2   2 1041.90   49.40
   5   2   2 1091.09   55.89
   5  -2  -2 1087.89   48.30
   6   2  -2  449.26   27.70
   6   2  -2  412.36   22.90
   6  -2   2  440.16   25.50
   6  -2   2  438.16   23.30
   6  -2   2  413.76   27.40
   6   2  -2  412.36   24.50
   6  -2   2  440.46   20.30
   6   2   2  391.96   26.70
   6  -2  -2  417.06   21.10
  -6   2  -2  381.76   23.20
   6  -2  -2  404.16   24.10
   6   2   2  419.76   22.90
   6  -2  -2  405.06   24.30
   6   2   2  399.46   24.20
   6   2   2  421.86   28.10
   7   2  -2  357.76   19.80
   7  -2   2  370.16   19.80
   7   2  -2  409.46   22.60
   7  -2   2  385.06   24.80
   7   2  -2  387.36   20.30
   7  -2   2  372.96   20.20
   7  -2   2  389.66   19.90
   7  -2   2  370.46   23.30
   7   2  -2  387.46   24.20
   7  -2  -2  352.96   19.50
   7  -2  -2  369.06   20.00
   7  -2  -2  376.86   23.20
   7   2   2  377.66   22.00
   7   2   2  347.07   20.00
   7  -2  -2  377.46   20.60
   7   2   2  377.16   23.10
   7  -2  -2  379.86   24.00
   7   2   2  374.06   24.00
   8  -2   2  955.90   45.20
   8   2  -2  961.50   45.00
   8  -2   2  991.60   49.99
   8   2  -2 1041.90   45.70
   8  -2   2  984.70   45.90
   8   2  -2  954.30   48.40
   8  -2  -2  969.40   46.80
   8  -2  -2  993.60   50.09
   8   2   2  918.31   45.60
   8   2   2  970.70   48.40
   8  -2  -2  939.51   45.20
  -8  -2   2  998.80   44.90
   8   2   2  936.91   44.80
   8  -2  -2  954.00   45.00
   8   2   2  990.10   49.60
   9  -2   2 1396.46   62.89
   9   2  -2 1405.06   62.79
   9  -2   2 1312.67   63.19
   9  -2   2 1413.86   64.49
   9  -2   2 1384.96   67.59
   9   2  -2 1374.06   63.09
   9   2   2 1382.76   63.79
   9   2   2 1347.87   65.99
   9  -2  -2 1424.76   68.29
   9  -2  -2 1407.16   62.99
   9  -2  -2 1408.46   63.09
  -9  -2   2 1430.26   62.69
   9  -2  -2 1384.36   64.99
   9   2   2 1410.66   67.49
   9   2   2 1415.06   62.59
  10   2  -2   56.59    5.70
  10  -2   2   56.79    7.90
  10  -2   2   56.49    5.80
  10  -2  -2   57.39    5.80
  10   2   2   55.19    5.80
  10   2   2   57.59    7.70
  10  -2  -2   56.19    7.90
  10   2   2   56.69    6.20
 -10  -2   2   55.09    5.70
  10  -2  -2   56.49    6.00
  11  -2   2   45.10    6.30
  11  -2   2   43.10    4.50
 -11   2   2   41.60    4.10
  11   2  -2   42.50    4.30
 -11  -2   2   31.60    4.00
  11  -2  -2   30.70    3.90
  11  -2  -2   31.50    5.50
  11   2   2   34.20    4.40
   0   3   2  253.97   13.00
   0  -3   2  236.78   12.80
   0   3  -2  257.37   13.10
   0  -3   2  215.18   13.10
   0  -3  -2  243.38   13.90
   0   3  -2  235.98   13.70
   0  -3   2  239.98   13.40
   0   3   2  257.47   12.70
   0  -3   2  254.97   13.00
   0   3  -2  260.77   15.50
   0  -3  -2  235.68   12.60
   1  -3   2 2440.16  110.79
  -1   3   2 2664.63  110.79
  -1   3   2 2671.93  110.69
  -1  -3  -2 2968.10  113.99
  -1  -3  -2 2458.25  110.69
   1   3  -2 2611.54  114.19
   1   3  -2 2617.44  111.49
   1   3  -2 2702.73  114.49
   1  -3   2 2660.53  111.19
   1   3  -2 2615.84  110.99
   1  -3   2 2668.13  111.49
   1  -3   2 2721.23  112.79
  -1  -3   2 2370.16  112.89
   1  -3  -2 2730.83  112.09
  -1  -3   2 2671.03  111.49
   1   3   2 2584.64  111.19
   1   3   2 2584.34  113.49
  -1   3  -2 2478.65  111.69
   1   3   2 2518.85  112.29
   1  -3  -2 2696.73  111.39
   2  -3   2  965.20   44.90
   2  -3   2  988.00   44.00
   2  -3   2 1002.70   44.10
  -2   3   2  958.10   44.20
  -2  -3  -2  972.30   44.40
  -2   3   2  959.30   45.10
   2   3  -2  980.00   49.10
   2  -3   2  994.30   49.10
  -2  -3  -2  891.21   47.20
   2   3  -2 1069.69   45.10
   2   3  -2 1033.00   49.00
   2  -3   2  964.50   45.40
   2   3   2 1091.39   45.40
   2   3   2 1085.29   48.60
  -2   3  -2 1047.60   46.40
   2   3   2 1031.70   44.90
  -2  -3   2 1037.40   45.50
  -2  -3   2 1139.79   48.80
  -2   3  -2 1046.80   48.90
   2   3   2 1061.49   48.00
   2  -3  -2 1030.10   44.60
   2  -3  -2 1095.69   45.90
   3  -3   2 2273.47   99.79
   3  -3   2 2378.26   97.79
   3   3  -2 2154.88  104.89
   3   3  -2 2304.37  104.39
   3  -3   2 2309.97  101.69
   3   3  -2 2301.27   98.59
   3  -3   2 2288.17  104.09
   3  -3   2 2367.66   97.89
  -3   3   2 2247.48   98.09
  -3   3   2 2340.67   99.69
   3  -3  -2 2377.66   99.99
   3  -3  -2 2380.36  100.09
  -3  -3   2 2321.37   99.69
   3   3   2 2464.15  104.19
   3   3   2 2328.07   99.59
   3   3   2 2366.36  104.09
   4   3  -2 2794.62  122.29
   4  -3   2 2802.72  120.99
   4   3  -2 2817.72  125.99
   4  -3   2 2749.52  123.19
   4  -3   2 2663.03  125.79
   4  -3   2 2749.02  119.09
  -4   3   2 2788.42  120.89
   4   3   2 2765.12  126.09
   4   3   2 2923.61  120.79
  -4  -3   2 2985.60  121.09
   4   3   2 3000.30  121.99
   4  -3  -2 2848.22  121.39
   4   3   2 2844.72  121.59
   5   3  -2  256.87   15.90
  -5   3   2  248.88   14.20
   5   3  -2  234.48   17.80
   5  -3   2  257.07   13.40
   5  -3   2  251.17   16.60
   5  -3   2  241.58   18.50
   5  -3  -2  241.28   15.40
  -5  -3   2  240.58   14.10
   5   3   2  233.68   14.70
   5   3   2  240.48   15.40
   5  -3  -2  234.38   12.20
   5  -3  -2  244.88   14.90
   5   3   2  212.08   17.80
   6   3  -2   32.50    5.40
   6  -3   2   32.90    4.10
   6   3  -2   35.00    7.30
   6  -3   2   28.00    6.50
   6  -3   2   29.90    5.50
   6   3  -2   30.10    4.20
   6  -3  -2   29.60    5.20
  -6   3  -2   30.90    4.40
   6   3   2   34.90    4.40
   6  -3  -2   30.20    4.70
   6  -3  -2   31.30    5.20
   6   3   2   31.70    4.80
   6  -3  -2   32.60    3.60
   7  -3   2  469.55   29.60
   7  -3   2  490.15   25.20
   7   3  -2  476.55   29.10
   7  -3   2  485.15   28.40
   7  -3   2  482.25   24.80
   7   3  -2  521.25   25.20
  -7  -3   2  479.35   24.50
   7  -3  -2  486.85   24.90
   7  -3  -2  489.35   24.60
   7   3   2  477.65   28.00
   7   3   2  558.64   25.80
   7  -3  -2  473.25   28.90
   7  -3  -2  483.95   25.00
   7   3   2  508.15   33.70
   7  -3  -2  483.35   28.40
   8   3  -2 1019.40   48.30
   8  -3   2 1002.00   47.70
   8  -3   2  981.40   47.60
   8  -3   2 1049.70   52.49
   8  -3  -2 1051.29   47.80
   8  -3  -2  981.20   47.70
  -8  -3   2 1047.60   47.60
   8   3   2 1020.30   51.59
   8  -3  -2 1054.79   52.79
   8   3   2 1121.99   49.10
   8  -3  -2 1035.40   48.90
   9   3  -2  287.37   16.70
   9  -3   2  299.87   16.60
   9  -3   2  298.07   17.20
   9  -3   2  300.97   20.20
   9  -3  -2  273.47   20.00
   9  -3  -2  290.17   16.40
   9  -3  -2  274.27   17.50
   9   3   2  279.87   19.30
   9  -3  -2  272.47   16.50
   9   3   2  256.87   16.60
  -9  -3   2  264.07   15.90
  10  -3   2  370.26   23.00
  10   3  -2  377.76   20.00
  10  -3   2  381.36   19.90
  10   3   2  367.96   20.50
 -10  -3   2  378.46   19.80
  10  -3  -2  358.66   19.70
  10  -3  -2  364.96   19.70
  10  -3  -2  376.96   23.80
 -11   3   2  381.56   21.80
  11  -3   2  407.16   20.40
  11  -3   2  408.96   23.00
 -11  -3  -2  378.66   21.70
  11   3   2  417.56   21.10
 -11  -3   2  417.86   20.10
  11  -3  -2  432.06   23.80
  11  -3  -2  418.06   20.30
   0  -4  -2 3945.31  172.38
   0  -4   2 4101.69  167.28
   0   4   2 4009.60  168.28
   0   4  -2 3526.25  166.68
   0   4  -2 4040.80  166.98
   0  -4   2 4075.79  168.48
   0   4  -2 3970.50  181.18
   0  -4  -2 3966.10  167.08
   0  -4  -2 3856.31  166.08
   0   4   2 4033.30  166.88
   1   4  -2  524.95   25.60
   1   4  -2  559.94   26.00
   1   4  -2  502.55   28.50
   1  -4   2  512.15   25.70
  -1   4   2  512.65   25.20
  -1  -4  -2  513.55   25.40
   1  -4   2  520.15   26.00
   1  -4   2  518.55   25.70
   1   4  -2  543.85   29.20
  -1  -4  -2  540.45   28.10
   1  -4  -2  552.04   26.70
   1   4   2  541.95   27.40
   1  -4  -2  531.45   25.90
  -1  -4   2  545.25   26.20
  -1   4  -2  571.04   29.60
  -1   4  -2  604.14   26.60
  -1  -4   2  525.45   25.30
  -1  -4   2  579.64   28.30
   1   4   2  524.35   25.70
   2   4  -2  241.78   18.00
   2  -4   2  235.88   13.30
   2   4  -2  261.87   18.30
  -2   4   2  239.88   13.70
   2   4  -2  247.98   14.20
   2  -4   2  246.98   14.80
   2   4  -2  242.88   14.50
  -2  -4  -2  243.28   14.00
   2  -4   2  241.58   14.40
  -2  -4   2  303.87   15.00
  -2  -4   2  307.97   15.40
   2   4   2  285.87   14.90
   2  -4  -2  299.57   15.30
  -2   4  -2  299.37   15.60
  -2  -4   2  290.77   17.60
   2   4   2  287.67   17.10
  -2   4  -2  301.07   18.60
   2  -4  -2  292.57   15.20
   3   4  -2  315.17   17.20
  -3   4   2  300.47   15.60
   3   4  -2  321.17   21.40
   3   4  -2  300.77   21.80
  -3   4   2  310.97   16.60
   3  -4   2  320.07   17.00
   3  -4   2  308.17   16.40
  -3   4  -2  295.47   17.50
   3  -4  -2  289.87   16.40
   3   4   2  311.57   20.10
  -3  -4   2  318.77   17.00
  -3   4  -2  296.47   20.10
  -3  -4   2  300.47   20.00
  -3  -4   2  309.87   17.00
   3   4   2  304.47   16.50
   4  -4   2 1664.53   75.79
   4  -4   2 1619.54   73.49
   4  -4   2 1638.34   79.19
  -4   4   2 1757.22   73.89
   4   4  -2 1645.64   79.49
   4   4  -2 1735.73   74.69
   4   4   2 1625.44   73.19
   4   4   2 1611.74   79.09
  -4  -4   2 1530.75   73.19
   4  -4  -2 1714.53   73.59
  -4   4  -2 1690.03   78.79
   5  -4   2    8.80    3.80
   5  -4   2    9.00    3.30
   5   4  -2    8.20    2.80
   5   4  -2    9.30    4.00
  -5   4   2   10.40    2.80
   6  -4   2  420.86   26.80
   6   4  -2  391.76   25.50
   6   4  -2  422.66   22.60
   6   4   2  449.95   25.30
   6  -4  -2  451.25   25.60
  -6  -4   2  469.15   22.80
   6  -4  -2  472.95   21.90
   6   4   2  448.66   23.00
   7  -4   2  381.86   19.80
   7  -4   2  395.26   23.60
   7   4  -2  354.96   20.00
  -7  -4  -2  392.46   19.60
  -7  -4   2  365.76   19.50
   7   4   2  303.37   19.50
   7  -4  -2  378.76   19.70
   7  -4  -2  381.56   23.50
   7   4   2  372.76   22.80
   7  -4  -2  363.06   19.50
   7  -4  -2  363.96   19.80
  -8  -4  -2  137.69   12.70
   8  -4   2  141.49   10.30
   8   4  -2  172.18   11.40
   8  -4   2  159.28   13.60
   8   4   2  156.58   11.20
   8  -4  -2  143.49   10.70
   8   4   2  144.79   12.80
   8  -4  -2  151.98   13.60
   8  -4  -2  146.89   10.30
   8  -4  -2  147.69   10.80
   9  -4   2  229.38   17.00
  -9  -4  -2  217.88   15.70
   9  -4   2  224.08   13.90
   9   4  -2  244.18   14.60
   9  -4   2  222.88   14.00
   9   4   2  226.48   14.60
   9  -4  -2  239.88   17.80
   9  -4  -2  240.28   14.10
   9  -4  -2  238.78   14.40
  -9  -4   2  237.58   14.10
   9  -4  -2  240.38   15.20
  10   4  -2  196.28   12.20
  10  -4   2  194.38   11.80
  10  -4   2  202.68   14.60
  10   4   2  193.58   12.50
 -10  -4   2  190.88   11.70
  10  -4  -2  186.08   11.80
  10  -4  -2  193.58   11.70
  10  -4  -2  192.68   14.90
  11  -4  -2   70.19    7.40
 -11  -4   2   69.89    5.40
  11   4   2   76.69    6.20
  11  -4  -2   68.89    5.30
   0  -5  -2 1110.19   50.29
   0  -5   2 1181.58   52.89
   0   5  -2 1113.69   55.39
   0  -5   2 1167.98   49.80
   0  -5  -2 1127.69   51.49
   0   5  -2 1144.69   53.99
   0   5  -2 1141.59   51.59
   0   5   2 1143.09   51.19
   0  -5  -2 1071.79   53.19
   0  -5   2 1106.59   51.49
  -1  -5  -2   77.89    6.50
   1   5  -2   76.39    6.60
   1   5  -2   70.19    8.20
  -1   5   2   72.19    6.20
   1   5  -2   75.59    8.70
  -1  -5  -2   75.19    6.20
   1  -5   2   73.99    6.50
   1  -5   2   74.39    6.60
  -1  -5  -2   79.39    8.10
  -1  -5   2   75.99    6.00
   1  -5  -2   82.59    7.30
   1  -5  -2   72.49    5.40
   1   5   2   80.39    6.70
   1   5   2   79.69    7.90
  -1   5  -2   81.89    6.70
  -1  -5   2   90.29    8.30
  -1  -5   2   79.19    6.70
  -1   5  -2   82.99    8.90
   1  -5  -2   73.39    6.60
   2   5  -2  294.57   21.30
   2  -5   2  308.87   16.50
   2   5  -2  289.77   20.60
   2  -5   2  307.87   15.30
   2   5  -2  304.27   16.10
  -2  -5  -2  280.57   15.90
  -2   5   2  287.87   15.50
  -2  -5  -2  280.77   15.70
  -2  -5  -2  318.97   19.70
   2  -5  -2  262.37   16.00
   2  -5  -2  267.07   16.10
  -2   5  -2  303.37   20.00
   2  -5  -2  269.47   13.90
  -2   5  -2  272.27   15.90
   2   5   2  266.87   16.00
   2   5   2  268.17   18.10
  -2  -5   2  289.37   16.40
  -2  -5   2  259.57   15.70
  -2  -5   2  258.37   18.60
  -2   5  -2  271.17   20.40
  -3   5   2  426.06   22.50
   3   5  -2  395.26   29.10
   3  -5   2  405.96   20.00
   3  -5   2  411.46   22.50
   3   5  -2  376.96   28.00
   3   5  -2  407.86   21.90
   3  -5  -2  451.95   22.70
  -3   5  -2  456.65   24.10
  -3  -5   2  443.06   22.90
  -3   5  -2  442.86   22.60
   3   5   2  445.86   26.80
  -3  -5   2  446.16   23.10
  -3   5  -2  444.36   26.90
   3   5   2  443.36   22.60
   4   5  -2  330.47   24.80
  -4   5   2  342.47   19.80
  -4   5  -2  360.96   22.30
  -4   5  -2  329.47   19.50
   4  -5  -2  368.96   19.70
   4   5   2  369.16   20.00
   4   5   2  365.36   25.30
  -4   5  -2  360.56   24.50
  -4  -5   2  391.76   20.50
  -5   5   2  293.07   17.00
   5   5  -2  285.47   15.50
   5  -5  -2  234.78   16.90
   5   5   2  266.77   15.20
  -6  -5  -2   79.09    6.90
   6   5  -2   81.59    7.20
   6   5   2   97.79    7.80
   6  -5  -2   82.79    7.20
  -6  -5   2   83.99    7.00
   6  -5  -2   77.09    8.70
  -7  -5  -2  161.68   10.20
   7  -5   2  144.39    9.80
   7   5  -2  146.49   10.50
   7  -5  -2  128.69   12.10
   7  -5  -2  123.99    9.70
   7  -5  -2  122.29    9.20
   7   5   2  147.69   10.60
   8  -5   2   63.89    6.30
  -8  -5  -2   66.39    6.40
   8   5  -2   66.29    6.90
   8  -5  -2   70.19    6.60
   8  -5  -2   67.89    8.70
   8   5   2   70.49    7.00
  -8  -5   2   70.99    6.60
   8  -5  -2   71.49    6.90
   9   5  -2  277.07   16.50
   9  -5   2  265.37   20.50
  -9  -5   2  291.07   16.00
   9   5   2  281.17   16.80
   9  -5  -2  285.57   19.60
   9  -5  -2  303.97   16.50
  10   5  -2  155.58   10.60
  10  -5   2  163.48   10.10
  10  -5  -2  169.08   13.00
  10   5   2  171.08   11.00
 -10  -5   2  171.18   10.30
   0  -6   2   10.00    2.90
   0   6   2    9.50    2.70
   0  -6  -2    9.20    2.30
   0  -6   2   10.40    2.80
   0   6  -2    9.40    3.10
   0  -6   2   13.50    2.40
   0  -6  -2   12.20    3.30
   0   6  -2    8.60    2.70
   0  -6  -2   10.40    2.90
   0   6  -2    8.50    3.40
  -1  -6  -2   40.70    6.30
   1   6  -2   43.70    5.20
  -1  -6  -2   43.20    4.80
   1  -6   2   40.00    5.20
  -1   6   2   42.40    5.00
   1  -6   2   44.10    3.90
  -1  -6  -2   45.30    5.20
   1   6  -2   41.70    7.10
   1  -6   2   45.90    5.50
  -1   6  -2   43.10    5.40
   1  -6  -2   42.70    5.20
  -1  -6   2   40.10    4.60
  -1   6  -2   41.50    6.80
  -1  -6   2   43.20    5.30
  -1  -6   2   36.70    5.80
   1  -6  -2   34.20    5.10
   1   6   2   39.30    5.00
  -1   6  -2   39.70    5.70
   1  -6  -2   42.60    4.40
   2   6  -2   61.59    6.30
   2   6  -2   59.99    9.00
  -2  -6  -2   67.19    6.50
  -2   6   2   60.09    6.10
   2   6  -2   60.59    9.90
  -2  -6  -2   59.69    6.20
   2  -6   2   60.19    5.90
  -2  -6  -2   64.49    8.50
   2  -6   2   65.79    6.70
  -2   6  -2   70.79    9.10
   2   6   2   57.19    7.80
   2  -6  -2   65.29    6.70
  -2  -6   2   62.89    8.20
  -2   6  -2   60.89    6.60
  -2  -6   2   62.09    6.60
   2  -6  -2   68.39    6.90
   2  -6  -2   61.69    5.20
   2   6   2   61.19    6.60
  -2  -6   2   66.19    6.50
   3   6  -2  911.31   43.40
  -3   6   2  949.51   44.10
  -3  -6  -2  974.70   45.60
   3  -6   2  957.10   44.40
   3  -6   2  917.51   41.40
  -3   6  -2  901.41   49.00
   3   6   2  901.41   44.40
  -3  -6   2  908.91   44.40
   3  -6  -2  888.81   43.80
   3  -6  -2  893.41   41.00
  -3   6  -2  912.11   44.20
  -3  -6   2  920.61   44.40
   3   6   2  882.01   48.90
  -4   6   2  349.27   20.00
   4   6  -2  325.07   18.10
   4   6   2  324.17   17.90
   4  -6  -2  343.07   20.20
  -4  -6   2  340.57   20.10
   5   6  -2 2084.89   92.79
  -5   6   2 2026.50   94.79
  -5  -6  -2 2086.59   92.29
  -5  -6  -2 2054.49   92.29
  -5  -6   2 2157.78   92.29
   5  -6  -2 2131.69   95.89
   5   6   2 2245.88   92.99
  -5  -6   2 2212.48   93.29
   5  -6  -2 2110.49   92.69
   6   6  -2  116.69    8.90
  -6  -6  -2  112.19    8.30
   6  -6  -2   90.69    9.70
   6   6   2  102.89    8.40
   6  -6  -2   96.59    8.10
  -6  -6   2   85.99    7.50
   7   6  -2  111.39    9.30
  -7  -6  -2  110.69    8.60
  -7  -6   2  122.29    9.00
   7  -6  -2  125.89   11.70
   7   6   2  123.99    9.60
   7  -6  -2  128.19    9.50
  -8  -6  -2    5.00    2.20
   8   6  -2    4.30    2.30
   8   6   2    8.50    2.90
   8  -6  -2    8.60    2.50
   8  -6  -2    6.20    2.70
  -8  -6   2    6.90    2.60
   8  -6  -2    7.30    3.40
  -9  -6  -2  139.59    8.90
   9   6  -2  145.29    9.80
   9  -6  -2  127.09    9.10
   9  -6  -2  125.49   11.30
   9   6   2  135.39    9.80
  -9  -6   2  123.69    8.90
  10   6  -2  373.96   18.90
 -10  -6   2  358.76   18.20
  10   6   2  370.16   19.00
  10  -6  -2  361.16   25.40
   0  -7  -2  438.06   28.40
   0  -7  -2  379.96   22.80
   0  -7  -2  393.76   21.80
   0  -7   2  431.36   23.70
   0  -7   2  394.46   21.40
  -1  -7  -2   78.59    8.00
   1  -7   2   84.29    8.30
  -1  -7  -2   85.59   10.30
   1  -7   2   78.09    6.40
  -1  -7  -2   82.19    7.70
  -1  -7   2   84.99    7.50
   1  -7  -2   91.09    7.30
  -1  -7   2   85.79    8.40
  -1  -7   2   93.19    7.90
   1  -7  -2   80.19    8.20
  -2  -7  -2  692.43   35.00
   2  -7   2  682.33   35.30
   2   7  -2  669.53   33.80
  -2  -7  -2  701.33   35.10
   2  -7  -2  684.43   35.50
   2  -7  -2  701.63   32.90
  -2  -7   2  673.63   34.90
  -2  -7   2  673.23   35.40
  -3   7   2  704.73   35.40
   3  -7   2  654.43   37.50
   3   7  -2  692.93   33.80
  -3  -7  -2  685.33   34.50
  -3  -7  -2  662.23   38.20
  -3  -7  -2  649.34   32.70
   3  -7   2  676.93   35.70
  -3  -7   2  679.83   38.20
  -3  -7   2  676.33   32.70
  -3  -7   2  722.43   36.10
  -3  -7   2  756.82   43.20
  -3  -7   2  693.53   35.80
   3  -7  -2  732.23   32.80
   3  -7  -2  651.43   32.50
   4   7  -2 1129.29   51.69
  -4  -7  -2 1127.39   57.29
   4  -7   2 1125.09   56.59
  -4  -7  -2 1169.48   52.59
  -4  -7  -2 1149.48   51.39
  -4  -7   2 1100.29   50.99
  -4  -7   2 1089.79   52.59
   4  -7  -2 1157.78   50.79
   4  -7  -2 1081.49   51.19
  -5  -7  -2   40.60    4.90
   5   7   2   24.30    4.30
  -5  -7   2   30.00    4.50
  -5  -7   2   29.00    4.20
   5  -7  -2   25.30    4.20
  -6  -7  -2  498.55   24.60
   6   7  -2  513.15   25.50
  -6  -7   2  469.25   24.40
   6   7   2  445.76   24.80
   6  -7  -2  476.15   29.40
   6  -7  -2  464.25   24.60
  -7  -7  -2  625.84   29.80
   7   7  -2  650.83   30.90
   7  -7  -2  594.34   33.10
   7  -7  -2  560.24   29.60
  -7  -7   2  600.24   29.70
   7   7   2  610.44   30.40
  -8  -7  -2  243.18   14.30
   8   7  -2  255.87   15.30
  -8  -7   2  270.17   14.80
   8   7   2  248.08   15.20
   8  -7  -2  262.67   14.80
   8  -7  -2  270.27   17.70
  -9  -7  -2  127.49    7.70
   9   7  -2  122.19    8.40
  -9  -7   2  107.19    7.60
   9  -7  -2  105.99    9.40
   9   7   2  111.29    8.20
   0  -8   2    3.00    1.80
   0  -8  -2    1.70    1.50
   0  -8  -2    1.80    1.60
   0  -8  -2    2.30    3.20
   0  -8   2    2.80    2.60
   0  -8   2    3.00    3.10
  -1  -8  -2   61.09    9.10
  -1  -8  -2   66.89    6.10
  -1  -8  -2   76.29    7.60
   1  -8   2   58.09    8.50
   1  -8   2   64.39    6.20
  -1  -8   2   53.89    5.70
  -1  -8   2   57.59    6.70
   1  -8  -2   54.09    8.60
   1  -8  -2   52.89    5.60
   1  -8  -2   56.99    6.20
  -1  -8   2   56.79    8.50
  -2  -8  -2  204.38   14.10
   2  -8   2  212.18   12.30
   2  -8   2  213.48   16.90
  -2  -8  -2  194.18   16.90
   2   8  -2  200.98   13.30
  -2  -8  -2  212.78   12.70
  -2  -8  -2  213.08   14.70
  -2  -8   2  176.68   13.90
   2  -8  -2  192.38   12.80
  -2  -8   2  183.38   16.20
   2  -8  -2  195.98   16.70
  -2  -8   2  194.28   12.40
   2  -8  -2  188.18   12.30
   3  -8   2 1052.79   56.09
  -3  -8  -2 1080.99   57.09
  -3  -8  -2 1104.09   52.59
   3   8  -2 1065.39   50.89
  -3  -8  -2 1050.39   50.59
  -3  -8   2 1221.38   55.09
  -3  -8   2 1104.49   56.99
  -3  -8   2 1115.39   52.89
   3  -8  -2 1123.39   50.79
  -3  -8   2 1120.79   50.49
   3  -8  -2 1132.29   51.29
  -4  -8  -2  195.48   13.40
  -4  -8  -2  181.18   12.40
   4   8  -2  207.98   13.00
  -4  -8  -2  207.28   17.20
   4  -8   2  194.58   16.40
   4  -8  -2  192.98   12.40
  -4  -8   2  186.18   13.30
  -4  -8   2  201.28   12.50
   4  -8  -2  196.48   12.40
   5   8  -2 1053.59   49.10
  -5  -8  -2 1049.79   48.30
  -5  -8  -2 1057.49   48.20
  -5  -8   2 1066.99   49.00
  -5  -8   2 1021.70   48.20
   5  -8  -2 1001.60   49.00
   5  -8  -2 1086.49   48.60
   6   8  -2   44.30    5.40
  -6  -8  -2   49.70    5.20
   6  -8  -2   31.90    4.70
  -6  -8   2   31.40    4.50
  -7  -8  -2  212.08   12.40
   7   8  -2  190.78   12.70
  -7  -8   2  201.98   12.30
   7  -8  -2  208.58   12.40
   7   8   2  204.08   12.70
  -8  -8  -2  337.07   17.40
   8   8  -2  369.56   18.60
  -8  -8   2  324.57   17.40
   8   8   2  327.77   17.90
  -9  -8   2  166.18    9.40
   0  -9  -2  126.39    9.40
   0  -9  -2  136.39   14.00
   0  -9   2  132.59   10.80
   0  -9  -2  139.09   11.10
   0  -9   2  126.79   13.20
   1   9  -2  344.87   20.20
   1  -9   2  361.46   25.00
  -1  -9  -2  324.27   21.30
  -1  -9  -2  354.86   19.70
   1  -9   2  371.46   21.00
  -1  -9  -2  333.27   24.80
   1  -9  -2  394.16   20.00
  -1  -9   2  375.46   25.20
  -1  -9   2  377.46   22.10
  -1  -9   2  374.96   19.60
   1  -9  -2  366.56   25.40
   1  -9  -2  406.86   21.90
  -2  -9  -2  635.74   32.90
   2  -9   2  597.24   36.10
   2  -9   2  619.14   31.20
   2   9  -2  609.04   30.80
  -2  -9  -2  668.53   34.30
  -2  -9  -2  634.94   37.10
  -2  -9  -2  636.44   30.80
   2  -9  -2  602.34   36.30
  -2  -9   2  627.24   36.80
  -2  -9   2  611.44   32.70
   2  -9  -2  608.34   30.40
   2  -9  -2  630.44   32.00
  -2  -9   2  622.24   33.70
  -2  -9   2  623.64   30.50
   3  -9   2  694.13   34.20
  -3  -9  -2  732.13   34.60
   3  -9   2  726.63   40.50
   3   9  -2  697.83   34.60
  -3  -9  -2  760.12   41.40
  -3  -9  -2  732.83   36.30
   3  -9  -2  685.43   35.20
   3  -9  -2  704.43   34.30
  -3  -9   2  675.83   40.10
  -3  -9   2  701.93   36.30
  -3  -9   2  783.62   34.90
   4   9  -2    9.40    2.80
  -4  -9  -2   14.10    5.00
  -4  -9  -2   13.50    3.50
   4  -9   2   10.50    4.80
  -4  -9  -2   11.30    3.10
  -4  -9   2   11.10    3.40
   4  -9  -2   12.60    3.10
   4  -9  -2   11.50    2.80
  -5  -9  -2  184.18   11.80
  -5  -9  -2  196.68   13.80
   5   9  -2  178.58   12.00
   5   9   2  185.68   15.00
  -5  -9   2  183.98   11.80
   5  -9  -2  183.38   11.70
  -5  -9   2  187.88   11.60
   6   9  -2   71.99    6.70
  -6  -9  -2   67.39    6.30
   6  -9  -2   92.99    6.80
  -6  -9   2   91.49    6.80
  -7  -9  -2   43.40    4.50
   7   9  -2   46.40    5.00
  -7  -9   2   49.70    4.70
   7  -9  -2   53.19    5.60
  -8  -9   2   22.40    3.00
   0 -10  -2 1097.99   51.49
   0 -10   2 1144.29   58.29
   0 -10   2 1120.39   53.99
   0 -10  -2 1150.28   58.49
   0 -10  -2 1145.99   54.49
  -1 -10  -2   80.69   10.50
  -1 -10  -2   83.29    8.40
  -1 -10  -2   77.59    8.20
  -1 -10  -2   92.99    7.20
   1 -10   2   82.69   10.20
   1 -10   2   75.89    7.50
  -1 -10   2   70.19    9.90
  -1 -10   2   61.39    7.40
   1 -10  -2   59.69    7.00
   1 -10  -2   64.39    6.30
  -1 -10   2   63.49    6.10
   1 -10  -2   64.09    9.70
  -2 -10  -2  108.19    9.20
  -2 -10  -2  107.59    7.90
  -2 -10  -2  108.29   11.80
   2 -10   2  105.19   11.30
   2 -10   2  102.59    8.40
  -2 -10   2   80.59    8.60
   2 -10  -2   86.39    8.30
   2 -10  -2   82.09   10.70
   2 -10  -2   83.19    7.30
  -2 -10   2   78.09   10.60
  -2 -10   2   86.59    7.20
  -3 -10  -2   34.80    6.90
   3 -10   2   37.10    7.00
  -3 -10  -2   40.80    4.60
  -3 -10  -2   40.40    5.30
  -3 -10   2   27.60    4.70
  -3 -10   2   23.80    6.10
   3 -10  -2   26.40    4.10
  -3 -10   2   29.50    4.00
  -4 -10  -2   53.99    5.30
   4 -10   2   53.39    7.80
   4  10  -2   49.80    5.30
  -4 -10  -2   50.49    5.50
   4 -10  -2   50.79    5.20
  -4 -10   2   52.09    5.10
   4  10   2   51.99    7.60
  -4 -10   2   58.19    5.90
  -5 -10  -2  245.18   13.50
   5  10  -2  242.28   13.80
  -5 -10   2  225.08   13.20
   5 -10  -2  240.28   13.30
   6  10  -2  129.89    8.30
  -6 -10  -2  119.39    7.70
   6 -10  -2  100.09    7.30
  -6 -10   2  124.19    7.80
   0 -11  -2  831.22   41.10
   0 -11  -2  861.21   44.90
   0 -11   2  848.72   45.00
   0 -11  -2  860.91   39.20
   1 -11   2  192.18   15.50
  -1 -11  -2  186.38   12.50
  -1 -11  -2  186.08   15.10
  -1 -11  -2  189.68   11.00
   1 -11  -2  164.08   10.60
  -1 -11   2  161.18   14.70
  -1 -11   2  164.98   12.10
   1 -11  -2  156.28   14.10
   2 -11   2  858.01   43.90
  -2 -11  -2  827.82   39.80
  -2 -11  -2  786.12   43.40
  -2 -11  -2  864.61   38.50
   2 -11  -2  823.82   43.00
  -2 -11   2  878.81   44.10
  -2 -11   2  805.32   37.80
   2 -11  -2  849.72   38.30
  -2 -11   2  811.52   39.80
  -3 -11  -2  182.28   10.50
   3 -11   2  187.18   14.40
  -3 -11  -2  188.98   11.20
  -3 -11   2  157.08   13.10
  -3 -11   2  157.18    9.80
  -3 -11   2  157.88   10.90
   3 -11  -2  159.28   10.10
  -4 -11  -2  234.98   12.00
  -4 -11   2  203.58   11.40
  -4 -11   2  207.38   11.70
   4  11   2  198.58   14.10
   4 -11  -2  201.08   11.50
  -5 -11  -2  165.28    9.80
  -5 -11   2  192.78    9.90
   0 -12   2   37.00    4.60
   0  12   2   36.90    5.40
   0 -12  -2   37.20    4.50
   0 -12   2   37.60    6.20
   0 -12  -2   40.90    3.90
  -1 -12  -2  101.49    6.60
  -1 -12  -2   99.69    7.40
   1 -12   2  105.49    9.80
  -1  12   2  103.39    8.90
   1 -12  -2   98.49    6.60
  -1 -12   2   92.59    9.20
  -1 -12   2  101.79    7.60
   1 -12  -2  101.89    7.80
  -2 -12  -2  182.68   10.10
   2 -12   2  189.78   13.40
  -2 -12  -2  190.38   10.80
  -2 -12   2  176.58   12.90
   2 -12  -2  187.28   10.30
   2  12   2  189.38   12.70
  -2 -12   2  179.68   10.80
   0   0   3    0.90    0.90
   0   0   3    1.60    0.80
   0   0  -3    1.80    1.00
   0   0  -3    1.20    0.90
   0   0   3    3.60    1.50
   0   0  -3    1.20    1.00
  -1   0   3 2643.24  108.59
  -1   0  -3 2710.23  110.39
   1   0  -3 2568.34  110.89
   1   0  -3 2547.84  111.19
  -1   0  -3 2600.74  109.99
  -1   0   3 2446.46  108.89
  -1   0  -3 2794.52  113.29
   1   0  -3 2572.54  109.59
  -1   0   3 2477.65  111.29
   1   0   3 2517.25  108.19
   1   0   3 2618.04  109.19
   1   0   3 2665.73  113.89
   1   0   3 2544.85  111.29
   2   0   3  836.82   37.90
  -2   0   3  756.42   35.70
   2   0  -3  797.12   36.70
   2   0   3  825.72   36.00
  -2   0   3  802.02   34.60
   2   0  -3  873.41   37.90
   2   0   3  795.92   38.70
  -2   0  -3  855.11   38.20
   2   0  -3  805.82   36.70
   2   0   3  830.02   37.40
  -2   0   3  746.73   37.60
   2   0  -3  805.62   37.90
   3   0  -3   19.20    2.70
  -3   0  -3   18.60    3.20
   3   0  -3   17.00    2.90
  -3   0   3   17.70    2.40
   3   0  -3   17.80    3.20
   3   0   3   22.00    3.90
   3   0   3   16.20    3.00
   3   0   3   18.00    2.50
   4   0  -3  125.49    8.10
   4   0   3  125.19    9.60
   4   0   3  119.59    9.50
   4   0   3  112.79   10.50
  -4   0  -3  125.89   10.00
   4   0  -3  132.49    9.70
   4   0   3  124.79    8.00
   4   0   3  121.59    7.70
   4   0  -3  109.59    9.50
  -4   0   3  117.49    7.90
   4   0  -3  114.19    8.80
  -5   0  -3  533.85   30.30
   5   0  -3  551.64   28.80
   5   0   3  532.55   26.60
   5   0   3  542.65   29.70
   5   0   3  579.64   32.50
   5   0   3  575.84   29.90
  -5   0   3  558.34   27.00
   5   0  -3  550.14   30.70
   5   0  -3  557.24   27.40
   6   0   3  562.24   27.40
   6   0   3  561.24   31.00
  -6   0  -3  500.45   31.40
   6   0  -3  571.64   30.40
   6   0   3  515.45   33.30
   6   0  -3  562.74   28.00
   6   0   3  535.05   30.50
  -6   0   3  537.05   27.30
   6   0  -3  529.25   31.70
   7   0   3  862.81   40.10
   7   0  -3  855.51   40.10
   7   0   3  837.92   43.50
   7   0   3  895.11   41.60
   7   0  -3  852.41   43.40
   7   0   3  846.92   40.40
   7   0  -3  893.91   42.30
   7   0  -3  852.81   39.60
   7   0   3  812.12   44.90
   7   0  -3  815.02   44.30
   8   0   3  121.39    9.10
   8   0   3  121.99   10.30
   8   0   3  119.49    9.60
   8   0  -3  129.39    9.60
   8   0  -3  124.09   10.80
   8   0  -3  120.09    8.90
   8   0  -3  125.79   12.00
   8   0   3  127.69   12.10
   9   0   3  697.03   38.00
   9   0   3  691.73   34.40
   9   0  -3  691.23   33.50
   9   0  -3  644.94   36.00
   9   0  -3  704.33   34.00
   9   0   3  678.23   33.40
   9   0  -3  706.53   38.00
   9   0   3  675.13   35.90
  10   0  -3  218.68   13.50
  10   0   3  218.38   16.60
  10   0   3  217.38   13.40
  10   0  -3  225.68   16.70
 -10   0   3  227.18   13.30
  10   0   3  227.88   14.30
  11   0  -3   76.29    7.90
  11   0   3   77.79    8.10
 -11   0   3   79.79    6.20
  11   0  -3   78.79    6.30
  11   0   3   71.49    6.40
   0   1  -3  690.93   31.60
   0  -1  -3  677.03   30.60
   0   1  -3  719.43   31.90
   0  -1   3  690.93   30.40
   0  -1  -3  704.33   32.50
   0   1   3  664.73   30.80
   0   1   3  659.93   30.00
   0   1  -3  695.43   32.40
   0   1   3  664.73   30.30
   0  -1   3  681.93   30.60
   0   1   3  718.63   32.80
   0  -1   3  735.03   32.60
   0  -1  -3  697.73   32.20
   0   1  -3  670.63   32.60
   1   1  -3 1511.85   67.69
   1   1  -3 1477.35   66.89
  -1   1   3 1530.55   65.29
  -1  -1  -3 1578.94   68.39
   1   1  -3 1683.03   68.89
  -1  -1  -3 1360.86   65.99
   1  -1   3 1569.94   66.29
  -1  -1  -3 1497.15   67.69
   1   1  -3 1561.54   67.89
  -1   1   3 1556.34   68.09
   1  -1   3 1552.24   67.49
  -1   1   3 1490.35   65.79
   1  -1   3 1369.76   66.89
   1  -1   3 1444.66   65.29
   1   1   3 1479.35   67.39
  -1   1  -3 1610.54   67.59
   1  -1  -3 1582.84   67.69
   1   1   3 1548.65   68.29
  -1   1  -3 1568.34   67.19
   1   1   3 1479.75   64.89
  -1  -1   3 1586.64   68.29
  -1  -1   3 1768.52   65.99
  -1  -1   3 1606.84   66.09
   1   1   3 1641.24   66.09
   1  -1  -3 1566.94   67.39
  -2  -1  -3 1063.69   49.00
  -2   1   3 1159.48   47.30
  -2  -1  -3 1141.39   50.29
  -2   1   3 1075.49   45.80
   2  -1   3 1084.49   45.90
   2  -1   3 1098.79   48.30
   2   1  -3 1121.59   49.70
   2  -1   3 1187.88   51.09
   2   1  -3 1070.39   49.90
   2  -1   3 1199.78   47.70
  -2   1   3 1043.60   48.60
   2   1  -3 1144.19   48.40
   2  -1  -3 1046.50   47.50
  -2   1  -3 1088.09   48.30
   2   1   3 1032.50   49.50
   2  -1  -3  915.41   48.40
   2   1   3 1042.10   49.60
   2   1   3 1039.90   47.10
   2   1   3 1032.70   48.00
  -2  -1   3 1008.60   46.10
  -2  -1   3 1095.79   47.30
  -3  -1  -3  456.55   23.50
   3  -1   3  412.86   20.50
   3   1  -3  447.56   23.10
   3   1  -3  443.36   21.90
   3  -1   3  440.26   24.30
   3   1  -3  455.35   23.30
   3  -1   3  459.75   22.60
   3  -1   3  435.86   21.50
  -3   1   3  423.56   20.40
   3   1   3  434.26   23.80
   3   1   3  398.76   22.80
   3   1   3  396.76   21.40
  -3  -1   3  408.46   20.40
   3   1   3  399.86   20.20
   3  -1  -3  421.16   21.20
  -3   1  -3  385.16   21.10
   3  -1  -3  382.06   21.80
  -4   1   3  327.97   18.00
  -4  -1  -3  331.07   21.10
   4   1  -3  331.17   19.90
   4  -1   3  329.17   18.10
   4  -1   3  361.06   22.50
   4  -1   3  350.76   19.40
   4   1  -3  315.77   19.30
   4   1  -3  333.37   21.20
   4  -1   3  325.07   19.90
   4   1   3  370.46   18.50
   4  -1  -3  396.06   19.90
   4  -1  -3  381.46   20.80
   4  -1  -3  367.16   17.90
   4   1   3  372.76   20.00
   4   1   3  393.86   21.60
   4   1   3  378.46   18.40
   4   1   3  377.56   22.40
  -4   1  -3  371.66   19.90
  -4  -1   3  377.36   18.50
   5  -1   3   12.40    2.90
   5  -1   3   14.40    3.50
   5   1  -3   13.50    3.20
   5   1  -3   11.90    3.60
   5   1  -3   14.30    4.70
  -5  -1  -3   11.20    3.40
   5  -1   3   13.20    4.10
  -5   1   3   11.90    2.50
   5   1   3   12.80    2.50
  -5   1  -3   13.40    3.10
   5   1   3   14.90    4.20
   5  -1  -3   14.20    2.60
   5  -1  -3   16.60    3.40
   5   1   3   17.50    3.70
   5  -1  -3   13.40    3.30
   5   1   3   15.60    3.80
   5   1   3   17.10    2.90
  -5  -1   3   15.40    2.80
   6   1  -3   24.90    4.60
   6  -1   3   27.80    5.20
   6  -1   3   26.10    3.50
  -6   1   3   25.50    3.90
   6  -1   3   23.90    5.80
   6   1  -3   28.60    5.90
  -6  -1  -3   23.50    5.50
   6   1  -3   23.10    3.90
   6  -1   3   24.20    4.50
  -6   1  -3   22.40    4.60
   6  -1  -3   27.80    5.30
   6  -1  -3   26.90    3.80
   6   1   3   22.20    5.00
  -6  -1   3   23.80    3.80
   6  -1  -3   22.50    4.40
   6   1   3   26.10    5.00
   6   1   3   27.80    4.10
   6   1   3   25.60    6.10
   7  -1   3  347.17   22.80
   7  -1   3  297.67   17.90
   7  -1   3  312.07   20.70
   7   1  -3  318.57   20.60
   7   1  -3  317.27   17.30
   7   1  -3  310.47   17.80
   7   1  -3  333.77   20.00
   7  -1   3  333.27   18.60
   7  -1   3  293.57   17.40
   7   1  -3  322.27   21.70
   7  -1  -3  321.77   20.80
   7  -1  -3  337.87   19.30
   7   1   3  333.07   19.50
   7   1   3  320.97   22.00
   7  -1  -3  329.97   17.50
   7  -1  -3  329.77   17.90
   7   1   3  335.97   18.40
   7   1   3  328.47   21.00
   7  -1  -3  344.67   22.20
   7   1   3  306.07   19.70
   8   1  -3  105.49   10.90
   8   1  -3  114.59   10.40
   8   1  -3  107.89    8.80
   8  -1   3  110.19    9.10
   8   1  -3  108.19    8.40
   8  -1   3  109.99    8.60
   8  -1   3  110.99    9.40
   8  -1   3  114.59   11.50
   8   1   3  110.39   10.20
   8   1   3  108.79    8.50
   8   1   3  112.79    9.20
   8   1   3  122.29   11.70
   8  -1  -3  116.59   10.10
   8  -1  -3  119.19    9.10
   8  -1  -3  109.49    8.50
   8  -1  -3  110.39   11.30
   9  -1   3  146.59   10.50
   9  -1   3  139.69   11.40
   9   1  -3  150.68   10.90
   9  -1   3  145.39   11.00
   9   1  -3  136.29   12.90
   9   1  -3  145.49   10.40
   9  -1   3  152.98   13.70
   9   1  -3  140.09   12.40
   9   1   3  160.68   10.70
   9   1   3  147.99   12.30
   9  -1  -3  163.18   14.00
   9  -1  -3  151.48   10.90
   9  -1  -3  145.89   12.10
   9  -1  -3  154.58   10.60
   9   1   3  159.78   11.40
   9   1   3  151.08   13.60
  10   1  -3   70.09    6.80
  10  -1   3   68.19    6.80
  10  -1   3   72.99    9.00
  10  -1  -3   97.39   10.20
  10  -1  -3   87.89    7.60
  10   1   3  103.19   10.30
 -10  -1   3   93.29    7.40
  10  -1  -3   97.29    7.60
  10   1   3   96.89    8.20
  10   1   3   97.89    7.50
  11  -1   3   86.79    7.30
  11  -1   3   92.19    9.00
  11   1  -3   91.49    7.00
  11  -1   3   85.99    7.10
 -11   1   3   88.29    6.90
  11   1   3  111.79    9.70
 -11  -1   3  107.19    7.30
  11  -1  -3  109.39    9.60
  11   1   3  106.49    7.30
  11  -1  -3  107.49    7.50
  11   1   3  108.99    7.90
   0  -2   3  968.80   41.50
   0  -2  -3  941.91   40.30
   0  -2   3  979.60   43.10
   0   2  -3 1003.50   44.50
   0  -2  -3  956.50   43.20
   0  -2   3  809.82   42.20
   0  -2  -3  919.41   42.60
   0   2   3  959.20   41.10
   0   2   3  917.51   43.20
   0   2  -3  917.41   43.00
   0   2   3  935.01   40.80
   0  -2   3  921.51   41.20
   0   2  -3  976.50   42.50
   1  -2   3 6857.11  283.97
  -1   2   3 6242.28  278.37
   1  -2   3 7030.00  277.47
  -1  -2  -3 6133.49  269.57
   1   2  -3 7058.39  291.37
   1   2  -3 6359.56  275.37
  -1  -2  -3 6884.41  288.97
   1  -2   3 6945.60  286.47
  -1   2   3 5930.41  272.97
   1   2   3 7241.88  272.47
  -1   2  -3 6146.29  275.27
  -1  -2   3 7081.39  277.77
   1  -2  -3 5822.92  271.47
  -1  -2   3 6666.93  285.67
   1  -2  -3 7019.70  281.97
   1   2   3 5859.31  271.37
   1   2   3 5846.92  276.87
   1   2   3 5564.74  269.97
  -2  -2  -3  914.61   40.60
   2   2  -3  902.51   40.80
   2  -2   3  835.72   38.30
   2   2  -3  876.81   41.70
   2  -2   3  878.01   38.30
   2   2  -3  846.32   40.60
  -2   2   3  849.81   37.80
   2  -2   3  888.51   38.50
  -2   2   3  819.92   36.60
   2  -2   3  849.52   37.10
   2   2  -3  849.32   38.90
   2  -2   3  889.01   42.10
  -2  -2  -3  881.11   41.10
  -2  -2   3  876.31   38.20
   2   2   3  755.72   36.10
   2   2   3  809.32   37.80
   2   2   3  864.51   38.10
  -2   2  -3  805.72   37.80
  -2  -2   3  792.22   37.10
   2   2   3  823.12   40.30
   2   2   3  884.31   41.20
   2  -2  -3  881.41   39.50
   2  -2  -3  851.91   37.70
  -2  -2   3  726.13   40.10
  -2   2  -3  802.82   39.10
  -3  -2  -3 2114.29   86.89
  -3   2   3 1985.00   82.19
   3  -2   3 1973.90   82.69
   3   2  -3 2043.10   83.89
   3  -2   3 2028.70   82.69
   3  -2   3 1986.40   84.79
   3   2  -3 1918.31   86.99
   3  -2   3 1811.72   86.89
   3   2  -3 1907.91   85.89
  -3   2  -3 1864.51   81.89
   3   2   3 1920.21   82.99
   3   2   3 1761.82   85.79
   3  -2  -3 1806.12   83.69
   3   2   3 1733.43   85.29
   3   2   3 1886.91   82.09
   3  -2  -3 1757.92   80.99
  -3  -2   3 1899.51   82.29
   4   2  -3  582.24   30.90
   4  -2   3  576.04   29.90
   4  -2   3  574.84   27.60
  -4  -2  -3  613.44   32.40
   4   2  -3  563.84   28.90
  -4   2   3  574.84   27.40
   4   2  -3  546.15   27.60
   4  -2   3  581.14   32.40
   4  -2   3  590.94   27.70
   4   2   3  576.24   27.40
  -4   2  -3  559.44   27.40
   4   2   3  553.94   27.70
   4   2   3  590.74   31.60
  -4  -2   3  550.44   27.40
   4  -2  -3  573.24   28.40
   4   2   3  548.85   28.50
   4   2   3  536.75   31.40
   4  -2  -3  533.45   28.80
   4  -2  -3  556.74   26.30
   5  -2   3  147.29   11.90
   5   2  -3  132.79   10.90
  -5   2   3  155.68   10.10
  -5  -2  -3  153.48   13.90
   5   2  -3  144.79   12.50
   5   2  -3  141.19   10.10
   5  -2   3  145.49   13.70
   5  -2   3  147.99   10.30
   5   2   3  137.59   10.00
  -5   2  -3  136.49   10.40
  -5  -2   3  137.49    9.70
   5  -2  -3  134.39   11.10
   5   2   3  143.09   13.50
   5   2   3  142.99   11.10
   5   2   3  132.89   12.60
   5  -2  -3  139.79    9.10
   5  -2  -3  136.29   10.70
   5   2   3  146.09    9.70
   6   2  -3  592.14   32.00
  -6   2   3  583.74   29.30
   6   2  -3  603.64   30.30
   6  -2   3  602.74   30.60
   6  -2   3  597.24   33.00
   6  -2   3  591.44   36.40
   6  -2   3  590.44   27.50
   6  -2  -3  596.94   28.90
   6  -2  -3  579.44   31.80
   6   2   3  570.04   34.80
  -6  -2   3  568.44   32.70
   6   2   3  520.85   28.70
  -6   2  -3  535.55   31.20
   6  -2  -3  572.94   32.00
   6   2   3  592.94   30.20
   6   2   3  564.64   34.60
   6   2   3  566.74   31.70
   6  -2  -3  614.54   32.10
   7  -2   3  199.48   16.80
   7   2  -3  182.18   15.90
   7  -2   3  191.58   13.10
   7   2  -3  204.98   13.00
   7   2  -3  188.08   12.30
   7  -2   3  201.88   15.70
   7  -2   3  202.38   12.80
   7  -2   3  211.08   13.00
   7   2   3  210.58   16.60
   7   2   3  238.88   13.80
   7  -2  -3  230.18   16.30
   7  -2  -3  223.68   13.30
   7  -2  -3  229.18   14.20
   7   2   3  213.98   15.90
   7  -2  -3  212.78   12.70
   7   2   3  227.38   15.10
   7  -2  -3  225.38   16.80
   8  -2   3  123.89   12.00
   8  -2   3  122.89    9.70
   8  -2   3  124.19    9.40
   8   2  -3  127.69    9.20
   8  -2   3  132.69   10.10
   8   2   3  126.69   11.20
   8  -2  -3  132.89   12.50
   8   2   3  129.09   12.20
   8  -2  -3  124.09    9.30
   8   2   3  132.59   10.10
  -8  -2   3  126.39    9.20
   8  -2  -3  123.59   10.40
   8  -2  -3  119.69    9.50
   9   2  -3  103.29    8.10
   9  -2   3  109.19    8.40
   9  -2   3  109.49    8.90
   9  -2   3  108.79    9.10
   9  -2   3   98.29   10.60
   9   2   3   93.49   10.40
   9  -2  -3   89.39    8.00
   9  -2  -3   90.19    9.00
   9   2   3   92.29    8.40
   9  -2  -3   87.69    7.70
   9  -2  -3   94.29   10.70
   9   2   3   88.29    9.40
  -9  -2   3   91.29    7.70
  10   2  -3   34.40    4.30
  10  -2   3   32.00    4.30
  10  -2   3   32.10    6.00
  10  -2  -3   23.00    3.70
  10  -2  -3   21.60    5.40
  10   2   3   21.30    4.00
  10  -2  -3   19.70    3.90
  10   2   3   19.30    5.00
 -10  -2   3   20.30    3.60
  11  -2   3  326.37   16.70
 -11  -2  -3  311.47   18.50
 -11   2   3  322.87   16.20
  11  -2   3  319.47   19.10
  11   2  -3  317.47   16.30
 -11  -2   3  309.37   16.40
  11  -2  -3  307.47   16.50
  11   2   3  305.57   17.10
  11  -2  -3  314.17   19.40
   0  -3  -3 1674.73   72.79
   0  -3  -3 1614.24   70.39
   0   3   3 1651.53   70.39
   0  -3   3 1597.74   70.89
   0   3  -3 1611.74   71.59
   0  -3   3 1596.34   70.69
   0   3   3 1633.04   70.39
   0  -3   3 1686.63   72.29
   1   3  -3  128.19   10.30
   1  -3   3  128.99    7.80
  -1  -3  -3  127.09    9.50
   1   3  -3  132.49   10.20
  -1   3   3  125.69    7.50
  -1  -3  -3  129.59    7.50
   1   3  -3  128.89    8.60
   1  -3   3  132.49    8.50
  -1   3   3  116.99    7.50
   1  -3   3  118.99    7.90
  -1  -3   3  112.49    7.70
  -1   3  -3  126.89   10.60
   1   3   3  113.29    8.50
  -1  -3   3  123.49    9.50
   1   3   3  118.29    7.70
  -1   3  -3  117.69    8.50
  -1   3  -3  125.49    8.40
  -1  -3   3  107.79    7.70
   1  -3  -3  118.79    8.80
  -2   3   3 2989.60  125.59
   2   3  -3 2924.51  130.99
   2  -3   3 3052.69  126.19
  -2  -3  -3 3156.48  130.19
   2   3  -3 3137.79  130.79
   2  -3   3 2933.61  126.89
  -2  -3  -3 2992.70  125.39
   2  -3   3 3041.30  126.59
   2   3  -3 3036.50  127.69
  -2   3   3 2976.90  126.59
   2  -3   3 3074.89  132.09
   2  -3  -3 2726.93  125.29
  -2   3  -3 3040.30  128.09
   2   3   3 2976.50  129.29
   2   3   3 3101.49  126.79
  -2   3  -3 3007.70  125.99
  -2  -3   3 2669.83  127.19
  -2  -3   3 2775.52  129.79
  -2   3  -3 3006.70  131.19
  -2  -3   3 3012.30  126.89
   2  -3  -3 2905.91  127.89
   3  -3   3 1313.87   58.19
   3   3  -3 1414.36   60.49
   3   3  -3 1442.96   61.89
   3   3  -3 1371.36   65.19
   3   3  -3 1332.07   65.39
  -3   3   3 1321.07   58.99
   3  -3   3 1403.96   59.39
   3  -3   3 1310.77   64.09
  -3  -3   3 1226.48   65.29
  -3  -3   3 1278.97   58.99
   3   3   3 1305.87   58.89
   3  -3  -3 1277.37   59.99
   3   3   3 1412.56   63.19
  -3   3  -3 1294.07   60.69
   3  -3  -3 1273.77   58.69
   3  -3  -3 1312.47   57.29
   4   3  -3  128.69   12.10
  -4   3   3  115.19    8.50
   4  -3   3  109.49    8.50
   4  -3   3  121.89   10.30
   4  -3   3  124.39    8.10
   4   3  -3  126.89    9.90
   4  -3   3  117.09   11.90
   4  -3  -3  113.79    8.80
   4  -3  -3  121.69    9.50
  -4  -3   3  135.59    9.10
  -4   3  -3  124.49    7.80
   4  -3  -3  115.49    7.40
   4   3   3  142.19   12.50
   4   3   3  122.29    9.50
   4   3   3  123.59    8.70
   5   3  -3   22.30    5.20
  -5   3  -3   15.90    2.90
   5  -3  -3   19.70    3.90
   5  -3  -3   16.50    2.60
   5   3   3   16.20    3.20
   5  -3  -3   18.30    3.70
  -5  -3   3   15.60    3.10
   5   3   3   18.40    5.10
   6  -3   3  406.96   21.90
   6   3  -3  400.36   25.00
   6  -3   3  421.36   24.50
   6  -3   3  415.66   26.40
  -6   3   3  426.86   23.10
   6   3  -3  392.36   21.40
   6  -3  -3  455.35   22.10
   6   3   3  389.46   21.60
   6   3   3  445.66   24.10
   6  -3  -3  430.66   24.80
   6  -3  -3  450.85   25.90
   6   3   3  430.76   24.70
   7  -3   3  299.17   16.90
   7  -3   3  292.27   17.30
   7  -3   3  294.67   20.00
   7   3  -3  302.67   17.00
   7   3  -3  272.67   16.20
   7  -3  -3  307.17   20.30
   7  -3  -3  314.37   17.90
   7  -3  -3  310.07   17.20
   7   3   3  293.37   17.40
   7   3   3  315.27   20.20
   7  -3  -3  309.47   16.80
  -7  -3   3  310.87   16.80
   8  -3   3   63.19    6.70
   8   3  -3   69.99    6.70
   8   3  -3   59.19    5.90
   8  -3   3   60.89    6.00
   8  -3   3   72.59    8.80
   8  -3   3   62.19    6.20
   8  -3  -3   54.79    7.90
   8   3   3   54.29    7.80
   8  -3  -3   48.50    6.10
   8  -3  -3   45.90    5.70
  -8  -3   3   51.99    5.80
   8   3   3   60.99    6.50
   8  -3  -3   55.79    5.80
   9  -3   3  232.58   14.60
   9   3  -3  229.58   14.10
   9  -3   3  243.58   14.70
   9  -3   3  242.08   14.20
   9   3  -3  236.88   13.80
   9  -3   3  248.18   17.50
   9  -3  -3  212.28   15.10
  -9  -3   3  211.78   13.50
   9  -3  -3  258.67   14.30
   9  -3  -3  214.88   14.20
   9  -3  -3  212.48   17.20
   9   3   3  222.28   14.60
   9   3   3  208.78   16.50
  10  -3   3   11.00    3.00
 -10  -3  -3   11.00    4.20
  10  -3   3   11.30    4.30
  10  -3  -3   12.40    4.10
 -10  -3   3   12.60    3.00
  10   3   3    9.40    2.90
  10  -3  -3   10.50    3.20
  10  -3  -3   11.30    2.80
  11  -3   3  117.09    7.60
  11  -3   3  116.59    9.40
 -11  -3  -3  111.99   10.10
 -11  -3   3  108.49    7.30
  11  -3  -3  110.49    7.40
  11  -3  -3  113.89    9.90
  11   3   3  108.19    8.00
  11  -3  -3  109.49    7.60
   0  -4   3 1541.15   66.69
   0  -4  -3 1545.55   64.79
   0  -4  -3 1341.47   66.49
   0   4  -3 1494.35   69.19
   0   4   3 1433.06   64.39
   0   4  -3 1468.95   65.29
   0  -4   3 1410.56   63.39
   0  -4   3 1493.45   64.99
   0  -4   3 1572.44   65.29
   0  -4  -3 1371.16   63.89
   0   4  -3 1498.65   67.69
  -1  -4  -3  152.88    8.90
   1  -4   3  148.09    9.30
   1   4  -3  158.78    9.40
   1  -4   3  161.18    9.80
   1   4  -3  153.48   12.20
  -1  -4  -3  139.19   11.00
   1   4  -3  154.68    9.70
  -1   4   3  143.19    8.90
   1  -4   3  140.29    9.40
   1   4  -3  147.59   11.80
   1  -4  -3  124.49    9.80
  -1  -4   3  142.19   11.00
   1   4   3  124.59    8.80
  -1   4  -3  127.19    9.50
  -1   4  -3  129.29    9.60
  -1  -4   3  128.39    8.70
   1   4   3  138.29   10.20
  -1   4  -3  129.89   11.70
   1  -4  -3  117.29    8.00
  -1  -4   3  135.79    9.20
  -2   4   3 2203.88   94.09
   2   4  -3 2220.48   95.69
  -2  -4  -3 2147.79   93.79
   2   4  -3 2180.18  100.19
  -2  -4  -3 2231.28   94.79
  -2  -4  -3 2324.27   99.09
   2   4  -3 2009.50   94.49
   2  -4   3 2167.98   95.29
  -2   4   3 2150.98   94.59
   2  -4   3 2242.08   94.79
   2   4  -3 2380.76  100.49
   2  -4   3 2157.88   94.39
   2   4   3 2356.76   95.09
  -2   4  -3 1867.81   98.99
  -2   4  -3 2367.16   94.59
   2  -4  -3 2168.48   93.29
   2  -4  -3 2440.06   96.99
  -2  -4   3 2030.50   98.39
   2   4   3 1940.21   97.39
  -2  -4   3 2283.47   95.49
  -2  -4   3 2136.19   94.79
  -2   4  -3 2195.18   96.09
   3   4  -3  745.63   35.90
   3  -4   3  749.03   35.20
   3   4  -3  790.12   37.10
   3   4  -3  713.23   41.30
   3  -4   3  732.63   34.30
  -3   4   3  783.92   35.20
   3  -4   3  738.13   33.50
  -3   4  -3  724.03   36.20
   3  -4  -3  735.03   35.90
  -3   4  -3  695.73   39.40
   3  -4  -3  702.33   32.90
   3   4   3  741.03   34.80
  -3  -4   3  704.83   35.10
   3   4   3  678.43   38.20
  -4   4   3  675.23   33.00
   4   4  -3  671.53   39.10
   4  -4   3  665.43   30.90
   4  -4   3  690.03   33.40
   4   4  -3  632.74   34.10
   4  -4   3  677.03   39.00
   4  -4  -3  674.03   34.10
  -4   4  -3  685.93   38.40
  -4   4  -3  668.93   34.90
   4   4   3  669.23   32.90
   4  -4  -3  648.54   30.80
  -4  -4   3  734.53   33.90
   4   4   3  690.63   38.00
   5   4  -3  426.46   25.70
   5  -4   3  411.16   19.90
  -5   4   3  411.46   22.10
   5   4  -3  407.36   23.90
   5   4  -3  401.86   27.40
   5  -4   3  413.46   28.10
   5   4   3  396.16   21.80
   5  -4  -3  385.26   23.40
  -5  -4   3  401.46   22.30
  -5   4  -3  402.16   24.40
   5  -4  -3  382.26   20.00
   5  -4  -3  397.06   22.90
   6  -4   3  233.38   14.20
  -6  -4  -3  246.48   16.40
   6   4  -3  253.07   14.70
  -6   4   3  240.78   15.80
   6   4  -3  256.17   18.00
   6  -4   3  245.08   14.90
   6  -4  -3  242.38   14.40
  -6  -4   3  243.08   14.10
   6   4   3  280.37   15.10
   6  -4  -3  253.87   14.50
   6  -4  -3  251.67   17.40
  -7  -4  -3  234.78   16.40
   7   4  -3  233.48   14.60
   7  -4   3  252.87   14.60
   7  -4   3  237.98   14.90
  -7  -4   3  243.68   14.20
   7  -4  -3  231.78   14.40
   7  -4  -3  238.68   17.50
   7  -4  -3  229.18   13.90
   7   4   3  261.47   15.20
   7  -4  -3  240.88   14.80
   8  -4   3  238.98   16.40
   8  -4   3  219.58   13.00
   8  -4   3  210.58   14.20
  -8  -4  -3  225.88   15.50
   8   4  -3  208.88   13.30
  -8  -4   3  184.58   12.30
   8   4   3  185.98   13.00
   8  -4  -3  176.98   15.30
   8  -4  -3  190.58   12.90
   8  -4  -3  183.38   13.20
   8  -4  -3  172.88   12.00
  -9  -4  -3    4.30    2.90
   9   4  -3    7.40    2.50
   9  -4   3    4.70    2.80
   9  -4   3    6.70    2.40
   9  -4   3    4.60    2.10
   9   4   3    5.30    2.40
   9  -4  -3    2.80    2.00
   9  -4  -3    5.40    2.50
   9  -4  -3    3.00    2.40
   9  -4  -3    3.40    1.90
  -9  -4   3    4.10    2.10
  10  -4   3  388.56   22.00
  10   4  -3  363.26   19.70
 -10  -4  -3  376.06   21.40
  10  -4   3  379.26   19.30
  10  -4  -3  373.46   22.90
  10   4   3  349.57   19.80
  10  -4  -3  364.16   19.00
 -10  -4   3  374.36   19.20
  10  -4  -3  363.86   19.40
  11  -4   3   47.90    4.50
 -11  -4   3   58.89    4.70
   0   5  -3 2727.23  115.89
   0  -5   3 2857.81  118.09
   0  -5  -3 2892.21  119.09
   0  -5  -3 2643.34  115.69
   0  -5  -3 2790.12  115.29
   0   5   3 2560.14  115.49
   0  -5   3 2591.04  115.79
   0   5  -3 2600.34  120.79
   0  -5   3 2702.03  114.29
   0   5  -3 2536.35  115.59
   0   5  -3 2592.04  119.09
   1   5  -3  465.95   23.30
  -1  -5  -3  454.35   22.70
   1  -5   3  477.35   21.00
   1  -5   3  492.85   24.00
  -1   5   3  455.85   22.80
   1  -5   3  474.35   23.40
  -1  -5  -3  436.36   25.80
  -1  -5  -3  432.16   22.60
   1   5  -3  443.36   26.90
   1   5  -3  503.35   28.00
   1  -5   3  492.65   23.50
  -1  -5   3  429.96   22.40
   1  -5  -3  458.05   22.10
  -1   5  -3  406.06   24.00
  -1  -5   3  380.26   24.70
   1   5   3  423.26   22.80
  -1  -5   3  437.16   23.20
  -1   5  -3  426.66   23.20
  -1   5  -3  436.56   23.10
   1  -5  -3  427.96   23.00
  -1   5  -3  426.66   27.00
   1  -5  -3  386.86   23.90
  -2  -5  -3   34.30    5.70
  -2   5   3   31.30    4.00
   2  -5   3   34.70    4.40
   2   5  -3   29.90    4.20
  -2  -5  -3   35.90    4.40
  -2  -5  -3   28.10    3.70
  -2   5   3   32.90    4.10
   2  -5   3   31.30    3.80
   2   5  -3   27.90    5.70
   2   5  -3   35.40    6.60
   2  -5   3   27.90    4.10
   2   5  -3   31.10    4.20
   2  -5  -3   33.30    4.80
  -2   5  -3   22.10    4.00
  -2  -5   3   23.90    3.70
  -2   5  -3   24.60    5.50
   2   5   3   29.30    4.10
  -2   5  -3   29.20    4.00
   2   5   3   25.30    5.10
   2  -5  -3   25.60    3.20
  -2  -5   3   23.80    3.90
  -2   5  -3   25.10    4.00
   3   5  -3  180.38   17.90
  -3   5   3  175.78   12.50
   3  -5   3  218.08   11.70
   3   5  -3  176.98   13.10
   3  -5   3  176.88   12.40
   3  -5  -3  210.08   11.40
  -3   5  -3  228.68   12.10
  -3   5  -3  207.38   16.90
  -3   5  -3  201.28   13.90
   3   5   3  209.78   16.50
  -3  -5   3  222.08   13.80
   3  -5  -3  204.38   13.70
   4  -5   3  624.64   32.30
  -4   5   3  680.23   32.50
   4   5  -3  630.64   31.50
  -4   5  -3  635.64   38.30
   4  -5  -3  644.44   29.80
  -4  -5   3  638.54   32.70
   4   5   3  590.34   36.80
  -4   5  -3  656.53   32.60
   4  -5  -3  646.24   33.00
  -4   5  -3  647.34   33.80
   4   5   3  646.04   32.40
   5   5  -3  108.69    8.20
  -5   5   3  114.09    9.40
   5  -5   3  111.39    8.60
  -5  -5  -3  118.79   10.10
  -5   5  -3   92.59    9.90
   5   5   3   98.09    8.00
   5  -5  -3  103.99    7.50
   5  -5  -3   99.39    7.90
  -5  -5   3   99.79    9.20
  -5  -5   3  105.79    8.20
   5  -5  -3  110.39   10.10
   6  -5   3  330.77   18.50
   6   5  -3  330.97   18.30
  -6  -5  -3  332.87   19.00
   6  -5   3  304.37   20.40
  -6  -5  -3  329.27   20.20
   6   5   3  273.47   17.50
   6  -5  -3  334.07   21.10
   6  -5  -3  330.37   18.10
   6  -5  -3  328.47   17.80
  -7  -5  -3  994.20   49.60
   7  -5   3 1024.80   46.90
   7   5  -3 1044.60   47.70
   7  -5  -3  986.40   47.20
   7   5   3 1076.69   47.90
   7  -5  -3 1015.30   51.19
   7  -5  -3  989.20   47.10
  -7  -5   3  974.20   46.50
   8   5  -3   55.69    6.20
  -8  -5  -3   61.49    8.70
   8  -5   3   61.49    6.20
   8  -5  -3   54.99    6.20
   8  -5  -3   51.99    6.00
  -8  -5   3   58.29    5.90
   8  -5  -3   53.59    7.70
   8   5   3   55.39    6.20
   9   5  -3   83.49    7.40
   9  -5   3   89.09    7.00
   9  -5  -3   84.29    7.30
   9  -5  -3   74.89    9.00
  -9  -5   3   81.59    6.80
   9   5   3   74.39    7.20
  10   5  -3  223.18   13.10
  10  -5   3  221.48   12.50
  10   5   3  230.58   13.50
  10  -5  -3  230.18   12.90
  10  -5  -3  220.88   15.40
 -10  -5   3  229.18   12.70
   0  -6   3 1568.04   67.99
   0   6   3 1551.24   69.39
   0  -6   3 1630.44   69.99
   0   6  -3 1495.05   74.69
   0  -6   3 1419.66   70.79
   0  -6  -3 1550.04   69.49
   0   6  -3 1645.44   70.29
   0  -6  -3 1538.65   68.59
   0  -6  -3 1496.35   72.39
   0   6  -3 1445.76   73.09
   1   6  -3  102.39   11.10
  -1  -6  -3  110.49    8.40
   1  -6   3  101.19    6.70
  -1  -6  -3   94.89   10.20
   1  -6   3  102.99    8.60
   1   6  -3  106.99   11.60
  -1   6   3  104.59    8.40
   1  -6   3   94.19    8.50
  -1  -6  -3   91.69    7.80
   1   6  -3  109.29    8.70
   1   6   3   87.69    8.00
  -1   6  -3   87.29    8.20
   1  -6  -3   80.89    7.00
   1  -6  -3   83.49    8.80
  -1  -6   3   85.09    8.00
  -1  -6   3   85.99    7.40
  -1   6  -3   81.99    8.90
  -1  -6   3   77.39    9.10
  -1   6  -3   80.99   10.40
   1  -6  -3   81.69    7.90
   2  -6   3  967.80   47.70
  -2   6   3 1041.60   48.40
  -2  -6  -3 1046.20   50.79
  -2   6   3  912.41   47.40
   2   6  -3  987.20   48.00
   2   6  -3 1037.10   55.39
  -2  -6  -3  927.71   48.00
   2   6  -3  978.70   56.09
   2  -6   3  985.00   48.30
   2  -6  -3 1082.89   50.39
  -2   6  -3  964.60   49.00
  -2   6  -3 1012.20   48.50
  -2  -6   3 1138.19   54.19
  -2  -6   3 1111.89   48.90
  -2   6  -3 1060.69   54.59
   2   6   3 1005.60   48.30
  -2  -6   3 1066.09   49.00
   2  -6  -3 1124.29   47.10
   3  -6   3 1462.55   66.29
   3  -6   3 1498.35   68.49
   3  -6   3 1497.95   70.29
  -3   6   3 1494.15   68.39
   3   6  -3 1467.55   67.49
  -3  -6   3 1545.85   69.29
   3  -6  -3 1541.05   66.19
  -3  -6   3 1495.45   68.89
  -3   6  -3 1495.45   67.69
   3  -6  -3 1491.25   70.99
  -4  -6  -3   79.59    7.30
   4   6  -3   92.59    7.70
   4  -6   3   86.69    7.60
  -4   6   3   83.69    8.30
   4  -6  -3   94.29    7.00
  -4  -6   3   88.69    8.60
  -4  -6   3   89.19    7.00
   4  -6  -3   93.39    9.00
   4  -6  -3   97.59    7.60
   5   6  -3 1308.57   59.39
  -5  -6  -3 1351.26   58.79
   5  -6  -3 1272.57   62.09
  -5  -6   3 1344.27   59.39
  -5  -6   3 1293.57   58.39
   5  -6  -3 1334.87   58.59
   5   6   3 1222.78   58.79
   5  -6  -3 1327.67   59.19
  -6  -6  -3  268.07   14.10
  -6  -6   3  216.68   13.20
   6   6   3  191.38   13.40
   6  -6  -3  219.98   13.80
   6  -6  -3  216.48   16.20
   6  -6  -3  215.28   13.30
   7   6  -3   29.10    4.60
  -7  -6  -3   31.90    4.40
  -7  -6   3   25.10    4.00
   7   6   3   27.60    4.40
   7  -6  -3   26.30    5.50
   7  -6  -3   25.70    4.50
   7  -6  -3   25.60    4.00
   8   6  -3  288.77   16.50
  -8  -6   3  263.57   15.50
   8  -6  -3  294.57   16.30
   8  -6  -3  270.97   18.90
   8   6   3  282.67   16.50
   8  -6  -3  255.27   18.00
   9   6  -3  172.88   11.30
   9   6   3  175.38   11.40
  -9  -6   3  170.18   10.70
   9  -6  -3  183.48   11.20
   9  -6  -3  166.98   13.20
 -10  -6   3  279.27   14.40
   0  -7   3    3.90    2.20
   0  -7   3    2.80    1.60
   0  -7  -3    3.60    1.90
   0  -7   3    3.00    2.20
   0  -7  -3    2.20    1.90
   1  -7   3  237.68   14.60
  -1  -7  -3  221.38   15.50
   1  -7   3  240.78   14.20
  -1  -7  -3  259.67   15.90
   1  -7   3  256.57   22.40
   1  -7   3  233.18   16.00
   1  -7  -3  264.77   15.40
   1  -7  -3  232.38   16.00
  -1  -7   3  264.67   15.70
  -1  -7   3  238.28   16.30
  -1  -7   3  227.18   14.50
  -2  -7  -3  582.54   34.30
   2  -7   3  607.94   28.30
   2  -7   3  613.84   31.90
  -2  -7  -3  627.44   29.30
   2  -7   3  621.54   29.60
   2  -7   3  608.34   34.10
  -2   7   3  636.44   31.60
  -2  -7  -3  615.84   31.70
  -2  -7   3  546.05   35.80
  -2  -7   3  551.24   31.30
  -2  -7   3  568.64   29.70
   2  -7  -3  607.84   29.90
  -2  -7   3  585.94   31.30
   2  -7  -3  555.24   28.70
   3  -7   3  127.39   12.20
   3  -7   3  132.39   12.90
  -3  -7  -3  133.69   13.30
   3   7  -3  134.59   10.70
  -3  -7  -3  129.19   10.50
  -3   7   3  135.79   12.30
  -3  -7  -3  135.09    9.80
   3  -7  -3  161.28   10.30
  -3  -7   3  153.18    9.90
   3  -7  -3  161.98   10.50
  -3  -7   3  151.08   12.00
  -3  -7   3  154.78   12.20
  -3  -7   3  155.18   11.30
   4   7  -3  177.48   11.30
  -4  -7  -3  169.58   10.70
  -4  -7  -3  166.58   11.40
   4  -7   3  160.78   14.20
   4  -7  -3  140.09   12.00
   4  -7  -3  143.39   10.30
  -4  -7   3  136.09   11.10
  -4  -7   3  138.19    9.90
   4  -7  -3  151.18   10.30
  -5  -7  -3  492.75   25.50
  -5  -7  -3  486.15   24.50
   5   7  -3  497.75   25.20
   5   7   3  471.15   28.70
  -5  -7   3  484.75   25.20
   5  -7  -3  457.95   24.30
   5  -7  -3  466.85   24.70
   5  -7  -3  465.35   27.30
  -5  -7   3  478.45   24.40
   6   7  -3  291.97   16.80
  -6  -7  -3  310.17   16.20
   6  -7  -3  266.07   18.50
   6  -7  -3  268.27   16.10
   6  -7  -3  258.47   15.60
  -6  -7   3  262.17   15.70
  -7  -7  -3  126.99    9.30
   7   7  -3  138.39   10.40
   7  -7  -3  143.89   10.10
   7   7   3  145.79   10.50
   7  -7  -3  139.89   12.10
   7  -7  -3  133.49    9.80
  -7  -7   3  150.68    9.90
   8   7  -3   62.29    6.30
  -8  -7   3   63.79    5.80
   8   7   3   72.09    6.50
   8  -7  -3   68.29    7.80
   8  -7  -3   65.19    6.20
   9   7  -3  327.57   18.00
   9  -7  -3  368.46   20.50
   9  -7  -3  347.97   17.70
   9   7   3  356.36   18.40
  -9  -7   3  358.86   17.80
   0  -8   3    5.60    3.00
   0  -8  -3    6.90    3.90
   0  -8   3    9.10    2.80
   0  -8  -3    7.30    2.60
   0  -8  -3    4.60    2.30
   0  -8   3    9.30    4.20
   1  -8   3   38.30    5.10
   1  -8   3   33.00    6.60
  -1  -8  -3   29.30    6.40
  -1  -8  -3   31.70    4.40
  -1  -8  -3   36.60    5.50
   1  -8   3   31.70    4.40
   1  -8  -3   43.60    4.90
  -1  -8   3   43.00    5.80
  -1  -8   3   42.10    7.40
  -1  -8   3   39.80    5.70
   1  -8  -3   41.80    5.40
   1  -8  -3   42.60    7.90
   2  -8   3  190.08   11.50
   2  -8   3  181.48   15.70
  -2  -8  -3  173.78   13.40
   2   8  -3  186.58   12.90
  -2  -8  -3  189.88   11.70
  -2  -8  -3  174.98   15.70
  -2  -8  -3  199.78   13.50
  -2  -8   3  178.68   13.60
  -2  -8   3  148.59   14.60
  -2  -8   3  173.28   12.10
   2  -8  -3  166.38   11.30
   2  -8  -3  169.68   12.30
   2  -8  -3  157.78   15.20
  -3  -8  -3  303.67   18.20
   3   8  -3  299.87   17.30
  -3  -8  -3  279.27   21.30
   3  -8   3  284.87   21.00
  -3  -8  -3  290.37   16.60
  -3  -8   3  275.67   17.90
  -3  -8   3  297.77   16.30
  -3  -8   3  293.57   19.30
  -3  -8   3  273.37   21.50
   3  -8  -3  292.57   16.60
   3  -8  -3  292.97   17.30
   4  -8   3  709.03   40.40
  -4  -8  -3  718.53   34.90
   4   8  -3  696.03   35.10
  -4  -8  -3  738.83   36.20
  -4  -8   3  738.23   34.70
   4  -8  -3  716.83   35.00
  -4  -8   3  742.93   36.50
   4  -8  -3  733.53   35.50
  -5  -8  -3  202.38   12.50
   5   8  -3  204.68   13.10
  -5  -8   3  196.58   12.70
   5  -8  -3  199.88   12.80
   5  -8  -3  194.98   12.60
  -5  -8   3  187.58   12.20
   5   8   3  184.68   15.70
   6   8  -3  175.18   12.10
  -6  -8  -3  190.28   11.90
   6  -8  -3  192.18   12.10
   6  -8  -3  185.28   12.00
  -6  -8   3  194.68   11.90
   7   8  -3   18.50    3.50
  -7  -8  -3   26.00    3.70
  -7  -8   3   22.50    3.60
   7  -8  -3   21.70    3.70
  -8  -8  -3   17.30    4.10
   8   8  -3   15.10    3.00
   8   8   3   12.30    3.70
   8  -8  -3   14.90    3.00
  -8  -8   3   15.00    2.70
   0  -9  -3    4.60    3.80
   0  -9   3    7.00    3.40
   0  -9  -3    2.60    2.00
   0  -9   3    3.90    3.00
   0  -9   3    4.10    2.30
   0  -9  -3    4.50    2.10
   1  -9   3  310.47   21.80
  -1  -9  -3  287.07   21.70
   1   9  -3  288.77   17.60
  -1  -9  -3  301.37   16.70
  -1  -9  -3  267.97   18.30
  -1  -9  -3  294.37   18.50
   1  -9   3  301.77   17.60
   1  -9  -3  287.37   21.50
   1  -9  -3  286.17   16.40
   1  -9  -3  287.27   18.20
  -1  -9   3  280.87   21.20
  -1  -9   3  264.07   18.20
  -2  -9  -3  204.68   14.90
   2   9  -3  193.98   13.80
   2  -9   3  203.28   17.60
  -2  -9  -3  198.48   17.70
  -2  -9  -3  200.28   13.40
   2  -9   3  198.28   13.70
   2  -9  -3  244.58   15.40
  -2  -9   3  251.47   18.90
   2  -9  -3  253.77   14.00
  -2  -9   3  255.97   16.70
  -2  -9   3  246.88   15.90
   2  -9  -3  263.57   19.30
  -3  -9  -3  442.16   29.20
   3   9  -3  439.96   23.70
   3  -9   3  440.56   23.30
  -3  -9  -3  448.96   23.50
  -3  -9  -3  432.06   24.70
   3  -9   3  446.46   28.70
   3  -9  -3  478.55   24.90
  -3  -9   3  458.75   23.30
   3  -9  -3  477.05   23.70
  -3  -9   3  478.35   25.50
  -3  -9   3  464.65   29.00
  -4  -9  -3  283.27   14.40
  -4  -9   3  217.08   13.40
   4  -9  -3  209.88   14.00
  -4  -9   3  220.28   14.50
   4   9   3  214.18   17.40
   4  -9  -3  215.58   13.50
   5   9  -3  116.29    8.90
  -5  -9  -3  113.79    8.40
   5  -9  -3  114.99    8.60
   5   9   3  121.39   11.60
  -5  -9   3  113.99    8.30
  -5  -9   3  119.99    8.60
   6   9  -3  214.48   13.30
  -6  -9  -3  214.38   12.70
   6  -9  -3  234.68   13.00
  -6  -9   3  230.88   12.80
  -7  -9  -3   54.59    4.70
   7   9  -3   59.89    5.40
   7  -9  -3   51.09    4.80
  -7  -9   3   54.49    4.80
   0 -10  -3  819.92   42.80
   0 -10   3  832.32   42.60
   0 -10  -3  895.71   47.10
   0 -10  -3  926.21   40.90
   0 -10   3  876.61   46.70
   1 -10   3  269.47   20.40
  -1 -10  -3  272.07   17.60
  -1 -10  -3  237.48   17.40
  -1 -10  -3  277.97   15.80
   1 -10   3  261.07   17.00
  -1 -10  -3  275.47   20.80
   1 -10  -3  306.57   16.10
  -1 -10   3  284.37   18.20
   1 -10  -3  304.07   21.20
   1 -10  -3  280.17   17.60
  -1 -10   3  310.67   21.50
  -2 -10  -3   97.29    8.60
   2 -10   3   83.49    7.80
  -2 -10  -3   86.69    7.20
   2 -10   3   85.39   10.30
   2  10  -3   94.99    7.30
  -2 -10  -3   90.89   10.80
   2 -10  -3   76.59    7.80
   2 -10  -3   83.29    7.10
  -2 -10   3   87.29   10.60
   2 -10  -3   80.89   10.00
  -2 -10   3   84.59    8.40
   3  10  -3   49.00    5.10
  -3 -10  -3   47.10    5.10
  -3 -10  -3   47.50    5.70
   3 -10   3   51.09    7.80
  -4 -10  -3   31.70    4.00
   4  10  -3   35.40    4.40
   4 -10   3   32.00    6.00
  -4 -10  -3   32.50    4.10
  -4 -10   3   25.40    3.50
  -4 -10   3   28.80    4.10
   4  10   3   28.00    5.70
   4 -10  -3   26.20    3.90
  -5 -10  -3  790.32   36.10
   5  10  -3  737.43   36.30
  -5 -10   3  795.62   35.90
   5  10   3  776.82   39.60
   5 -10  -3  827.52   36.30
  -6 -10  -3  278.47   14.20
   6  10  -3  286.27   14.80
  -6 -10   3  269.87   14.10
   6 -10  -3  268.97   14.20
   0 -11  -3  931.51   48.70
   0 -11  -3  971.90   45.60
   0 -11   3  984.50   49.20
   0 -11  -3  938.11   43.30
  -1 -11  -3   67.49    6.10
  -1 -11  -3   68.59    7.10
   1 -11   3   70.29    9.20
  -1 -11   3   87.59    7.90
   1 -11  -3   87.39    9.60
   1 -11  -3   84.19    6.50
  -1 -11   3   96.69   10.50
  -2 -11  -3  261.57   15.10
  -2 -11  -3  268.67   14.10
   2 -11   3  258.97   18.30
  -2 -11   3  239.18   15.10
   2  11   3  240.58   17.40
  -2 -11   3  270.17   18.40
   2 -11  -3  239.58   13.90
   3 -11   3   28.10    5.90
  -3 -11  -3   29.50    3.60
  -3 -11  -3   30.50    3.80
  -3 -11   3   20.00    3.50
  -3 -11   3   21.80    4.90
   3  11   3   20.20    4.60
   3 -11  -3   24.60    3.40
   4 -11   3  371.56   22.40
  -4 -11  -3  391.46   19.30
   4  11   3  397.86   22.40
   4 -11  -3  408.86   19.40
  -4 -11   3  412.56   19.30
   0 -12   3  854.91   39.00
   0 -12  -3  850.61   39.10
   0 -12   3  871.71   42.00
   0 -12  -3  833.02   37.70
   0  12   3  834.12   40.80
  -1 -12  -3  147.59    9.00
   1 -12   3  161.18   12.30
  -1 -12  -3  152.98    9.70
   1  12   3  172.28   11.80
   1 -12  -3  170.28   10.40
   1 -12  -3  166.98    9.30
  -1 -12   3  159.18   10.00
  -1 -12   3  166.28   12.20
  -2 -12  -3  131.39    7.60
  -2 -12  -3  139.29    7.70
   2  12   3  107.49    9.80
  -2 -12   3  105.69    7.50
   0   0   4   92.19    8.10
   0   0   4  108.19    6.30
   0   0  -4  106.09    8.40
   0   0  -4  112.29    8.20
   0   0   4  111.59    6.60
   0   0  -4  117.69    7.60
   0   0   4  112.09    8.10
   1   0   4 1188.48   52.89
  -1   0   4 1130.59   49.70
   1   0   4 1049.70   48.80
   1   0  -4 1050.19   50.59
  -1   0  -4 1202.48   52.99
   1   0   4 1166.88   50.09
  -1   0   4 1230.18   53.29
  -1   0  -4 1169.38   51.19
   1   0  -4 1065.19   50.49
  -1   0   4 1143.59   49.40
   1   0  -4 1159.68   52.69
   1   0   4 1153.38   52.59
   1   0  -4 1175.38   52.39
  -1   0  -4 1121.29   51.59
   2   0   4 1621.44   73.39
  -2   0   4 1525.35   69.49
   2   0  -4 1617.34   72.49
  -2   0  -4 1579.64   71.09
  -2   0   4 1740.23   68.59
  -2   0  -4 1648.73   72.89
   2   0   4 1635.64   72.29
   2   0  -4 1569.74   70.59
   2   0  -4 1548.05   70.09
   2   0   4 1649.63   69.99
  -3   0  -4  139.59   11.00
   3   0   4  146.69   12.00
   3   0  -4  158.48   11.60
   3   0   4  149.79    9.00
   3   0  -4  145.79   10.00
   3   0   4  143.19   10.90
  -3   0   4  154.78    9.30
   3   0   4  160.38    9.40
   3   0   4  146.79   10.50
   3   0  -4  134.49    9.00
   4   0  -4  127.79    9.60
  -4   0  -4  120.39   10.60
   4   0   4  120.69   11.50
   4   0  -4  113.49   10.30
  -4   0   4  115.09    8.20
   4   0   4  113.19    8.00
   4   0   4  125.99   10.10
   4   0   4  106.79    8.10
   5   0  -4   10.20    2.50
   5   0   4   11.50    3.30
   5   0   4    8.20    3.60
   5   0  -4   11.40    3.50
   5   0   4   10.80    2.60
   5   0   4   11.00    3.40
  -5   0  -4   12.40    3.60
  -5   0   4    9.50    2.50
   5   0  -4   10.50    3.10
   6   0   4  483.45   28.40
   6   0   4  471.35   26.90
  -6   0  -4  445.06   29.40
   6   0  -4  498.65   27.80
   6   0  -4  488.75   25.80
   6   0   4  485.55   24.50
   6   0   4  488.95   25.10
   6   0  -4  472.15   30.00
  -6   0   4  492.25   25.50
   6   0   4  457.95   28.30
   7   0  -4 1926.31   86.99
   7   0   4 1845.82   82.89
   7   0  -4 1842.32   88.49
   7   0  -4 1924.71   83.39
   7   0   4 1912.31   87.49
   7   0  -4 1836.02   82.69
   7   0   4 1850.31   83.79
   7   0  -4 1981.10   86.29
   7   0   4 1856.61   89.49
   7   0   4 1955.30   85.39
   8   0   4  428.76   23.40
   8   0  -4  419.26   22.80
   8   0   4  424.06   24.40
   8   0   4  422.56   26.30
   8   0   4  441.86   22.70
   8   0  -4  433.26   25.30
   8   0  -4  432.56   26.40
   8   0  -4  419.66   22.40
   9   0  -4   60.39    6.40
   9   0  -4   60.99    6.10
   9   0   4   57.59    6.50
   9   0   4   57.69    7.00
   9   0   4   57.79    6.10
   9   0   4   61.29    8.50
   9   0  -4   59.19    8.10
   9   0  -4   54.39    7.20
  10   0   4   94.29    9.90
  10   0  -4   96.29    9.90
 -10   0   4   94.19    7.40
  10   0   4   99.09    7.80
  10   0   4   92.19    8.10
  10   0  -4   93.99    7.60
  11   0  -4    5.40    1.90
  11   0   4    2.60    1.80
  11   0   4    2.90    1.70
 -11   0  -4    4.00    2.30
 -11   0   4    3.10    1.70
   0   1  -4 2186.88   96.39
   0   1  -4 1893.11   94.49
   0  -1  -4 2116.29   95.79
   0  -1   4 2440.96   96.99
   0   1   4 2187.08   96.69
   0   1   4 2348.76   93.49
   0  -1   4 2192.68   93.59
   0  -1   4 2265.67   93.29
   0   1   4 2073.89   94.19
   0   1   4 2076.79   92.89
   0  -1  -4 2352.26   96.79
   0   1  -4 2196.38   95.39
   0   1  -4 2263.17   96.89
   1  -1   4   92.59    7.30
  -1   1   4   85.69    5.30
  -1   1   4   70.19    7.00
   1  -1   4   74.19    5.70
   1   1  -4   87.79    7.90
   1  -1   4   86.99    7.90
  -1  -1  -4   83.29    7.10
   1  -1   4   85.79    5.30
  -1  -1  -4   84.29    7.50
  -1   1   4   79.59    5.50
   1   1  -4   82.09    7.20
   1   1   4   86.69    5.80
  -1   1  -4   94.09    7.60
  -1  -1   4   87.99    5.60
   1  -1  -4   86.39    6.00
  -1  -1   4   90.89    7.80
  -1   1  -4   84.49    6.70
  -1  -1   4   86.09    5.80
   1  -1  -4   83.69    7.20
   1  -1  -4   82.69    5.00
   1  -1  -4   86.09    7.10
   1   1   4   81.89    4.90
   1   1   4   84.19    7.00
   1   1   4   88.19    7.70
   2   1  -4  149.39   11.30
   2  -1   4  150.68   12.10
   2   1  -4  147.59   10.20
   2   1  -4  148.39   10.40
  -2   1   4  152.28    8.30
  -2  -1  -4  150.58   10.00
   2   1  -4  167.18   12.20
   2  -1   4  155.38    9.60
   2  -1   4  154.58   10.80
  -2   1   4  146.79    9.20
  -2  -1   4  189.88    8.90
   2  -1  -4  204.58   10.50
  -2  -1   4  200.88   12.60
   3   1  -4  261.17   15.20
   3  -1   4  279.47   18.00
   3  -1   4  262.17   14.20
   3  -1   4  258.77   15.40
  -3  -1  -4  260.07   17.00
   3  -1   4  270.87   13.30
   3   1  -4  267.07   16.80
  -3   1   4  270.27   14.10
   3   1  -4  280.47   16.80
  -3  -1   4  246.48   13.90
   3  -1  -4  247.18   14.60
  -3   1  -4  237.88   15.40
   3  -1  -4  243.28   15.80
   3   1   4  255.17   17.00
   3   1   4  265.47   17.00
   3  -1  -4  242.08   13.70
   3   1   4  249.78   14.00
   3   1   4  260.87   15.30
   3   1   4  240.68   14.00
   4  -1   4  478.95   25.10
   4  -1   4  545.05   27.50
  -4   1   4  501.95   25.10
   4   1  -4  511.95   28.90
   4  -1   4  506.75   27.60
   4  -1   4  512.75   30.10
   4  -1   4  493.05   24.00
   4   1  -4  520.15   26.90
  -4  -1  -4  488.55   28.90
   4   1  -4  509.75   25.50
   4   1   4  472.15   25.00
   4  -1  -4  500.35   24.80
  -4  -1   4  496.95   25.10
   4   1   4  513.05   25.20
   4  -1  -4  525.55   26.40
   4   1   4  503.55   27.00
   4  -1  -4  523.05   28.30
   4   1   4  546.85   30.20
  -4   1  -4  501.75   27.40
  -5   1   4   88.69    7.60
   5   1  -4   90.59   10.40
   5  -1   4   92.39    7.00
  -5  -1  -4   80.29    9.80
   5  -1   4   90.39   10.80
   5   1  -4   93.89    8.00
   5  -1   4   88.39    7.60
   5   1  -4   99.89    9.10
   5  -1   4   95.29    9.60
   5   1   4  101.19    8.00
   5  -1  -4   99.29    7.80
   5  -1  -4   96.99    8.70
   5  -1  -4   98.59    9.80
  -5   1  -4  103.49    9.90
   5   1   4  108.49    8.10
   5   1   4  100.49   10.20
  -5  -1   4  105.89    8.10
   5   1   4   99.19    9.30
   5   1   4   96.29   11.00
  -6   1   4  346.37   20.10
   6  -1   4  324.87   22.70
   6   1  -4  324.67   21.70
  -6  -1  -4  316.67   24.60
   6  -1   4  331.77   19.00
   6   1  -4  333.57   20.40
   6  -1   4  331.67   19.00
   6  -1   4  318.17   21.00
   6  -1  -4  372.96   24.10
  -6  -1   4  372.76   20.40
   6   1   4  371.26   24.30
   6   1   4  378.96   23.10
   6  -1  -4  362.36   21.70
  -6   1  -4  345.67   25.80
   6   1   4  386.06   20.60
   6  -1  -4  400.26   20.70
   6  -1  -4  376.36   22.50
   6   1   4  368.86   21.90
   6   1   4  394.76   19.70
   7   1  -4  185.58   15.70
   7  -1   4  190.38   12.60
   7  -1   4  193.18   12.90
   7  -1   4  195.18   15.00
   7   1  -4  194.68   11.90
   7  -1   4  193.38   12.10
   7   1  -4  196.48   14.20
   7   1  -4  204.58   12.60
   7  -1   4  198.78   16.80
   7  -1  -4  203.48   13.90
   7   1   4  186.68   11.90
   7  -1  -4  188.08   12.20
   7  -1  -4  178.58   11.60
   7   1   4  180.88   14.70
   7   1   4  190.38   12.60
   7  -1  -4  180.38   15.10
   7  -1  -4  178.88   14.40
   7   1   4  184.38   15.90
   7   1   4  193.98   13.70
   8   1  -4 1377.36   61.09
   8   1  -4 1358.46   61.69
   8  -1   4 1336.87   61.19
   8  -1   4 1346.87   62.19
   8   1  -4 1335.77   64.39
   8  -1   4 1354.96   65.79
   8  -1   4 1346.57   63.09
   8  -1  -4 1382.56   65.99
   8  -1  -4 1372.26   64.19
   8  -1  -4 1332.27   60.99
   8  -1  -4 1356.96   61.59
   8   1   4 1357.26   65.69
   8   1   4 1370.36   62.19
   8   1   4 1360.26   60.99
   8   1   4 1329.77   63.89
   9   1  -4  108.69    8.70
   9  -1   4  113.59    8.90
   9  -1   4  107.59    9.70
   9  -1   4  118.29   11.60
   9  -1   4  114.99    9.40
   9   1  -4  113.09    9.30
   9   1   4  113.99    8.80
   9  -1  -4  120.09    9.00
   9  -1  -4  113.59    9.30
   9   1   4  116.39   10.70
   9   1   4  125.49    9.80
   9  -1  -4  119.49   11.70
   9  -1  -4  114.99   10.60
   9   1   4  117.69   11.50
  10  -1   4  222.28   16.00
  10  -1   4  225.88   13.40
  10   1  -4  217.48   13.10
  10  -1   4  217.88   13.70
  10  -1  -4  204.28   13.30
  10   1   4  219.58   13.90
 -10  -1   4  212.58   12.90
  10  -1  -4  218.58   13.20
  10   1   4  207.78   15.70
  10  -1  -4  217.48   16.10
  11  -1   4  143.39   11.50
  11  -1   4  151.78   10.00
  11   1  -4  151.98    9.70
 -11  -1  -4  153.08   11.50
 -11   1   4  144.79    9.40
 -11  -1   4  169.28    9.80
  11   1   4  172.28   10.60
  11   1   4  168.38    9.70
  11  -1  -4  179.18   10.10
  11  -1  -4  171.68   12.10
   0  -2   4 1031.10   46.70
   0  -2   4  962.70   44.20
   0   2  -4 1044.10   45.80
   0   2   4  905.61   43.30
   0  -2  -4  957.00   43.30
   0   2  -4 1019.60   47.60
   0   2  -4  965.40   46.60
   0  -2   4  992.80   44.00
   0  -2  -4 1006.60   46.50
   0   2   4 1010.30   44.00
   0   2   4 1020.20   43.80
  -1   2   4 1371.96   57.19
  -1   2   4 1207.58   57.29
   1  -2   4 1281.57   62.19
   1   2  -4 1342.17   61.49
  -1  -2  -4 1241.98   57.39
   1  -2   4 1409.26   59.89
   1  -2   4 1314.67   58.19
  -1  -2  -4 1173.08   59.99
  -1  -2  -4 1334.07   60.99
   1   2  -4 1393.56   61.29
   1   2  -4 1309.17   59.09
   1  -2  -4 1387.46   57.39
  -1   2  -4 1318.07   59.89
  -1  -2   4 1368.86   57.59
  -1   2  -4 1290.07   61.49
   1   2   4 1252.57   60.99
   1   2   4 1353.26   59.29
  -1  -2   4 1183.58   60.09
  -1   2  -4 1435.26   59.89
   1   2   4 1407.66   56.79
  -1  -2   4 1339.77   57.89
   1  -2  -4 1334.27   60.39
   1   2   4 1348.27   57.79
  -2   2   4  363.36   17.00
  -2  -2  -4  390.46   18.40
   2   2  -4  344.37   21.40
   2  -2   4  385.86   17.40
   2   2  -4  393.76   21.10
   2  -2   4  407.86   19.00
  -2   2   4  388.76   18.20
   2  -2   4  382.16   19.50
   2   2  -4  388.96   19.60
   2  -2   4  378.76   22.40
   2   2   4  345.77   20.20
   2  -2  -4  325.37   17.90
   2   2   4  349.07   21.00
  -2  -2   4  323.97   17.30
  -2   2  -4  363.46   19.60
   2   2   4  333.17   18.00
  -2   2  -4  318.67   19.10
  -2  -2   4  336.47   18.10
  -2  -2   4  345.77   21.10
   2  -2  -4  341.87   20.00
   3  -2   4  831.42   38.70
   3   2  -4  894.11   40.20
   3  -2   4  842.12   36.50
   3   2  -4  851.51   43.00
   3  -2   4  884.11   39.70
  -3   2   4  853.91   38.40
  -3  -2  -4  895.41   43.20
   3  -2   4  859.01   43.80
  -3  -2   4  791.82   38.30
  -3   2  -4  861.51   40.50
   3   2   4  807.62   39.20
   3  -2  -4  799.72   37.70
  -3   2  -4  853.01   39.70
   3   2   4  724.23   41.80
   3  -2  -4  771.02   40.30
   3   2   4  803.22   38.60
   3   2   4  819.52   38.40
   3   2   4  851.01   42.20
   4   2  -4 1602.04   72.99
   4  -2   4 1495.55   68.69
   4   2  -4 1495.85   74.39
  -4  -2  -4 1423.66   75.49
   4  -2   4 1643.54   77.79
   4  -2   4 1534.75   71.69
  -4   2   4 1557.34   70.79
   4  -2   4 1474.95   70.89
   4   2   4 1628.94   71.59
   4   2   4 1650.13   70.99
   4   2   4 1740.83   76.89
  -4  -2   4 1779.12   71.59
   4  -2  -4 1639.04   73.89
   4  -2  -4 1640.34   71.79
  -4   2  -4 1692.43   72.79
   4   2   4 1672.23   72.89
   4  -2  -4 1596.34   70.19
   5  -2   4   79.19    8.80
   5  -2   4   80.59   10.70
   5  -2   4   71.19    7.00
   5  -2   4   76.29    7.60
  -5  -2  -4   79.49   10.30
   5   2  -4   96.89    8.90
  -5   2   4   79.49    7.20
   5  -2   4   84.29    6.10
   5   2   4   82.89   10.40
   5   2   4   86.79    7.40
   5  -2  -4   84.79    6.90
   5   2   4   90.39    7.80
   5   2   4   77.69    9.60
  -5  -2   4   82.69    7.40
   5  -2  -4   85.19    8.90
   5   2   4   90.49    8.70
  -5   2  -4   86.59    8.50
   5  -2  -4   88.29    8.30
   6  -2   4  457.55   27.40
   6   2  -4  414.76   25.50
  -6   2   4  461.45   23.80
   6  -2   4  478.85   22.30
   6  -2   4  429.56   24.80
   6  -2   4  451.45   22.70
   6   2   4  401.36   24.60
   6  -2  -4  413.26   25.10
   6  -2  -4  424.26   23.00
   6   2   4  439.96   22.40
   6   2   4  402.46   25.40
  -6  -2   4  418.96   23.50
   6   2   4  406.96   23.60
   6  -2  -4  406.46   24.70
   7   2  -4  194.48   12.10
   7  -2   4  187.18   12.30
   7  -2   4  188.68   14.70
   7  -2   4  187.18   11.80
   7  -2   4  200.08   12.40
   7   2  -4  189.68   11.50
   7  -2  -4  170.78   11.20
   7   2   4  168.38   12.00
   7   2   4  171.38   14.20
   7  -2  -4  178.48   11.90
   7  -2  -4  167.48   17.20
   7  -2  -4  172.78   14.30
   7  -2  -4  172.68   12.80
   7   2   4  170.78   13.30
   8  -2   4  739.33   36.30
   8  -2   4  736.13   40.20
   8  -2   4  769.52   37.40
   8  -2   4  774.12   37.50
   8   2  -4  741.83   36.10
   8   2   4  783.82   39.90
   8   2   4  766.92   37.30
   8   2   4  749.03   40.30
   8  -2  -4  761.32   38.80
   8  -2  -4  773.12   41.00
  -8  -2   4  752.92   36.00
   8  -2  -4  743.23   36.60
   8  -2  -4  733.63   36.10
   9  -2   4  675.33   33.10
   9  -2   4  650.73   33.80
   9   2  -4  703.63   33.30
   9  -2   4  702.73   37.20
   9  -2   4  646.14   34.20
   9  -2  -4  681.03   33.50
   9  -2  -4  687.23   37.90
  -9  -2   4  682.13   32.90
   9   2   4  669.83   36.90
   9   2   4  678.13   34.10
   9  -2  -4  713.73   33.30
   9  -2  -4  677.53   35.70
  10  -2   4   57.89    7.60
  10  -2   4   59.69    6.00
  10   2  -4   65.49    6.00
  10  -2   4   58.79    6.30
 -10  -2  -4   58.49    7.60
 -10  -2   4   82.29    6.50
  10  -2  -4   80.89    9.00
  10   2   4   87.79    7.30
  10  -2  -4   81.59    6.90
  10  -2  -4   85.09    6.70
 -11   2   4   41.30    4.00
  11   2  -4   42.30    4.00
 -11  -2  -4   38.90    5.50
  11  -2   4   37.90    5.30
  11  -2   4   39.80    4.00
 -11  -2   4   32.80    3.80
  11   2   4   30.90    4.00
  11  -2  -4   35.20    3.80
  11  -2  -4   32.60    5.40
   0   3   4 2583.34  114.19
   0   3  -4 2714.63  117.99
   0  -3   4 2752.92  117.29
   0   3  -4 2746.83  116.39
   0  -3  -4 2842.12  114.79
   0  -3   4 2451.25  113.99
   0  -3   4 2604.04  114.79
   0   3  -4 2681.23  119.39
   0  -3   4 2631.54  114.99
   0   3   4 2883.41  114.79
   1  -3   4 1256.77   55.09
   1  -3   4 1299.67   56.19
   1   3  -4 1291.87   57.79
   1  -3   4 1329.97   58.29
   1   3  -4 1368.86   61.09
  -1   3   4 1312.67   55.79
   1   3  -4 1260.07   60.39
  -1   3   4 1311.17   56.29
   1  -3   4 1282.77   56.69
  -1  -3  -4 1292.47   59.59
  -1  -3   4 1275.77   59.39
  -1   3  -4 1322.87   58.29
   1  -3  -4 1228.18   55.79
   1   3   4 1176.28   57.29
  -1   3  -4 1197.38   60.79
  -1  -3   4 1373.46   56.69
   1   3   4 1185.88   56.19
   1   3   4 1327.57   55.39
  -1  -3   4 1253.67   56.39
   1  -3  -4 1296.97   58.79
  -1  -3   4 1295.07   56.29
  -1   3  -4 1079.19   57.59
   2  -3   4  132.79   12.60
   2   3  -4  134.49    8.80
  -2   3   4  135.79    9.10
   2   3  -4  141.39   10.20
   2  -3   4  133.19    9.40
   2  -3   4  128.69    7.60
   2  -3   4  129.09    9.60
   2  -3   4  130.99    8.70
  -2   3   4  129.69    8.30
   2   3  -4  130.09   11.50
   2   3  -4  120.59   11.70
  -2   3  -4  165.98   13.20
   2  -3  -4  160.78    9.00
  -2  -3   4  158.88    9.80
   2   3   4  164.48    9.80
  -2  -3   4  160.38    9.80
  -2   3  -4  155.38   10.80
   2   3   4  170.58   11.80
  -2   3  -4  160.58   10.50
  -2  -3   4  162.48    9.20
   2  -3  -4  153.48   11.10
   3  -3   4 1851.11   83.59
   3  -3   4 1920.21   83.89
   3  -3   4 1925.51   89.89
  -3   3   4 1965.70   83.59
   3   3  -4 2043.20   85.59
   3  -3  -4 1862.01   82.39
  -3   3  -4 1899.91   85.59
  -3  -3   4 1917.41   83.99
   3  -3  -4 1991.40   86.29
   3   3   4 1930.11   83.59
   3   3   4 1879.61   87.69
  -3   3  -4 1758.42   83.69
   4   3  -4  510.95   26.50
   4  -3   4  457.35   24.30
   4  -3   4  459.05   29.60
   4  -3   4  473.15   24.30
   4   3  -4  476.65   29.40
  -4   3   4  466.75   24.20
  -4  -3   4  463.65   24.50
   4  -3  -4  483.05   26.40
  -4   3  -4  501.65   26.80
  -4   3  -4  446.26   24.30
   4   3   4  454.35   24.10
   4  -3  -4  458.75   23.10
   4   3   4  456.95   28.60
   5  -3   4  370.76   20.80
   5  -3   4  380.96   26.70
  -5   3   4  401.36   21.00
   5   3  -4  393.16   22.80
   5   3  -4  370.56   24.70
   5  -3   4  376.66   20.60
   5  -3  -4  371.16   22.90
  -5  -3   4  358.96   20.70
   5  -3  -4  366.96   19.60
   5   3   4  355.56   20.30
  -5   3  -4  350.26   21.30
   5   3   4  346.87   25.30
  -5   3  -4  373.36   23.20
   6  -3   4    4.90    2.20
   6   3  -4    6.90    2.50
   6  -3   4    6.40    1.80
   6  -3   4    6.10    2.50
   6   3  -4    5.90    3.10
  -6   3   4    8.70    3.00
   6   3   4   10.30    2.90
  -6  -3   4    2.90    1.90
   6   3   4    3.30    2.50
   6  -3  -4    3.60    1.90
   6  -3  -4    3.80    2.40
  -6  -3   4    5.90    2.60
   6  -3  -4    4.80    2.30
   7  -3   4   35.70    4.60
   7  -3   4   37.50    5.10
   7  -3   4   37.10    6.40
   7   3  -4   42.60    4.80
   7   3  -4   38.30    4.90
   7  -3   4   36.10    4.30
   7  -3  -4   31.50    4.50
   7  -3  -4   31.50    4.20
   7   3   4   30.20    4.50
   7  -3  -4   25.90    4.30
  -7  -3   4   26.10    4.20
   7  -3  -4   26.50    5.50
   7   3   4   26.20    5.80
   8   3  -4 1198.88   54.59
   8  -3   4 1146.39   55.59
   8  -3   4 1199.78   58.79
   8  -3   4 1200.58   55.39
   8  -3   4 1172.48   54.79
  -8  -3   4 1218.58   54.79
   8  -3  -4 1193.58   56.99
   8  -3  -4 1266.07   60.19
   8  -3  -4 1206.48   55.29
   8  -3  -4 1209.08   54.79
   8   3   4 1224.58   55.99
   9  -3   4   71.59    6.70
   9  -3   4   69.39    6.80
   9  -3   4   73.19    8.60
   9  -3   4   65.09    6.60
   9   3  -4   69.39    6.20
  -9  -3  -4   70.59    8.30
   9  -3  -4   56.19    8.10
   9   3   4   55.69    6.40
   9  -3  -4   53.19    6.30
  -9  -3   4   56.99    5.90
   9  -3  -4   49.99    6.60
   9  -3  -4   56.19    5.80
 -10  -3  -4  110.49    9.90
  10  -3   4  113.89   10.00
  10  -3   4  112.59    8.10
  10   3  -4  111.19    7.60
  10  -3   4  111.19    8.30
  10  -3  -4   92.29    7.40
  10  -3  -4   92.79    9.90
  10  -3  -4   95.49    7.90
 -10  -3   4  101.89    7.70
  10   3   4  100.59    8.20
  11  -3   4  271.27   14.70
  11  -3  -4  288.87   14.70
  11  -3  -4  289.27   15.00
 -11  -3   4  294.07   14.70
   0  -4  -4 2013.30   90.09
   0  -4   4 1975.80   87.19
   0  -4   4 1942.61   85.89
   0  -4   4 1844.12   86.79
   0  -4   4 2030.90   89.19
   0   4   4 1959.70   86.09
   0   4  -4 2198.08   90.99
   0  -4  -4 1879.11   86.29
   0   4  -4 1999.70   92.09
   0   4  -4 1999.90   88.19
   0   4   4 2095.79   86.79
  -1   4   4  244.18   13.60
  -1   4   4  227.48   13.60
   1   4  -4  237.48   14.80
   1  -4   4  242.68   14.00
   1  -4   4  246.28   15.00
   1   4  -4  240.38   17.50
   1  -4   4  231.58   12.70
   1   4  -4  216.78   16.60
  -1  -4  -4  236.88   16.50
  -1  -4  -4  231.98   13.80
   1  -4   4  242.58   14.40
   1   4   4  273.97   14.50
   1  -4  -4  228.38   13.40
   1  -4  -4  240.98   16.10
  -1  -4   4  237.68   13.70
  -1  -4   4  250.07   14.20
  -1   4  -4  255.17   15.80
  -1   4  -4  276.07   18.70
  -1  -4   4  273.37   17.20
  -1  -4   4  281.47   14.90
  -1   4  -4  242.98   15.10
  -2   4   4  530.25   26.80
   2  -4   4  497.65   24.20
   2   4  -4  509.25   30.80
   2   4  -4  528.85   27.90
   2  -4   4  524.65   27.20
   2   4  -4  550.24   26.50
   2   4  -4  522.85   31.40
  -2   4   4  521.15   25.70
   2  -4   4  523.05   26.30
   2  -4   4  516.05   27.20
  -2   4  -4  557.04   28.50
  -2  -4   4  578.44   27.70
  -2   4  -4  548.35   27.70
   2  -4  -4  543.45   28.90
   2   4   4  546.55   29.60
   2  -4  -4  505.85   25.70
  -2  -4   4  542.85   26.90
  -2   4  -4  598.94   32.90
  -2  -4   4  567.74   31.00
   2   4   4  583.54   27.30
   3  -4   4 2883.81  124.79
  -3   4   4 2935.81  124.19
   3   4  -4 2994.50  132.89
   3  -4   4 2825.32  123.69
   3   4  -4 2881.41  125.69
  -3   4  -4 2942.31  124.39
   3  -4  -4 2812.22  122.59
   3   4   4 2907.71  124.19
  -3   4  -4 2891.81  130.79
  -3  -4   4 2767.02  124.39
   3  -4  -4 2840.12  126.09
   3   4   4 2808.72  128.79
  -3  -4   4 2949.60  124.69
  -3   4  -4 2807.72  125.89
   4  -4   4 3354.86  150.78
   4   4  -4 3281.97  144.09
  -4   4   4 3375.66  142.09
   4  -4   4 3196.78  140.79
   4  -4   4 3375.16  142.89
   4   4   4 3505.05  149.19
  -4   4  -4 3381.06  144.69
  -4   4  -4 3230.98  141.79
   4  -4  -4 3328.77  140.49
   4   4   4 3247.48  141.99
  -4   4  -4 3066.19  148.49
  -4  -4   4 3295.67  142.59
   4  -4  -4 3215.08  144.29
  -5  -4  -4  107.09    9.90
   5  -4   4  119.19    8.90
  -5   4   4  105.09    9.20
   5   4  -4  116.59   10.70
   5   4  -4  111.79    8.20
   5   4   4  115.89    8.50
  -5   4  -4  113.09   11.10
   5  -4  -4  116.59    8.50
   5  -4  -4  105.69   10.00
  -5  -4   4  117.19    9.80
   6   4  -4  290.77   21.30
   6  -4   4  318.67   18.30
   6  -4   4  319.67   18.80
  -6   4   4  307.37   19.90
   6   4  -4  295.27   18.20
  -6  -4  -4  317.07   20.50
   6  -4  -4  358.56   18.70
   6  -4  -4  368.46   22.10
  -6   4  -4  349.17   23.40
  -6  -4   4  351.26   18.10
  -6  -4   4  373.16   24.10
   6  -4  -4  370.56   19.50
   6   4   4  376.76   19.20
   7  -4   4  262.87   16.70
   7   4  -4  286.57   16.70
  -7  -4  -4  283.97   18.90
   7  -4   4  288.27   16.60
   7  -4  -4  289.07   17.60
   7  -4  -4  280.77   16.50
   7   4   4  298.07   17.10
   7  -4  -4  286.17   19.70
  -7  -4   4  285.87   16.10
   8  -4   4   19.60    3.30
   8  -4   4   14.30    3.80
  -8  -4  -4   15.80    5.00
   8  -4   4   19.80    4.20
   8   4  -4   17.70    3.80
   8   4   4   19.30    4.00
   8  -4  -4   18.70    5.00
   8  -4  -4   15.00    3.30
  -8  -4   4   16.30    3.50
   8  -4  -4   18.60    4.00
   8  -4  -4   17.10    3.80
  -9  -4  -4  359.86   22.10
   9  -4   4  363.76   20.10
   9  -4   4  365.36   19.60
   9  -4  -4  368.76   20.00
  -9  -4   4  369.36   19.60
   9   4   4  362.06   20.30
   9  -4  -4  363.86   19.30
   9  -4  -4  369.96   23.60
 -10  -4  -4  521.15   28.50
  10  -4   4  540.65   26.20
  10  -4  -4  548.25   26.60
 -10  -4   4  558.84   26.30
  10  -4  -4  548.05   26.00
  10  -4  -4  539.75   29.90
  10   4   4  546.85   27.10
   0  -5  -4  765.92   36.00
   0  -5   4  767.82   35.30
   0  -5   4  732.63   36.30
   0  -5   4  745.03   36.50
   0   5   4  757.02   36.00
   0   5  -4  767.92   36.60
   0   5  -4  790.32   40.30
   0   5  -4  735.83   36.90
   0   5  -4  768.42   41.80
   0  -5   4  706.53   38.20
   0  -5  -4  753.92   39.60
   0   5   4  755.72   35.70
  -1   5   4  585.64   28.30
  -1  -5  -4  629.04   33.10
  -1  -5  -4  647.64   29.00
   1  -5   4  627.24   30.50
   1   5  -4  611.74   33.60
   1  -5   4  588.84   29.40
  -1   5   4  647.84   28.90
   1   5  -4  589.14   28.80
   1   5  -4  585.04   33.70
   1  -5   4  600.74   27.10
   1  -5   4  582.94   28.80
   1   5  -4  583.94   29.50
  -1   5  -4  556.64   33.80
  -1   5  -4  514.65   29.20
  -1  -5   4  557.64   28.30
   1   5   4  543.15   27.70
  -1  -5   4  500.05   30.90
   1  -5  -4  503.95   27.60
  -1   5  -4  536.15   30.70
   1  -5  -4  509.85   30.70
   1   5   4  546.75   28.50
  -1  -5   4  538.35   28.90
   2   5  -4  206.88   17.70
   2  -5   4  211.88   11.80
   2  -5   4  226.48   14.10
  -2  -5  -4  253.37   14.50
   2   5  -4  230.88   18.50
   2  -5   4  212.48   14.50
  -2   5   4  226.68   14.10
   2  -5   4  229.38   14.30
   2   5  -4  223.88   14.80
   2   5  -4  243.48   14.40
  -2  -5   4  219.38   14.50
   2  -5  -4  226.38   15.70
  -2   5  -4  236.98   15.50
   2   5   4  221.88   14.10
  -2   5  -4  233.58   18.70
  -2  -5   4  222.68   17.30
  -2   5  -4  215.38   14.80
   2  -5  -4  237.58   13.30
  -2  -5   4  236.48   14.30
   3  -5   4 2091.99   90.09
  -3   5   4 2194.88   89.39
   3   5  -4 1947.61   98.29
   3   5  -4 2081.39   90.69
   3  -5   4 1983.50   87.79
   3  -5  -4 1956.00   90.99
  -3   5  -4 1967.30   90.79
   3  -5  -4 2029.90   87.49
  -3  -5   4 2117.19   89.79
  -3   5  -4 1949.51   95.49
  -3  -5   4 1879.51   89.09
  -3   5  -4 1865.91   88.49
   3   5   4 2020.80   89.19
   4   5  -4  112.09   10.30
   4   5  -4  108.29    8.90
  -4   5   4  112.19    9.40
   4  -5   4  117.09    8.80
  -4  -5  -4  101.79    9.60
  -4   5  -4  121.79   11.00
   4  -5  -4  112.69    8.30
   4  -5  -4  111.19   10.00
  -4   5  -4  110.99    9.20
  -4  -5   4  117.49    9.80
   5   5  -4 3596.04  156.18
   5   5  -4 3708.43  162.08
  -5   5   4 3585.04  158.28
  -5  -5  -4 3645.34  159.18
   5  -5   4 3721.93  156.88
   5  -5  -4 3681.43  159.78
   5   5   4 3493.35  160.08
   5   5   4 3201.88  155.38
  -5  -5   4 3673.93  158.88
   5  -5  -4 3830.42  156.48
  -5  -5   4 3718.03  155.48
  -5   5  -4 3749.72  161.18
   5  -5  -4 3915.71  156.28
  -5  -5   4 3682.33  155.98
   6  -5   4  412.46   21.60
  -6  -5  -4  421.36   24.70
   6  -5   4  406.06   22.50
   6   5  -4  402.36   22.20
  -6  -5   4  436.46   21.70
   6  -5  -4  421.86   25.40
   6  -5  -4  406.76   21.90
   6  -5  -4  420.96   22.50
   6   5   4  395.26   22.00
   7  -5   4  735.23   39.50
   7  -5   4  797.52   38.90
   7   5  -4  811.82   39.70
  -7  -5  -4  832.02   42.50
   7   5   4  846.62   40.00
  -7  -5   4  877.01   39.20
   7  -5  -4  873.51   39.90
   7  -5  -4  826.02   43.40
   7  -5  -4  848.52   40.50
   8  -5   4  197.88   13.00
  -8  -5  -4  189.28   14.80
   8  -5   4  206.08   12.60
   8   5  -4  184.88   12.60
   8  -5  -4  206.18   15.90
   8  -5  -4  204.78   13.00
  -8  -5   4  207.08   12.50
   8   5   4  205.38   13.20
   8  -5  -4  190.08   13.50
  -9  -5  -4  196.58   13.80
   9   5  -4  185.88   12.10
   9  -5   4  201.38   11.90
  -9  -5   4  196.08   11.80
   9   5   4  202.38   12.70
   9  -5  -4  188.38   12.20
   9  -5  -4  187.98   14.90
  10  -5   4   20.90    3.20
  10  -5  -4   21.10    3.20
  10   5   4   22.80    3.50
 -10  -5   4   22.70    3.10
  10  -5  -4   21.00    4.40
   0   6  -4    8.10    2.90
   0   6   4   10.70    2.80
   0   6   4   10.40    3.20
   0  -6  -4   10.50    3.60
   0  -6   4    8.40    2.40
   0  -6  -4    8.50    2.40
   0  -6   4   11.60    3.50
   0  -6   4    8.40    2.80
   0   6  -4    9.70    3.50
  -1   6   4   49.50    5.80
   1   6  -4   43.10    7.50
  -1   6   4   52.79    6.10
   1  -6   4   50.09    6.40
   1  -6   4   45.40    4.80
  -1  -6  -4   66.79    8.70
   1  -6   4   49.80    6.10
  -1  -6  -4   41.00    5.30
   1   6  -4   49.40    6.30
  -1  -6   4   57.29    6.10
  -1  -6   4   57.09    6.40
   1   6   4   59.09    6.00
  -1  -6   4   60.49    6.00
  -1  -6   4   62.39    8.10
  -1   6  -4   63.39    7.90
   1  -6  -4   60.29    7.80
   1  -6  -4   67.59    6.20
  -2  -6  -4  650.83   31.40
   2  -6   4  625.74   28.40
   2  -6   4  624.04   31.30
   2  -6   4  653.13   30.10
   2   6  -4  633.84   32.50
  -2   6   4  653.63   31.40
   2   6  -4  616.84   37.50
  -2  -6   4  543.05   29.40
   2  -6  -4  606.54   29.90
  -2  -6   4  554.34   30.60
  -2  -6   4  552.34   35.00
  -2  -6   4  549.95   31.10
   2  -6  -4  557.04   31.00
  -3   6   4  239.88   15.80
   3  -6   4  251.57   14.90
   3  -6  -4  240.98   16.40
  -3  -6   4  249.08   16.40
   3  -6  -4  246.88   14.60
  -3  -6   4  235.98   16.10
   3  -6  -4  238.58   14.40
  -4  -6  -4 1008.00   46.70
  -4  -6  -4 1042.70   47.60
   4  -6   4 1032.80   52.39
  -4  -6  -4  900.61   49.40
  -4   6   4 1018.30   49.60
   4   6  -4 1095.79   48.50
   4  -6   4 1023.00   47.90
   4  -6  -4 1033.90   47.20
  -4  -6   4 1044.10   46.70
  -4  -6   4 1004.40   48.00
  -4  -6   4 1088.69   50.49
   4  -6  -4 1053.99   47.70
   4  -6  -4 1009.70   50.29
   4   6   4 1024.40   51.89
   5   6  -4   32.40    4.60
   5  -6   4   35.50    5.00
  -5  -6  -4   32.30    6.40
   5  -6  -4   35.20    4.60
  -5  -6   4   29.40    4.50
  -5  -6   4   28.80    4.10
   5  -6  -4   29.30    4.20
   5   6   4   29.80    6.40
   5  -6  -4   28.10    5.50
   6  -6   4  511.25   26.90
  -6  -6  -4  524.55   33.40
   6   6  -4  553.64   27.30
   6   6   4  556.94   27.00
  -6  -6   4  504.55   25.80
   6  -6  -4  500.85   29.70
   6  -6  -4  485.15   26.30
   6  -6  -4  502.45   26.90
   7   6  -4   64.29    6.70
   7  -6  -4   60.79    6.40
  -7  -6   4   61.29    6.00
   7  -6  -4   60.69    8.00
   7  -6  -4   65.39    6.70
   8   6  -4   79.49    7.40
  -8  -6   4   93.39    7.30
   8   6   4   91.69    7.80
   8  -6  -4   96.09    9.80
   8  -6  -4   93.29    7.80
   9   6  -4   43.70    4.80
   9  -6  -4   47.60    5.10
   9   6   4   45.40    5.00
  -9  -6   4   42.20    4.60
   9  -6  -4   42.70    6.20
 -10  -6   4   54.39    4.40
   0  -7  -4  692.63   39.50
   0  -7   4  714.63   39.40
   0  -7  -4  750.62   34.50
   0  -7   4  740.33   35.50
   0  -7   4  706.63   35.00
   0   7   4  746.83   36.50
   0  -7  -4  691.83   36.10
   0  -7   4  742.33   37.50
   1  -7   4   17.50    3.20
  -1  -7  -4   19.50    3.80
  -1  -7  -4   17.50    3.40
   1  -7   4   13.90    4.60
   1  -7   4   16.20    4.10
  -1   7   4   20.40    4.30
   1  -7   4   13.30    3.70
  -1  -7  -4   25.40    5.60
   1  -7  -4   20.30    3.70
   1  -7  -4   21.90    5.60
  -1  -7   4   22.20    4.20
  -1  -7   4   19.90    5.30
  -1  -7   4   23.90    4.60
   1  -7  -4   21.60    3.70
  -1  -7   4   21.00    3.90
  -2  -7  -4  627.74   32.70
  -2   7   4  589.44   32.70
  -2  -7  -4  609.94   31.80
   2  -7   4  600.54   35.30
   2  -7   4  633.94   30.00
   2  -7   4  618.94   30.80
   2  -7   4  581.64   32.30
  -2  -7  -4  609.14   29.90
  -2  -7  -4  622.54   35.80
   2  -7  -4  593.24   32.60
   2  -7  -4  666.53   31.70
   2  -7  -4  639.34   30.20
  -2  -7   4  613.74   35.10
  -2  -7   4  626.14   33.70
  -2  -7   4  633.94   32.70
  -2  -7   4  622.64   31.10
   3  -7   4  324.67   22.90
   3  -7   4  337.47   19.10
   3   7  -4  311.57   19.40
  -3  -7  -4  327.47   19.60
  -3  -7  -4  323.47   18.30
   3  -7  -4  349.96   21.10
   3  -7  -4  345.37   18.50
  -3  -7   4  332.57   21.10
  -3  -7   4  349.96   20.00
   3  -7  -4  368.96   19.70
   4  -7   4   92.79    8.30
   4   7  -4   91.89    8.30
  -4  -7  -4   92.49    7.70
  -4  -7  -4   96.79    8.20
   4  -7   4   94.79   11.00
  -4  -7   4   99.19    8.90
   4   7   4   92.39   10.60
  -4  -7   4   98.89    7.60
   4  -7  -4   96.29    8.10
   4  -7  -4   91.39    9.50
   4  -7  -4  102.99    8.10
   5  -7   4  229.68   18.60
  -5  -7  -4  233.88   14.70
   5  -7   4  243.28   15.60
   5   7  -4  261.47   15.80
   5  -7  -4  264.87   15.80
  -5  -7   4  263.87   15.60
   5  -7  -4  265.67   15.50
  -5  -7   4  274.57   15.10
   5  -7  -4  260.27   17.90
   5   7   4  270.87   19.30
  -6  -7  -4  663.43   32.20
   6   7  -4  654.73   32.70
   6  -7  -4  643.94   32.90
   6  -7  -4  651.63   32.30
  -6  -7   4  672.83   31.90
   6  -7  -4  664.23   35.60
   7   7  -4  129.29   10.00
   7  -7  -4  146.79   10.10
   7  -7  -4  142.19   12.20
  -7  -7   4  147.09    9.70
   8   7  -4  175.18   11.20
   8  -7  -4  169.88   13.00
  -8  -7   4  164.78   10.40
   8  -7  -4  171.48   10.90
   9  -7  -4  178.08   10.20
  -9  -7   4  169.58    9.90
   0  -8  -4   41.50    7.40
   0  -8  -4   35.50    5.30
   0  -8   4   37.90    5.40
   0  -8  -4   39.40    4.90
   0  -8   4   43.00    5.50
   0  -8   4   41.20    7.30
  -1  -8  -4 1410.06   65.89
  -1  -8  -4 1523.05   66.79
   1  -8   4 1489.75   64.89
  -1  -8  -4 1480.35   63.79
   1  -8   4 1363.06   69.39
  -1  -8  -4 1382.56   70.09
   1  -8   4 1361.56   63.99
   1  -8  -4 1381.26   65.49
   1  -8  -4 1402.46   63.39
   1  -8  -4 1431.46   70.09
  -1  -8   4 1376.86   69.59
  -1  -8   4 1376.06   65.79
  -1  -8   4 1441.06   64.59
   2  -8   4  407.56   22.80
   2  -8   4  421.66   22.70
   2  -8   4  410.86   27.20
   2   8  -4  424.06   23.90
  -2  -8  -4  427.16   24.10
  -2  -8  -4  410.16   22.20
  -2  -8  -4  407.96   27.60
   2  -8  -4  415.16   22.10
  -2  -8   4  444.86   24.30
  -2  -8   4  449.06   25.40
   2  -8  -4  468.95   24.30
  -2  -8   4  421.96   27.30
   3  -8   4  244.18   15.10
   3  -8   4  234.68   18.70
   3  -8   4  230.78   14.10
  -3  -8  -4  251.37   16.00
  -3  -8  -4  230.08   14.20
   3   8  -4  225.28   15.10
   3  -8  -4  253.97   14.60
   3  -8  -4  245.88   15.60
  -3  -8   4  250.87   15.80
   4  -8   4  277.97   20.10
  -4  -8  -4  273.07   15.90
  -4  -8  -4  290.17   15.50
   4   8  -4  281.07   16.10
  -4  -8   4  240.28   14.70
   4   8   4  245.68   19.00
  -4  -8   4  251.47   16.20
   4  -8  -4  238.18   15.90
   4  -8  -4  244.48   15.10
   5   8  -4  107.39    9.00
  -5  -8  -4  109.49    8.60
   5  -8   4  109.49   11.80
  -5  -8   4  129.89    9.30
   5  -8  -4  123.59    9.60
  -5  -8   4  125.19    8.80
   5  -8  -4  131.99    9.40
   5  -8  -4  122.99   11.10
   5   8   4  131.39   12.50
   6   8  -4  115.99    8.70
  -6  -8  -4  106.49    7.80
  -6  -8   4   92.89    7.40
   6  -8  -4   94.89    7.80
   6  -8  -4   93.79    9.40
   7   8  -4  239.18   14.10
  -7  -8   4  246.28   13.50
   7  -8  -4  235.28   13.70
   7  -8  -4  238.58   15.90
   8   8  -4  229.38   12.60
   8  -8  -4  212.78   12.10
  -8  -8   4  202.78   11.60
   0  -9   4  571.24   34.30
   0  -9   4  567.84   30.60
   0  -9  -4  549.15   30.90
   0  -9  -4  591.84   34.80
   0  -9   4  602.24   29.70
   0  -9  -4  580.24   28.70
   1  -9   4  413.76   27.00
  -1  -9  -4  407.76   21.50
   1   9  -4  396.56   22.80
  -1  -9  -4  403.36   24.00
  -1  -9  -4  398.86   26.90
  -1  -9  -4  403.56   23.40
   1  -9   4  409.96   22.80
   1  -9   4  406.16   22.20
   1  -9  -4  399.06   26.60
  -1  -9   4  406.26   23.80
  -1  -9   4  421.66   27.10
   1  -9  -4  401.86   23.50
   1  -9  -4  395.36   21.40
  -2  -9  -4  523.45   25.40
   2  -9   4  484.55   25.60
  -2  -9  -4  507.95   27.20
   2   9  -4  509.95   26.30
   2  -9   4  512.05   30.90
   2  -9   4  462.65   25.30
  -2  -9   4  469.55   26.40
  -2  -9   4  493.05   28.00
  -2  -9   4  481.75   30.20
   2  -9  -4  507.45   25.30
   2  -9  -4  497.05   30.30
   2  -9  -4  457.95   26.50
   3  -9   4  199.98   16.70
   3   9  -4  194.88   12.70
   3  -9   4  184.08   12.10
  -3  -9  -4  202.18   13.40
  -3  -9  -4  199.68   12.40
   3  -9  -4  189.48   13.40
  -3  -9   4  200.38   13.90
   3  -9  -4  208.58   12.80
  -4  -9  -4  225.68   13.80
  -4  -9  -4  226.18   13.60
   4   9  -4  225.38   14.10
   4  -9   4  235.78   18.10
  -4  -9   4  255.67   14.60
  -4  -9   4  229.08   14.50
   4  -9  -4  240.08   14.00
   4  -9  -4  219.78   14.60
   4   9   4  236.58   17.70
   5  -9   4   48.00    7.20
  -5  -9  -4   43.10    4.80
   5   9  -4   44.40    5.30
   5   9   4   46.10    7.00
   5  -9  -4   52.29    5.40
  -5  -9   4   49.20    4.80
  -5  -9   4   43.60    4.80
   6   9  -4  621.54   30.10
  -6  -9  -4  637.84   29.30
  -6  -9   4  620.94   29.20
   6  -9  -4  607.94   29.50
   7   9  -4  138.69    8.80
  -7  -9   4  126.19    8.10
   7  -9  -4  137.39    8.50
   0 -10   4  159.38   14.50
   0 -10  -4  180.98   13.20
   0 -10  -4  183.08   11.50
   0 -10  -4  191.38   15.90
   0 -10   4  175.28   15.40
   1  10  -4  572.14   28.90
  -1 -10  -4  563.14   30.30
   1 -10   4  584.64   34.00
  -1 -10  -4  563.94   28.30
  -1 -10   4  596.74   30.40
  -1 -10   4  592.14   33.90
   1 -10  -4  576.64   33.70
   1 -10  -4  586.84   28.50
   2  10  -4   34.60    4.40
   2 -10   4   26.90    6.00
  -2 -10  -4   33.10    4.20
  -2 -10  -4   30.90    4.80
   2  10   4   23.70    5.70
  -2 -10   4   27.70    5.10
  -2 -10   4   22.60    6.10
   2 -10  -4   26.50    4.00
   3  10  -4   69.99    6.40
  -3 -10  -4   72.79    6.80
  -3 -10  -4   68.09    6.20
   3 -10   4   65.79    8.80
   3 -10  -4   84.59    6.70
  -3 -10   4   80.39    7.40
   3  10   4   86.29    9.50
   4  10  -4   50.49    5.40
  -4 -10  -4   55.39    5.30
   4 -10   4   59.49    7.80
  -4 -10   4   65.59    5.80
   4 -10  -4   66.69    5.80
   4  10   4   63.99    7.90
   5  10  -4  118.89    8.00
  -5 -10  -4  113.29    7.50
   5 -10  -4  112.69    7.70
   5  10   4  107.49    9.70
   6 -10  -4  141.89    8.50
   0 -11   4  141.09   12.60
   0 -11  -4  132.59    8.80
   0  11   4  131.59   11.60
   0 -11  -4  131.49    9.90
  -1  11   4   46.10    6.50
  -1 -11  -4   45.60    4.50
   1 -11   4   46.60    7.30
  -1 -11  -4   48.50    5.50
   1 -11  -4   41.00    5.40
  -1 -11   4   46.20    5.80
   1  11   4   45.20    6.60
   1 -11  -4   45.40    4.60
  -1 -11   4   43.20    7.30
  -2 -11  -4   59.19    5.80
   2  11  -4   57.99    5.20
   2 -11   4   56.39    7.80
  -2 -11  -4   61.19    5.40
   2  11   4   80.39    8.40
   2 -11  -4   79.09    5.90
  -2 -11   4   74.79    8.70
  -2 -11   4   77.79    6.90
   3  11  -4  150.38    9.60
   3 -11   4  158.58   12.70
  -3 -11  -4  151.88    9.10
  -3 -11  -4  159.78    9.40
   3  11   4  159.58   12.20
   3 -11  -4  162.38    9.60
  -3 -11   4  161.78   10.00
  -4 -11  -4  113.39    7.10
   4 -11   4  115.29   11.90
   4 -11  -4  122.49    7.50
   4  11   4  117.99    9.50
   0 -12  -4  384.96   19.20
  -1 -12  -4  338.17   18.40
   0   0   5    0.90    0.90
   0   0  -5    0.30    0.90
   0   0   5    1.30    0.90
   0   0  -5    0.00    1.10
   0   0  -5    3.50    1.60
   0   0   5    0.90    1.20
   1   0   5  426.46   23.10
   1   0   5  421.16   23.00
  -1   0   5  412.26   19.50
   1   0   5  368.76   19.70
  -1   0   5  399.76   19.70
  -1   0  -5  411.46   21.40
   1   0  -5  415.86   21.00
  -1   0  -5  397.96   23.10
   1   0  -5  407.86   23.10
  -1   0   5  360.96   22.70
   1   0   5  390.36   20.10
   1   0  -5  406.86   21.00
   1   0  -5  423.26   22.70
   1   0   5  408.26   19.00
   2   0   5 1051.39   49.30
   2   0   5 1088.19   46.20
   2   0   5  972.20   45.60
   2   0  -5  993.40   46.80
  -2   0   5 1011.10   45.60
   2   0   5  982.40   49.60
  -2   0  -5 1024.70   49.60
  -2   0   5 1012.90   44.60
   2   0  -5  993.90   49.10
  -2   0  -5 1038.30   47.30
   3   0   5  155.18   13.20
  -3   0  -5  152.18   11.20
   3   0   5  160.98   12.30
  -3   0   5  152.18   10.00
   3   0   5  152.58    9.80
   3   0   5  155.18   10.20
  -3   0  -5  146.79   12.40
   3   0  -5  162.18   12.80
   4   0  -5  502.65   29.50
  -4   0   5  534.15   25.70
   4   0   5  469.15   25.40
   4   0   5  482.05   28.20
  -4   0  -5  483.95   29.30
   4   0   5  501.85   25.40
   4   0   5  507.35   30.70
   4   0  -5  526.85   27.20
   4   0  -5  506.35   25.60
  -4   0  -5  506.05   27.50
   5   0  -5  314.47   22.00
   5   0   5  325.97   23.90
   5   0   5  308.97   18.30
   5   0  -5  290.87   19.40
   5   0  -5  310.37   18.40
   5   0   5  336.77   21.20
   5   0   5  336.67   18.30
  -5   0   5  343.27   18.60
   5   0   5  328.57   21.60
  -5   0  -5  294.07   21.70
   6   0  -5  341.47   19.30
   6   0   5  301.47   21.30
   6   0   5  306.57   19.90
   6   0   5  324.07   18.60
   6   0   5  313.27   17.70
  -6   0   5  296.77   18.60
   6   0  -5  321.77   19.20
   6   0  -5  288.87   20.10
   7   0   5   26.60    4.30
   7   0   5   22.70    5.40
   7   0  -5   24.00    4.70
   7   0  -5   25.30    4.10
   7   0   5   24.30    4.20
   7   0  -5   24.00    3.70
   7   0  -5   22.90    5.80
   7   0   5   23.30    4.30
   8   0   5   32.80    4.90
   8   0   5   38.20    6.70
   8   0  -5   38.10    6.00
   8   0   5   34.60    5.40
   8   0  -5   32.20    4.40
   8   0  -5   37.20    7.30
   8   0   5   29.20    4.90
   8   0  -5   29.70    4.70
   9   0   5  741.03   38.30
   9   0   5  726.03   39.30
   9   0  -5  745.43   35.70
   9   0   5  732.33   36.50
   9   0  -5  757.92   36.20
 -10   0   5  415.16   20.90
  10   0   5  414.16   22.00
  10   0  -5  412.56   21.20
  10   0   5  392.66   20.90
  11   0   5   25.40    4.10
 -11   0   5   30.00    3.40
  11   0   5   30.40    3.60
  11   0  -5   30.60    3.50
 -11   0  -5   29.70    4.90
   0  -1   5 1052.89   48.30
   0   1   5 1103.39   52.19
   0   1   5 1107.29   48.20
   0   1  -5 1136.99   52.19
   0   1   5 1156.98   47.70
   0  -1   5 1060.89   48.50
   0  -1  -5 1059.39   51.19
   0   1  -5 1171.68   52.09
   0   1   5  990.00   49.10
   0  -1   5 1114.49   48.00
   0  -1  -5 1118.39   52.09
   0  -1   5 1017.20   51.39
   0   1  -5 1054.69   49.70
   0  -1  -5 1060.29   48.80
  -1   1   5  670.43   30.60
  -1  -1  -5  654.53   34.80
  -1   1   5  678.93   31.10
   1  -1   5  653.03   30.40
   1  -1   5  662.23   31.20
   1  -1   5  675.23   34.30
   1   1  -5  720.23   34.00
   1  -1   5  659.93   35.00
  -1  -1  -5  701.93   32.30
   1   1  -5  679.93   32.90
   1  -1   5  715.73   31.80
   1   1  -5  664.63   34.90
  -1  -1   5  674.23   31.00
   1  -1  -5  697.83   34.70
  -1  -1   5  674.03   31.30
  -1   1  -5  642.14   34.30
  -1  -1   5  677.23   35.00
   1   1   5  607.04   33.10
  -1   1  -5  671.43   33.10
   1  -1  -5  685.93   31.80
   1   1   5  662.43   30.10
   1   1   5  685.03   34.80
   1   1   5  704.23   31.60
   2  -1   5 1008.90   44.90
  -2  -1  -5 1101.49   50.19
   2   1  -5 1043.40   46.90
  -2   1   5 1095.69   47.80
  -2  -1  -5 1014.40   46.30
   2  -1   5 1042.80   45.70
   2  -1   5 1038.00   48.00
   2   1  -5 1060.39   47.20
  -2   1   5 1072.39   45.40
   2  -1   5 1012.60   49.99
   2   1   5 1055.89   49.60
   2   1   5  899.91   45.10
   2  -1  -5  972.60   45.80
   2   1   5  919.21   48.20
  -2   1  -5  955.20   48.10
   2   1   5  936.51   45.20
  -2  -1   5  961.70   45.10
   2  -1  -5  992.50   48.40
  -2  -1   5  926.81   44.00
  -2   1  -5  933.21   46.70
   3  -1   5   92.09    7.00
   3  -1   5   67.09    7.50
  -3   1   5   67.09    6.10
   3   1  -5   62.59    6.80
  -3  -1  -5   64.29    8.10
   3  -1   5   64.19    8.60
   3  -1   5   64.49    5.80
  -3  -1   5   93.89    7.00
   3   1   5   88.59    6.90
   3   1   5   92.09    9.40
   3  -1  -5   89.49    8.70
  -3   1  -5   91.69    8.00
   3   1   5   90.49    6.90
   3  -1  -5   96.49    7.60
  -3   1  -5   88.89    8.60
   4  -1   5   99.39    9.30
   4  -1   5  103.59   11.40
   4   1  -5  117.99    9.70
   4  -1   5   96.69    7.30
  -4  -1  -5   91.69   10.40
  -4   1   5  103.19    8.00
   4  -1   5   96.79    8.00
  -4  -1  -5  103.69    9.20
   4   1  -5   93.99    7.90
   5   1  -5  467.55   24.40
   5  -1   5  437.76   23.90
   5  -1   5  456.15   26.30
   5  -1   5  465.35   30.20
  -5   1   5  459.35   24.00
  -5  -1  -5  447.46   29.00
   5   1  -5  465.45   25.90
   5  -1   5  465.05   23.10
   5   1   5  415.36   23.60
   5  -1  -5  417.26   25.10
   5   1   5  450.55   24.10
  -5  -1   5  429.76   23.80
   5  -1  -5  423.66   23.60
  -5   1  -5  409.36   27.00
   5  -1  -5  426.76   27.40
   5   1   5  446.36   28.10
   5   1   5  457.55   26.40
  -5   1  -5  458.25   26.50
   5   1   5  440.66   29.50
   6   1  -5  314.47   16.20
   6  -1   5  298.27   18.70
   6  -1   5  308.67   16.70
   6  -1   5  312.27   16.90
   6   1  -5  323.87   18.50
  -6   1   5  300.07   17.50
   6   1  -5  299.27   19.70
   6  -1   5  322.87   16.60
  -6  -1   5  240.28   16.60
   6   1   5  241.88   17.70
   6   1   5  254.97   17.00
   6  -1  -5  251.17   15.40
   6   1   5  245.38   15.70
   6  -1  -5  237.48   17.30
   6  -1  -5  251.47   17.60
   6  -1  -5  253.27   18.50
   6  -1  -5  257.77   17.00
   6   1   5  248.78   19.10
   7   1  -5   19.80    3.50
   7  -1   5   19.60    5.10
   7   1  -5   24.40    4.10
   7  -1   5   22.30    4.00
   7  -1   5   17.20    3.80
   7  -1   5   18.40    3.80
   7   1   5   17.50    4.00
   7   1   5   16.50    3.50
   7   1   5   17.10    4.90
   7  -1  -5   13.20    4.30
   7  -1  -5   18.90    3.70
   7   1   5   19.20    4.00
   7  -1  -5   18.50    4.00
   7  -1  -5   15.40    3.20
   8   1  -5   27.90    4.20
   8  -1   5   28.40    6.10
   8  -1   5   30.30    4.80
   8  -1   5   28.60    4.70
   8   1  -5   33.40    4.80
   8  -1   5   28.30    4.70
   8  -1  -5   25.80    5.60
   8  -1  -5   26.80    4.10
   8   1   5   24.40    4.60
   8  -1  -5   26.20    5.00
   8   1   5   26.50    4.50
   8   1   5   30.50    5.30
   8   1   5   24.50    5.60
   8  -1  -5   23.30    4.20
   9  -1   5  357.86   20.90
   9   1  -5  370.16   19.10
   9  -1   5  373.56   22.60
   9  -1   5  345.57   19.70
   9   1   5  311.87   20.70
   9  -1  -5  357.56   19.30
   9  -1  -5  316.47   21.70
   9   1   5  336.97   22.10
   9  -1  -5  316.17   20.90
   9   1   5  317.37   18.30
   9   1   5  343.77   19.70
   9  -1  -5  335.57   18.80
  10  -1   5  668.53   31.70
  10  -1   5  649.34   32.40
 -10  -1  -5  631.04   34.00
  10  -1   5  660.13   34.80
  10   1  -5  645.14   31.60
  10   1   5  656.03   31.30
  10  -1  -5  652.13   34.90
  10  -1  -5  666.13   32.10
  10   1   5  669.63   32.60
 -10  -1   5  684.53   31.60
  10  -1  -5  694.33   31.90
 -11   1   5  336.47   16.30
 -11  -1  -5  334.37   18.90
  11   1  -5  341.07   16.50
  11  -1   5  316.37   16.20
  11  -1  -5  303.27   16.20
 -11  -1   5  310.57   16.10
  11   1   5  299.57   17.30
   0  -2  -5 1201.18   54.99
   0  -2  -5 1127.69   50.89
   0  -2   5 1197.28   51.39
   0   2  -5 1193.48   53.29
   0   2   5 1167.68   50.59
   0  -2   5 1098.99   51.39
   0  -2   5 1235.48   51.39
   0   2   5 1164.28   51.09
   0  -2   5  967.30   53.49
   0   2  -5 1115.29   55.09
   0   2  -5 1190.18   55.49
  -1   2   5 1186.58   56.49
   1  -2   5 1279.57   59.99
   1  -2   5 1240.48   56.79
  -1   2   5 1199.08   56.29
   1   2  -5 1249.77   58.79
   1  -2   5 1261.57   56.49
   1   2  -5 1272.77   61.69
   1   2  -5 1273.47   60.79
  -1  -2  -5 1210.68   56.79
   1  -2   5 1322.07   57.79
  -1   2  -5 1402.56   59.79
  -1  -2   5 1276.67   57.19
   1   2   5 1352.96   57.39
   1   2   5 1403.16   55.99
   1  -2  -5 1249.77   57.09
  -1  -2   5 1396.46   61.49
  -1   2  -5 1251.87   60.59
   1  -2  -5 1332.17   56.99
  -1  -2   5 1278.57   56.99
   1  -2  -5 1344.97   60.59
   1   2   5 1319.17   59.09
  -1   2  -5 1306.57   61.89
   2  -2   5  159.68   10.10
   2   2  -5  159.78   11.00
  -2  -2  -5  167.58   10.10
   2  -2   5  158.38   13.40
   2  -2   5  154.68    8.90
   2  -2   5  162.28   11.40
   2   2  -5  158.88   11.90
  -2   2   5  143.29    9.30
   2   2  -5  157.58   13.10
  -2  -2   5  138.09    9.70
   2  -2  -5  122.89   11.00
   2   2   5  129.79   11.10
  -2  -2   5  133.39    9.40
   2  -2  -5  138.29    9.30
   2   2   5  136.49    9.40
   2  -2  -5  145.89    9.50
  -2   2  -5  133.59   11.10
  -2  -2   5  144.69   12.30
  -2  -2   5  146.19    9.00
  -2   2  -5  135.89   10.60
  -3  -2  -5  250.27   16.00
   3   2  -5  264.47   17.10
  -3   2   5  256.17   15.50
   3  -2   5  235.18   15.50
   3  -2   5  251.77   16.80
  -3  -2  -5  235.08   18.80
   3  -2   5  253.57   14.60
   3  -2   5  248.78   19.60
  -3   2  -5  307.07   17.90
   3  -2  -5  306.17   15.80
   3   2   5  327.57   16.60
   3   2   5  319.97   16.30
  -3  -2   5  331.97   16.60
   3   2   5  324.97   19.90
  -3   2  -5  308.47   18.30
  -4  -2  -5  263.07   27.50
   4  -2   5  236.38   19.30
   4  -2   5  242.08   16.20
  -4   2   5  234.88   14.70
   4   2  -5  233.88   16.20
   4  -2   5  243.78   13.50
   4  -2   5  226.58   14.90
   4  -2  -5  240.78   14.40
   4  -2  -5  257.47   15.70
   4   2   5  229.78   18.30
   4   2   5  236.98   14.90
  -4   2  -5  260.37   17.10
   4   2   5  258.27   15.10
  -4   2  -5  251.07   17.00
  -4  -2   5  253.57   15.10
   4  -2  -5  256.87   17.70
   5   2   5   21.80    4.00
  -5   2  -5   19.00    4.40
   5  -2  -5   25.40    4.50
   5   2   5   28.90    5.30
  -5  -2   5   22.20    4.00
   5  -2  -5   22.80    5.00
   5   2   5   19.70    3.70
   5   2   5   21.50    6.20
   5  -2  -5   22.30    3.70
  -5   2  -5   20.80    4.70
   6  -2   5  108.89    9.00
   6   2  -5  108.79    8.30
   6  -2   5  110.69    8.80
   6  -2   5   95.59   10.20
   6   2  -5  112.69    8.80
  -6   2   5  114.19    9.90
   6   2  -5  109.59   11.30
   6  -2   5  112.19    8.80
   6   2   5  128.79   11.40
  -6  -2   5  116.19   10.10
   6  -2  -5  135.49   11.50
   6  -2  -5  127.69    8.60
   6  -2  -5  146.49   10.60
   6  -2  -5  129.59    9.10
  -6   2  -5  133.19   12.50
   6   2   5  136.69    9.60
   6   2   5  134.89   10.70
   6  -2  -5  131.49   11.70
   7   2  -5  523.05   27.60
   7  -2   5  554.64   29.00
   7   2  -5  536.65   28.30
   7  -2   5  539.05   28.90
   7  -2   5  552.14   31.40
   7  -2   5  565.64   28.40
   7   2   5  585.64   32.20
   7  -2  -5  567.84   27.90
   7   2   5  573.34   30.90
   7  -2  -5  570.64   28.50
   7  -2  -5  574.04   32.00
   7   2   5  585.54   29.10
   7  -2  -5  606.34   30.90
   8  -2   5  350.66   23.00
   8  -2   5  332.37   19.70
   8  -2   5  342.97   20.70
   8   2  -5  346.57   19.50
   8  -2   5  338.07   20.40
   8  -2  -5  378.86   22.60
   8  -2  -5  377.46   20.30
  -8  -2   5  388.76   19.80
   8  -2  -5  370.86   19.70
   8  -2  -5  380.96   23.90
   8   2   5  379.46   20.90
   8   2   5  370.96   22.70
   9  -2   5  102.99    9.00
  -9  -2  -5   99.69    9.80
   9  -2   5   93.59    7.80
   9   2  -5  105.39    7.90
   9  -2   5  108.59   10.30
   9  -2   5   99.69    8.50
   9  -2  -5   81.89    7.20
   9  -2  -5   79.79    9.60
   9  -2  -5   82.29    8.80
   9  -2  -5   84.09    7.70
  -9  -2   5   86.29    7.40
   9   2   5   76.69    7.70
  10  -2   5  265.07   17.20
  10  -2   5  286.97   15.10
  10  -2   5  284.67   15.70
 -10  -2  -5  289.37   17.70
  10   2  -5  288.17   15.00
  10  -2  -5  250.87   14.60
  10   2   5  238.38   15.20
  10  -2  -5  247.98   17.50
  10  -2  -5  259.77   15.20
 -10  -2   5  239.18   14.40
  11  -2   5  207.18   11.10
 -11   2   5  211.78   11.00
 -11  -2   5  190.38   10.90
  11  -2  -5  194.18   11.00
   0  -3   5  717.63   36.10
   0  -3  -5  722.73   36.60
   0   3  -5  656.23   36.40
   0  -3   5  680.23   33.20
   0  -3   5  717.33   33.20
   0   3   5  677.63   32.30
   0  -3  -5  640.74   32.60
   0   3  -5  739.43   35.10
   0   3  -5  724.63   38.00
   0   3   5  719.23   32.90
   0  -3   5  700.33   32.80
  -1   3   5  469.25   22.60
   1   3  -5  478.15   27.40
   1  -3   5  420.46   22.20
   1  -3   5  432.26   22.00
   1   3  -5  426.06   26.40
   1  -3   5  431.36   23.00
   1  -3   5  440.96   24.90
  -1  -3  -5  446.56   22.70
   1   3  -5  447.06   24.40
  -1   3   5  437.46   22.00
  -1   3  -5  477.35   24.80
   1   3   5  433.26   21.50
  -1  -3   5  458.95   26.20
  -1   3  -5  467.65   27.60
  -1  -3   5  436.36   22.80
  -1   3  -5  483.75   25.90
   1  -3  -5  447.26   25.80
  -1  -3   5  441.96   22.80
   1  -3  -5  477.75   22.80
  -1  -3   5  444.06   22.80
   1   3   5  495.75   23.10
   2  -3   5 3174.88  143.59
   2   3  -5 3324.07  146.99
   2  -3   5 3399.96  145.89
  -2   3   5 3493.65  145.09
   2  -3   5 3388.96  147.39
   2   3  -5 2935.31  148.69
   2   3  -5 3380.66  151.28
   2  -3  -5 3509.45  148.89
  -2  -3   5 3232.68  144.69
   2   3   5 3737.13  157.08
  -2   3  -5 3500.85  147.79
   2   3   5 3338.67  145.29
  -2  -3   5 3360.86  145.69
   2  -3  -5 3581.54  145.19
  -2  -3   5 3738.73  146.09
  -2   3  -5 3380.56  147.99
  -2   3  -5 3319.17  151.38
  -2  -3   5 3431.56  150.78
   3   3  -5  241.68   15.60
   3  -3   5  218.18   12.00
   3  -3   5  229.08   14.70
   3  -3   5  210.78   13.80
   3   3  -5  224.18   18.20
   3  -3   5  217.98   18.20
  -3   3   5  233.48   13.70
  -3   3  -5  220.58   15.30
  -3  -3   5  224.18   13.90
   3  -3  -5  215.68   13.10
   3   3   5  222.48   13.80
  -3   3  -5  221.58   15.30
   3   3   5  232.78   16.90
   3  -3  -5  215.38   16.00
   4  -3   5  306.67   15.20
   4   3  -5  307.67   22.40
   4  -3   5  285.97   17.30
   4  -3   5  292.97   17.70
   4   3  -5  312.67   19.30
   4  -3   5  307.67   22.90
  -4   3   5  308.27   17.30
   4  -3  -5  269.17   19.00
   4  -3  -5  298.67   16.60
  -4   3  -5  275.77   18.30
  -4  -3   5  279.37   17.20
   4   3   5  248.48   20.20
  -4   3  -5  287.17   18.90
   4   3   5  266.97   16.80
  -5   3   5  577.34   30.10
  -5  -3  -5  566.54   30.70
   5  -3   5  588.24   27.80
   5  -3   5  574.94   29.00
   5   3  -5  587.34   32.60
  -5  -3   5  580.44   30.40
   5   3   5  611.24   28.70
   5  -3  -5  568.54   29.40
  -5   3  -5  580.54   32.80
   5  -3  -5  558.54   31.10
   6   3  -5  579.64   27.70
  -6  -3  -5  555.64   30.70
  -6   3   5  580.74   30.40
   6  -3   5  582.54   28.40
   6   3  -5  539.35   36.30
   6  -3   5  574.34   29.00
   6  -3   5  584.94   28.10
   6  -3  -5  564.54   28.10
   6  -3  -5  580.44   31.80
   6   3   5  540.05   28.30
   6  -3  -5  606.04   30.00
  -6  -3   5  513.95   29.90
   6  -3  -5  558.54   27.50
  -6  -3   5  567.84   27.50
   7  -3   5   91.99    7.80
  -7  -3  -5   94.99    9.90
   7  -3   5   92.59    8.30
   7   3  -5   95.69    7.60
   7  -3   5   86.99    7.80
   7  -3  -5   93.99   10.10
   7  -3  -5   87.59    7.80
   7   3   5   92.89    8.20
  -7  -3   5   92.49    7.50
   7  -3  -5   93.79    8.80
   7  -3  -5   96.19    7.60
   8  -3   5  183.98   12.10
  -8  -3  -5  183.68   14.20
   8  -3   5  197.08   20.90
   8  -3   5  182.28   12.30
   8  -3   5  181.18   11.70
   8   3  -5  183.58   11.30
  -8  -3   5  151.38   10.80
   8  -3  -5  146.19   13.70
   8  -3  -5  164.28   11.10
   8  -3  -5  148.99   12.40
   8  -3  -5  152.88   11.30
   8   3   5  143.79   11.40
   9   3  -5  404.06   21.00
  -9  -3  -5  401.16   24.00
   9  -3   5  390.16   21.10
   9  -3   5  397.86   21.90
   9  -3   5  388.26   23.60
   9  -3  -5  406.56   21.00
  -9  -3   5  398.56   20.90
   9  -3  -5  406.66   25.20
   9  -3  -5  422.06   21.80
   9   3   5  399.96   21.90
  10   3  -5   59.69    5.00
 -10  -3  -5   60.19    7.20
  10  -3   5   64.19    5.90
  10  -3   5   61.39    5.50
  10   3   5   43.10    5.20
 -10  -3   5   49.60    5.00
  10  -3  -5   43.70    6.40
  10  -3  -5   44.90    4.70
  10  -3  -5   45.30    5.20
   0   4  -5  650.63   32.80
   0   4   5  664.33   31.10
   0  -4   5  662.43   31.40
   0   4  -5  575.84   34.40
   0  -4   5  665.93   30.80
   0   4   5  647.44   30.50
   0   4  -5  644.14   36.30
   0  -4  -5  629.54   34.50
   0  -4  -5  619.04   30.90
   0  -4   5  624.64   33.80
   0  -4   5  617.24   31.40
  -1  -4  -5  445.56   24.90
  -1   4   5  489.45   25.00
   1  -4   5  502.55   25.20
   1  -4   5  508.15   26.10
   1  -4   5  517.25   24.40
   1   4  -5  515.85   30.20
   1   4  -5  475.15   29.70
   1   4  -5  507.55   26.90
  -1   4   5  526.15   25.00
   1  -4   5  498.15   27.20
  -1  -4   5  479.95   25.50
  -1  -4   5  505.85   25.30
   1  -4  -5  499.65   28.40
  -1  -4   5  529.35   26.00
  -1   4  -5  463.15   27.90
   1   4   5  506.75   24.60
  -1   4  -5  519.95   27.30
   1  -4  -5  460.95   24.80
  -1  -4   5  513.25   29.20
   1   4   5  496.45   25.30
  -1   4  -5  505.35   30.60
   2  -4   5 1223.68   56.69
   2   4  -5 1262.07   55.49
   2  -4   5 1193.18   53.99
   2  -4   5 1259.27   57.69
   2   4  -5 1258.77   57.89
  -2   4   5 1303.37   55.99
   2   4  -5 1240.68   61.49
   2   4  -5 1218.68   61.79
  -2   4  -5 1195.98   62.09
   2  -4  -5 1202.78   55.29
   2   4   5 1202.28   55.89
  -2   4  -5 1255.97   58.49
  -2  -4   5 1223.18   56.49
  -2  -4   5 1174.68   55.79
  -2   4  -5 1219.68   58.19
   2  -4  -5 1166.38   58.89
  -2  -4   5 1230.58   61.29
   3   4  -5  524.45   34.30
   3   4  -5  502.95   28.80
   3  -4   5  511.05   25.10
  -3   4   5  512.25   27.20
   3  -4   5  503.65   27.90
   3  -4   5  500.85   27.80
  -3   4  -5  540.35   33.70
  -3   4  -5  576.34   30.10
  -3   4  -5  532.35   29.10
  -3  -4   5  574.34   28.30
   3  -4  -5  561.24   30.70
   3   4   5  567.74   27.90
   3  -4  -5  545.55   26.90
  -4   4   5    4.50    2.20
   4  -4   5    2.90    1.40
  -4  -4  -5    6.50    3.20
   4   4  -5    2.70    2.10
   4  -4   5    3.70    2.10
   4   4  -5    8.10    6.20
   4   4  -5    3.80    2.90
  -4  -4   5    4.80    2.30
  -4   4  -5    4.20    2.80
   4  -4  -5    3.60    1.80
  -4   4  -5    4.30    2.30
   4  -4  -5    5.20    2.80
   4   4   5    5.50    4.70
   4  -4  -5    2.40    2.30
   5  -4   5 1103.19   55.79
   5  -4   5 1074.39   49.99
   5   4  -5 1091.29   50.19
   5   4  -5 1051.29   54.49
   5  -4   5 1132.29   49.30
   5  -4   5 1137.59   51.29
  -5  -4  -5 1132.99   53.39
  -5   4   5 1111.69   52.49
   5   4   5 1026.20   50.79
   5   4   5 1119.79   54.09
  -5   4  -5 1058.29   54.79
   5  -4  -5 1127.69   53.89
   5  -4  -5 1119.79   50.19
   5  -4  -5 1132.29   51.49
  -5  -4   5 1071.39   49.30
  -5  -4   5 1119.09   52.99
   6  -4   5  517.85   27.00
  -6  -4  -5  498.45   29.70
   6   4  -5  520.55   27.30
   6  -4   5  491.65   27.70
   6  -4   5  524.75   26.60
  -6  -4   5  586.84   27.00
   6  -4  -5  593.84   29.10
   6   4   5  551.94   27.70
   6  -4  -5  568.44   31.20
   6  -4  -5  579.64   27.60
  -7  -4  -5 1024.20   50.79
   7  -4   5 1044.20   47.40
   7   4  -5 1046.90   47.50
   7  -4   5 1021.40   47.00
   7  -4   5 1015.30   48.20
   7   4   5 1057.99   48.20
   7  -4  -5  977.20   47.30
   7  -4  -5 1028.30   51.69
  -7  -4   5 1000.60   46.70
   7  -4  -5  971.80   49.00
  -8  -4  -5  402.26   25.10
   8  -4   5  390.96   23.00
   8  -4   5  402.96   22.30
   8  -4   5  394.06   22.50
  -8  -4   5  447.26   22.40
   8  -4  -5  439.96   24.60
   8   4   5  438.06   23.30
   8  -4  -5  475.05   23.50
   8  -4  -5  464.15   27.10
   8  -4  -5  443.96   22.20
  -9  -4  -5  630.54   32.60
   9  -4   5  611.84   29.40
   9  -4   5  596.44   30.00
   9   4   5  605.64   30.10
  -9  -4   5  576.44   29.00
   9  -4  -5  589.64   28.80
   9  -4  -5  602.84   33.50
   9  -4  -5  601.04   29.80
  10  -4   5  316.67   16.30
 -10  -4  -5  327.67   18.50
  10  -4  -5  315.37   19.50
 -10  -4   5  302.27   16.20
  10  -4  -5  317.67   16.80
  10   4   5  314.57   17.10
   0   5  -5 1372.26   69.99
   0   5  -5 1417.76   65.09
   0  -5   5 1303.97   66.49
   0  -5  -5 1425.16   63.49
   0   5   5 1517.35   63.59
   0   5  -5 1457.95   69.09
   0  -5   5 1342.07   63.89
   0  -5   5 1380.26   62.79
   0   5   5 1380.46   63.59
   0  -5  -5 1437.96   68.59
   0  -5   5 1367.26   63.79
   1   5  -5  998.80   47.40
   1  -5   5  967.10   46.80
   1   5  -5  902.01   51.19
  -1   5   5  928.41   45.40
   1   5  -5  936.91   51.49
   1  -5   5  967.00   46.00
  -1   5   5  960.30   45.50
   1  -5   5  983.10   48.10
   1   5  -5  979.30   45.90
  -1  -5  -5  969.60   45.80
   1  -5   5  976.80   44.50
  -1   5  -5  953.30   49.50
   1  -5  -5 1054.59   45.90
  -1   5  -5 1017.00   47.80
  -1  -5   5  878.21   49.40
  -1   5  -5 1025.70   52.99
  -1  -5   5  950.40   46.40
   1  -5  -5  975.00   49.60
   1   5   5 1021.70   46.40
  -1  -5   5 1006.20   46.10
   2   5  -5 1678.63   82.09
   2   5  -5 1707.23   83.19
   2  -5   5 1620.04   72.89
  -2   5   5 1627.84   74.99
   2  -5   5 1663.83   81.19
   2   5  -5 1661.03   76.79
   2  -5   5 1592.54   75.99
  -2  -5   5 1697.03   75.59
   2  -5  -5 1657.33   78.99
  -2   5  -5 1784.42   78.69
  -2  -5   5 1720.83   75.99
   2  -5  -5 1832.92   74.99
   2   5   5 1624.64   80.69
  -2  -5   5 1583.94   80.59
  -2   5  -5 1635.74   76.99
   3  -5   5 1160.08   53.09
   3   5  -5 1127.99   55.69
  -3   5   5 1170.38   54.19
   3  -5   5 1231.28   51.49
  -3  -5  -5  997.10   54.19
  -3   5  -5 1192.38   56.89
  -3  -5   5 1229.18   55.19
   3  -5  -5 1251.97   53.59
  -3  -5   5 1151.68   52.89
   3  -5  -5 1040.30   54.59
  -4  -5  -5   44.00    6.60
   4  -5   5   36.80    6.70
   4   5  -5   41.10    5.80
   4   5  -5   39.50    6.20
   4  -5   5   39.30    5.10
  -4   5   5   36.00    5.30
   4  -5  -5   41.00    6.10
  -4   5  -5   37.00    6.50
  -4  -5   5   39.80    5.20
   4  -5  -5   37.30    4.70
   4   5   5   39.80    6.80
   4  -5  -5   37.20    4.80
  -4  -5   5   38.40    5.70
  -5  -5  -5  410.26   25.10
   5  -5   5  420.46   27.00
   5  -5   5  446.26   22.70
   5   5  -5  395.86   22.80
   5  -5   5  429.56   23.50
   5  -5  -5  483.15   24.40
  -5  -5   5  461.65   22.90
  -5  -5   5  445.26   22.30
   5  -5  -5  467.25   23.10
   5   5   5  429.86   26.60
   5  -5  -5  443.86   26.20
  -6  -5  -5   47.00    7.30
   6  -5   5   49.10    6.00
   6   5  -5   47.80    5.90
   6  -5   5   42.40    5.50
   6  -5  -5   54.59    7.60
  -6  -5   5   63.99    5.80
   6  -5  -5   58.59    6.50
   6  -5  -5   58.19    5.90
   6   5   5   59.89    6.20
   7  -5   5  621.54   31.90
   7   5  -5  624.94   31.60
   7  -5   5  631.84   31.10
  -7  -5  -5  671.33   34.60
   7  -5  -5  660.93   31.60
  -7  -5   5  623.44   30.70
   7  -5  -5  624.94   32.90
   7   5   5  621.74   34.10
   7  -5  -5  625.54   35.10
   8  -5   5  276.57   15.10
   8  -5   5  283.57   15.90
  -8  -5  -5  250.17   17.10
   8   5  -5  260.87   15.20
  -8  -5   5  248.08   14.60
   8  -5  -5  233.28   16.20
   8   5   5  251.07   15.40
   8  -5  -5  243.08   17.90
   8  -5  -5  254.17   15.40
   9  -5   5  451.85   22.90
  -9  -5  -5  408.26   24.10
   9  -5   5  433.26   22.00
   9   5   5  458.95   23.10
   9  -5  -5  459.15   22.80
   9  -5  -5  457.55   26.00
  -9  -5   5  437.36   22.00
  10  -5   5   14.50    2.70
 -10  -5   5    7.80    2.20
  10  -5  -5    7.80    2.40
   0  -6  -5  231.68   15.70
   0  -6   5  241.48   14.60
   0   6   5  235.68   15.00
   0  -6  -5  231.58   18.80
   0  -6   5  245.98   15.00
   0  -6  -5  229.08   15.00
   0  -6   5  236.38   15.70
   1  -6   5  445.46   23.20
  -1   6   5  440.86   24.50
   1  -6   5  426.86   23.30
   1  -6   5  421.36   24.50
  -1  -6  -5  470.15   24.80
   1  -6  -5  462.15   24.30
   1  -6  -5  381.36   24.40
  -1  -6   5  450.55   24.20
  -1  -6   5  476.05   23.70
  -1  -6   5  495.25   25.60
   2  -6   5 1326.27   64.19
  -2   6   5 1211.68   60.39
   2  -6   5 1247.78   59.29
   2  -6   5 1415.56   58.89
   2   6   5 1321.17   63.69
   2  -6  -5 1284.37   59.99
  -2  -6   5 1320.67   59.59
   2  -6  -5 1272.67   58.19
  -2  -6   5 1341.97   61.29
   2  -6  -5 1373.76   61.89
  -2  -6   5 1258.47   61.29
   3  -6   5  241.18   12.90
  -3  -6  -5  214.58   15.50
   3  -6   5  237.98   17.70
  -3   6   5  216.48   14.90
   3  -6   5  244.38   14.30
  -3  -6  -5  242.08   14.30
   3   6   5  206.58   16.40
  -3  -6   5  198.38   14.10
   3  -6  -5  202.88   15.30
   3  -6  -5  211.48   13.00
  -3  -6   5  211.28   13.90
  -3  -6   5  188.78   14.70
   3  -6  -5  215.78   14.20
  -4  -6  -5  229.58   15.60
   4   6  -5  204.28   13.90
   4  -6   5  193.98   13.50
  -4  -6  -5  205.38   12.70
   4  -6   5  196.18   16.60
   4   6   5  211.78   16.60
   4  -6  -5  208.78   15.50
  -4  -6   5  211.48   13.70
   4  -6  -5  229.78   14.30
   4  -6  -5  213.08   13.10
  -5  -6  -5  553.64   32.50
   5  -6   5  625.54   31.10
   5  -6   5  624.54   35.20
   5   6  -5  644.64   30.80
   5  -6  -5  587.34   31.20
   5  -6  -5  634.84   30.40
   5   6   5  600.84   34.40
  -5  -6   5  620.54   29.50
  -5  -6   5  593.94   30.10
   5  -6  -5  610.74   33.50
  -6  -6  -5  227.48   16.60
   6  -6   5  196.68   14.10
   6   6   5  234.98   18.70
   6  -6  -5  240.38   14.30
  -6  -6   5  229.88   13.50
   6  -6  -5  233.68   15.10
   6  -6  -5  238.48   17.20
   7  -6   5   86.09    7.80
   7   6  -5   89.19    7.90
  -7  -6  -5   87.89    9.40
  -7  -6   5  100.49    7.60
   7  -6  -5  104.79    8.20
   7  -6  -5   97.99   10.10
   7  -6  -5   90.09    8.40
  -8  -6   5   90.69    7.20
   8  -6  -5   97.79    9.80
   8  -6  -5  103.79    8.10
   9   6  -5   47.40    4.80
   9   6   5   48.90    5.10
   9  -6  -5   52.39    6.50
  -9  -6   5   48.60    4.60
   9  -6  -5   50.69    5.00
   0   7   5  365.96   22.10
   0  -7  -5  388.76   22.20
   0  -7  -5  351.76   19.70
   0  -7   5  375.16   21.40
   0  -7   5  376.46   24.90
   0  -7   5  367.86   20.80
   0  -7  -5  447.46   23.70
   0  -7  -5  356.76   24.60
  -1  -7  -5  284.07   19.50
   1  -7   5  305.37   18.90
  -1  -7  -5  332.17   23.10
   1  -7   5  309.37   18.90
   1  -7   5  305.47   22.40
  -1  -7  -5  357.76   20.90
  -1  -7  -5  291.27   19.40
  -1  -7  -5  295.77   17.70
  -1  -7   5  356.46   23.10
  -1  -7   5  356.76   19.40
   1  -7  -5  337.67   21.00
  -1  -7   5  370.46   20.50
   1  -7  -5  373.16   20.50
   1  -7  -5  366.96   18.50
   1  -7  -5  368.06   23.50
   2  -7   5  611.64   29.40
   2  -7   5  583.84   34.30
  -2  -7  -5  592.64   28.80
  -2  -7  -5  603.54   30.70
  -2  -7  -5  649.54   32.00
   2  -7   5  587.04   29.70
   2  -7  -5  556.64   28.60
   2   7   5  590.84   34.00
   2  -7  -5  562.94   30.40
  -2  -7   5  558.34   30.40
   2  -7  -5  624.24   32.30
  -2  -7   5  544.55   33.40
  -2  -7   5  543.35   29.50
  -2  -7   5  569.84   31.40
  -3  -7  -5  171.88   13.60
   3   7  -5  160.98   12.60
  -3  -7  -5  167.48   11.20
   3  -7   5  169.78   11.10
   3  -7   5  169.58   12.00
   3  -7   5  166.38   15.10
  -3  -7  -5  179.98   12.40
   3  -7  -5  180.38   11.60
   3  -7  -5  176.08   12.70
   3  -7  -5  196.28   14.40
   3   7   5  178.88   15.30
  -3  -7   5  173.78   12.60
  -4  -7  -5 1703.83   77.79
   4   7  -5 1660.03   78.69
   4  -7   5 1744.33   84.49
  -4  -7  -5 2045.70   88.89
   4  -7   5 1679.33   78.69
  -4  -7   5 1769.32   79.49
   4   7   5 1809.22   83.99
   4  -7  -5 1796.62   79.89
   4  -7  -5 1747.63   81.69
   4  -7  -5 1733.73   78.19
   5  -7   5   32.50    5.20
   5  -7   5   41.70    7.40
   5   7  -5   33.00    5.10
   5  -7  -5   46.50    6.80
   5  -7  -5   41.60    5.10
  -5  -7   5   44.90    5.20
   5  -7  -5   41.70    5.50
   5   7   5   45.10    7.50
  -5  -7   5   44.80    5.00
   6   7  -5  238.98   14.90
   6  -7   5  236.78   14.80
   6   7   5  230.68   17.30
   6  -7  -5  250.77   14.70
   6  -7  -5  236.78   15.30
  -6  -7   5  241.38   14.00
   6  -7  -5  263.07   17.70
   7   7  -5   21.90    3.80
  -7  -7   5   13.10    2.90
   7  -7  -5   15.50    3.40
   7  -7  -5   11.60    3.90
   8   7  -5   64.59    6.10
   8  -7  -5   85.19    6.70
   8  -7  -5   78.69    8.00
  -8  -7   5   76.99    5.90
   9  -7  -5   77.29    6.00
   0  -8   5  122.29   12.60
   0  -8  -5  123.29   10.70
   0  -8  -5  122.99   10.90
   0  -8  -5  126.89   13.00
   0  -8   5  123.69    9.90
   0  -8  -5  121.59    9.10
   0  -8   5  119.29   10.10
   1  -8   5   50.09    7.90
   1  -8   5   50.79    5.90
   1  -8   5   52.39    5.80
  -1  -8  -5   53.89    6.90
  -1  -8  -5   50.39    5.40
  -1  -8  -5   46.40    6.30
   1  -8  -5   39.20    4.90
  -1  -8   5   39.00    5.80
   1   8   5   38.30    7.10
  -1  -8   5   45.20    7.70
   1  -8  -5   37.00    7.30
   1  -8  -5   38.20    5.60
  -1  -8   5   41.30    6.00
  -2  -8  -5  292.57   18.80
   2   8  -5  314.87   19.50
   2  -8   5  319.77   18.60
   2  -8   5  296.27   22.10
  -2  -8  -5  313.37   17.70
   2  -8   5  315.97   18.60
   2  -8  -5  305.77   20.10
  -2  -8   5  331.97   19.70
   2  -8  -5  335.17   18.10
   2  -8  -5  340.37   19.90
  -2  -8   5  340.87   21.00
  -2  -8   5  330.47   22.70
   3  -8   5  590.64   29.00
  -3  -8  -5  528.15   27.40
   3   8  -5  586.64   29.40
   3  -8   5  537.25   33.00
   3  -8   5  558.54   28.10
  -3  -8  -5  562.64   28.90
   3  -8  -5  545.15   27.90
   3   8   5  567.24   33.00
  -3  -8   5  536.95   29.00
   3  -8  -5  563.84   29.70
   3  -8  -5  537.35   30.60
   4  -8   5  851.21   45.20
   4   8  -5  843.12   40.00
   4  -8   5  802.62   38.70
  -4  -8  -5  870.01   39.30
  -4  -8  -5  849.22   39.20
   4  -8   5  780.42   39.70
   4  -8  -5  831.72   42.50
   4   8   5  843.22   44.70
   4  -8  -5  837.12   39.60
   4  -8  -5  827.42   41.10
  -4  -8   5  841.32   40.60
   5  -8   5  406.76   25.00
   5   8  -5  402.56   20.90
   5  -8   5  392.66   20.60
   5  -8  -5  346.57   21.10
  -5  -8   5  380.16   19.90
   5   8   5  356.56   23.80
   5  -8  -5  376.26   22.90
   5  -8  -5  378.06   20.30
   6   8  -5  257.67   15.00
   6  -8  -5  255.87   14.60
   6   8   5  248.18   17.50
   6  -8  -5  257.97   17.00
  -6  -8   5  251.17   14.00
   7   8  -5  234.08   14.00
  -7  -8   5  248.88   13.40
   7  -8  -5  262.57   16.20
   7  -8  -5  251.97   14.00
   8  -8  -5    4.10    1.90
   0  -9  -5    4.80    2.40
   0  -9   5    6.40    3.80
   0  -9  -5    4.40    2.90
   0  -9  -5    2.00    2.00
   0  -9   5    4.70    3.00
   0  -9   5    4.10    2.40
   0   9   5    3.80    3.00
  -1  -9  -5  237.08   16.30
  -1   9   5  271.47   19.30
   1  -9   5  243.38   15.60
   1  -9   5  246.98   16.20
  -1  -9  -5  261.17   15.10
   1  -9   5  253.17   19.60
   1   9  -5  239.58   16.30
   1  -9  -5  274.77   17.50
  -1  -9   5  268.97   19.90
   1  -9  -5  265.97   15.10
  -1  -9   5  264.87   17.50
  -2  -9  -5  286.87   17.30
   2   9  -5  297.37   18.60
  -2  -9  -5  299.67   18.90
   2  -9   5  296.77   22.10
   2  -9   5  278.67   18.00
   2  -9   5  318.77   18.30
  -2  -9   5  318.97   19.10
   2  -9  -5  349.07   18.10
   2  -9  -5  332.87   19.90
  -2  -9   5  340.77   20.80
  -2  -9   5  362.86   23.30
   2   9   5  378.76   23.30
   3  -9   5  594.14   30.60
  -3  -9  -5  633.64   30.30
   3  -9   5  613.34   35.80
   3  -9   5  615.54   30.80
  -3  -9  -5  632.34   31.20
   3   9  -5  627.04   31.10
  -3  -9   5  652.83   32.30
   3   9   5  627.94   35.50
   3  -9  -5  641.74   30.60
   3  -9  -5  619.14   32.40
   4  -9   5 1324.37   64.09
   4   9  -5 1333.77   58.99
  -4  -9  -5 1297.37   58.09
   4   9   5 1269.47   63.19
   4  -9  -5 1323.67   58.59
  -4  -9   5 1266.67   58.99
   5   9  -5   50.69    5.50
   5  -9   5   52.69    7.40
  -5  -9  -5   46.70    4.90
   5  -9  -5   59.19    5.50
   5   9   5   67.19    7.90
   6   9  -5  136.39    8.90
   6  -9  -5  122.29    8.50
   7  -9  -5   23.10    3.10
   0 -10  -5  189.48   11.70
   0  10   5  200.38   15.40
   0 -10   5  193.18   15.90
   0  10  -5  191.88   12.90
   0 -10  -5  194.78   13.50
  -1  10   5   25.20    5.40
  -1 -10  -5   23.90    4.50
  -1 -10  -5   23.60    3.80
   1 -10   5   26.70    5.80
   1 -10  -5   34.00    5.30
  -1 -10   5   30.30    6.20
   1  10   5   32.60    6.10
  -1 -10   5   33.00    5.20
   1 -10  -5   36.20    4.40
   2 -10   5  130.59   12.20
  -2 -10  -5  125.59    9.30
   2 -10   5  115.69   11.80
  -2 -10  -5  133.09    8.70
   2  10  -5  125.29    8.90
  -2 -10   5  104.09   11.30
   2  10   5  111.79   11.10
  -2 -10   5  115.99    9.70
   2 -10  -5  116.89    8.50
   3  10  -5   82.39    7.10
  -3 -10  -5   87.49    7.00
  -3 -10  -5   84.19    6.80
   3 -10   5   88.09    9.80
  -3 -10   5  105.09    8.10
   3  10   5  108.59   10.40
   3 -10  -5  113.39    7.70
   4 -10   5  172.88   13.50
  -4 -10  -5  180.68   10.10
   4  10  -5  183.58   10.80
   4 -10  -5  160.88   10.20
  -4 -10   5  163.38   10.10
   4  10   5  148.99   12.60
   5  10  -5  209.88   11.90
   5  10   5  205.68   14.00
   5 -10  -5  221.28   11.80
   0 -11  -5   55.89    5.00
   0 -11   5   62.39    8.00
   0  11   5   57.39    7.00
   0 -11   5   61.49    6.30
   0 -11  -5   56.19    5.70
   1  11  -5  105.49    7.40
  -1  11   5  104.99    9.50
  -1 -11  -5  104.69    7.50
  -1 -11  -5  110.89    8.20
   1 -11   5  111.79   10.50
  -1 -11   5  132.49   11.30
   1 -11  -5  125.19    8.90
   1 -11  -5  126.69    7.90
   1  11   5  123.29   10.40
  -1 -11   5  124.39    9.00
   2  11  -5  175.48   11.10
   2 -11   5  177.68   13.10
  -2 -11  -5  179.28    9.50
  -2 -11  -5  182.68    9.90
   2  11   5  146.59   11.70
  -2 -11   5  135.19   11.70
  -2 -11   5  145.69   10.10
   2 -11  -5  145.19   10.40
   2 -11  -5  149.19    9.30
   3 -11   5   33.30    5.50
  -3 -11  -5   32.70    3.40
  -3 -11   5   33.60    3.80
   3 -11  -5   35.00    3.60
   3  11   5   34.60    5.20
   3 -11  -5   32.80    5.10
   0   0  -6 1052.99   53.39
   0   0   6 1065.89   46.60
   0   0   6  932.11   46.30
   0   0  -6  993.20   47.70
   0   0  -6 1067.79   51.49
   0   0   6 1016.90   51.09
   0   0   6 1044.20   45.80
   1   0   6 1035.90   51.39
   1   0   6 1029.10   47.20
   1   0   6 1074.99   50.99
  -1   0  -6 1018.30   48.40
  -1   0  -6 1021.20   51.59
   1   0   6  975.10   47.00
  -1   0   6 1032.80   46.40
  -1   0   6 1076.59   46.70
   1   0  -6 1045.20   48.30
  -2   0  -6   31.70    4.70
   2   0   6   35.40    5.60
  -2   0  -6   33.20    5.70
   2   0   6   33.60    5.80
   2   0  -6   31.10    4.40
  -2   0   6   33.10    4.00
   2   0   6   30.10    4.00
   3   0  -6  151.98   11.30
   3   0   6  143.89   10.40
   3   0   6  146.99   12.80
   3   0   6  142.49   13.50
  -3   0  -6  147.49   13.30
  -3   0   6  142.19   10.00
  -3   0  -6  149.09   11.50
   3   0   6  147.59   10.10
  -4   0  -6 1438.66   67.19
   4   0   6 1382.86   71.39
  -4   0   6 1435.86   64.99
   4   0   6 1367.26   65.19
   4   0  -6 1461.75   65.29
   4   0   6 1531.85   65.19
   4   0  -6 1454.65   66.99
   4   0   6 1425.26   69.49
  -4   0  -6 1397.46   70.79
   5   0  -6   29.90    5.20
   5   0   6   28.50    5.50
  -5   0   6   30.20    4.60
   5   0  -6   28.50    4.60
  -5   0  -6   24.20    5.20
  -5   0  -6   27.90    9.40
   5   0   6   28.90    4.40
   5   0   6   27.70    4.30
   5   0   6   26.00    6.50
   6   0  -6   25.00    5.20
   6   0  -6   21.80    4.40
  -6   0  -6   21.80    5.40
   6   0   6   24.30    4.20
   6   0  -6   22.20    4.00
   6   0  -6   24.60    3.70
   6   0   6   23.40    4.20
  -6   0   6   23.90    4.80
   6   0   6   24.20    5.30
   6   0  -6   19.60    4.90
   6   0   6   23.90    4.20
   7   0   6  249.18   15.70
   7   0  -6  225.28   14.30
   7   0   6  253.17   14.90
   7   0   6  246.48   17.80
   7   0  -6  248.28   17.30
   7   0   6  260.17   16.80
   7   0  -6  254.27   15.00
   8   0  -6  521.45   26.20
   8   0   6  506.25   25.80
   8   0   6  484.75   27.80
   8   0   6  505.85   26.70
   8   0   6  501.75   29.30
   8   0  -6  488.85   25.50
   9   0  -6   18.30    3.30
  -9   0  -6   18.30    4.70
   9   0   6   11.10    3.40
   9   0   6   14.30    3.50
   9   0  -6   14.50    3.50
 -10   0  -6    5.00    2.70
  10   0   6    6.10    2.30
 -10   0   6    7.80    2.40
  10   0   6    6.40    2.20
  10   0  -6    6.00    2.00
 -11   0   6    7.60    1.90
  11   0  -6    5.70    1.90
   0  -1   6  906.81   40.30
   0  -1   6  847.62   39.90
   0  -1  -6  867.41   40.50
   0   1   6  834.12   38.90
   0  -1   6  963.10   45.00
   0   1  -6  878.51   41.70
   0  -1   6  840.32   39.20
   0   1  -6  833.92   44.10
   0   1   6  793.42   39.30
   1   1  -6  348.17   20.50
   1   1  -6  351.06   19.90
   1  -1   6  361.76   18.50
   1  -1   6  340.37   21.40
  -1   1   6  349.47   17.80
  -1   1   6  325.07   17.40
   1  -1   6  330.07   18.30
  -1  -1  -6  340.77   18.90
   1  -1   6  313.97   21.70
   1  -1  -6  328.17   18.50
  -1   1  -6  352.56   19.90
  -1   1  -6  343.07   21.70
  -1  -1   6  337.27   18.40
  -1   1  -6  334.47   21.40
  -1  -1   6  360.56   18.10
   1   1   6  351.56   27.00
   1   1   6  348.97   18.30
  -1  -1   6  352.06   18.10
   2  -1   6  167.88   11.60
  -2  -1  -6  177.98   12.50
   2   1  -6  172.88   12.70
   2  -1   6  172.88   14.00
  -2  -1  -6  168.38   14.70
   2  -1   6  177.28   15.00
   2  -1   6  177.98   11.40
  -2   1   6  191.48   11.60
   2   1   6  195.88   12.00
  -2  -1   6  200.68   12.00
   2  -1  -6  226.58   20.00
   2   1   6  192.08   14.60
   2  -1  -6  198.48   12.50
  -2   1  -6  200.78   13.50
  -2   1  -6  188.58   14.80
   2   1   6  193.88   15.00
   2   1   6  203.28   12.10
   3  -1   6  177.58   15.10
  -3  -1  -6  169.38   11.90
   3  -1   6  164.58   10.30
  -3  -1  -6  172.28   14.60
   3  -1   6  164.08   11.00
   3   1  -6  167.68   12.20
  -3   1   6  165.18   10.70
   3  -1   6  163.98   12.90
   3  -1  -6  134.79   10.80
   3   1   6  134.19   13.00
   3   1   6  138.99   13.20
  -3  -1   6  147.19   10.50
  -3   1  -6  137.39   12.80
   3   1   6  138.19   10.30
   3  -1  -6  134.59   10.10
   3  -1  -6  129.29   12.50
  -3   1  -6  143.09   11.70
  -4  -1  -6   88.69   10.70
   4  -1   6   84.59    7.10
  -4   1   6   79.79    7.30
   4  -1   6   92.99    9.60
   4  -1   6   79.59    7.60
  -4  -1  -6   83.19    8.40
   4   1  -6   92.49    9.00
   4  -1   6   85.89   11.00
   4  -1  -6   71.89    9.30
   4   1   6   65.59    9.50
  -4  -1   6   78.59    7.30
   4   1   6   67.79    7.10
   4   1   6   72.79    9.40
   4  -1  -6   93.59    7.80
  -4   1  -6   66.99    8.00
   4  -1  -6   73.29    7.80
   4   1   6   77.09    7.30
  -4   1  -6   69.69    9.10
  -5   1   6  237.88   15.30
  -5  -1  -6  242.68   17.00
   5   1  -6  245.38   17.20
   5  -1   6  247.08   14.80
  -5  -1  -6  207.58   19.20
   5  -1   6  249.78   14.50
   5  -1   6  237.48   15.90
  -5  -1  -6  244.28   15.80
   5  -1  -6  220.98   15.00
  -5  -1   6  234.08   15.30
   5  -1  -6  207.68   15.90
   5   1   6  244.78   15.40
  -5   1  -6  231.98   17.10
   5   1   6  211.58   13.70
   5  -1  -6  214.28   15.40
   5   1   6  228.38   18.80
  -6   1   6  369.96   23.10
   6  -1   6  377.66   21.10
   6   1  -6  359.76   20.60
   6  -1   6  411.86   23.00
   6   1  -6  379.16   21.10
   6  -1   6  372.56   21.80
   6   1  -6  344.37   33.30
   6  -1   6  376.56   23.80
  -6  -1  -6  371.16   25.20
  -6   1  -6  407.26   27.40
   6   1   6  424.16   24.90
   6  -1  -6  440.06   24.70
   6   1   6  442.66   22.40
   6  -1  -6  451.45   24.20
   6   1   6  461.95   24.20
   6   1   6  436.66   21.50
  -6  -1   6  416.06   23.80
   6  -1  -6  428.16   21.10
   6  -1  -6  393.66   23.30
   6  -1  -6  427.76   21.50
   6  -1  -6  413.46   25.40
   7  -1   6  256.87   14.20
   7   1  -6  246.88   13.80
   7  -1   6  260.77   15.10
   7  -1   6  246.58   16.90
   7   1  -6  244.88   14.10
   7  -1   6  247.18   15.50
   7   1   6  197.18   15.00
   7  -1  -6  195.58   15.30
   7  -1  -6  190.28   13.20
   7  -1  -6  202.58   15.80
   7   1   6  200.98   13.90
   7  -1  -6  191.98   15.20
   7   1   6  194.38   13.10
   7  -1  -6  191.48   12.80
   8   1  -6  447.86   23.20
   8  -1   6  453.75   25.30
   8  -1   6  462.35   23.60
  -8  -1  -6  440.56   26.10
   8   1  -6  459.65   23.70
   8  -1   6  453.95   24.40
   8  -1   6  462.75   26.80
   8  -1  -6  432.76   23.40
   8   1   6  428.76   24.10
   8   1   6  447.16   23.10
   8  -1  -6  434.56   23.10
   8   1   6  417.06   25.50
   8  -1  -6  460.65   27.00
   8  -1  -6  419.46   25.80
  -9  -1  -6  144.39   11.80
   9  -1   6  135.89    9.50
   9   1  -6  135.99    9.30
   9  -1   6  145.59   10.40
   9  -1  -6  113.29   11.00
   9   1   6  114.19    9.40
   9  -1  -6  120.29    9.30
   9   1   6  111.19    8.70
  -9  -1   6  112.29    8.60
   9  -1  -6  117.19    8.90
  10  -1   6  121.79    8.40
  10  -1   6  116.89    8.90
 -10  -1  -6  119.39   10.20
  10   1  -6  125.09    8.50
 -10   1  -6  121.79   10.00
  10   1   6  127.89    9.00
  10  -1  -6  124.89    8.40
 -10  -1   6  127.09    8.40
  10   1   6  106.19    8.10
  10  -1  -6  132.49    8.90
   0   2  -6 1380.16   60.29
   0  -2   6 1299.67   57.99
   0   2  -6 1312.77   63.19
   0  -2   6 1282.67   57.79
   0   2  -6 1267.87   62.09
   0  -2   6 1288.07   62.09
   0   2   6 1283.67   57.39
   0   2   6 1202.68   56.59
   0  -2   6 1262.07   57.39
   1  -2   6 3096.89  127.79
   1  -2   6 2939.01  128.29
   1  -2   6 3073.59  132.09
   1   2  -6 2924.41  129.99
   1   2  -6 2908.21  133.79
  -1   2   6 3076.19  127.19
   1  -2   6 3134.19  127.19
  -1   2   6 2940.81  127.29
  -1  -2   6 3001.50  128.19
   1   2   6 3066.49  127.99
   1  -2  -6 2944.61  132.79
  -1  -2   6 3024.00  132.89
   1  -2  -6 2521.25  127.09
  -1   2  -6 2976.00  129.99
  -1   2  -6 3049.69  132.79
  -1   2  -6 2847.11  132.99
  -1  -2   6 2852.41  127.39
  -1  -2   6 3237.68  128.19
   2  -2   6  150.68   10.40
   2  -2   6  163.88   12.40
   2  -2   6  164.88   14.50
   2   2  -6  150.88   12.20
  -2   2   6  155.18    9.90
   2  -2   6  162.48    9.70
   2   2  -6  165.18   11.70
  -2   2  -6  117.29   11.50
  -2   2  -6  114.09   12.10
   2   2   6  117.39    9.40
   2  -2  -6  132.99   12.10
   2  -2  -6  125.49    9.40
  -2  -2   6  124.99    9.50
  -2   2  -6  124.29   10.80
   3  -2   6  291.17   18.50
   3   2  -6  331.37   20.40
   3  -2   6  313.37   17.50
   3  -2   6  320.57   20.80
   3  -2   6  301.87   23.10
  -3   2   6  308.17   18.30
   3   2   6  336.27   22.50
  -3   2  -6  365.36   21.10
   3  -2  -6  361.16   18.80
   3   2   6  339.47   18.90
   3  -2  -6  358.16   22.40
  -3  -2   6  338.87   18.90
  -3   2  -6  325.17   21.50
  -4   2   6   22.30    4.00
   4  -2   6   22.40    7.80
   4  -2   6   26.80    3.80
   4   2   6   36.70    5.10
  -4   2  -6   34.40    6.10
   4  -2  -6   35.60    6.40
  -4  -2   6   42.10    5.30
   4   2   6   34.50    4.80
  -4   2  -6   35.30    5.70
   4  -2  -6   35.50    4.60
   4   2   6   36.60    7.00
  -5   2   6   10.10    3.20
   5  -2   6    5.00    2.20
  -5  -2  -6    6.00    2.90
   5   2  -6    5.10    2.80
   5  -2   6    8.10    2.80
   5   2   6    1.40    1.70
  -5   2  -6   -0.10    1.60
  -5  -2   6    2.50    2.00
   5  -2  -6    3.70    2.00
   5  -2  -6    1.80    2.10
   5   2   6    2.70    2.00
  -6  -2  -6  457.85   25.50
   6  -2   6  431.96   23.30
   6   2  -6  392.96   21.80
   6  -2   6  451.35   23.80
   6   2  -6  427.26   22.30
   6  -2   6  423.46   22.40
   6  -2  -6  418.86   22.30
   6  -2  -6  414.46   24.30
   6  -2  -6  420.06   25.40
   6  -2  -6  408.56   21.70
   6   2   6  449.95   25.10
   6   2   6  436.76   23.00
  -7  -2  -6  242.98   17.60
   7  -2   6  248.08   15.20
   7  -2   6  250.97   16.30
   7   2  -6  240.88   14.80
   7  -2   6  247.58   16.00
   7  -2   6  233.48   17.90
   7   2  -6  246.18   15.30
   7   2   6  285.87   18.80
   7  -2  -6  267.37   18.50
   7  -2  -6  262.47   15.00
   7  -2  -6  277.67   17.80
   7  -2  -6  269.57   15.60
   7   2   6  263.97   16.00
   8  -2   6  255.67   15.50
  -8  -2  -6  258.97   17.40
   8  -2   6  253.07   17.10
   8  -2   6  248.08   14.50
   8  -2   6  243.58   15.60
   8   2  -6  261.37   14.40
   8  -2  -6  211.98   14.20
   8   2   6  221.98   14.70
   8  -2  -6  215.48   13.70
  -8  -2   6  217.48   13.60
   8  -2  -6  212.38   16.20
   8  -2  -6  213.88   16.10
   8  -2  -6  205.78   16.60
  -9  -2  -6  612.74   33.30
   9  -2   6  632.64   31.40
   9  -2   6  618.54   33.20
   9  -2   6  630.84   30.50
   9   2  -6  640.84   30.40
   9  -2  -6  629.94   30.30
   9  -2  -6  623.94   30.70
  -9  -2   6  629.44   30.10
   9   2   6  608.04   31.20
   9  -2  -6  605.04   34.10
  10  -2   6  154.38   10.30
  10  -2   6  153.78    9.60
  10   2  -6  160.78    9.60
 -10  -2  -6  155.98   11.80
  10  -2  -6  150.38   11.80
  10   2   6  150.78   10.10
 -10  -2   6  146.39    9.40
  10  -2  -6  158.88    9.60
 -10   2  -6  139.29   10.70
  10  -2  -6  148.39    9.80
   0  -3   6 1557.84   71.39
   0  -3   6 1494.45   75.09
   0   3  -6 1735.93   77.79
   0  -3   6 1643.24   71.69
   0  -3  -6 1445.66   71.09
   0   3   6 1667.43   71.49
   0  -3   6 1690.33   72.19
   0   3  -6 1654.93   74.09
   0   3   6 1608.64   70.59
   1  -3   6  441.66   26.90
   1  -3   6  463.65   24.60
   1   3  -6  490.85   26.40
   1  -3   6  451.95   23.60
   1   3  -6  494.75   28.90
   1   3  -6  444.16   28.80
  -1   3   6  471.75   23.70
  -1   3   6  501.55   24.00
  -1  -3   6  463.35   24.30
   1  -3  -6  460.25   24.20
   1   3   6  469.95   24.30
  -1  -3   6  472.55   24.40
  -1   3  -6  443.56   27.90
  -1   3  -6  495.25   26.50
  -1   3  -6  483.35   29.30
  -1  -3   6  460.55   24.10
  -1  -3   6  476.15   28.40
   1  -3  -6  476.45   27.80
   2  -3   6  704.43   34.80
   2  -3   6  694.83   31.00
  -2   3   6  644.54   31.30
   2   3  -6  709.53   34.10
   2  -3   6  633.94   32.00
   2   3  -6  700.53   36.50
   2   3   6  600.24   31.40
   2  -3  -6  581.94   34.90
  -2   3  -6  644.64   34.00
  -2   3  -6  571.84   34.60
  -2   3  -6  605.94   36.90
  -2  -3   6  625.14   31.90
   2  -3  -6  602.04   31.20
  -2  -3   6  588.14   31.40
   3  -3   6  149.79    9.70
   3  -3   6  150.68   12.10
   3  -3   6  137.19   10.80
   3   3  -6  158.28   12.50
  -3   3   6  145.29   10.60
   3  -3  -6  140.69   13.00
   3   3   6  141.79   10.60
  -3   3  -6  145.79   12.30
  -3   3  -6  131.89   14.10
  -3   3  -6  132.49   12.30
  -3  -3   6  139.09   10.70
   3  -3  -6  161.28   10.70
   4  -3   6   20.10    3.20
  -4  -3   6   22.60    4.20
   4  -3  -6   24.80    5.00
  -4   3  -6   24.80    5.10
   4  -3  -6   26.10    4.10
   4  -3  -6   28.00    5.70
  -5   3   6  128.39   11.10
   5  -3   6  131.69   10.30
   5  -3   6  123.29   12.60
   5  -3   6  139.69   10.10
   5   3  -6  128.69    9.50
   5   3  -6  134.89   12.90
   5  -3   6  127.19    9.70
  -5  -3  -6  136.09   11.90
   5  -3  -6  172.28   10.40
   5  -3  -6  175.78   11.90
  -5  -3   6  164.98   12.30
  -5   3  -6  174.98   14.20
   5   3   6  138.69   12.40
   5   3   6  166.48   11.60
   5  -3  -6  174.18   13.10
   6   3  -6  366.96   19.80
   6  -3   6  353.96   20.10
   6  -3   6  358.46   20.50
  -6  -3  -6  359.06   22.90
   6  -3   6  344.27   20.70
   6   3   6  329.97   23.50
  -6  -3   6  418.36   20.00
   6   3   6  393.76   21.00
   6  -3  -6  405.66   24.10
   6  -3  -6  402.16   22.60
   6  -3  -6  406.86   20.00
   6  -3  -6  382.66   20.30
  -7  -3  -6  263.27   17.80
   7   3  -6  260.17   14.40
   7  -3   6  249.68   15.40
   7  -3   6  256.07   15.30
   7  -3   6  248.78   14.70
   7  -3  -6  216.18   15.90
   7  -3  -6  213.78   14.30
  -7  -3   6  216.48   13.70
   7  -3  -6  223.68   17.20
   7  -3  -6  219.68   13.70
   7   3   6  228.48   14.80
   8  -3   6  398.56   21.50
  -8  -3  -6  388.46   24.20
   8   3  -6  383.16   20.90
   8  -3   6  385.96   22.10
   8  -3   6  395.06   22.20
   8  -3  -6  402.56   21.60
   8  -3  -6  416.06   25.40
   8  -3  -6  414.96   21.20
   8   3   6  417.66   22.20
  -8  -3   6  407.36   20.90
   8  -3  -6  397.56   23.70
   9  -3   6   25.70    4.40
  -9  -3  -6   22.90    5.50
   9  -3   6   25.80    4.20
   9   3  -6   21.90    3.60
   9  -3  -6   40.40    6.40
   9   3   6   36.20    4.90
   9  -3  -6   39.40    4.80
   9  -3  -6   38.70    4.30
  -9  -3   6   38.20    4.40
  10  -3   6  109.39    7.50
  10   3  -6  110.99    7.20
  10  -3   6  106.89    7.90
 -10  -3  -6  106.99    9.20
  10   3   6  111.39    8.10
 -10  -3   6  114.99    7.50
  10  -3  -6  108.09    7.30
  10  -3  -6  106.99    9.60
  10  -3  -6  112.19    7.90
   0  -4  -6    6.00    2.20
   0   4   6    6.60    2.10
   0  -4   6    8.60    2.60
   0   4  -6    5.10    2.80
   0   4   6    6.60    2.40
   0   4  -6    5.60    3.30
   0  -4   6    6.90    2.20
   0  -4   6    7.90    2.50
   0  -4   6   11.90    3.60
   0   4  -6    4.90    2.40
   1  -4   6   56.49    5.70
   1   4  -6   54.39    8.30
   1   4  -6   54.59    8.20
  -1   4   6   55.99    5.60
  -1   4   6   56.29    5.60
   1  -4   6   52.19    6.90
   1   4  -6   59.89    6.90
   1  -4   6   54.29    5.40
   1  -4   6   58.69    6.40
   1  -4  -6   44.20    5.20
  -1  -4   6   43.80    5.50
   1  -4  -6   47.30    7.20
  -1   4  -6   49.99    8.20
  -1  -4   6   40.20    5.30
  -1  -4   6   53.89    7.70
  -1   4  -6   51.89    6.60
  -1   4  -6   43.90    7.00
  -1  -4   6   47.50    5.50
   1   4   6   44.90    5.50
   2  -4   6  677.53   36.50
   2  -4   6  712.83   38.40
   2   4  -6  713.53   41.40
   2   4  -6  710.73   38.00
  -2   4   6  703.13   35.80
   2  -4   6  744.03   35.10
  -2   4  -6  757.32   38.50
  -2  -4   6  774.72   36.70
   2  -4  -6  760.12   40.60
   2  -4  -6  789.82   36.20
   2   4   6  752.92   36.50
  -2  -4   6  776.32   37.00
  -2   4  -6  746.33   42.70
  -2   4  -6  689.83   39.40
  -3  -4  -6  586.44   29.60
  -3   4   6  521.05   27.80
   3  -4   6  490.15   26.70
   3   4  -6  510.35   29.90
   3  -4   6  493.05   26.00
   3   4  -6  590.54   50.59
  -3  -4   6  536.05   27.00
   3  -4  -6  576.64   28.10
  -3   4  -6  533.25   30.60
   3  -4  -6  542.05   29.30
  -3  -4   6  529.75   28.50
   3  -4  -6  523.15   32.00
   4   4  -6  743.13   40.50
   4  -4   6  810.72   37.30
   4  -4   6  779.52   35.90
   4  -4   6  784.72   36.10
   4   4  -6  759.62   37.00
  -4  -4  -6  800.12   39.30
  -4   4   6  812.92   38.60
   4  -4   6  769.72   41.10
  -4  -4   6  701.13   38.20
  -4   4  -6  701.43   40.30
   4   4   6  793.62   40.30
   4  -4  -6  783.92   37.70
   4  -4  -6  693.73   38.90
   4  -4  -6  723.13   35.60
   5  -4   6 1169.68   53.69
   5  -4   6 1166.68   58.09
   5   4  -6 1146.59   57.29
   5  -4   6 1142.99   52.39
  -5  -4  -6 1250.37   56.59
   5   4  -6 1153.28   52.59
   5  -4   6 1185.58   52.69
   5  -4  -6 1042.30   55.69
   5  -4  -6 1125.09   54.29
   5  -4  -6 1032.00   51.89
   5   4   6 1259.57   57.89
   6  -4   6  529.85   27.00
   6  -4   6  522.05   28.00
   6  -4   6  525.35   27.10
  -6  -4  -6  489.35   30.00
   6   4  -6  514.75   26.80
   6  -4  -6  568.44   31.30
   6  -4  -6  556.74   29.20
  -6  -4   6  571.84   26.60
   6  -4  -6  540.45   27.20
   6   4   6  521.55   27.30
   7  -4   6  395.36   21.20
   7  -4   6  388.96   22.00
   7   4  -6  381.06   21.60
   7  -4   6  377.36   21.20
  -7  -4  -6  366.56   24.00
   7  -4  -6  413.36   25.20
   7  -4  -6  389.56   23.10
   7  -4  -6  399.26   21.30
  -7  -4   6  418.96   20.80
   8  -4   6   36.50    4.80
   8  -4   6   41.70    5.20
   8  -4   6   40.00    5.30
  -8  -4  -6   41.60    6.80
   8   4   6   42.20    5.30
   8  -4  -6   41.80    5.20
   8  -4  -6   42.20    6.80
  -8  -4   6   38.30    4.80
   8  -4  -6   35.70    5.60
   9  -4   6   80.39    7.00
   9  -4   6   82.49    6.60
  -9  -4  -6   84.39    8.40
   9   4   6   73.09    6.70
   9  -4  -6   67.89    8.20
  -9  -4   6   72.79    6.10
   9  -4  -6   71.19    6.60
  10  -4   6    9.20    2.50
 -10  -4   6   12.30    2.30
  10  -4  -6    9.60    2.40
   0   5  -6  152.48   12.70
   0  -5  -6  171.08   12.50
   0  -5  -6  178.48   12.10
   0   5   6  161.58   11.10
   0  -5   6  165.48   11.90
   0  -5   6  162.28   11.00
   0  -5   6  156.28   11.20
   0  -5   6  156.48   14.10
   0   5  -6  151.58   15.00
  -1   5   6  132.69   10.00
   1  -5   6  124.89    9.40
   1   5  -6  114.99   13.40
   1  -5   6  124.19    9.50
   1  -5   6  120.79   10.00
   1   5  -6  118.99   11.00
  -1  -5   6  151.78   10.90
   1  -5  -6  145.79   10.60
  -1  -5   6  126.59   13.10
   1  -5  -6  120.59   10.70
  -1   5  -6  134.49   11.70
  -1  -5   6  146.19   11.00
   1  -5  -6  133.69   13.30
  -1  -5   6  135.39    9.80
  -2   5   6   97.99    8.80
   2  -5   6  109.59    8.70
  -2  -5  -6   90.89    9.50
   2  -5   6  102.29    8.20
   2   5  -6  100.49   10.10
  -2  -5   6  118.79    8.90
   2  -5  -6  125.49   10.70
   2  -5  -6  108.89    9.10
  -2  -5   6  120.89    9.90
  -2   5  -6  111.59   10.70
  -2  -5   6  116.29    9.90
   3  -5   6  182.98   12.20
   3  -5   6  177.98   11.30
  -3  -5  -6  176.68   13.20
   3   5  -6  162.18   13.80
   3  -5   6  160.58   14.40
  -3   5   6  169.78   12.70
  -3  -5  -6  154.88   12.80
   3   5   6  170.78   14.30
  -3  -5   6  182.88   12.10
  -3   5  -6  174.88   14.40
   3  -5  -6  181.98   12.40
  -3  -5   6  186.78   12.50
  -3  -5   6  177.18   13.30
   3  -5  -6  171.28   11.00
   3  -5  -6  194.98   14.20
   4  -5   6  180.08   11.60
   4  -5   6  169.18   11.20
  -4  -5  -6  179.58   14.30
   4  -5   6  166.88   12.10
   4   5  -6  176.58   12.60
   4  -5   6  167.28   14.90
   4   5   6  190.28   15.20
   4  -5  -6  190.08   13.00
  -4  -5   6  176.98   12.00
   4  -5  -6  180.98   14.10
   4  -5  -6  178.28   11.50
  -5  -5  -6  985.50   53.39
   5  -5   6 1091.59   51.69
   5  -5   6 1096.19   50.39
   5  -5   6 1085.59   50.29
   5   5  -6 1104.79   51.09
   5  -5   6 1097.69   56.19
   5  -5  -6 1144.99   52.79
   5   5   6 1214.38   56.09
   5  -5  -6 1096.59   50.69
   5  -5  -6 1132.69   54.89
  -6  -5  -6  297.37   19.70
   6  -5   6  299.27   16.90
   6   5  -6  299.17   17.40
   6  -5   6  295.37   16.70
   6  -5   6  303.07   17.90
   6   5   6  313.47   20.70
   6  -5  -6  288.27   18.30
   6  -5  -6  305.77   17.20
   6  -5  -6  295.17   20.20
  -6  -5   6  272.87   16.10
  -7  -5  -6  145.59   12.30
   7  -5   6  140.89    9.80
   7   5  -6  137.29   10.00
   7  -5   6  147.99   10.00
   7  -5   6  141.09   10.60
   7  -5  -6  140.89   12.50
   7  -5  -6  134.79   10.10
   7  -5  -6  133.89   11.10
  -7  -5   6  128.39    9.30
   8  -5   6  165.38   10.90
  -8  -5  -6  185.98   13.70
   8  -5   6  178.28   11.90
  -8  -5   6  167.58   10.70
   8  -5  -6  170.78   13.90
   8  -5  -6  183.78   11.70
  -9  -5  -6   47.40    6.30
   9  -5   6   47.90    4.80
   9  -5   6   47.60    5.00
   9  -5  -6   53.59    5.40
   9   5   6   49.80    5.20
  -9  -5   6   50.89    4.70
   9  -5  -6   54.89    6.70
   0  -6  -6   43.90    6.20
   0  -6   6   37.80    5.70
   0  -6  -6   44.20    5.10
   0  -6   6   43.10    5.60
   0  -6   6   39.90    5.30
   0  -6  -6   40.90    5.60
   0  -6  -6   40.10    6.10
   0  -6   6   45.20    7.30
   0   6  -6   37.70    6.50
   1  -6   6  362.06   21.10
  -1   6   6  357.96   23.70
   1  -6   6  363.76   24.70
  -1   6   6  335.37   21.50
  -1  -6  -6  327.57   21.30
   1  -6   6  365.76   22.30
   1  -6   6  369.06   21.30
  -1  -6   6  417.86   22.70
  -1  -6   6  419.46   25.50
  -1  -6   6  420.66   21.70
   1  -6  -6  389.16   20.10
   1   6   6  406.26   24.80
  -1  -6   6  394.16   23.10
  -1   6  -6  423.46   24.70
   1  -6  -6  455.15   24.20
   1  -6  -6  449.06   23.10
   2  -6   6 1055.69   50.39
   2  -6   6 1118.19   55.59
   2  -6   6 1103.39   50.29
  -2  -6  -6 1095.59   50.79
  -2  -6  -6 1091.69   52.79
   2  -6  -6 1043.20   49.00
  -2  -6   6 1072.79   52.29
   2  -6  -6 1051.89   51.39
  -2  -6   6 1066.29   51.19
   2   6   6 1103.69   54.59
   2  -6  -6 1139.89   53.09
  -2   6  -6 1051.29   55.59
  -2  -6   6 1079.39   50.49
   3  -6   6 1407.86   67.39
  -3  -6  -6 1458.95   66.99
  -3  -6  -6 1400.06   69.49
   3  -6   6 1416.56   72.29
   3  -6   6 1450.35   66.69
  -3  -6   6 1556.14   68.59
   3  -6  -6 1526.65   70.79
   3   6   6 1524.55   72.09
   3  -6  -6 1581.94   68.99
   3  -6  -6 1612.54   66.79
   4  -6   6 1194.68   60.99
   4   6  -6 1231.08   56.39
   4  -6   6 1190.98   56.19
   4  -6   6 1193.58   54.79
   4  -6  -6 1268.77   55.29
   4   6   6 1232.48   60.49
   4  -6  -6 1184.98   58.69
   4  -6  -6 1236.88   57.29
  -4  -6   6 1177.58   55.69
   5  -6   6  754.22   41.20
   5  -6   6  763.12   35.40
   5   6  -6  776.02   36.30
   5  -6   6  728.33   36.60
   5  -6  -6  720.73   39.20
   5   6   6  704.13   39.60
  -5  -6   6  727.93   35.20
   5  -6  -6  764.82   37.70
   5  -6  -6  725.33   35.60
   6   6  -6  300.87   16.80
   6  -6   6  273.17   15.50
  -6  -6  -6  274.57   18.30
   6  -6   6  294.27   17.00
   6  -6   6  281.57   24.90
   6  -6  -6  261.17   15.90
   6  -6  -6  263.87   17.20
   6  -6  -6  261.37   18.80
  -6  -6   6  288.97   18.50
   7   6  -6  751.42   37.10
  -7  -6  -6  888.51   40.30
   7  -6   6  691.23   37.10
   7  -6   6  782.82   37.70
  -7  -6   6  760.32   36.30
   7  -6  -6  823.82   37.40
   7  -6  -6  776.12   40.60
   8   6  -6  247.88   14.90
  -8  -6  -6  300.47   17.30
   8  -6   6  262.67   15.20
  -8  -6   6  279.37   14.70
   8  -6  -6  269.57   15.30
   8  -6  -6  273.67   17.90
   9  -6  -6   54.49    4.90
  -9  -6   6   52.49    4.40
   0  -7   6  496.45   26.60
   0  -7  -6  467.45   26.60
   0  -7   6  490.15   25.70
   0  -7  -6  499.65   24.60
   0  -7   6  502.15   30.30
   0   7   6  507.85   29.60
   0  -7  -6  419.56   26.80
   0  -7  -6  486.75   27.10
   1  -7   6  347.67   25.10
   1  -7   6  404.66   22.70
   1  -7   6  372.16   21.90
  -1   7   6  361.06   24.40
  -1  -7  -6  348.37   22.10
  -1  -7  -6  399.06   23.80
  -1  -7  -6  353.96   20.30
   1  -7  -6  422.96   20.90
  -1  -7   6  418.66   26.20
   1  -7  -6  430.76   23.60
  -1  -7   6  455.55   22.60
  -1  -7   6  444.26   23.70
   1   7   6  419.36   25.80
   1  -7  -6  355.76   23.40
  -2  -7  -6    4.00    2.50
   2  -7   6    9.50    3.10
  -2  -7   6   10.00    3.80
  -2  -7   6   11.30    3.50
   2  -7  -6   11.60    4.00
   2  -7  -6    9.90    2.90
  -2  -7   6    9.30    3.30
   2  -7  -6   10.10    3.20
   2   7   6    9.90    4.50
   3  -7   6  400.06   22.50
  -3  -7  -6  425.26   22.40
   3   7  -6  419.96   23.50
   3  -7   6  438.46   27.20
   3  -7   6  422.76   22.10
  -3  -7   6  387.96   22.70
   3  -7  -6  390.06   21.40
   3   7   6  394.96   26.00
   3  -7  -6  420.56   23.60
   3  -7  -6  385.66   24.40
   4  -7   6  472.55   29.10
   4  -7   6  450.25   23.50
   4  -7   6  438.66   24.40
   4   7  -6  468.95   24.70
   4  -7  -6  428.46   25.30
   4   7   6  483.55   28.80
   4  -7  -6  475.85   23.90
   4  -7  -6  435.36   26.60
  -4  -7   6  468.65   24.80
   5  -7   6  521.95   26.70
   5  -7   6  579.64   28.40
   5   7  -6  565.94   28.00
  -5  -7  -6  494.35   29.30
   5  -7   6  584.54   33.00
  -5  -7   6  532.45   26.70
   5  -7  -6  490.65   28.50
   5  -7  -6  543.35   27.40
   5   7   6  622.94   32.50
   5  -7  -6  520.25   30.40
  -6  -7  -6  159.48   13.10
   6   7  -6  215.58   12.80
   6  -7   6  214.88   12.90
   6  -7  -6  196.68   12.20
   6  -7  -6  196.88   14.80
   6   7   6  167.98   14.40
   7   7  -6  219.08   13.60
   7  -7   6  221.78   13.60
   7  -7  -6  256.67   16.60
   7  -7  -6  249.88   13.90
   8   7  -6   78.09    8.70
   8  -7  -6   78.69    7.70
   8  -7  -6   83.39    6.30
   0  -8  -6  230.88   13.60
   0  -8   6  237.48   18.40
   0  -8   6  226.38   15.30
   0  -8   6  229.98   14.60
   0  -8  -6  224.68   15.60
   0  -8  -6  195.88   15.50
   0  -8  -6  217.78   15.70
   0   8   6  222.08   17.40
   1  -8   6   81.79    7.70
  -1  -8  -6   89.79    8.40
   1  -8   6   87.79    7.80
  -1  -8  -6   84.39    7.00
  -1   8   6   87.99    9.90
   1  -8   6   90.99   10.60
   1   8   6   63.59    9.00
  -1  -8   6   67.49    7.80
  -1  -8   6   64.09    9.30
   1  -8  -6   64.79    7.70
   1  -8  -6   69.69    8.30
  -1  -8   6   66.69    7.50
   1  -8  -6   63.59    8.00
   1  -8  -6   66.59    6.60
   2  -8   6  411.16   22.80
  -2  -8  -6  404.26   21.30
   2  -8   6  419.76   27.00
  -2  -8  -6  416.76   22.90
  -2  -8  -6  456.95   25.20
   2  -8   6  433.96   22.90
   2   8  -6  405.96   23.40
   2  -8  -6  414.66   24.70
  -2  -8   6  400.06   24.60
  -2  -8   6  393.86   23.10
   2   8   6  407.66   26.30
   2  -8  -6  405.26   21.60
   2  -8  -6  383.86   23.60
  -2  -8   6  400.36   26.90
   3   8  -6   65.59    7.70
   3  -8   6   58.09    8.70
  -3  -8  -6   62.69    6.50
   3  -8   6   57.39    6.70
   3  -8   6   63.79    6.50
  -3  -8   6   77.29    7.50
   3   8   6   84.39    9.90
   3  -8  -6   78.09    8.50
   3  -8  -6   71.79    7.60
   3  -8  -6   74.49    6.70
   4  -8   6  398.46   21.20
   4  -8   6  363.46   20.10
   4  -8   6  397.66   25.30
   4   8  -6  395.86   21.00
   4  -8  -6  382.86   23.10
   4   8   6  408.26   25.20
  -4  -8   6  369.06   20.90
   4  -8  -6  351.36   21.80
   4  -8  -6  383.06   20.40
   5  -8   6   28.30    4.30
   5  -8   6   29.40    6.00
   5   8  -6   27.50    4.40
   5  -8  -6   40.80    4.80
   6  -8   6  331.57   18.40
   6   8  -6  322.37   18.40
   6  -8  -6  357.16   20.80
   6  -8  -6  354.16   18.50
   6   8   6  383.96   21.80
   7   8  -6   45.20    4.50
   7  -8  -6   41.80    5.40
   7  -8  -6   42.80    4.40
   0  -9   6    4.80    3.20
   0  -9  -6    2.90    2.60
   0  -9   6    6.80    2.90
   0   9   6    3.40    3.00
   0  -9  -6    5.00    2.20
   0  -9   6    6.70    3.20
  -1  -9  -6  417.56   20.50
   1  -9   6  376.76   21.90
   1  -9   6  412.86   21.50
   1  -9   6  414.76   26.00
   1   9  -6  400.16   22.30
  -1   9   6  401.46   24.50
  -1  -9  -6  390.16   21.90
   1  -9  -6  366.06   22.20
  -1  -9   6  359.96   24.60
   1   9   6  380.56   24.70
   1  -9  -6  376.96   22.80
  -1  -9   6  368.66   21.80
   1  -9  -6  385.86   20.30
  -1  -9   6  357.06   22.70
  -2  -9  -6    6.60    2.50
   2  -9   6    8.70    3.10
   2  -9   6    7.70    3.50
  -2  -9  -6   11.90    3.30
   2  -9   6    8.80    4.10
   2   9  -6   10.90    3.80
   2   9   6   13.60    4.70
   2  -9  -6   11.70    3.90
  -2  -9   6   13.70    4.80
   2  -9  -6   11.30    3.10
  -2  -9   6   14.40    3.80
  -3  -9  -6  256.77   14.80
  -3  -9  -6  248.28   14.40
   3   9  -6  259.07   15.50
   3  -9   6  251.87   15.30
   3  -9   6  263.47   19.40
   3  -9  -6  279.17   15.20
  -3  -9   6  281.37   16.30
   3   9   6  262.77   18.80
   4   9  -6   25.40    4.10
   4  -9   6   26.70    4.00
   4  -9   6   28.60    5.70
   4  -9  -6   26.80    5.90
   4   9   6   23.00    5.20
  -4  -9   6   25.30    3.70
   4  -9  -6   23.00    3.90
   5  -9   6   18.70    4.60
   5  -9  -6   23.10    3.40
   5   9   6   24.20    5.10
   5  -9  -6   23.10    5.60
   6   9  -6  132.29    8.30
   6  -9  -6  114.69    7.80
   0  10   6  115.49   10.80
   0 -10   6  122.39   11.70
   0 -10  -6  127.19    8.40
   0  10  -6  113.19    9.30
   0 -10  -6  117.29    9.30
   1  10  -6  232.58   14.50
   1 -10   6  236.18   17.60
  -1 -10  -6  235.08   13.60
  -1  10   6  217.28   16.10
  -1 -10  -6  242.08   14.80
   1 -10  -6  257.57   14.00
  -1 -10   6  265.97   15.30
   1  10   6  253.57   17.40
  -1 -10   6  251.97   17.60
   1 -10  -6  269.57   15.70
   2  10  -6  220.98   12.90
  -2 -10  -6  246.18   13.20
  -2 -10  -6  221.68   12.10
   2 -10   6  233.08   13.20
   2 -10   6  226.88   16.40
   2  10   6  213.08   15.60
   2 -10  -6  195.78   13.60
  -2 -10   6  173.68   19.60
  -2 -10   6  207.28   13.50
   2 -10  -6  201.68   12.30
   3  10  -6  100.39    7.50
  -3 -10  -6   96.89    6.80
   3 -10   6  104.59   10.20
   3  10   6   97.29    9.60
   3 -10  -6  106.79    7.40
   3 -10  -6  108.69    8.60
  -3 -10   6   99.69    7.60
   4 -10   6   75.39    7.90
   4  10  -6   72.59    5.90
   4 -10  -6   75.69    5.80
   4  10   6   61.39    7.10
  -4 -10   6   73.49    5.10
   5 -10  -6  216.88   11.60
   0 -11   6  396.26   23.20
   0 -11  -6  411.06   20.70
   0 -11   6  415.36   21.00
   0 -11  -6  407.76   19.70
   0  11   6  413.36   22.40
  -1 -11  -6  108.59    7.00
   1 -11   6  110.49    9.80
  -1 -11  -6  104.99    7.30
   1 -11  -6  115.69    8.10
   1  11   6  108.09    9.20
  -1 -11   6  110.89    8.00
   1 -11  -6  118.49    7.20
  -1 -11   6  105.89    9.70
   2 -11   6  342.07   20.20
  -2 -11   6  358.06   17.80
   2  11   6  348.37   19.70
   2 -11  -6  332.57   16.90
   2 -11  -6  358.76   18.40
   0   0   7    1.70    1.30
   0   0   7    2.30    1.40
   0   0  -7    4.10    2.10
  -1   0  -7  132.19   10.60
  -1   0   7  132.09    9.20
   1   0   7  135.79    9.80
   1   0   7  125.79    9.60
   1   0  -7  132.49   10.40
  -1   0   7  135.49    9.30
   2   0   7   75.39    9.40
   2   0   7   78.49    7.30
  -2   0   7   71.69    6.60
  -2   0  -7   80.09    8.00
   2   0   7   73.29    6.90
   2   0  -7   82.79    8.00
  -2   0  -7   72.59    9.60
   2   0   7   77.99    9.50
   3   0   7  431.06   24.30
   3   0  -7  446.06   25.40
  -3   0   7  483.85   24.30
   3   0   7  435.96   29.10
  -3   0  -7  467.25   26.20
   3   0   7  475.75   24.30
   3   0   7  417.46   27.70
  -3   0  -7  432.16   29.00
   4   0   7   15.50    3.30
  -4   0  -7   13.60    4.60
  -4   0   7   12.90    3.20
   4   0  -7   12.90    3.70
   4   0   7   11.10    3.30
   4   0   7   11.80    4.40
  -4   0  -7   11.70    3.90
  -4   0  -7   10.70    4.40
   5   0  -7   18.60    4.70
  -5   0  -7   14.60    4.70
   5   0   7   17.30    4.90
  -5   0  -7   13.20    4.40
   5   0  -7   15.20    4.10
   5   0   7   12.10    3.30
   5   0  -7   14.00    3.00
   5   0   7   11.20    3.20
   5   0   7   14.10    3.60
  -5   0   7   15.30    4.00
   6   0  -7 1870.01   77.29
   6   0   7 1794.92   79.89
   6   0   7 1772.72   77.39
   6   0  -7 1777.42   77.29
  -6   0  -7 1752.22   80.29
   6   0   7 1740.43   78.29
   6   0   7 1523.55   81.79
   7   0   7  309.77   17.70
  -7   0  -7  308.77   20.10
   7   0   7  303.57   19.50
   7   0  -7  319.37   17.90
   7   0   7  330.67   18.80
   7   0  -7  305.17   17.40
   8   0   7   56.99    6.20
   8   0   7   60.09    7.20
   8   0  -7   64.09    6.50
  -8   0  -7   63.09    8.00
   8   0  -7   65.19    6.20
   8   0   7   64.39    6.80
   9   0  -7   58.19    6.00
   9   0   7   58.69    6.30
   9   0  -7   57.49    5.50
  -9   0  -7   60.09    7.40
   9   0   7   56.99    5.70
 -10   0  -7  141.59   10.60
 -10   0   7  137.09    8.50
  10   0   7  131.29    9.10
  10   0   7  132.59    8.50
  10   0  -7  134.79    8.60
   0  -1   7  110.49    8.00
   0   1   7   96.19    7.90
   0  -1   7  111.49    8.60
   0  -1  -7  105.19    8.80
   0   1  -7  104.09    9.30
   0  -1   7   97.09    8.00
   1   1  -7  419.16   24.10
  -1   1   7  443.16   23.50
   1  -1   7  467.45   23.10
   1  -1   7  416.56   26.70
   1  -1   7  404.36   22.70
  -1  -1  -7  421.26   23.40
  -1   1   7  411.86   22.00
  -1  -1   7  415.36   22.20
  -1  -1   7  423.16   22.40
   1   1   7  466.75   23.00
   1  -1  -7  422.16   23.20
  -1   1  -7  424.46   27.50
  -1   1  -7  437.06   26.80
  -1   1  -7  432.36   24.50
  -2   1   7  356.96   18.00
   2  -1   7  321.37   22.60
   2   1  -7  327.97   19.60
  -2  -1  -7  329.77   18.90
   2  -1   7  323.47   18.30
   2  -1   7  328.57   17.80
   2  -1   7  313.57   21.30
   2   1   7  259.67   17.10
  -2  -1   7  294.47   17.40
   2  -1  -7  294.37   18.20
   2   1   7  277.57   17.50
  -2   1  -7  282.37   19.00
  -2   1  -7  278.97   21.50
   3  -1   7  626.74   33.00
   3  -1   7  612.04   38.30
   3   1  -7  630.84   34.40
   3  -1   7  636.34   32.20
  -3  -1  -7  659.33   34.40
   3  -1   7  603.14   36.30
  -3   1   7  637.24   32.50
   3   1   7  650.23   48.40
  -3   1  -7  651.53   38.00
   3   1   7  664.03   33.30
   3  -1  -7  670.33   34.00
  -3   1  -7  691.93   35.40
   3   1   7  703.63   33.30
  -3  -1   7  656.23   32.80
  -4   1   7  212.58   15.00
  -4  -1  -7  226.78   15.80
   4  -1   7  265.37   15.60
   4  -1   7  215.88   14.20
  -4  -1  -7  214.88   16.90
   4   1  -7  231.68   17.10
  -4  -1   7  236.28   15.50
   4   1   7  243.78   15.30
   4   1   7  251.87   15.80
   4  -1  -7  266.97   16.10
   4  -1  -7  265.87   17.20
  -4   1  -7  251.67   17.70
  -5   1   7  570.54   31.80
   5  -1   7  608.14   30.80
   5   1  -7  609.84   29.80
   5   1  -7  625.24   34.80
   5  -1   7  622.04   31.60
   5  -1   7  594.74   34.70
  -5  -1  -7  607.54   32.70
   5  -1   7  607.44   29.90
   5  -1  -7  636.84   34.20
  -5   1  -7  596.34   34.70
   5   1   7  638.74   30.70
   5  -1  -7  621.34   31.90
  -5  -1   7  616.54   32.50
   5  -1  -7  575.64   37.20
   5  -1  -7  609.84   32.40
   5   1   7  657.53   30.00
   5  -1  -7  619.94   29.60
   5   1   7  574.54   33.90
   5  -1  -7  611.14   29.70
   5   1   7  640.64   32.60
   6  -1   7   37.20    5.00
   6  -1   7   31.60    5.00
  -6  -1  -7   35.10    6.40
   6   1  -7   32.10    4.30
   6   1  -7   33.30    4.70
   6  -1   7   37.70    7.20
   6  -1   7   32.90    5.00
   6   1   7   43.10    6.00
   6  -1  -7   37.10    5.80
   6  -1  -7   41.30    6.10
   6   1   7   31.20    6.40
  -6   1  -7   39.20    6.30
   6  -1  -7   42.30    7.60
   6  -1  -7   35.90    4.50
   6   1   7   45.20    5.40
   6  -1  -7   42.80    5.10
   6   1   7   40.20    5.20
   7   1  -7  287.67   16.40
   7  -1   7  275.17   16.50
   7   1  -7  268.17   16.30
  -7  -1  -7  285.67   19.20
   7  -1   7  270.27   17.20
   7  -1   7  275.27   18.00
   7   1   7  292.27   17.30
   7  -1  -7  295.67   16.30
  -7   1  -7  290.47   18.80
   7   1   7  282.57   16.20
   7   1   7  291.67   18.80
   7  -1  -7  286.67   16.60
   8  -1   7  484.65   25.80
   8  -1   7  455.75   26.30
   8   1  -7  491.85   25.00
  -8  -1  -7  483.95   27.70
   8  -1   7  502.35   24.90
   8   1  -7  482.95   24.60
   8  -1  -7  485.65   24.90
   8  -1  -7  461.55   24.40
   8   1   7  468.75   25.40
   8   1   7  458.05   26.90
  -8   1  -7  484.05   27.10
   8   1   7  502.65   24.50
   9  -1   7  233.48   14.10
   9  -1   7  219.08   13.10
   9   1  -7  232.48   13.30
  -9  -1  -7  238.48   15.80
   9  -1  -7  211.48   13.00
   9  -1  -7  219.88   13.40
  -9   1  -7  210.88   14.90
   9   1   7  212.78   12.80
   9   1   7  214.98   13.80
  -9  -1   7  234.08   13.00
  10  -1   7   97.69    7.40
  10  -1   7   97.69    6.90
 -10  -1  -7   95.59    8.50
 -10   1   7   93.89    6.60
  10   1  -7  100.29    7.00
  10  -1  -7   96.29    6.80
 -10  -1   7   96.79    6.60
  10   1   7   97.19    7.40
   0  -2   7  125.19    9.70
   0  -2   7  139.09   10.10
   0  -2   7  132.49    9.50
   0  -2   7  131.59   12.80
   0   2  -7  145.99   11.50
   0   2   7  134.89    9.60
   0   2  -7  139.59   13.00
   0   2  -7  124.69   13.00
   1  -2   7  716.73   39.00
  -1   2   7  820.82   38.50
   1  -2   7  712.23   42.50
   1  -2   7  776.52   38.90
   1   2  -7  764.22   40.70
   1   2   7  879.41   39.50
  -1   2  -7  772.32   44.00
  -1   2  -7  838.82   41.50
  -1  -2   7  871.01   39.30
  -1  -2   7  895.81   39.80
  -1  -2   7  868.41   39.10
  -1   2  -7  865.41   44.80
  -2   2   7  298.97   17.50
   2   2  -7  298.37   19.50
   2  -2   7  311.87   17.60
   2  -2   7  288.17   20.80
   2  -2   7  280.97   18.00
  -2  -2   7  317.57   18.00
  -2   2  -7  319.67   19.90
   2   2   7  317.67   18.20
  -2   2  -7  299.17   21.60
   2  -2  -7  304.97   17.80
  -2   2  -7  332.37   23.10
  -3  -2  -7   71.79    8.10
  -3   2   7   72.19    6.90
   3  -2   7   70.59    8.60
   3  -2   7   69.79    6.40
   3   2  -7   72.19    8.20
   3  -2  -7   50.99    6.10
  -3   2  -7   53.09    7.40
  -3  -2   7   54.49    6.40
  -3   2  -7   47.40    7.90
   4  -2   7  759.32   35.80
  -4   2   7  732.43   37.40
   4   2  -7  738.03   40.00
  -4  -2  -7  732.43   38.30
   4   2  -7  850.51   41.00
   4  -2   7  761.82   36.20
   4  -2   7  778.92   36.70
  -4  -2   7  735.03   37.60
   4  -2  -7  710.03   37.90
   4  -2  -7  718.83   37.30
  -4   2  -7  705.63   39.70
  -5  -2  -7  262.17   18.00
   5  -2   7  277.47   15.60
   5  -2   7  275.47   19.80
   5  -2   7  279.57   16.50
   5  -2   7  279.67   16.70
   5   2  -7  270.67   15.40
   5  -2  -7  255.27   17.20
   5  -2  -7  280.17   15.20
   5  -2  -7  271.67   17.60
   5  -2  -7  269.87   18.20
   5   2   7  258.87   15.80
   5  -2  -7  252.47   15.20
   6  -2   7  617.64   31.00
  -6  -2  -7  631.44   34.30
   6  -2   7  630.04   32.10
   6   2  -7  611.14   30.90
   6  -2   7  635.14   32.50
   6   2  -7  603.44   30.60
   6  -2   7  627.84   36.00
   6  -2  -7  611.64   34.30
   6  -2  -7  625.74   33.30
   6   2   7  665.93   32.00
   6  -2  -7  644.44   30.70
   6  -2  -7  651.03   31.20
   6  -2  -7  637.54   33.90
   7  -2   7  567.64   27.80
  -7  -2  -7  582.14   31.20
   7  -2   7  564.14   28.70
   7  -2   7  552.14   29.10
   7   2  -7  570.54   27.50
   7  -2  -7  519.35   27.40
   7  -2  -7  521.55   29.80
   7   2   7  549.95   28.40
   7  -2  -7  511.95   30.00
   7  -2  -7  524.45   27.00
  -7  -2   7  537.55   26.80
   7  -2  -7  529.95   30.80
   8  -2   7  216.28   13.20
   8   2  -7  215.08   13.00
  -8  -2  -7  213.88   15.80
   8  -2   7  200.08   14.10
   8  -2   7  231.58   14.30
  -8  -2   7  217.98   12.80
   8  -2  -7  213.98   16.00
   8  -2  -7  207.88   12.80
   8   2   7  211.68   13.70
   8  -2  -7  205.08   13.10
   8  -2  -7  191.68   15.10
   9  -2  -7   27.90    5.30
   9   2   7   28.60    4.30
   9  -2  -7   30.20    4.30
   9  -2  -7   30.50    3.90
  -9  -2   7   29.80    3.90
  10   2  -7  356.36   18.00
  10  -2   7  348.47   18.10
  10  -2   7  366.36   18.90
 -10  -2  -7  335.97   19.80
  10  -2  -7  384.36   18.70
  10  -2  -7  377.36   18.20
 -10  -2   7  386.16   18.10
  10   2   7  368.06   19.40
   0   3   7  540.15   27.30
   0  -3   7  558.64   27.80
   0  -3   7  549.74   27.50
   0  -3   7  517.35   31.50
   0   3  -7  529.55   32.50
   0  -3   7  488.85   27.30
   0   3  -7  535.75   29.50
   0   3  -7  518.45   32.90
   1   3  -7 1499.25   75.69
   1   3  -7 1583.34   72.99
   1  -3   7 1538.25   75.19
  -1   3   7 1764.42   70.69
   1  -3   7 1426.66   70.49
   1  -3   7 1541.75   70.19
   1   3   7 1506.45   70.49
  -1   3  -7 1529.85   76.89
  -1  -3   7 1548.65   70.69
   1  -3  -7 1684.63   71.49
  -1   3  -7 1511.35   75.99
  -1  -3   7 1561.84   70.99
  -1  -3   7 1600.04   70.59
  -1   3  -7 1593.04   73.19
   2   3  -7   15.20    3.90
   2  -3   7   14.90    3.00
   2  -3   7   13.60    4.10
  -2  -3  -7   17.70    4.60
  -2   3   7   15.50    3.30
   3   3  -7  331.27   22.10
   3  -3   7  316.97   18.90
  -3  -3  -7  346.97   21.10
  -3   3   7  318.87   19.70
   3  -3   7  328.67   19.10
   3  -3  -7  368.26   21.50
  -3   3  -7  374.16   23.10
   3  -3  -7  366.66   20.30
  -3  -3   7  350.16   20.50
  -4   3   7  257.87   17.10
   4  -3   7  267.77   15.50
   4  -3   7  283.77   16.30
  -4  -3  -7  275.57   18.10
   4  -3   7  280.87   16.50
   4  -3   7  258.57   19.20
   4   3  -7  284.07   19.90
   4   3  -7  292.67   15.30
   4  -3  -7  247.48   14.90
   4  -3  -7  265.67   18.20
  -4   3  -7  249.48   19.10
   4  -3  -7  262.07   17.00
   4   3   7  316.47   19.70
  -4  -3   7  245.38   17.10
   5  -3   7  256.97   16.20
   5  -3   7  261.07   16.40
  -5  -3  -7  277.97   18.50
   5   3  -7  255.27   15.20
   5  -3   7  255.27   19.50
   5  -3   7  245.88   15.30
   5  -3  -7  289.37   18.90
   5  -3  -7  292.07   18.00
   5  -3  -7  286.37   15.60
   6  -3   7  915.61   44.50
   6  -3   7  921.21   44.60
   6  -3   7  916.21   48.70
   6  -3   7  908.31   43.30
  -6  -3  -7  909.61   47.10
   6   3  -7  955.90   43.20
   6   3   7  921.91   43.90
   6  -3  -7  939.81   42.80
   6  -3  -7  937.11   46.30
   6  -3  -7  945.71   47.60
   6  -3  -7  913.51   43.30
   7  -3   7  366.16   21.90
   7  -3   7  377.96   21.10
   7   3  -7  377.66   20.70
  -7  -3  -7  377.56   24.30
   7  -3   7  397.56   22.30
   7  -3  -7  413.46   23.80
   7  -3  -7  410.36   21.60
   7  -3  -7  398.76   23.80
   7  -3  -7  423.56   25.20
  -7  -3   7  418.96   20.80
   7  -3  -7  414.16   21.00
   8  -3   7  445.26   23.80
   8  -3   7  421.16   22.50
  -8  -3  -7  448.66   25.80
   8   3  -7  438.86   22.40
   8  -3  -7  438.46   23.00
   8  -3  -7  426.66   26.10
   8  -3  -7  445.76   25.30
   8  -3  -7  422.26   22.10
   8   3   7  429.16   23.20
  -8  -3   7  454.85   22.20
   9  -3   7  248.78   14.50
   9  -3   7  245.58   13.60
   9   3  -7  257.27   13.50
  -9  -3  -7  256.87   16.00
   9  -3  -7  240.78   13.80
   9  -3  -7  225.08   16.20
   9   3   7  224.98   13.90
   9  -3  -7  220.38   13.00
  -9  -3   7  224.48   13.10
  10  -3   7  108.89    7.40
  10  -3  -7  130.79    8.00
 -10  -3   7  116.59    7.90
   0  -4   7   66.19    7.00
   0  -4  -7   67.49    7.70
   0   4  -7   70.99   10.10
   0   4  -7   87.49    8.90
   0  -4   7   71.69    6.80
   0  -4   7   65.79    9.10
   0  -4   7   69.59    7.00
   1  -4   7  254.17   14.70
   1   4  -7  230.78   16.50
  -1   4   7  247.88   14.70
  -1  -4  -7  257.77   16.20
   1  -4   7  248.38   14.30
  -1  -4   7  201.78   13.70
  -1   4  -7  198.48   15.90
  -1  -4   7  208.88   14.90
   1  -4  -7  208.88   15.30
  -1  -4   7  211.38   14.70
   1  -4  -7  213.88   14.70
   2  -4   7  288.77   16.50
   2  -4   7  284.47   16.30
   2   4  -7  284.37   19.20
  -2   4   7  287.77   17.10
  -2  -4   7  265.47   17.30
   2  -4  -7  273.47   18.10
  -2   4  -7  253.67   18.50
  -2  -4   7  244.18   15.50
   2  -4  -7  252.97   16.60
  -2  -4   7  284.17   21.80
  -3   4   7  131.99   10.70
   3   4  -7  132.99   12.30
   3  -4   7  138.49    9.50
  -3  -4  -7  143.59   11.80
   3  -4   7  140.99   10.20
   3  -4   7  130.09   12.50
   3   4  -7  134.09    8.90
   3  -4   7  136.49    9.90
   3   4   7  111.39   11.20
  -3  -4   7  132.89   11.00
   3  -4  -7  121.89   10.30
  -3  -4   7  120.99    9.60
   3  -4  -7  112.59    9.10
  -3  -4   7  116.19    9.40
  -3   4  -7  122.59   12.00
   3  -4  -7  125.29   11.30
   4  -4   7  193.88   12.20
   4   4  -7  182.58   11.40
   4  -4   7  178.68   15.50
   4  -4   7  187.88   12.70
  -4  -4  -7  207.88   15.20
   4  -4   7  183.98   12.40
   4  -4  -7  172.18   11.50
  -4  -4   7  169.08   11.60
   4  -4  -7  177.58   14.40
   4  -4  -7  187.58   13.40
   4   4   7  207.28   15.80
   5  -4   7   95.19    8.00
   5   4  -7   96.49    7.60
  -5  -4  -7   99.89   10.20
   5  -4   7   85.89    7.80
   5  -4   7   92.49    8.40
   5  -4   7   92.49   10.80
   5   4   7   97.59   10.50
   5  -4  -7   94.99    9.00
   5  -4  -7   89.29    7.60
   5  -4  -7   94.19   10.00
   6  -4   7  425.96   27.30
   6   4  -7  430.56   22.10
  -6  -4  -7  468.15   26.20
   6  -4   7  427.46   23.10
   6  -4   7  448.76   23.90
   6  -4   7  441.46   22.80
   6  -4  -7  412.46   24.70
   6  -4  -7  419.66   26.20
   6  -4  -7  400.26   22.30
   7  -4   7  231.68   13.30
   7   4  -7  228.38   12.80
   7  -4   7  222.28   13.60
  -7  -4  -7  236.38   16.10
   7  -4   7  235.78   14.30
  -7  -4   7  170.68   11.90
   7  -4  -7  162.18   14.70
   7  -4  -7  162.78   12.40
   8   4  -7  155.88   10.40
   8  -4   7  164.58   11.40
  -8  -4  -7  142.99   12.40
   8  -4   7  168.18   10.90
  -8  -4   7  170.68   10.30
   8  -4  -7  177.28   13.80
   8  -4  -7  167.18   11.00
   8  -4  -7  166.98   12.60
   9  -4   7  130.69    8.90
   9  -4   7  124.29    9.20
  -9  -4  -7  111.39   10.30
   9   4   7  148.29    9.50
   9  -4  -7  156.88    9.50
   9  -4  -7  158.98   11.90
  -9  -4   7  145.99    8.70
   0  -5   7 1863.91   82.49
   0   5  -7 1746.53   84.79
   0  -5  -7 1890.01   82.29
   0  -5   7 1833.22   85.79
   0  -5  -7 1584.74   82.59
   0  -5   7 1876.61   81.39
   0   5   7 1946.51   85.29
   0  -5   7 1903.11   83.19
  -1   5   7   86.59    8.00
  -1  -5  -7   85.89    7.80
   1   5  -7   87.69    9.50
   1  -5   7   97.09    8.20
   1  -5   7   95.19   10.30
   1  -5   7   92.79    7.90
  -1  -5  -7   77.89    8.70
  -1  -5   7   80.69    8.50
  -1  -5   7   76.49    9.60
   1   5   7   68.89    8.80
   1  -5  -7   75.69    8.70
  -1   5  -7   80.39    9.20
   1  -5  -7   74.89    7.90
  -1  -5   7   81.69    7.60
   1  -5  -7   80.19    8.20
  -1  -5   7   83.59    8.40
   2  -5   7  375.46   24.30
   2  -5   7  373.96   20.50
   2  -5   7  358.96   19.40
   2  -5   7  365.06   20.30
  -2  -5  -7  357.96   19.80
  -2   5   7  346.77   20.90
   2   5  -7  347.57   23.10
  -2  -5  -7  311.77   21.40
  -2   5  -7  339.87   23.00
  -2  -5   7  371.86   20.30
   2  -5  -7  357.16   22.50
  -2  -5   7  386.66   21.10
   2  -5  -7  421.46   22.20
  -2  -5   7  367.76   21.80
   2   5   7  344.57   23.00
  -2  -5   7  347.37   22.30
   2  -5  -7  361.56   21.30
   3  -5   7  834.72   38.50
   3  -5   7  808.82   43.00
   3  -5   7  796.12   38.00
   3  -5   7  790.62   36.80
  -3  -5  -7  653.53   39.40
   3  -5  -7  750.72   36.50
   3  -5  -7  811.12   39.60
  -3  -5   7  750.52   37.80
  -3  -5   7  781.82   38.30
   3  -5  -7  800.72   41.00
   3   5   7  795.42   41.80
   4  -5   7  255.17   15.30
   4   5  -7  273.67   16.80
   4  -5   7  291.47   16.90
   4  -5   7  264.67   19.90
  -4  -5  -7  239.88   17.70
   4  -5   7  279.57   16.30
   4  -5  -7  257.27   15.20
   4   5   7  300.87   19.90
   4  -5  -7  245.58   16.90
  -4  -5   7  251.37   15.50
   4  -5  -7  273.17   18.70
   5  -5   7  112.69    9.50
   5  -5   7  125.39    9.20
  -5  -5  -7  135.29   11.90
   5   5  -7  119.09    9.10
   5  -5   7  115.99   12.00
   5  -5   7  111.49    8.80
   5  -5  -7  105.99   10.70
   5  -5  -7  102.49    8.30
   5   5   7   85.49   10.50
   5  -5  -7  103.49    9.70
   6  -5   7  215.28   17.30
   6  -5   7  206.98   13.80
   6  -5   7  228.98   13.90
   6  -5   7  233.58   14.80
   6   5   7  269.67   18.50
   6  -5  -7  214.78   13.60
   6  -5  -7  212.38   16.40
   6  -5  -7  213.88   15.40
  -7  -5  -7  170.18   13.70
   7  -5   7  162.78   11.10
   7  -5   7  168.88   11.90
   7  -5  -7  184.78   11.60
   7  -5  -7  181.08   14.20
   8  -5   7  184.58   11.20
  -8  -5  -7  205.38   13.80
   8  -5   7  184.68   11.90
   8  -5  -7  149.39   14.70
   8  -5  -7  179.68   11.40
   8  -5  -7  185.08   14.00
  -8  -5   7  193.78   11.40
   9  -5   7   22.20    3.20
   9  -5  -7   17.00    4.40
   9  -5  -7   19.40    3.00
   0  -6  -7  586.64   30.50
   0   6   7  579.24   32.90
   0  -6   7  581.04   29.80
   0  -6   7  604.44   31.10
   0  -6  -7  566.74   31.80
   0  -6   7  550.44   33.40
   1  -6   7 1169.18   60.29
  -1  -6  -7 1257.17   58.29
   1  -6   7 1192.78   55.59
  -1  -6  -7 1246.18   56.39
   1  -6   7 1174.78   56.19
   1  -6  -7 1083.49   57.59
   1   6   7 1208.68   59.69
  -1  -6   7 1221.88   55.79
   1  -6  -7 1233.68   56.99
  -1  -6   7 1179.68   59.99
  -1  -6   7 1196.38   57.09
   1  -6  -7 1262.47   57.69
   2  -6   7  625.54   37.30
  -2  -6  -7  611.24   32.60
  -2  -6  -7  669.43   35.60
   2  -6   7  628.64   33.20
   2  -6   7  661.63   33.40
  -2  -6   7  686.43   33.60
  -2  -6   7  697.93   35.60
   2  -6  -7  651.23   34.60
   2  -6  -7  711.83   36.20
   2  -6  -7  643.84   31.80
   2  -6  -7  671.03   34.90
  -2  -6   7  680.63   34.20
   2   6   7  703.73   37.60
   3  -6   7  447.46   28.60
   3  -6   7  482.15   24.90
  -3  -6  -7  406.66   26.00
  -3  -6  -7  442.66   23.00
   3  -6   7  453.45   24.20
   3   6  -7  471.15   25.60
  -3  -6   7  465.05   25.00
   3  -6  -7  475.75   27.40
   3   6   7  462.55   28.30
   3  -6  -7  426.06   23.20
   3  -6  -7  474.85   26.20
   4  -6   7  350.66   20.50
  -4  -6  -7  363.16   22.70
   4  -6   7  338.67   24.10
   4   6  -7  357.06   20.60
   4  -6   7  324.87   19.60
  -4  -6   7  390.46   20.30
   4  -6  -7  383.16   19.80
   4  -6  -7  408.66   23.60
   4  -6  -7  392.96   22.20
   4   6   7  305.37   22.60
   5  -6   7  195.08   13.10
   5   6  -7  202.68   13.50
   5  -6   7  203.08   17.00
   5  -6   7  194.28   13.70
   5  -6  -7  237.48   16.70
   5   6   7  256.07   18.10
   5  -6  -7  220.08   15.10
   5  -6  -7  224.28   13.40
   6   6  -7   33.60    4.80
   6  -6   7   36.70    4.80
  -6  -6  -7   50.49    7.20
   6  -6   7   35.60    5.10
   6  -6   7   35.00    6.40
   6  -6   7   33.10    5.30
   6  -6  -7   51.59    7.00
   7  -6   7  660.73   31.10
   7  -6   7  640.14   29.80
   7   6  -7  602.44   31.80
  -7  -6  -7  533.35   32.00
   7  -6  -7  670.63   30.70
   7  -6  -7  666.23   34.00
  -8  -6  -7   26.90    4.80
   8  -6   7   23.40    3.70
   8  -6  -7   23.00    3.60
   8  -6  -7   23.00    4.40
   0   7   7 1102.89   55.79
   0  -7  -7 1056.19   52.59
   0  -7   7 1108.89   51.99
   0  -7   7 1077.49   56.89
   0  -7  -7 1234.78   55.29
   0  -7   7 1087.79   52.99
  -1  -7  -7  117.79   10.10
  -1  -7  -7  119.39   11.20
  -1   7   7  109.99   11.70
   1  -7   7  107.59   12.10
   1  -7   7  120.29    9.90
   1  -7   7  120.99   10.20
   1   7   7  127.39   12.50
  -1  -7   7  126.39   10.90
   1  -7  -7  119.39    8.80
  -1  -7   7  126.79   10.10
  -1  -7   7  130.49   12.80
   1  -7  -7  118.59   11.30
  -1  -7   7  123.79   10.40
   1  -7  -7  138.49   11.10
   1  -7  -7  133.49   11.20
  -2  -7  -7  570.84   30.10
   2  -7   7  512.95   31.80
   2  -7   7  528.05   27.70
  -2  -7  -7  500.15   27.20
   2  -7   7  527.15   27.90
  -2  -7   7  544.95   31.90
  -2  -7   7  533.25   27.80
   2   7   7  519.15   31.30
   2  -7  -7  525.75   26.40
   2  -7  -7  548.75   29.50
   2  -7  -7  485.85   29.60
  -2  -7   7  538.65   28.40
   2  -7  -7  523.95   29.00
   3  -7   7  238.48   15.10
  -3  -7  -7  254.47   17.30
  -3  -7  -7  244.88   14.10
   3   7  -7  258.07   16.40
   3  -7   7  234.68   18.60
   3  -7  -7  242.98   17.30
   3   7   7  245.68   18.60
   3  -7  -7  235.68   14.30
   3  -7  -7  219.58   16.10
  -3  -7   7  243.68   15.50
  -4  -7  -7  120.09   11.20
   4  -7   7  118.19   12.30
   4  -7   7  124.29    9.80
   4  -7   7  107.19    8.90
   4   7  -7  120.69    9.90
   4  -7  -7  126.99    9.20
   4  -7  -7  131.49   11.60
   4   7   7  137.09   12.60
   4  -7  -7  120.79   10.50
  -4  -7   7  132.39    9.70
   5  -7   7  441.46   27.60
   5  -7   7  429.46   23.40
  -5  -7  -7  511.45   26.50
   5   7  -7  422.36   23.00
   5  -7  -7  432.46   25.90
   5   7   7  434.46   27.00
   5  -7  -7  437.76   22.70
   6  -7   7  979.40   46.00
   6  -7   7 1008.30   49.90
  -6  -7  -7  905.01   47.50
   6   7  -7  982.60   45.70
   6  -7  -7  975.10   48.80
   6   7   7 1124.39   50.49
   6  -7  -7  993.30   45.50
   7   7  -7  134.59    8.70
  -7  -7  -7  119.99    9.80
   7  -7   7  134.29    9.00
   7  -7  -7  134.49    8.80
   7  -7  -7  133.09   10.70
   8  -7  -7   89.59    6.30
   0  -8  -7  236.68   16.70
   0  -8   7  246.68   18.80
   0   8   7  241.28   18.00
   0  -8  -7  233.68   13.90
   0  -8   7  227.88   15.00
   0  -8  -7  238.78   15.90
   0  -8   7  238.48   16.10
  -1  -8  -7  393.96   24.50
   1  -8   7  406.56   22.80
  -1  -8  -7  433.56   23.60
   1  -8   7  413.06   23.70
   1  -8   7  409.76   26.90
  -1   8   7  444.26   26.30
   1  -8  -7  434.56   22.00
  -1  -8   7  415.16   23.70
   1  -8  -7  435.56   25.20
   1  -8  -7  435.16   25.00
  -1  -8   7  395.56   24.30
  -1  -8   7  432.46   23.30
  -1  -8   7  419.16   27.00
   1   8   7  437.86   26.80
   1  -8  -7  413.76   24.10
   2  -8   7  383.16   26.00
   2   8  -7  388.46   23.00
  -2  -8  -7  391.46   22.10
   2  -8   7  400.26   22.90
  -2  -8  -7  386.66   23.90
   2  -8   7  373.16   22.00
   2  -8  -7  408.46   24.50
   2  -8  -7  442.76   24.60
   2  -8  -7  423.76   21.50
  -2  -8   7  444.16   23.40
   2   8   7  429.96   26.40
   2  -8  -7  457.85   24.40
   3  -8   7  136.49   13.10
   3  -8   7  132.99   10.20
  -3  -8  -7  157.88   12.10
   3   8  -7  146.39   11.10
   3  -8   7  147.49   10.60
  -3  -8   7  129.89   10.10
   3  -8  -7  131.69    9.50
   3  -8  -7  133.69   11.60
   3  -8  -7  123.09   11.00
   3   8   7  146.29   13.10
   3  -8  -7  124.49   10.90
   4  -8   7  205.08   13.00
   4   8  -7  184.48   12.40
   4  -8   7  192.88   15.70
   4  -8  -7  202.68   12.20
   4  -8  -7  205.28   14.60
   4   8   7  197.38   15.50
  -4  -8   7  199.08   12.30
   5  -8   7   39.80    5.00
   5   8  -7   40.80    4.80
   5  -8   7   39.00    6.40
   5   8   7   45.30    6.70
   5  -8  -7   39.70    4.60
   5  -8  -7   40.30    5.80
   6   8  -7   20.40    3.20
   6  -8   7   18.10    3.50
   6  -8  -7   26.10    3.50
   6  -8  -7   26.00    4.40
   6   8   7   25.10    4.90
   7  -8  -7  390.76   19.10
   0   9   7  406.26   25.60
   0  -9   7  451.15   23.30
   0  -9  -7  477.45   29.50
   0  -9  -7  424.66   21.80
   0  -9  -7  431.36   23.70
   0  -9   7  428.16   26.90
   1   9  -7  114.69    9.60
   1  -9   7  106.39   11.10
  -1  -9  -7  106.09    8.50
   1  -9   7  113.29    8.90
  -1  -9  -7   94.19    7.30
  -1   9   7   97.49   10.10
   1  -9  -7   93.19    7.40
  -1  -9   7   97.19   10.50
   1  -9  -7   88.79    8.90
  -1  -9   7  103.69    8.80
   1  -9  -7   90.09    8.60
   1   9   7   97.99   10.30
  -2  -9  -7   34.70    4.40
   2   9  -7   39.50    5.90
   2  -9   7   30.60    6.10
   2  -9   7   34.50    4.90
   2   9   7   38.60    6.60
   2  -9  -7   39.40    5.40
  -2  -9   7   42.50    5.30
   2  -9  -7   39.60    4.60
   2  -9  -7   41.00    5.80
   3  -9   7  352.06   18.00
   3  -9   7  335.07   21.70
   3   9  -7  338.17   17.80
   3  -9  -7  309.87   18.80
  -3  -9   7  324.47   17.90
   3   9   7  297.77   20.30
   3  -9  -7  291.87   18.70
   3  -9  -7  330.57   17.20
   4  -9   7   32.10    5.70
   4  -9   7   30.90    4.10
   4   9  -7   30.80    4.10
   4  -9  -7   20.20    3.90
   4  -9  -7   24.00    4.30
   4   9   7   23.70    5.10
   4  -9  -7   26.30    3.70
  -4  -9   7   21.70    3.10
   5   9  -7  357.46   18.70
   5  -9   7  369.86   21.60
   5  -9  -7  360.76   19.90
   5  -9  -7  362.56   18.50
   5   9   7  403.66   21.70
   0 -10   7    5.00    2.80
   0  10   7    5.30    2.80
   0 -10  -7    6.40    2.10
   0  10  -7    4.00    2.70
   0 -10  -7    7.80    2.60
   0 -10   7    4.80    2.50
   1  10  -7  193.08   11.40
  -1 -10  -7  176.58   10.10
  -1 -10  -7  189.98   10.90
   1 -10   7  184.68   13.90
   1 -10  -7  168.28   11.40
  -1 -10   7  166.08   11.20
   1 -10  -7  171.78   10.20
   1  10   7  169.28   12.90
  -1  10  -7  158.78   11.20
  -1 -10   7  158.48   12.80
   2 -10   7  416.36   23.70
   2 -10   7  406.86   20.20
   2  10  -7  390.16   19.80
   2 -10  -7  371.16   19.30
  -2 -10   7  377.56   20.30
   2 -10  -7  374.06   20.70
   2  10   7  419.96   22.90
   3  10  -7   24.80    3.40
   3 -10   7   27.60    4.90
   3  10   7   21.40    4.40
  -3 -10   7   23.60    3.30
   3 -10  -7   26.60    3.90
   3 -10  -7   23.80    3.10
   4 -10   7  325.77   21.10
   4 -10  -7  289.27   15.30
   4  10   7  252.57   16.40
   0   0   8 1523.25   70.49
   0   0  -8 1603.24   72.79
  -1   0  -8  192.08   14.10
  -1   0   8  191.78   12.50
   1   0  -8  181.18   13.70
   1   0   8  177.58   12.70
   2   0  -8  600.34   32.30
  -2   0  -8  596.04   32.30
  -2   0   8  561.84   30.20
   2   0   8  609.54   30.80
  -3   0  -8   48.90    7.00
   3   0  -8   44.30    6.60
   3   0   8   56.59    6.50
   3   0   8   40.20    7.50
  -3   0   8   50.79    6.30
   3   0  -8   62.69    8.20
   4   0  -8  400.36   21.80
   4   0   8  359.26   24.00
   4   0   8  404.76   20.80
  -4   0   8  383.56   22.70
   4   0  -8  386.06   24.30
   4   0  -8  390.56   20.20
  -4   0  -8  388.16   24.90
  -4   0  -8  372.26   23.50
   4   0   8  390.16   22.70
   4   0   8  396.76   21.10
   5   0   8    2.40    2.10
   5   0   8    1.30    2.40
   5   0  -8    1.20    1.60
   5   0   8    3.90    2.20
   5   0   8    3.10    2.20
  -5   0  -8    2.80    2.70
   6   0  -8   82.09    7.20
   6   0   8   88.89    8.10
  -6   0  -8   88.49    9.50
   6   0   8   96.69   11.10
   6   0   8   84.69    7.60
   6   0   8   83.19    8.70
   7   0   8   49.50    6.10
   7   0  -8   51.59    5.80
   7   0   8   47.30    6.50
   7   0   8   52.69    5.90
  -7   0  -8   47.80    7.20
   7   0  -8   54.89    5.60
   8   0  -8  849.41   39.70
   8   0  -8  835.52   39.80
   8   0   8  862.01   40.90
   8   0   8  840.72   39.70
  -8   0  -8  862.91   42.80
  -9   0   8   16.50    3.00
   9   0   8   13.80    3.20
   9   0   8   14.70    3.20
   9   0  -8   12.50    2.60
  -9   0  -8   14.30    4.20
  10   0  -8  160.98    9.20
   0   1  -8 1048.60   51.49
   0   1   8 1103.09   49.70
   0  -1   8  995.00   49.30
   1   1  -8 1520.25   73.09
   1  -1   8 1617.04   71.59
  -1   1   8 1682.43   70.89
   1  -1   8 1534.85   73.19
  -1  -1   8 1576.84   70.99
  -1   1  -8 1494.75   73.29
   1   1   8 1582.74   71.79
   2   1  -8  318.17   20.20
  -2  -1  -8  280.97   21.40
  -2   1   8  335.97   18.40
   2  -1   8  309.77   18.30
  -2   1  -8  292.17   19.80
  -2  -1   8  289.77   18.00
   3  -1   8  209.38   13.20
   3   1  -8  210.38   12.50
  -3  -1  -8  203.98   14.80
   3  -1   8  183.78   15.60
   3  -1   8  217.28   13.40
  -3   1   8  201.18   14.00
   3  -1   8  222.38   14.50
   3   1  -8  209.28   15.90
  -3   1  -8  250.77   17.00
   3   1   8  175.28   14.90
  -3  -1   8  238.28   15.00
  -4  -1  -8  362.26   22.60
   4  -1   8  403.26   20.90
  -4   1   8  383.36   24.00
   4   1  -8  385.16   25.00
   4  -1   8  372.36   21.10
   4  -1   8  398.26   22.60
   4  -1   8  400.56   25.50
   4   1  -8  373.96   20.20
   4   1   8  418.96   23.50
   4  -1  -8  381.26   20.10
   4   1   8  402.16   20.60
  -4   1  -8  376.86   25.00
  -4  -1   8  388.66   26.10
   4  -1  -8  394.26   21.90
   5  -1   8  200.28   12.90
   5  -1   8  200.08   16.80
   5  -1   8  208.08   13.60
  -5  -1  -8  203.38   15.40
   5  -1   8  201.88   14.30
   5   1  -8  205.58   12.80
   5   1   8  209.28   13.00
   5   1   8  204.68   14.90
   5  -1  -8  211.18   14.40
   5   1   8  204.88   13.40
   5  -1  -8  205.68   12.60
   6  -1   8   51.39    8.30
   6   1  -8   58.59    5.90
   6  -1   8   53.79    6.70
   6  -1   8   53.59    6.20
   6  -1   8   59.19    6.50
  -6  -1  -8   59.19    8.20
   6  -1  -8   59.89    7.30
   6   1   8   66.59    8.90
   6  -1  -8   62.99    6.30
   6   1   8   61.29    6.50
   6  -1  -8   60.99    5.90
   6   1   8   58.79    7.30
   6   1   8   63.29    6.70
   7   1  -8   64.09    6.40
   7  -1   8   67.29    6.80
   7   1  -8   75.49    7.00
   7  -1   8   63.99    7.00
  -7  -1  -8   65.29    8.60
   7  -1   8   66.99    7.60
   7  -1  -8   76.19    6.70
   7   1   8   92.29    7.90
   7   1   8   93.29   12.70
   7  -1  -8   79.69    7.00
   7   1   8   86.79    7.30
   8   1  -8  392.66   20.00
   8  -1   8  367.26   19.90
   8  -1   8  385.66   20.90
  -8  -1  -8  370.26   22.50
   8  -1  -8  371.56   19.90
   8  -1  -8  369.66   19.70
  -8  -1   8  358.16   19.20
  -8   1  -8  366.66   23.20
   8   1   8  361.76   19.50
   8   1   8  397.26   20.90
   9  -1   8  333.87   17.70
   9   1  -8  330.57   16.80
  -9  -1  -8  313.87   18.70
   9  -1   8  317.87   16.60
   9  -1  -8  305.77   16.60
  -9  -1   8  302.17   16.00
   9  -1  -8  299.17   16.40
   9   1   8  305.97   17.10
  10   1  -8   27.70    3.40
  10  -1  -8   21.40    3.80
   0   2  -8  599.94   33.00
   0  -2   8  612.94   31.20
   0  -2  -8  524.75   32.50
   0   2   8  650.03   31.10
   0  -2   8  610.74   31.70
  -1  -2  -8  126.39   10.60
   1  -2   8  127.99    9.90
   1  -2   8  130.19   19.30
   1   2  -8  122.49   11.20
  -1   2   8  124.69    9.50
  -1   2  -8  109.99   17.30
   1  -2  -8  115.69   10.40
  -1  -2   8  120.19    9.70
  -1   2  -8  110.69   10.90
   2   2  -8  155.58   13.60
   2  -2   8  158.98   11.30
   2  -2   8  168.08   12.20
  -2   2   8  163.88   12.00
  -2  -2  -8  147.29   12.40
  -2  -2   8  191.58   12.90
  -2   2  -8  199.08   14.90
   2  -2  -8  199.68   13.80
  -3   2   8  996.30   46.30
   3   2  -8  973.70   43.60
  -3  -2  -8  939.91   47.00
   3  -2   8  928.31   43.70
   3   2  -8  949.21   48.80
   3  -2   8  956.00   45.80
   3  -2   8  992.80   49.40
   3  -2   8  956.80   44.70
   3   2   8  899.91   48.30
   3  -2  -8  970.00   43.30
   3  -2  -8  969.00   45.60
   3  -2  -8  946.21   47.00
  -3  -2   8  914.41   46.10
  -3   2  -8  887.11   48.10
   4   2  -8   31.10    4.20
   4  -2   8   30.20    4.50
   4  -2   8   30.40    4.80
  -4  -2  -8   31.20    6.00
   4  -2   8   29.50    4.70
   4  -2   8   28.00    6.00
   4   2   8   22.70    5.50
   4  -2  -8   28.50    5.50
   4  -2  -8   32.60    4.20
   4  -2  -8   26.90    5.00
   5  -2   8  231.58   15.10
   5   2  -8  235.98   14.20
   5  -2   8  242.28   14.60
  -5  -2  -8  220.98   16.50
   5  -2   8  232.88   15.60
   5  -2   8  222.18   18.10
   5  -2  -8  239.38   16.00
   5  -2  -8  242.08   13.90
   5  -2  -8  244.18   17.10
   5   2   8  261.07   18.50
   6  -2   8  183.68   12.70
  -6  -2  -8  195.38   14.70
   6   2  -8  184.48   11.70
   6  -2   8  178.68   15.60
   6  -2   8  180.28   11.90
   6  -2   8  177.88   13.00
   6  -2  -8  154.78   12.70
   6  -2  -8  171.08   11.50
   6  -2  -8  160.68   13.80
   6  -2  -8  159.78   11.00
   7  -2   8  115.79    8.90
   7  -2   8  110.09    9.70
   7  -2   8  114.39    9.50
  -7  -2  -8  135.59   11.60
   7   2  -8  119.59    8.80
   7  -2  -8  106.59    8.60
   7   2   8  110.59   11.50
   7  -2  -8  106.29   10.00
   7  -2  -8  102.99   10.50
   7  -2  -8  104.49    8.20
  -8  -2  -8  174.58   14.30
   8  -2   8  191.58   13.30
   8   2  -8  199.18   12.50
   8  -2   8  206.18   12.90
   8   2   8  237.88   13.80
   8  -2  -8  222.78   13.10
  -8  -2   8  219.88   12.30
   8  -2  -8  226.48   12.80
   8  -2  -8  230.68   17.00
  -9  -2  -8   22.50    4.70
   9  -2   8   25.50    4.00
   9  -2   8   26.70    3.70
   9   2  -8   26.10    3.40
  -9  -2   8   32.10    3.60
   9  -2  -8   32.00    3.60
   9   2   8   28.00    4.00
   9  -2  -8   33.10    4.10
   0  -3  -8    6.00    3.00
   0   3  -8    8.90    3.40
   0  -3   8    9.30    3.20
   0  -3   8    5.90    2.40
   1  -3   8   93.89   10.60
  -1   3   8   82.19    7.50
  -1  -3  -8   87.29    8.90
   1  -3   8   86.49    7.90
   1   3  -8   90.39    9.40
   1  -3   8   83.49    7.20
  -1  -3   8   62.49    9.00
   1  -3  -8   63.89    7.80
  -1   3  -8   61.39    8.10
  -1  -3   8   60.59    7.00
   2  -3   8  173.68   11.30
   2  -3   8  168.98   11.70
   2   3  -8  171.88   14.50
  -2   3   8  173.08   12.50
   2   3  -8  172.58   10.90
  -2  -3  -8  183.68   13.80
   2  -3   8  171.68   14.70
   2  -3   8  177.18   12.50
  -2  -3   8  181.18   13.00
   2  -3  -8  173.48   12.50
  -2   3  -8  176.48   14.60
   2  -3  -8  187.58   13.90
   2   3   8  170.38   14.10
   3  -3   8   15.10    3.50
   3  -3   8   16.30    3.40
  -3  -3  -8   18.50    4.90
  -3   3   8   13.30    4.00
   3  -3   8   18.70    3.80
   3  -3   8   17.50    4.90
   3   3  -8   17.10    3.30
   3  -3  -8   13.50    3.90
   3  -3  -8   15.10    3.70
   3  -3  -8   15.20    4.50
  -3  -3   8   11.60    5.00
   3   3   8   16.20    4.70
  -3  -3   8   14.30    3.30
  -4  -3  -8 1701.63   79.49
   4  -3   8 1685.33   77.19
   4  -3   8 1695.23   75.59
   4  -3   8 1656.13   76.59
   4  -3   8 1707.13   81.79
   4   3  -8 1575.24   74.89
   4  -3  -8 1803.12   79.09
   4  -3  -8 1789.42   78.09
   4  -3  -8 1749.72   79.69
   5   3  -8  175.78   11.40
   5  -3   8  166.88   11.60
   5  -3   8  165.78   12.40
   5  -3   8  163.68   15.10
   5  -3   8  170.38   12.30
  -5  -3  -8  183.08   14.40
   5   3   8  193.78   15.50
   5  -3  -8  166.08   11.20
   5  -3  -8  165.58   13.00
   5  -3  -8  164.98   13.90
   5  -3  -8  167.78   13.40
   6  -3   8  813.22   43.80
  -6  -3  -8  826.62   41.80
   6  -3   8  819.72   39.50
   6  -3   8  802.42   39.90
   6   3  -8  810.12   38.00
   6  -3   8  852.91   38.70
   6   3   8  866.51   43.80
   6  -3  -8  768.02   37.40
   6  -3  -8  774.62   40.30
   6  -3  -8  783.82   38.10
   6  -3  -8  781.02   41.90
   6  -3  -8  731.33   40.70
   7  -3   8  114.59    9.00
  -7  -3  -8  118.39   11.00
   7   3  -8  110.79    8.40
   7  -3   8  114.19    9.50
   7  -3   8  107.29    9.40
   7  -3  -8  108.09   15.30
   7  -3  -8  126.39   11.40
   7  -3  -8  124.69   10.60
   7   3   8  105.79   11.00
   7  -3  -8  128.99    9.10
   7  -3  -8  125.79    8.50
   8  -3   8   41.60    4.90
   8  -3   8   41.30    5.10
  -8  -3  -8   39.40    6.20
   8   3  -8   40.20    4.40
   8  -3  -8   40.60    6.20
   8  -3  -8   39.40    4.70
   8  -3  -8   41.00    4.30
   9  -3   8  129.19    8.20
   9  -3   8  137.59    9.00
   9   3  -8  126.19    7.90
  -9  -3  -8  129.39   10.10
   9  -3  -8  115.59    8.00
   9  -3  -8  113.29    7.50
   9  -3  -8  105.89   13.00
   0  -4   8  145.89   11.40
   0  -4  -8  159.08   12.40
   0  -4  -8  148.29   10.80
   0   4  -8  143.39   13.00
   0  -4   8  138.99   10.30
   0   4  -8  153.88    9.70
   0   4   8  119.59   11.90
   0  -4   8  153.48   13.70
   1  -4   8    7.80    4.00
  -1  -4  -8    9.70    3.10
   1   4  -8    9.50    2.80
   1  -4   8    9.40    3.00
   1  -4   8   11.20    3.30
  -1  -4  -8    8.40    3.60
   1  -4   8    9.70    2.90
   1   4  -8    9.60    3.80
   1  -4  -8   10.10    4.00
  -1  -4   8   12.60    3.80
  -1  -4   8    9.60    3.10
   1  -4  -8    9.40    3.50
   1   4   8    9.10    4.00
  -1  -4   8   11.30    3.30
  -1   4  -8    8.30    3.60
   2  -4   8   78.99    7.50
  -2   4   8   85.99   12.30
  -2  -4  -8   84.29    9.10
   2  -4   8   88.69    8.00
   2  -4   8   82.59    9.80
   2   4  -8   85.19    6.80
   2  -4   8   85.39    7.20
  -2  -4   8   67.09    7.00
   2  -4  -8   74.89    8.70
   2   4   8   62.79    8.70
  -2  -4   8   80.59    7.70
   3  -4   8  419.06   22.40
   3  -4   8  398.16   26.90
   3  -4   8  400.96   23.20
   3   4  -8  414.86   21.90
  -3  -4  -8  475.75   26.50
   3  -4   8  424.76   23.80
   3  -4  -8  448.46   26.20
   3  -4  -8  454.45   25.10
  -3  -4   8  440.86   23.30
   3  -4  -8  439.46   24.50
   4  -4   8  569.34   29.60
   4  -4   8  583.74   29.50
   4  -4   8  550.64   33.30
  -4  -4  -8  597.14   31.70
   4   4  -8  621.24   28.10
   4  -4   8  580.84   28.30
   4  -4  -8  567.24   30.40
  -4  -4   8  547.45   27.40
   4  -4  -8  569.34   31.90
   4   4   8  490.25   31.60
   4  -4  -8  535.25   30.50
   5   4  -8  394.36   20.40
   5  -4   8  358.96   25.20
   5  -4   8  363.06   21.60
   5  -4   8  364.76   21.60
   5  -4   8  364.06   20.60
  -5  -4  -8  382.26   24.00
   5  -4  -8  436.06   25.00
   5   4   8  345.57   24.60
   5  -4  -8  400.66   23.00
   5  -4  -8  435.76   21.00
   5  -4  -8  404.36   23.50
   6  -4   8  100.99    8.20
   6   4  -8  100.39    7.60
   6  -4   8  101.19    8.70
   6  -4   8   99.19    8.60
  -6  -4  -8   96.99   10.30
   6  -4   8  100.99   11.20
   6  -4  -8   95.09    7.90
   6  -4  -8   92.99    9.30
   6  -4  -8   93.19    9.30
   6   4   8   76.89    9.70
   6  -4  -8  103.69   10.40
   7  -4   8    8.60    2.80
  -7  -4  -8   13.90    4.70
   7  -4   8   12.60    3.30
   7   4  -8   13.10    2.80
   7  -4  -8    8.40    2.80
   7  -4  -8    9.30    3.50
   7  -4  -8    8.60    3.60
   7   4   8    7.60    3.50
   8  -4   8   83.59    7.40
  -8  -4  -8   75.89    8.20
   8   4  -8   86.49    6.40
   8  -4   8   85.89    6.80
   8  -4  -8   95.59    9.00
   8  -4  -8   94.69    7.20
   9  -4   8  118.89    8.00
   9  -4  -8  148.49    8.60
   0  -5   8  459.05   25.60
   0   5   8  471.25   26.90
   0  -5   8  429.86   27.50
   0   5  -8  443.66   22.40
   0  -5  -8  411.16   25.70
   0  -5   8  441.86   24.00
   0  -5  -8  437.76   24.00
   1  -5   8   48.20    7.60
  -1  -5  -8   45.90    5.70
   1  -5   8   48.00    6.00
   1   5  -8   51.79    5.30
  -1  -5  -8   43.60    6.80
   1  -5   8   42.90    5.30
   1  -5   8   45.90    5.70
   1  -5  -8   41.40    6.50
   1   5   8   40.40    6.90
  -1  -5   8   43.40    6.10
   1  -5  -8   48.70    6.20
  -1  -5   8   45.20    5.60
   2  -5   8  455.75   25.60
   2  -5   8  448.66   25.00
  -2  -5  -8  452.45   23.70
   2  -5   8  441.76   23.70
  -2  -5  -8  395.06   26.50
   2  -5   8  446.26   29.00
  -2  -5   8  530.05   25.70
   2   5   8  466.25   28.20
  -2  -5   8  498.75   25.80
   2  -5  -8  526.55   27.50
   2  -5  -8  472.75   26.10
   2  -5  -8  520.05   28.20
   3  -5   8  494.55   25.40
  -3  -5  -8  517.45   28.10
   3  -5   8  446.76   29.10
   3  -5   8  459.95   24.00
   3  -5   8  451.85   25.30
   3  -5  -8  491.35   27.00
   3  -5  -8  439.36   25.90
   3   5   8  399.56   27.50
   3  -5  -8  477.55   27.90
  -3  -5   8  500.95   25.40
   4   5  -8  464.75   24.80
   4  -5   8  469.65   25.20
  -4  -5  -8  397.46   26.60
   4  -5   8  467.55   29.30
   4  -5   8  477.25   25.40
   4  -5   8  471.25   24.00
   4  -5  -8  490.15   23.90
   4  -5  -8  450.15   26.30
   4  -5  -8  493.85   28.00
  -4  -5   8  469.35   23.70
  -5  -5  -8   18.90    5.50
   5  -5   8   17.60    4.10
   5  -5   8   20.60    5.40
   5  -5   8   16.20    3.80
   5  -5   8   15.70    3.40
   5  -5  -8   14.40    4.40
   5  -5  -8   13.90    4.40
   5  -5  -8   17.40    4.00
   5  -5  -8   13.80    3.40
   5   5   8   16.30    5.20
   6  -5   8   46.50    5.30
  -6  -5  -8   49.10    7.10
   6  -5   8   44.10    7.10
   6  -5   8   45.30    5.50
   6  -5   8   40.10    5.00
   6  -5  -8   33.20    6.50
   6  -5  -8   35.10    4.70
   6  -5  -8   38.00    6.20
   6  -5  -8   36.90    5.80
   6   5   8   32.00    6.20
  -7  -5  -8    1.60    2.50
   7  -5   8    2.30    2.00
   7  -5   8    4.60    2.30
   7  -5  -8    4.60    2.80
   7  -5  -8    4.50    2.60
   7   5   8    4.60    3.10
   7  -5  -8    3.10    2.00
   8  -5   8    6.60    2.10
   8  -5   8    8.60    2.60
   8  -5  -8    6.30    2.30
   8  -5  -8    8.70    3.10
   8  -5  -8    6.50    2.80
   0  -6   8  213.58   13.90
   0  -6   8  216.38   15.20
   0   6   8  179.38   15.50
   0  -6  -8  225.68   16.20
   0  -6   8  205.18   17.00
   0  -6  -8  208.98   14.30
   1  -6   8  343.97   19.20
   1  -6   8  326.47   22.80
  -1  -6  -8  356.56   21.50
  -1  -6  -8  340.87   18.90
   1  -6   8  343.37   20.00
   1  -6  -8  306.87   19.40
  -1  -6   8  313.37   18.70
  -1  -6   8  329.47   22.50
  -1  -6   8  311.87   20.20
   1  -6  -8  297.67   20.70
   1   6   8  265.07   20.60
   2  -6   8  145.19   10.90
   2  -6   8  143.99   13.80
  -2  -6  -8  153.38   12.90
  -2  -6  -8  151.68   10.30
   2  -6   8  133.69   10.90
  -2  -6   8  141.79   10.90
   2  -6  -8  138.19   12.50
   2   6   8  161.68   13.80
   2  -6  -8  131.89   11.70
  -2  -6   8  139.99   11.10
   2  -6  -8  139.19   11.50
   3  -6   8   93.49    8.00
   3  -6   8   82.19    7.70
   3   6  -8   95.29    9.20
   3  -6   8   82.09   10.10
  -3  -6  -8   84.29    9.30
   3  -6  -8   61.59    7.60
   3   6   8   64.99    8.90
  -3  -6   8   64.89    7.00
   3  -6  -8   64.29    8.30
   3  -6  -8   64.69    7.70
   3  -6  -8   58.39    6.20
   4  -6   8  147.19   13.80
   4  -6   8  142.69   12.70
   4   6  -8  142.39   10.70
   4  -6   8  135.19   10.40
  -4  -6  -8  127.09   12.00
   4  -6   8  150.78   10.90
   4  -6  -8  129.99   11.30
   4  -6  -8  134.29    9.60
   4  -6  -8  133.59   11.40
   4   6   8  131.69   12.90
   4  -6  -8  141.89   12.40
  -4  -6   8  142.89    9.90
   5  -6   8  252.87   16.30
   5   6  -8  231.88   15.30
   5  -6   8  246.88   19.30
   5  -6   8  264.47   15.40
   5  -6   8  248.48   16.00
   5  -6  -8  295.37   18.00
   5  -6  -8  326.27   19.70
   5  -6  -8  305.37   18.50
   5  -6  -8  320.67   16.20
  -6  -6  -8    3.90    2.70
   6  -6   8    1.80    2.00
   6  -6   8    2.00    2.20
   6  -6   8    2.50    2.00
   6  -6  -8    0.90    1.60
   6  -6  -8    0.30    1.80
   6   6   8    0.20    1.90
   6  -6  -8    0.90    1.60
   7  -6   8   18.00    3.60
  -7  -6  -8   18.40    4.40
   7  -6   8   18.50    3.30
   7  -6  -8   22.10    4.30
   7  -6  -8   23.10    3.60
   7  -6  -8   21.00    4.00
   8  -6  -8   96.19    7.60
   8  -6  -8   88.69    6.50
   0  -7  -8  193.58   13.50
   0   7   8  211.48   16.10
   0  -7   8  186.28   12.90
   0  -7  -8  173.28   14.40
   0  -7   8  188.18   16.20
   0  -7   8  178.18   13.70
   1  -7   8   86.99    8.50
   1  -7   8   88.89   10.50
  -1  -7  -8   85.99    7.80
   1  -7   8   91.79    8.10
  -1  -7  -8   93.29    9.60
   1  -7  -8   67.09    8.40
   1  -7  -8   81.09    8.30
  -1  -7   8   82.59    8.30
   1   7   8   73.39    9.40
  -1  -7   8   77.99    8.50
  -1  -7   8   76.69    7.80
  -1  -7   8   74.39    9.70
   2  -7   8   32.10    4.90
   2  -7   8   30.20    4.90
  -2  -7  -8   30.20    5.70
   2  -7   8   28.40    6.20
  -2  -7  -8   31.10    4.40
   2  -7  -8   32.50    4.60
   2  -7  -8   36.20    6.10
   2   7   8   38.60    6.80
   2  -7  -8   34.00    5.50
  -2  -7   8   30.10    5.00
  -2  -7   8   32.90    5.20
   3  -7   8  456.35   23.70
  -3  -7  -8  425.76   25.20
   3   7  -8  466.95   24.30
   3  -7   8  429.96   23.60
   3  -7   8  452.25   27.80
   3  -7  -8  424.46   22.20
   3  -7  -8  450.95   24.90
   3  -7  -8  445.06   25.90
   3  -7  -8  402.66   24.80
  -3  -7   8  433.26   23.20
   3   7   8  400.86   26.30
  -4  -7  -8  261.87   18.50
   4  -7   8  309.67   21.20
   4   7  -8  304.87   17.10
  -4  -7   8  315.27   16.60
   4  -7  -8  319.97   19.80
   4   7   8  259.77   19.80
   4  -7  -8  299.27   18.50
   4  -7  -8  306.57   16.50
  -5  -7  -8   41.70    6.20
   5  -7   8   33.30    6.30
   5  -7   8   36.00    4.80
   5   7  -8   27.00    4.20
   5  -7  -8   43.90    4.80
   5   7   8   50.79    7.10
   5  -7  -8   40.80    6.00
   5  -7  -8   37.60    5.50
  -6  -7  -8   82.19    7.70
   6  -7   8   76.19    6.40
   6  -7   8   79.09    8.30
   6   7  -8   68.29    5.70
   6  -7  -8   57.49    6.90
   6  -7  -8   54.89    6.40
   6   7   8   66.49    7.70
   6  -7  -8   56.99    5.50
   7  -7  -8  550.24   25.60
   7  -7  -8  540.55   26.90
   0  -8  -8  133.59   11.30
   0   8   8  125.89   11.70
   0  -8   8  118.59   10.10
   0  -8   8  124.79   12.20
   0  -8   8  121.79    9.90
   0  -8  -8  133.39   10.20
  -1  -8  -8   43.30    6.50
   1  -8   8   45.20    7.30
  -1  -8  -8   42.70    5.20
   1  -8   8   45.00    5.60
   1   8   8   35.20    6.50
   1  -8  -8   38.30    6.20
  -1  -8   8   44.10    5.90
   1  -8  -8   47.30    6.00
  -1  -8   8   47.10    5.90
  -1  -8   8   42.40    7.10
  -2  -8  -8  359.66   23.50
   2  -8   8  422.06   22.40
   2   8  -8  426.86   23.20
   2  -8   8  444.86   26.80
  -2  -8  -8  419.36   21.20
   2  -8  -8  398.66   21.20
   2   8   8  471.15   26.40
  -2  -8   8  412.86   22.70
   2  -8  -8  416.06   23.30
   2  -8  -8  426.86   24.60
   3  -8   8  115.19    8.80
   3   8  -8  113.49    9.10
  -3  -8  -8  117.49   10.20
   3  -8   8  115.39   11.30
   3   8   8  105.79   10.80
   3  -8  -8  101.79    9.70
   3  -8  -8  109.19    7.90
   3  -8  -8  106.09    9.30
  -3  -8   8  100.59    8.20
   4  -8   8   32.60    4.40
  -4  -8  -8   32.60    5.20
   4   8  -8   21.70    3.90
   4  -8   8   29.80    5.70
   4  -8  -8   28.80    3.80
  -4  -8   8   33.60    3.60
   4   8   8   34.80    5.90
   4  -8  -8   26.50    4.50
   4  -8  -8   26.70    4.80
   5  -8   8   97.59    9.30
  -5  -8  -8   96.29    8.20
   5  -8   8   95.59    7.30
   5   8  -8   89.49    6.90
   5  -8  -8   93.59    6.70
   5  -8  -8   90.89    8.30
   5  -8  -8   92.59    7.90
   5   8   8   74.99    8.50
   6   8   8  584.44   29.20
   6  -8  -8  563.14   26.30
   6  -8  -8  552.14   27.60
   0  -9   8   47.10    6.00
   0  -9   8   52.39    7.40
   0   9   8   51.89    6.80
   0  -9   8   52.09    5.90
   0  -9  -8   47.40    5.40
   0  -9  -8   48.10    6.20
   1   9  -8  600.64   28.60
  -1  -9  -8  577.44   27.20
   1  -9   8  591.54   31.80
  -1  -9  -8  536.95   28.90
   1  -9   8  610.14   28.20
   1  -9  -8  518.05   27.20
   1  -9  -8  512.75   28.80
   1   9   8  597.84   30.90
   1  -9  -8  568.14   28.30
  -1  -9   8  510.75   30.30
  -1  -9   8  525.05   27.80
   2  -9   8   27.60    5.50
   2  -9   8   29.20    4.60
   2   9  -8   28.20    5.00
  -2  -9  -8   26.40    7.20
   2  -9  -8   25.50    4.50
   2   9   8   24.90    5.10
   2  -9  -8   23.80    3.60
   2  -9  -8   28.10    4.30
  -2  -9   8   26.90    4.10
   3   9  -8  237.18   13.60
   3  -9   8  241.68   16.80
   3  -9   8  242.98   13.80
  -3  -9   8  258.07   13.60
   3   9   8  221.78   16.00
   3  -9  -8  260.97   13.40
   3  -9  -8  245.88   15.20
   3  -9  -8  237.98   14.60
   4  -9   8   15.40    3.20
   4  -9   8   18.80    4.20
   4   9  -8   16.50    2.90
   4  -9  -8   18.30    3.40
   4  -9  -8   18.30    2.90
   4   9   8   20.50    4.30
   5  -9  -8   99.39    9.80
   0 -10  -8  300.37   15.30
   0 -10   8  292.87   15.90
   0 -10   8  294.47   18.10
   0  10   8  302.67   20.40
   0  10  -8  300.57   16.90
   1  10  -8   62.29    7.70
   1 -10   8   67.69    7.30
   1 -10   8   69.49    5.90
  -1 -10   8   70.99    6.00
   1  10   8   60.19    6.70
   1 -10  -8   68.19    5.60
   2 -10   8  408.86   23.80
   2 -10  -8  435.16   21.70
  -2 -10   8  431.76   21.10
   2  10   8  477.35   23.80
   3 -10  -8   48.20    5.60
   0   0  -9    0.40    1.40
   0   0  -9    0.80    1.50
  -1   0  -9  509.75   29.10
   1   0  -9  493.45   29.00
   1   0  -9  519.85   25.10
   1   0   9  507.25   25.30
   2   0   9 2141.49   90.59
   2   0   9 2211.18   96.29
  -2   0   9 2163.68   93.39
  -2   0  -9 2066.99   95.59
   2   0  -9 1898.21   89.89
   2   0  -9 1999.30   95.19
   3   0   9  493.65   25.50
   3   0  -9  501.25   25.20
   3   0   9  517.85   30.00
   4   0  -9 1247.08   54.29
   4   0   9 1150.18   56.99
   4   0   9 1259.17   54.59
   4   0   9 1122.29   59.49
   5   0   9  904.01   47.40
   5   0   9  848.02   43.80
   5   0   9  842.12   41.70
   5   0   9  892.71   41.00
   5   0  -9  857.21   40.80
   6   0  -9 1280.77   58.09
   6   0   9 1337.77   60.19
   6   0   9 1284.67   61.29
   6   0   9 1330.97   58.29
   6   0   9 1215.18   63.79
  -6   0  -9 1269.17   60.79
   7   0   9   56.29    6.20
   7   0   9   56.29    8.00
   7   0   9   51.29    5.70
   7   0  -9   56.79    5.60
  -7   0  -9   55.29    7.10
   8   0   9  136.99    9.20
   8   0  -9  148.39    9.50
  -8   0  -9  134.79   10.90
   8   0   9  146.69   10.10
   9   0   9   11.70    2.80
   9   0  -9   11.60    2.30
   9   0   9    9.70    3.30
   0   1  -9   16.40    4.40
   0  -1   9   12.90    6.00
   0   1  -9   16.90    3.20
   0  -1  -9   15.00    3.20
   1   1  -9  604.14   33.90
   1  -1   9  563.84   34.10
   1   1  -9  595.74   29.50
   1  -1   9  645.64   30.00
  -1   1  -9  633.54   34.30
   1   1   9  595.34   33.90
   1  -1  -9  627.74   29.40
   1   1   9  645.54   29.80
   2   1  -9  230.48   17.50
   2  -1   9  236.48   15.90
  -2   1   9  230.98   15.60
   2  -1   9  201.08   17.10
  -2  -1  -9  227.08   16.30
   2  -1   9  245.08   14.10
   2   1  -9  233.28   13.60
   2   1   9  257.67   14.20
  -2   1  -9  238.88   17.70
  -2  -1   9  237.28   13.60
  -2  -1   9  257.47   16.30
   2   1   9  241.58   17.70
   2  -1  -9  223.58   13.40
   2  -1  -9  232.18   14.10
   3  -1   9  886.81   39.70
   3   1  -9  849.32   39.10
   3  -1   9  827.32   41.80
   3  -1   9  896.61   45.60
  -3  -1  -9  812.32   41.70
   3  -1  -9  757.72   39.70
   3  -1  -9  848.92   38.90
   3   1   9  807.62   39.00
  -4  -1  -9  234.08   16.90
   4  -1   9  239.88   15.20
   4   1  -9  251.27   14.50
   4  -1   9  248.18   16.60
   4  -1   9  243.98   14.60
   4  -1   9  254.57   19.30
   4  -1  -9  220.68   13.90
   4   1   9  243.78   14.50
   4   1   9  253.47   18.60
   4  -1  -9  239.88   15.50
   5  -1   9 1389.26   64.39
   5  -1   9 1359.56   61.39
   5  -1   9 1275.97   66.99
   5   1  -9 1413.96   61.59
   5  -1   9 1319.97   62.29
  -5  -1  -9 1314.07   64.39
   5   1   9 1400.06   66.99
   5   1   9 1334.07   60.99
   5  -1  -9 1430.96   61.19
   6  -1   9   22.50    4.20
  -6  -1  -9   16.40    5.20
   6   1  -9   21.70    3.70
   6  -1   9   21.20    5.70
   6  -1   9   19.80    4.20
   6  -1   9   20.40    4.20
   6   1   9   32.40    4.80
   6  -1  -9   33.10    4.20
   7  -1   9  447.86   26.50
   7   1  -9  425.66   21.60
   7  -1   9  427.36   22.70
   7  -1   9  413.16   21.60
  -7  -1  -9  429.66   24.40
   7   1   9  364.06   25.00
   7  -1  -9  396.26   21.30
   7   1   9  427.16   21.30
   7   1   9  394.86   25.10
   8  -1   9   35.10    4.70
   8  -1   9   35.20    4.40
  -8  -1  -9   35.10    5.90
   8   1  -9   34.10    4.10
   8  -1  -9   37.20    4.40
   8  -1  -9   38.60    4.30
   8   1   9   36.50    4.70
   9   1  -9   58.79    4.90
   9  -1   9   57.49    4.90
   9  -1   9   58.79    6.20
   9  -1  -9   56.99    4.90
   0   2   9   61.49    8.10
   0   2  -9   69.59    6.00
   0  -2  -9   62.09    7.60
   0   2  -9   64.99    8.40
   0  -2   9   65.69    8.70
   1  -2   9  877.71   40.90
  -1  -2  -9  788.02   43.10
   1   2  -9  879.51   40.70
   1  -2   9  805.22   45.50
   1   2  -9  830.02   45.40
   1  -2   9  898.21   43.60
   1   2   9 1004.10   46.50
  -1   2  -9  892.51   45.90
   1  -2  -9  954.10   44.60
   1  -2  -9  854.91   41.00
   2  -2   9  224.88   13.50
   2   2  -9  201.18   12.90
   2  -2   9  222.28   15.70
   2  -2   9  210.38   17.20
  -2  -2  -9  228.98   15.90
   2  -2   9  223.18   15.30
   2  -2  -9  236.08   14.30
  -2  -2   9  235.28   13.90
   2   2   9  203.88   16.50
   2  -2  -9  234.88   13.10
   2  -2  -9  232.88   16.00
   3  -2   9 1255.07   57.59
   3   2  -9 1280.87   56.49
   3  -2   9 1259.27   59.19
   3  -2   9 1265.57   56.79
   3  -2   9 1278.37   62.89
  -3  -2  -9 1210.38   59.79
   3  -2  -9 1206.58   57.79
   3  -2  -9 1175.68   55.79
   3   2   9 1376.26   62.59
   3  -2  -9 1217.88   59.99
   4   2  -9  244.58   13.50
  -4  -2  -9  218.38   15.80
   4  -2   9  230.98   15.20
   4  -2   9  232.68   13.60
   4  -2   9  238.98   14.40
   4  -2   9  226.68   17.80
   4  -2  -9  170.58   14.60
   4  -2  -9  169.08   13.40
   4  -2  -9  176.08   12.20
   5  -2   9   68.89    9.60
   5   2  -9   77.19    7.00
   5  -2   9   73.59    8.00
   5  -2   9   75.89    7.70
  -5  -2  -9   74.79    9.20
   5  -2   9   75.89    7.20
   5  -2  -9   84.09    9.20
   5  -2  -9   87.79    7.00
   5   2   9   75.69    9.50
   5  -2  -9   90.69    8.50
   6  -2   9  241.58   16.70
   6  -2   9  246.18   19.30
   6  -2   9  256.27   15.30
   6   2  -9  252.07   15.10
  -6  -2  -9  261.57   18.10
   6  -2   9  257.27   16.10
   6  -2  -9  257.47   14.80
   6  -2  -9  272.57   17.10
   6   2   9  297.87   19.90
   7  -2   9  232.48   13.70
   7   2  -9  218.08   13.30
   7  -2   9  228.88   14.50
  -7  -2  -9  224.58   16.10
   7  -2   9  222.48   17.00
   7   2   9  251.17   17.90
   7  -2  -9  219.38   13.80
   7  -2  -9  223.18   13.20
   8   2  -9  420.86   20.50
   8  -2   9  375.66   20.20
  -8  -2  -9  413.76   23.10
   8  -2   9  397.36   21.20
   8  -2  -9  398.86   20.20
   8  -2  -9  407.46   20.20
   9   2  -9   34.10    3.50
   9  -2   9   30.40    3.60
   9  -2  -9   26.30    3.10
   0  -3  -9   22.00    3.90
   0   3  -9   18.70    3.40
   0  -3   9   17.50    3.90
   0  -3  -9   19.70    4.80
   0   3   9   20.70    5.50
   0  -3   9   21.70    5.40
   1   3  -9  256.07   14.60
   1  -3   9  267.07   15.60
   1  -3   9  265.57   14.80
   1  -3   9  256.67   19.10
   1  -3   9  248.18   16.60
  -1  -3  -9  259.97   17.50
   1  -3  -9  237.88   15.20
   1  -3  -9  252.67   17.50
   1   3   9  230.18   18.00
   2   3  -9  418.16   21.10
   2  -3   9  435.16   21.50
   2  -3   9  428.66   26.70
   2  -3   9  428.36   23.60
  -2  -3  -9  441.96   24.80
   2  -3   9  417.06   22.20
   2  -3  -9  366.06   22.00
   2   3   9  368.66   25.20
  -2  -3   9  374.56   21.60
   2  -3  -9  366.56   23.70
  -3  -3  -9  187.08   14.40
   3  -3   9  195.68   13.50
   3  -3   9  187.68   11.90
   3  -3   9  174.78   12.20
   3  -3   9  183.88   15.80
   3   3  -9  180.68   11.40
  -3  -3   9  156.18   11.00
   3  -3  -9  154.88   13.50
   3  -3  -9  154.78   12.30
   3   3   9  180.38   15.30
  -4  -3  -9   67.99    8.70
   4  -3   9   71.09    7.40
   4  -3   9   72.59    9.70
   4   3  -9   75.89    6.70
   4  -3   9   73.69    7.10
   4  -3   9   67.99    7.50
   4   3   9   76.79    9.50
   4  -3  -9   80.49    8.00
   4  -3  -9   76.79    8.80
   5  -3   9   98.39    9.20
   5  -3   9   98.09    8.40
   5  -3   9  101.79    9.00
  -5  -3  -9   95.79   10.30
   5  -3   9  100.69   11.50
   5   3  -9  106.79    8.30
   5   3   9  101.89   11.20
   5  -3  -9  127.89   10.30
   5  -3  -9  130.49   11.40
   6  -3   9  828.32   38.30
   6  -3   9  833.32   39.40
   6   3  -9  792.42   37.80
  -6  -3  -9  768.02   41.10
   6  -3   9  830.52   43.80
   6  -3   9  788.92   40.10
   6   3   9  864.71   43.40
   6  -3  -9  790.22   40.00
   6  -3  -9  785.42   38.80
   6  -3  -9  778.62   41.50
  -7  -3  -9   15.00    4.60
   7  -3   9   16.80    3.60
   7   3  -9   17.80    3.10
   7  -3   9   18.00    4.90
   7  -3   9   15.90    3.70
   7  -3  -9   27.20    3.90
   7  -3  -9   27.00    3.50
   7  -3  -9   26.30    5.00
   7   3   9   29.00    5.80
   8  -3   9  183.48   11.20
   8   3  -9  179.38   10.20
  -8  -3  -9  159.98   11.90
   8  -3   9  159.38   10.10
   8  -3  -9  162.48   10.00
   8  -3  -9  156.68   12.10
   9  -3   9  146.29    9.20
   0   4   9   24.50    5.70
   0  -4   9   23.80    4.50
   0  -4   9   25.30    6.00
   0   4  -9   22.20    3.80
   0  -4   9   24.40    4.70
   0  -4  -9   25.40    5.50
   0  -4  -9   24.00    4.20
   1  -4   9 1331.47   62.49
   1  -4   9 1299.07   65.59
   1  -4   9 1287.87   60.49
  -1  -4  -9 1310.97   63.29
   1  -4   9 1379.86   59.69
   1   4  -9 1315.67   59.19
   1  -4  -9 1347.97   63.69
  -1  -4   9 1330.57   60.39
   2  -4   9  650.03   33.20
   2   4  -9  625.84   31.70
   2  -4   9  688.93   32.50
  -2  -4  -9  691.13   36.30
   2  -4   9  645.94   34.40
   2  -4   9  650.33   37.70
   2  -4  -9  702.03   34.20
   2  -4  -9  660.93   35.80
  -2  -4   9  679.13   33.50
  -3  -4  -9  281.27   18.90
   3   4  -9  273.17   15.50
   3  -4   9  264.27   20.10
   3  -4   9  281.67   15.90
   3  -4   9  274.67   17.50
  -3  -4   9  266.47   16.00
   3  -4  -9  281.37   19.20
   3  -4  -9  260.47   17.10
   4  -4   9  998.20   53.39
   4   4  -9  977.50   47.00
   4  -4   9 1019.10   48.80
   4  -4   9 1007.20   49.40
   4  -4   9 1036.90   47.70
  -4  -4  -9 1164.08   52.39
   4  -4  -9 1019.60   49.70
   4  -4  -9 1008.20   51.29
   4   4   9 1038.00   53.39
   5  -4   9   78.79   10.00
  -5  -4  -9   77.99    9.20
   5  -4   9   79.79    7.30
   5  -4   9   79.79    7.70
   5  -4   9   73.39    7.60
   5   4  -9   77.69    6.70
   5  -4  -9   86.79    8.40
   5  -4  -9   97.29    9.80
   5   4   9   90.89   10.20
   6  -4   9  171.68   12.00
   6   4  -9  161.08   10.60
   6  -4   9  167.68   11.20
  -6  -4  -9  166.38   13.50
   6  -4   9  168.58   14.60
   6  -4  -9  181.28   11.20
   6  -4  -9  196.78   14.40
   6  -4  -9  178.98   12.80
   7  -4   9  329.07   18.00
  -7  -4  -9  352.06   20.20
   7  -4   9  331.37   22.70
   7  -4   9  328.17   17.10
   7   4  -9  313.47   16.50
   7  -4  -9  295.17   18.40
   7  -4  -9  303.67   16.80
   7  -4  -9  295.77   19.40
   8  -4   9  425.16   21.40
   8  -4   9  423.96   20.60
   8   4  -9  403.16   20.10
  -8  -4  -9  426.36   23.00
   8  -4  -9  419.26   20.50
   8  -4  -9  427.16   24.70
   0   5   9  128.89   12.50
   0  -5   9  143.69   10.70
   0  -5  -9  149.59   10.80
   0  -5   9  135.79   11.70
   0  -5  -9  144.59   12.60
   0  -5   9  133.29   13.20
   0   5  -9  157.08    9.90
   1   5  -9  166.48   10.60
   1  -5   9  154.08   11.50
   1  -5   9  161.38   12.60
   1  -5   9  166.68   14.90
  -1  -5  -9  175.08   13.80
  -1  -5  -9  152.48   10.70
   1  -5  -9  162.78   13.70
   1   5   9  179.98   14.70
  -1   5  -9  157.28   10.50
  -1  -5   9  159.98   11.60
   1  -5  -9  163.48   12.00
   2   5  -9  408.76   20.00
   2  -5   9  405.26   20.30
   2  -5   9  404.56   25.70
  -2  -5  -9  416.16   24.10
   2  -5   9  398.46   21.50
   2  -5   9  385.46   22.30
   2  -5  -9  344.87   23.10
  -2  -5   9  345.47   21.10
   2  -5  -9  333.17   21.30
   2   5   9  371.26   24.30
  -2  -5   9  342.67   21.60
   3  -5   9   37.70    5.40
  -3  -5  -9   41.50    6.90
   3   5  -9   38.30    4.70
   3  -5   9   41.90    7.20
   3  -5   9   38.30    5.10
   3  -5   9   36.80    5.30
   3  -5  -9   38.30    5.80
   3   5   9   50.89    7.70
  -3  -5   9   40.00    5.20
   3  -5  -9   41.30    6.70
   4  -5   9  506.35   30.60
   4  -5   9  546.45   25.50
   4  -5   9  531.25   26.70
  -4  -5  -9  494.85   28.60
   4   5  -9  504.25   24.90
   4  -5   9  474.45   26.60
   4  -5  -9  505.55   28.90
   4  -5  -9  523.15   27.50
   4   5   9  413.46   28.90
   5  -5   9    5.00    3.20
   5  -5   9    3.70    2.50
  -5  -5  -9    5.60    3.00
   5  -5   9    5.00    2.40
   5  -5   9    4.90    2.40
   5   5   9    6.70    3.60
   5  -5  -9    7.90    3.50
   5  -5  -9    6.00    3.10
   5  -5  -9    7.60    3.40
   6  -5   9  371.76   19.30
   6  -5   9  357.96   20.00
  -6  -5  -9  396.26   22.40
   6  -5   9  368.46   23.40
   6  -5  -9  331.67   18.80
   6  -5  -9  363.36   20.90
   6  -5  -9  366.16   22.40
   6   5   9  401.66   23.70
  -7  -5  -9   84.69    8.30
   7  -5   9   79.69    6.40
   7  -5   9   83.79    7.00
   7  -5  -9   96.09    7.90
   7   5   9   91.59    8.60
   7  -5  -9   93.49    6.80
   7  -5  -9   93.09    8.60
   0  -6   9  166.38   14.70
   0  -6   9  155.08   12.50
   0  -6   9  161.38   11.50
   0  -6  -9  162.98   11.60
   0  -6  -9  168.08   13.70
   0   6   9  158.98   14.00
   1  -6   9  386.46   20.90
  -1  -6  -9  393.76   23.40
   1  -6   9  370.06   24.60
  -1  -6  -9  363.86   19.60
   1  -6   9  381.46   22.20
  -1  -6   9  340.07   20.60
   1  -6  -9  355.86   20.80
   1  -6  -9  327.97   22.30
  -1  -6   9  328.77   20.00
   2  -6   9   13.00    4.70
  -2  -6  -9   13.20    4.50
   2  -6   9   13.10    3.40
   2  -6   9   11.90    3.40
  -2  -6   9   15.30    4.00
   2   6   9   17.40    5.20
  -2  -6   9   19.20    4.00
   2  -6  -9   18.90    4.20
   2  -6  -9   18.90    4.70
  -3  -6  -9  236.58   16.30
   3  -6   9  211.38   13.70
   3  -6   9  217.78   13.90
   3  -6   9  199.68   14.10
   3  -6   9  218.08   17.30
   3   6  -9  219.28   14.50
  -3  -6   9  202.98   13.10
   3   6   9  213.78   16.60
   3  -6  -9  203.78   15.70
   3  -6  -9  201.48   14.30
   4   6  -9  216.58   12.90
   4  -6   9  220.08   13.70
  -4  -6  -9  205.08   15.30
   4  -6   9  227.28   17.30
   4  -6   9  225.08   12.60
   4   6   9  181.28   15.60
   4  -6  -9  193.18   15.00
   4  -6  -9  199.68   14.10
  -5  -6  -9   60.69    7.70
   5  -6   9   58.29    8.00
   5  -6   9   58.69    5.60
   5  -6   9   59.19    6.20
   5  -6  -9   67.59    5.90
   5  -6  -9   69.49    7.20
   5   6   9   78.49    8.90
   5  -6  -9   65.79    7.70
   6  -6   9  255.77   14.10
   6  -6   9  247.38   12.80
  -6  -6  -9  247.78   15.70
   6  -6   9  261.37   16.90
   6  -6  -9  217.48   14.20
   6  -6  -9  220.18   15.40
   6   6   9  191.08   15.20
   6  -6  -9  235.38   13.10
   7  -6   9  122.69    9.50
   7  -6  -9  120.99    8.50
   7  -6  -9  106.69    7.20
   7  -6  -9   92.89   11.00
   0   7   9   61.19    8.40
   0  -7   9   77.29    8.30
   0  -7   9   86.59   10.00
   0  -7   9   78.79    7.50
   0  -7  -9   84.99    7.50
   0  -7  -9   75.09    8.70
   0  -7   9   79.79    7.90
   1  -7   9   93.19    8.10
   1  -7   9   86.89    8.60
  -1  -7  -9   98.09    9.80
  -1  -7  -9   94.29    7.50
   1  -7   9   92.29   10.60
   1   7   9   99.99   10.60
   1  -7  -9  104.29   10.00
  -1  -7   9   94.19    8.40
  -1  -7   9  101.79    8.70
   1  -7  -9   98.59    8.60
   2  -7   9   50.69    7.90
  -2  -7  -9   54.69    7.40
   2  -7   9   48.80    5.90
   2   7  -9   64.29    7.70
  -2  -7   9   75.99    6.90
   2  -7  -9   68.29    8.00
   2   7   9   61.59    8.30
   2  -7  -9   68.69    7.00
   3  -7   9   47.30    7.30
   3   7  -9   46.50    6.50
   3  -7   9   45.50    5.70
  -3  -7  -9   41.10    6.50
   3   7   9   71.79    8.50
   3  -7  -9   65.89    7.60
  -3  -7   9   60.29    5.60
   3  -7  -9   65.79    6.90
   4   7  -9   54.59    5.40
   4  -7   9   57.19    5.80
  -4  -7  -9   61.39    7.10
   4  -7   9   56.99    7.70
   4  -7  -9   43.10    6.20
   4  -7  -9   43.40    6.80
   4   7   9   38.10    6.40
   4  -7  -9   46.20    5.80
   5  -7   9    2.30    2.30
  -5  -7  -9    2.00    2.10
   5  -7   9    1.60    1.70
   5   7   9    2.40    2.30
   5  -7  -9    1.40    1.60
   5  -7  -9    3.60    2.20
   5  -7  -9    1.90    1.70
   6  -7   9  505.25   27.00
   6  -7   9  487.25   25.00
   6  -7  -9  508.35   25.40
   6   7   9  486.55   26.90
   6  -7  -9  532.65   26.90
   6  -7  -9  541.05   24.10
   0  -8  -9   22.40    3.70
   0  -8   9   23.00    5.20
   0  -8  -9   22.80    4.70
   0   8   9   24.10    5.00
   0  -8   9   25.80    4.70
   0  -8   9   23.40    4.10
   1  -8   9   81.99    9.30
   1  -8   9   86.89    7.70
   1  -8   9   89.29    7.70
  -1  -8  -9   83.89    6.40
  -1  -8  -9   93.39    8.90
   1   8   9   68.39    8.30
   1  -8  -9   86.59    7.40
   1  -8  -9   86.99    8.70
  -1  -8   9   88.49    7.70
   2   8  -9   85.89    8.10
  -2  -8  -9   85.69    8.40
   2  -8   9   80.59    9.20
   2  -8   9   83.29    7.30
   2  -8  -9   85.69    8.40
   2   8   9   77.39    8.70
  -2  -8   9   87.39    7.10
   2  -8  -9   90.99    7.70
  -3  -8  -9  384.26   21.20
   3   8  -9  364.86   19.00
   3  -8   9  356.36   19.30
   3  -8   9  372.86   22.80
   3  -8  -9  333.67   19.70
   3   8   9  419.66   23.00
   3  -8  -9  354.76   21.00
  -3  -8   9  358.86   18.60
   4  -8   9  382.66   22.30
   4  -8   9  378.76   19.20
   4   8  -9  354.76   18.50
  -4  -8  -9  333.97   20.20
   4  -8  -9  382.96   21.10
   4  -8  -9  385.06   20.00
   4  -8  -9  388.76   20.70
   5  -8   9  220.28   14.40
   5   8   9  210.88   14.00
   5  -8  -9  218.48   12.70
   0  -9  -9   14.00    3.60
   0   9  -9   23.00    4.50
   0  -9   9   14.50    3.20
   0  -9   9   14.70    4.10
   0  -9  -9   12.00    2.40
   1   9  -9   95.09    7.90
   1  -9   9   96.29    7.60
   1  -9   9   94.49    9.20
   1  -9   9   97.19    7.70
  -1  -9  -9   92.69    8.20
   1  -9  -9  120.29    7.60
  -1  -9   9  106.59    7.60
   1  -9  -9  103.79    8.40
   1   9   9   91.39    8.60
   2  -9   9  173.08   11.20
   2  -9   9  185.78   10.80
   2  -9   9  187.28   13.10
   2   9  -9  177.58   10.40
  -2  -9   9  162.78   10.00
   2   9   9  146.09   11.60
   2  -9  -9  152.98   10.20
   3  -9   9  427.46   23.80
   3   9   9  419.36   23.50
   3  -9  -9  443.06   21.50
   0   0 -10  438.96   23.50
   0   0  10  499.15   32.90
   1   0  10  844.82   47.60
   1   0 -10  972.60   42.40
  -1   0 -10  920.41   42.30
   2   0  10  279.27   16.40
   2   0 -10  275.17   16.20
   2   0  10  325.97   22.00
   3   0  10  139.29   13.80
   3   0  10  157.78   10.40
   3   0 -10  131.09    9.60
   4   0  10   70.29    6.80
   4   0 -10   79.39    6.80
   4   0  10   69.59    9.70
   5   0  10   11.20    4.60
   5   0  10    9.40    3.10
   5   0 -10   10.30    2.90
   6   0  10    7.40    2.70
   6   0 -10    4.30    2.00
   6   0  10    6.70    3.90
   7   0 -10  478.55   23.80
   7   0  10  479.45   28.00
   7   0  10  485.35   23.80
   8   0 -10  389.56   18.50
   8   0  10  367.96   19.30
   8   0  10  339.47   17.80
   0  -1  10  818.02   43.60
   0  -1 -10  795.72   37.70
   0   1 -10  817.72   38.10
   1   1 -10  467.05   24.30
   1  -1  10  501.05   30.00
  -1  -1 -10  493.95   24.50
  -1   1 -10  486.55   24.60
   1  -1 -10  470.45   24.20
   1   1  10  499.25   29.40
   2   1 -10  776.22   37.20
   2  -1  10  880.51   44.30
   2  -1  10  799.62   37.60
   2   1  10  769.52   42.40
   2   1  10  780.72   37.30
   2  -1 -10  741.43   36.90
   3  -1  10   40.00    7.30
   3  -1  10   41.60    5.20
   3   1 -10   38.70    4.80
   3  -1 -10   40.10    4.90
   3   1  10   52.29    7.80
   3   1  10   48.60    5.60
   4  -1  10  317.77   22.60
   4  -1  10  332.77   21.50
  -4  -1 -10  291.47   20.00
   4  -1  10  321.07   17.80
   4   1 -10  285.27   17.20
   4  -1 -10  312.67   17.40
   4   1  10  323.07   17.50
   4   1  10  341.97   22.70
   5  -1  10  285.47   20.50
   5  -1  10  277.67   17.90
   5  -1  10  291.37   15.90
  -5  -1 -10  252.77   17.50
   5   1 -10  272.57   15.50
   5  -1 -10  246.98   15.00
   5   1  10  232.48   14.70
   6   1 -10   85.39    7.10
   6  -1  10   90.29    7.90
   6  -1  10   88.39   10.30
   6  -1  10   80.99    7.20
  -6  -1 -10   83.99    8.80
   6   1  10   93.79    7.30
   6   1  10   85.89   10.20
   6  -1 -10  102.29    7.50
   7   1 -10  116.39    8.00
   7  -1  10   98.19    7.80
  -7  -1 -10  103.79    9.40
   7  -1  10  102.79    8.30
   7  -1  10  106.89   10.60
   7  -1 -10  118.79    8.00
   7   1  10  122.19   11.10
   8  -1  10  577.34   27.40
   8  -1  10  569.24   28.10
   8   1 -10  603.04   27.70
   8  -1 -10  602.94   27.60
   0  -2 -10  219.88   16.00
   0  -2  10  221.28   17.60
   0   2 -10  221.08   13.40
   0   2  10  241.38   23.90
   1  -2  10   75.89    9.40
  -1  -2 -10   74.09    8.10
   1  -2 -10   51.49    7.30
   1   2  10   44.00    7.40
  -1   2 -10   52.29    5.50
   2   2 -10   12.60    3.00
   2  -2  10   12.40    3.30
  -2  -2 -10   10.30    4.10
   2  -2  10   15.10    4.80
   2  -2  10   11.90    4.30
   2   2  10   21.80    5.50
   2  -2 -10   21.30    3.50
   3  -2  10  458.05   23.70
  -3  -2 -10  451.85   26.60
   3   2 -10  466.95   23.70
   3  -2  10  450.05   26.10
   3  -2  10  486.55   29.50
   3   2  10  416.46   27.90
   3  -2 -10  491.65   24.70
   3  -2 -10  463.95   23.40
   4   2 -10   91.19    7.30
  -4  -2 -10   92.09    9.60
   4  -2  10   93.39   10.80
   4  -2  10   93.69    7.60
   4  -2  10   84.39    8.60
   4   2  10   66.09    9.10
   4  -2 -10   64.29    7.20
   4  -2 -10   61.09    6.30
   5   2 -10  584.04   30.40
   5  -2  10  606.04   31.50
   5  -2  10  612.94   36.20
  -5  -2 -10  643.74   34.10
   5  -2  10  618.24   30.80
   5  -2  10  578.04   32.80
   5   2  10  735.83   36.90
   5  -2 -10  659.93   30.40
   6  -2  10  328.47   18.90
   6  -2  10  327.07   22.40
   6  -2  10  338.97   18.30
  -6  -2 -10  330.47   20.70
   6   2 -10  322.57   17.90
   6  -2 -10  365.66   18.00
   7   2 -10  225.78   13.20
   7  -2  10  231.88   16.70
   7  -2  10  217.48   13.30
  -7  -2 -10  216.08   15.30
   7  -2  10  233.08   14.10
   7  -2 -10  256.57   13.30
   7   2  10  273.87   17.50
   8  -2  10  230.38   12.40
   8  -2  10  239.28   14.40
   8   2 -10  230.58   12.40
   8  -2 -10  217.68   12.10
   0  -3 -10   20.60    5.10
   0  -3  10   19.30    5.50
   0   3  10   18.20    5.50
   0   3 -10   21.20    3.50
   1   3 -10  364.66   20.40
  -1  -3 -10  384.16   23.70
   1  -3  10  400.46   26.00
   1  -3 -10  414.36   20.90
  -1   3 -10  405.26   20.80
   1   3  10  385.06   24.90
   1  -3 -10  406.56   24.30
  -2  -3 -10  433.96   25.20
   2  -3  10  434.46   27.30
   2  -3  10  415.36   24.30
   2  -3  10  435.96   22.00
   2   3 -10  422.56   21.70
   2  -3  10  439.36   26.90
   2  -3 -10  371.96   21.90
  -2  -3  10  388.76   21.80
   2   3  10  447.86   26.70
   2  -3 -10  373.96   24.30
   3  -3  10  292.67   16.50
   3  -3  10  270.77   18.20
  -3  -3 -10  272.57   19.10
   3  -3  10  281.87   21.00
   3   3 -10  287.17   16.20
   3  -3 -10  313.27   19.70
   3   3  10  232.38   19.10
   3  -3 -10  334.97   17.90
   4  -3  10  356.66   19.90
   4   3 -10  351.66   19.70
   4  -3  10  372.46   25.10
   4  -3  10  343.67   21.70
  -4  -3 -10  362.56   22.80
   4  -3  10  363.56   20.80
   4  -3 -10  381.26   21.30
   4  -3 -10  402.36   23.40
   4   3  10  433.06   25.80
   5  -3  10   73.39    7.80
   5   3 -10   78.69    6.70
   5  -3  10   81.09    7.00
  -5  -3 -10   81.89    9.00
   5  -3  10   80.29    7.40
   5  -3  10   87.09   10.10
   5   3  10   77.69    9.40
   5  -3 -10   67.59    7.30
   5  -3 -10   74.19    8.40
   6  -3  10   74.69    7.00
   6  -3  10   71.49    6.50
  -6  -3 -10   70.69    8.20
   6   3 -10   71.29    6.10
   6  -3  10   73.09    9.00
   6   3  10   67.89    8.60
   6  -3 -10   83.29    8.30
   7  -3  10   20.80    3.50
  -7  -3 -10   20.50    4.60
   7   3 -10   22.20    3.20
   7  -3  10   24.40    4.90
   7  -3  10   24.30    3.80
   7   3  10   24.60    5.00
   8  -3  10   38.90    3.90
   8   3 -10   39.20    3.80
   0  -4  10   22.70    5.80
   0  -4 -10   22.90    5.50
   0   4  10   25.70    6.00
   0   4 -10   20.90    3.70
  -1  -4 -10  808.32   41.90
   1  -4  10  853.91   44.60
   1  -4  10  765.02   40.80
   1   4 -10  817.92   37.90
   1   4  10  868.91   43.90
   1  -4 -10  796.62   42.00
  -1   4 -10  787.22   37.80
   1  -4 -10  760.32   38.20
   2  -4  10  129.39    9.70
   2   4 -10  126.89    9.40
  -2  -4 -10  134.69   12.10
   2  -4  10  128.09   10.20
   2  -4  10  141.49   13.70
   2  -4  10  126.39   11.10
   2   4  10  126.49   12.70
   2  -4 -10  154.78   12.80
  -2  -4  10  152.48   10.40
   2  -4 -10  157.28   10.80
   3  -4  10   96.69    9.50
   3  -4  10  106.09    9.10
  -3  -4 -10  104.69   10.60
   3  -4  10  107.89   11.90
   3   4 -10  102.99    8.20
   3  -4  10  107.09    8.50
  -3  -4  10  136.59    8.80
   3  -4 -10  140.89   11.80
   4   4 -10  295.47   16.50
   4  -4  10  287.47   21.30
  -4  -4 -10  302.67   20.00
   4  -4  10  281.67   18.40
   4  -4  10  278.67   17.40
   4  -4  10  283.77   16.60
   4  -4 -10  328.77   18.50
   4   4  10  352.06   21.90
   4  -4 -10  311.87   20.00
   5  -4  10  104.09    7.90
   5  -4  10  101.99    8.50
   5  -4  10  100.69   11.00
   5   4 -10   96.79    7.50
  -5  -4 -10  103.79   10.00
   5  -4 -10  116.09    9.20
   5  -4 -10  108.39   10.10
   5   4  10   99.59   10.70
   6  -4  10  190.58   11.90
   6   4 -10  181.98   10.80
   6  -4  10  188.78   14.60
  -6  -4 -10  180.88   13.30
   6  -4  10  184.18   11.10
   6  -4 -10  177.28   12.10
   6  -4 -10  163.38   12.90
   6   4  10  176.68   14.00
  -7  -4 -10    4.40    2.60
   7  -4  10    4.70    2.50
   7  -4  10    2.50    1.70
   7   4 -10    6.60    2.00
   7  -4  10    5.70    2.20
   7  -4 -10    2.80    2.40
   7   4  10    4.70    2.80
   0  -5  10   96.69   10.80
   0  -5 -10   93.89    9.80
   0   5  10   79.19    9.90
   0   5 -10  100.09    7.40
   0  -5 -10   90.09    7.30
   1   5 -10  124.59    8.50
  -1  -5 -10  113.19   11.00
   1  -5  10  113.09   10.50
   1  -5  10  109.59    9.20
   1  -5  10  117.19   12.10
  -1  -5  10  115.49    9.40
  -1   5 -10  118.79    8.50
   1  -5 -10  115.89   11.00
   1  -5 -10  117.69    9.20
   1   5  10  104.49   11.60
   2  -5  10   95.99   10.80
   2  -5  10   92.49    8.80
   2   5 -10   89.19    7.10
   2  -5  10   97.19    8.10
  -2  -5 -10   98.69    9.90
   2  -5 -10   75.89    8.90
  -2  -5  10   74.19    7.20
   2  -5 -10   73.89    7.50
   2   5  10   85.29   10.20
  -2   5 -10   73.69    6.60
   3  -5  10   46.10    6.00
   3  -5  10   36.20    4.70
  -3  -5 -10   41.40    6.50
   3  -5  10   38.70    5.20
   3   5 -10   35.10    4.40
   3  -5  10   40.50    7.00
   4  -5  10    6.40    3.30
  -4  -5 -10    6.60    3.10
   4   5 -10    7.60    2.30
   4  -5  10    9.30    3.00
   4  -5  10    7.20    2.40
   4  -5 -10    3.70    2.50
   4   5  10    3.50    2.70
   4  -5 -10    6.40    2.80
   5   5 -10  736.23   34.70
  -5  -5 -10  782.52   37.50
   5  -5  10  718.93   33.70
   5  -5  10  730.63   34.90
   5  -5  10  735.03   38.90
   5  -5 -10  716.53   35.30
   5  -5 -10  736.03   37.20
   5   5  10  620.04   37.40
   6  -5  10  140.79    9.70
   6  -5  10  144.49   12.00
   6  -5  10  129.89    8.80
  -6  -5 -10  131.59   10.80
   6  -5 -10  164.78   11.60
   6   5  10  134.89   11.50
   6  -5 -10  168.98   10.60
   7  -5  10   13.10    2.40
   0   6  10   27.80    6.00
   0  -6  10   32.30    4.90
   0  -6 -10   32.80    4.20
   0  -6  10   29.60    6.00
   0  -6  10   29.10    4.60
   0  -6 -10   31.10    5.60
  -1  -6 -10    3.40    2.50
   1  -6  10    4.60    3.10
   1  -6  10    3.90    2.20
   1   6  10    6.10    3.50
  -1  -6  10    1.10    2.30
   1  -6 -10    4.40    2.70
   1  -6 -10    5.50    2.60
  -1  -6  10    4.80    2.60
   2  -6  10  101.99    8.60
  -2  -6 -10  103.29   10.20
   2   6 -10  115.09    9.80
   2  -6  10  101.49   11.10
  -2  -6  10  103.39    8.40
   2   6  10  130.19   12.00
   2  -6 -10  113.59   10.60
   2  -6 -10  100.19    8.60
  -2   6 -10  101.69    7.50
   3  -6  10  126.09    9.60
   3  -6  10  128.49   12.20
  -3  -6 -10  122.29   10.90
   3  -6 -10  124.69   11.00
  -3  -6  10  121.89    8.30
  -3   6 -10  128.69    8.50
   3  -6 -10  138.99   10.10
   4  -6  10  274.67   15.10
  -4  -6 -10  288.97   17.20
   4  -6  10  288.27   18.80
   4  -6 -10  226.38   14.80
   4  -6 -10  240.08   16.50
   4   6  10  214.88   16.80
  -4   6 -10  242.78   13.50
   5  -6  10   80.29    8.50
  -5  -6 -10   70.69    7.40
   5  -6  10   80.09    6.60
   5  -6 -10   70.69    7.40
   5   6  10   74.59    8.30
   5  -6 -10   66.09    6.30
   6  -6  10  100.49    8.90
  -6  -6 -10   94.99   10.50
   6  -6  10   97.29    7.70
   6  -6 -10   95.69    7.20
   6   6  10   89.99    8.40
   0  -7  10   86.49    7.90
   0  -7 -10   93.79    9.30
   0  -7  10   96.49   10.00
   0  -7 -10  107.49    8.80
   0  -7  10   88.79    8.00
  -1  -7 -10   41.30    6.40
   1  -7  10   40.10    5.40
   1  -7  10   44.30    7.00
   1  -7  10   42.80    5.40
   1   7  10   56.19    7.50
   1  -7 -10   65.69    7.50
   1  -7 -10   66.49    5.90
  -1  -7  10   59.69    5.90
  -1  -7  10   59.29    6.20
   2   7 -10   51.49    6.50
  -2  -7 -10   39.10    6.00
   2  -7  10   41.70    6.80
   2  -7  10   43.90    5.20
   2  -7 -10   48.50    6.30
   2  -7 -10   51.39    5.40
  -2  -7  10   44.40    4.80
   2   7  10   47.70    7.00
  -3  -7 -10   99.19    9.40
   3  -7  10  111.99   10.70
   3   7 -10   99.59    7.70
   3  -7  10  108.69    8.30
   3   7  10  107.29   10.40
   3  -7 -10  119.19   10.00
   3  -7 -10  118.09    8.70
  -3  -7  10  117.19    7.60
   4  -7  10  243.38   16.60
   4  -7  10  240.98   13.70
  -4  -7 -10  211.58   14.80
   4  -7 -10  238.68   15.40
   4  -7 -10  245.38   14.00
   4   7  10  264.77   16.60
   5  -7  10   89.39    8.10
   5   7  10   66.49    7.20
   5  -7 -10   67.19    5.80
   0  -8 -10   22.40    4.40
   0  -8  10   20.90    3.60
   0  -8  10   23.30    4.30
   0  -8  10   21.30    4.60
   1  -8  10   32.70    4.10
   1  -8  10   30.90    4.60
   1   8 -10   32.10    5.30
   1  -8  10   31.00    5.30
  -1  -8 -10   30.20    4.90
  -1  -8  10   26.70    3.70
   1  -8 -10   25.00    4.50
   1   8  10   22.50    4.70
   1  -8 -10   25.50    3.30
   2  -8  10   73.89    6.40
   2  -8  10   75.09    7.80
  -2  -8 -10   78.79    7.20
   2  -8  10   72.89    6.20
   2   8 -10   71.59    6.20
  -2  -8  10   57.49    5.20
   2  -8 -10   59.29    5.40
   2   8  10   68.39    7.50
   2  -8 -10   56.69    6.50
   3  -8  10   58.89    6.80
   3  -8  10   57.89    5.50
   3  -8  10   65.59    5.80
   3   8  10   67.79    7.10
   3  -8 -10   74.99    9.40
   3  -8 -10   72.99    5.60
   4  -8  10   10.90    3.60
   4   8  10   15.80    3.80
   4  -8 -10   14.90    2.60
   0  -9  10  257.17   13.50
   1  -9  10  208.28   12.80
  -1  -9  10  184.88   11.10
   0   0 -11    0.30    1.50
   1   0  11  503.35   32.40
   1   0 -11  627.74   28.10
  -1   0 -11  559.44   27.80
   2   0 -11  211.68   13.00
   2   0  11  217.08   17.70
  -2   0 -11  226.08   13.30
   3   0  11   34.20    4.90
   3   0 -11   39.30    4.70
   3   0  11   44.60    7.60
   4   0 -11    7.10    2.40
   4   0  11    5.90    3.60
   4   0  11    3.90    2.30
   5   0  11  752.92   36.00
   5   0 -11  770.12   36.20
   5   0  11  789.92   42.10
   6   0  11   75.99    6.50
   6   0 -11   89.49    6.80
   6   0  11   90.99    9.70
   7   0  11   76.99    5.70
   7   0 -11   79.29    6.00
   7   0  11   79.49    8.20
   0  -1 -11  418.86   21.90
   0   1 -11  437.76   22.20
  -1  -1 -11  407.96   21.60
   1  -1  11  442.16   27.40
   1   1 -11  434.76   21.90
   1  -1 -11  441.86   21.90
   1   1  11  369.66   26.20
  -1   1 -11  437.86   22.10
   2  -1  11  321.47   23.50
   2   1 -11  353.96   19.20
  -2  -1 -11  329.87   18.80
  -2   1 -11  371.46   19.30
   2  -1 -11  376.36   19.30
   2   1  11  396.86   25.20
   3  -1  11  434.26   27.00
   3   1 -11  418.06   21.30
   3  -1  11  427.76   21.50
  -3  -1 -11  416.76   20.90
   3   1  11  334.17   25.30
   3  -1 -11  397.96   21.00
   4   1 -11  764.32   35.30
   4  -1  11  743.93   41.10
   4  -1  11  765.62   35.40
   4  -1 -11  783.02   35.30
   4   1  11  748.53   34.90
   4   1  11  643.94   40.00
   5  -1  11   26.10    5.80
   5   1 -11   23.60    3.60
   5  -1  11   24.80    4.00
   5   1  11   31.90    5.40
   5   1  11   32.90    6.40
   5  -1 -11   31.50    4.00
   6  -1  11  149.19    9.60
   6   1 -11  158.28    9.80
   6  -1  11  153.68   13.10
   6  -1 -11  148.99    9.50
   6   1  11  148.49   12.90
   7   1 -11  325.87   16.30
   7  -1  11  299.47   16.00
   7  -1  11  323.07   19.50
   7   1  11  326.57   19.60
   7  -1 -11  314.67   16.10
   0   2 -11  470.45   23.80
   1  -2  11  187.78   15.70
   1   2 -11  193.88   11.50
  -1  -2  11  172.08   11.10
  -1   2 -11  171.68   11.30
   1   2  11  150.38   14.00
   2  -2  11  322.07   22.90
   2   2 -11  351.06   18.30
  -2  -2 -11  311.17   20.30
   2   2  11  350.76   22.90
  -2   2 -11  334.87   18.10
   2  -2 -11  319.47   19.30
   3   2 -11 1359.76   62.09
   3  -2  11 1342.67   62.09
  -3  -2 -11 1401.86   65.29
   3  -2  11 1356.16   68.49
   3   2  11 1492.85   68.59
   3  -2 -11 1397.16   61.89
   4  -2  11   82.69    7.00
  -4  -2 -11   74.39    8.60
   4  -2  11   88.49   10.30
   4   2 -11   86.29    6.90
   4   2  11   80.59    9.70
   4  -2 -11   75.69    6.40
   5  -2  11   99.59   10.70
  -5  -2 -11   98.19    9.50
   5   2 -11   93.99    7.30
   5  -2  11   95.59    7.50
   6  -2  11  346.67   19.20
   6  -2  11  348.27   18.70
  -6  -2 -11  374.06   21.10
   6  -2  11  385.26   23.20
   6   2 -11  373.06   18.80
   6   2  11  380.56   23.10
   6  -2 -11  364.26   18.40
   7  -2  11  225.88   15.10
   7   2 -11  227.88   12.30
   7  -2  11  211.08   12.20
   7   2  11  244.78   15.40
   7  -2 -11  236.68   12.20
   0   3 -11  271.37   15.50
   0  -3 -11  286.87   18.90
   0  -3  11  269.97   24.00
   1   3 -11 1220.68   56.59
   1  -3  11 1266.47   62.99
  -1  -3 -11 1310.57   60.89
  -1  -3  11 1226.18   57.19
   1  -3 -11 1261.47   60.39
   1   3  11 1289.97   62.29
  -1   3 -11 1281.77   56.99
  -2  -3 -11  617.54   33.90
   2   3 -11  624.14   30.80
   2  -3  11  643.54   36.70
  -2   3 -11  628.84   30.80
   2   3  11  705.63   36.70
   2  -3 -11  618.04   34.00
   3   3 -11  383.36   20.10
   3  -3  11  365.16   20.00
   3  -3  11  386.06   25.20
  -3  -3 -11  348.17   22.40
   3   3  11  444.06   25.60
   3  -3 -11  369.76   22.60
   4  -3  11  268.87   15.30
  -4  -3 -11  268.87   17.90
   4   3 -11  282.27   15.40
   4  -3  11  295.07   20.30
   4   3  11  252.57   18.90
  -5  -3 -11   46.10    6.60
   5  -3  11   47.90    5.40
   5  -3  11   45.10    5.00
   5   3 -11   46.90    4.80
   5  -3  11   52.59    7.60
   5   3  11   58.19    7.80
  -6  -3 -11  109.49    9.40
   6  -3  11  113.29    8.10
   6  -3  11  113.59    7.70
   6  -3  11  112.99   10.40
   6   3 -11  108.99    7.40
   6   3  11   95.29    9.90
   7   3 -11  198.28   10.50
   7  -3  11  186.38   10.50
   0  -4 -11    6.00    3.10
   0  -4  11    6.50    3.50
   0   4 -11    4.70    2.00
   1  -4  11  263.87   19.00
  -1  -4 -11  252.67   17.40
   1   4 -11  253.17   14.20
   1   4  11  239.58   18.00
   1  -4 -11  238.08   17.00
  -1  -4  11  244.48   14.80
  -1   4 -11  242.68   14.20
   2  -4  11  334.07   22.90
  -2  -4 -11  347.57   21.30
   2   4 -11  307.07   17.60
   2   4  11  357.86   22.90
  -2   4 -11  343.07   18.00
  -2  -4  11  338.67   17.70
   2  -4 -11  327.87   21.00
   3   4 -11   65.29    5.80
   3  -4  11   59.09    6.20
   3  -4  11   64.49    8.70
  -3  -4 -11   59.29    7.40
  -3   4 -11   57.09    5.50
   3  -4 -11   56.89    5.70
   3  -4 -11   58.89    7.30
   3   4  11   58.59    8.10
   4  -4  11  170.28   10.90
   4   4 -11  183.58   11.00
   4  -4  11  171.68   11.50
  -4  -4 -11  174.08   13.30
   4  -4  11  167.98   14.50
   4  -4 -11  186.18   11.50
   4   4  11  195.28   14.80
   4  -4 -11  171.08   13.10
   5  -4  11   82.39    9.00
   5  -4  11   73.29    6.10
   5   4 -11   76.39    6.00
   5  -4  11   74.89    6.60
  -5  -4 -11   77.99    8.00
   5  -4 -11   68.39    7.30
   5   4  11   75.79    8.50
  -6  -4 -11  157.48   11.20
   6  -4  11  166.58   12.30
   6   4 -11  155.48    9.00
   6  -4  11  146.59    9.10
   6  -4  11  156.98    9.90
   6   4  11  148.29   12.00
   0   5 -11  167.48   10.30
   0  -5  11  163.48   14.00
   0  -5  11  159.58   11.30
   0  -5 -11  169.38   13.40
   1   5 -11  416.46   22.90
   1  -5  11  442.56   27.90
  -1  -5 -11  444.26   26.50
  -1  -5  11  493.05   24.40
   1   5  11  533.95   28.50
  -1   5 -11  475.35   23.20
   1  -5 -11  492.75   27.20
   2  -5  11  238.08   17.60
  -2  -5 -11  235.68   16.30
   2   5 -11  228.68   13.10
   2  -5  11  236.58   14.20
  -2   5 -11  237.28   13.30
   2  -5 -11  230.08   16.20
   2   5  11  254.67   17.50
  -2  -5  11  217.58   13.00
   3   5 -11  126.79    8.00
   3  -5  11  114.89    8.80
   3  -5  11  114.19   11.30
  -3  -5 -11  111.19   10.20
  -3   5 -11  114.89    7.90
   3  -5 -11  113.69   10.10
   3   5  11  101.19   10.60
   3  -5 -11  120.79    8.40
   4  -5  11   92.19    7.40
   4   5 -11   97.69    6.70
   4  -5  11   95.79    9.90
  -4  -5 -11   89.09    8.70
   4  -5 -11   92.09    7.20
  -4   5 -11  101.29    6.90
   4   5  11   96.99    9.60
   4  -5 -11   95.29    8.80
   5  -5  11   40.70    4.60
   5  -5  11   42.60    6.30
  -5  -5 -11   41.90    5.60
   5   5  11   45.60    6.20
  -5   5 -11   46.10    4.20
   5  -5 -11   49.60    5.80
   6   5  11   86.49    8.50
   0  -6  11  323.87   23.50
   0  -6  11  333.17   18.30
   0  -6 -11  334.77   20.20
   0  -6  11  313.77   17.70
  -1  -6 -11    9.20    3.60
   1  -6  11    6.90    2.90
   1  -6  11    8.10    3.70
   1  -6  11    9.20    2.80
   1   6  11    6.90    3.30
   1  -6 -11    4.60    2.60
  -1  -6  11    5.90    2.40
  -1   6 -11    4.70    1.70
   2  -6  11   11.00    3.00
   2  -6 -11   17.50    4.20
   2   6  11   18.30    4.50
  -2   6 -11   20.10    3.10
  -2  -6  11   20.90    3.00
   3  -6  11   64.79    6.00
  -3  -6 -11   60.49    7.00
   3  -6  11   65.59    7.90
   3   6  11   80.89    8.40
  -3   6 -11   60.59    5.00
   3  -6 -11   65.19    7.10
   4  -6  11  108.89    7.80
  -4  -6 -11  111.89    9.20
   4  -6  11  109.39    9.80
  -4   6 -11  102.69    6.70
   4  -6 -11  102.59    8.80
   4  -6 -11  103.29    7.20
   4   6  11  111.79    9.70
   5  -6  11  314.87   18.90
   5   6  11  328.97   18.80
   0  -7  11    5.60    2.70
   0  -7  11    8.90    2.50
   0  -7 -11    6.40    2.60
   1  -7  11  268.07   15.40
   1  -7  11  287.17   15.90
  -1  -7 -11  289.97   17.40
   1   7 -11  263.57   15.50
   1  -7  11  257.77   17.50
  -1  -7  11  301.17   15.30
   1  -7 -11  303.57   17.60
   1   7  11  303.37   17.80
   2  -7  11  355.96   21.10
  -2  -7 -11  369.06   20.30
   2  -7  11  376.26   18.90
   2  -7  11  355.36   18.30
   2  -7 -11  346.67   20.00
   2   7  11  347.27   20.50
  -2  -7  11  331.07   17.20
  -3  -7 -11  150.68   13.40
   3  -7  11  164.78   10.20
   3  -7  11  172.98   12.40
   3   7  11  175.38   12.30
   3  -7 -11  156.28   14.50
   4   7  11  135.79   14.30
   0  -8  11   44.00    4.10
   1  -8  11   36.10    3.90
   0   0 -12  141.99    9.50
   1   0  12  496.15   30.00
   1   0 -12  518.95   25.20
  -1   0 -12  498.45   24.90
  -2   0 -12    1.00    1.60
   2   0  12    1.00    2.20
   2   0 -12    0.40    1.30
   3   0 -12  261.27   14.50
  -3   0 -12  257.97   14.30
   3   0  12  242.68   18.60
  -4   0 -12    0.60    1.40
   4   0 -12    0.90    1.30
   4   0  12    0.00    1.70
   5   0  12    1.20    2.10
  -5   0 -12    1.00    1.20
   5   0 -12    2.70    1.60
   6   0 -12    2.60    1.40
   6   0  12    2.20    2.10
  -6   0 -12    1.30    1.20
   0  -1 -12  114.29    8.10
   0   1 -12  106.99    8.10
   1  -1  12   41.30    7.20
  -1  -1 -12   43.70    4.80
   1   1 -12   48.10    5.10
   1   1  12   48.90    7.60
   1  -1 -12   52.49    5.10
  -1   1 -12   52.99    5.10
   2  -1  12   14.70    4.80
  -2  -1 -12   17.00    3.10
   2   1 -12   16.10    3.20
   2  -1 -12   21.50    3.40
   2   1  12   24.90    5.80
  -2   1 -12   23.10    3.70
  -3  -1 -12   69.39    5.70
   3  -1  12   63.59    8.60
   3   1 -12   69.59    6.00
   3  -1 -12   56.19    5.50
   3   1  12   64.69    8.70
  -3   1 -12   54.39    5.50
   4  -1  12  216.68   16.70
   4   1 -12  211.68   12.60
  -4   1 -12  222.88   12.60
   4  -1 -12  209.28   12.40
   4   1  12  228.68   16.90
   5  -1  12   93.09    9.60
   5   1 -12   86.09    6.50
   5   1  12   80.69    9.00
  -5   1 -12   87.59    6.40
   5  -1 -12   84.99    6.30
   6  -1  12   41.10    5.90
   6   1 -12   42.40    3.90
   6  -1 -12   37.00    3.70
   6   1  12   37.80    5.70
  -6   1 -12   39.70    3.80
   0  -2  12    3.40    1.80
   0   2 -12    2.10    1.50
   1  -2  12  746.93   41.90
   1   2 -12  773.82   37.00
   1   2  12  814.12   42.70
  -1   2 -12  843.52   37.20
   2  -2  12  566.04   33.30
   2   2 -12  506.35   27.70
  -2   2 -12  581.14   28.20
   2   2  12  679.93   34.90
   3   2 -12  159.28   10.20
   3  -2  12  149.49   13.70
   3   2  12  159.58   14.10
  -3   2 -12  182.28   10.60
   4  -2  12  286.77   19.30
   4   2 -12  277.27   14.90
  -4   2 -12  260.77   14.60
   4   2  12  257.97   18.80
   5   2 -12   69.99    5.60
   5  -2  12   83.79    8.90
   5   2  12   67.69    8.10
  -5   2 -12   65.79    5.50
   6  -2  12   55.09    6.50
   6   2 -12   52.19    4.30
   6   2  12   41.40    5.80
  -6   2 -12   41.70    3.90
   0   3 -12   10.50    2.70
   0  -3  12   10.20    2.50
   0  -3 -12    8.70    3.70
   1  -3  12   78.19    9.60
   1   3 -12   85.99    7.10
  -1  -3 -12   94.79    9.30
  -1   3 -12  106.19    7.40
   1   3  12  117.89   11.10
   2   3 -12    1.70    1.50
  -2  -3 -12    1.20    2.30
   2  -3  12    3.20    2.80
  -2   3 -12    4.50    1.90
   2   3  12    5.70    3.10
   3  -3  12  287.87   20.20
  -3  -3 -12  281.17   18.20
   3   3 -12  305.97   16.20
   3   3  12  317.67   20.70
  -3   3 -12  310.37   16.20
   4  -3  12  113.09   10.90
  -4  -3 -12  120.39    9.80
   4   3 -12  119.19    7.90
  -4   3 -12  117.09    7.80
   4   3  12  108.29   10.80
   5   3 -12   43.30    4.00
   5  -3  12   39.90    6.00
  -5  -3 -12   38.20    5.90
   5   3  12   32.00    5.50
  -5   3 -12   37.10    3.80
   6  -3  12   45.60    7.60
  -6   3 -12   45.00    3.80
   6   3  12   43.80    7.70
   0   4 -12    6.50    2.20
   0  -4 -12    6.10    2.90
   0  -4  12    8.20    2.40
   1  -4  12   36.40    6.10
   1   4 -12   37.50    4.20
  -1  -4 -12   34.30    5.60
   1  -4 -12   30.70    5.40
  -1  -4  12   30.50    3.60
  -1   4 -12   30.50    3.90
   1   4  12   26.90    5.40
   2   4 -12  113.19    8.10
   2  -4  12  112.69   11.10
  -2  -4 -12  115.59   10.20
   2  -4 -12  126.19   10.30
   2   4  12  143.29   11.70
  -2   4 -12  137.59    8.50
  -3  -4 -12    9.50    3.70
   3  -4  12    5.40    3.00
   3   4 -12    6.40    2.00
  -3   4 -12    7.80    2.30
   3  -4 -12    7.90    3.20
   3   4  12    7.50    3.30
   4  -4  12  316.67   19.80
  -4  -4 -12  309.67   18.10
   4   4 -12  315.27   15.80
  -4   4 -12  314.67   15.90
   4   4  12  287.37   19.30
   5   4 -12   32.00    3.40
   5  -4  12   33.50    5.20
  -5   4 -12   32.60    3.40
   5   4  12   31.30    5.00
   0  -5  12   91.89    6.90
   0  -5 -12   91.49    8.70
   0   5 -12   95.99    6.70
   1  -5  12   36.80    5.80
  -1  -5 -12   33.80    5.30
   1   5 -12   36.60    3.80
  -1   5 -12   27.80    3.40
  -1  -5  12   22.20    3.10
   1   5  12   23.70    4.70
   1  -5 -12   24.10    4.70
  -2  -5 -12    6.90    2.90
   2  -5  12    7.90    3.50
   2   5 -12    8.00    2.40
   2  -5 -12    7.30    2.80
  -2   5 -12    6.40    1.90
   2   5  12    6.00    2.90
   3  -5  12  116.29   10.20
  -3  -5 -12  132.39    9.70
   3   5 -12  113.69    7.10
   3  -5 -12   99.69    8.70
  -3   5 -12   98.59    6.80
   3   5  12  102.99    9.50
   4  -5  12   12.60    3.50
   4   5  12   13.60    3.60
  -4   5 -12   13.70    2.40
   0  -6 -12   37.20    5.30
   0  -6  12   38.00    4.00
   1  -6  12  219.48   15.00
  -1  -6 -12  227.98   14.60
   1  -6  12  238.38   13.10
   1  -6 -12  250.77   15.00
  -1  -6  12  228.78   11.70
   2  -6  12   75.09    7.80
  -2  -6 -12   73.59    7.20
   2  -6  12   75.99    6.00
   3  -6  12  332.47   19.60
   3  -6  12  338.57   17.20
   3   6  12  340.37   19.20
   1  -7  12    9.20    2.40
   0   0 -13    1.60    1.50
   1   0  13  103.89   10.80
  -1   0 -13  111.59    7.60
   1   0 -13  109.89    7.60
  -2   0 -13    1.30    1.40
   2   0 -13    1.30    1.40
   2   0  13    1.40    2.30
   3   0  13   53.29    7.30
   3   0 -13   61.09    5.20
  -3   0 -13   56.89    4.80
   4   0 -13   40.20    3.90
   4   0  13   37.10    5.80
  -4   0 -13   38.40    3.70
   5   0 -13 1008.90   44.80
   5   0  13 1034.30   48.80
   0   1 -13    0.60    1.40
   0  -1 -13    1.00    1.40
   1   1 -13  182.18   10.40
  -1  -1 -13  149.59   11.30
   1  -1  13  170.98   13.60
   1  -1 -13  154.68    9.70
  -1   1 -13  170.78   10.10
   1   1  13  154.98   17.90
   2  -1  13  732.53   38.30
   2   1 -13  698.43   33.50
  -2   1 -13  737.93   33.50
   2   1  13  720.13   38.00
   2  -1 -13  741.13   33.40
   3   1 -13  123.19    8.00
   3  -1  13  126.79   11.20
   3   1  13  119.29   10.90
  -3   1 -13  113.29    7.60
   3  -1 -13  117.59    7.70
   4   1 -13   93.29    6.10
   4  -1  13   85.19    8.60
   4  -1 -13   68.19    5.40
  -4   1 -13   73.59    5.60
   4   1  13   79.19    8.30
   5  -1  13  284.97   17.70
   5   1 -13  289.27   14.60
   5   1  13  306.97   18.00
   0   2 -13  120.89    8.20
   1   2 -13   31.80    3.80
   1  -2  13   27.50    5.40
  -1   2 -13   43.70    4.30
   2  -2  13   34.40    5.90
   2  -2  13   37.10    3.60
   2   2 -13   38.00    4.00
   2   2  13   27.60    5.40
  -2   2 -13   31.20    3.70
   3  -2  13  303.57   19.40
   3   2 -13  300.97   15.60
   3   2  13  305.97   19.40
  -3   2 -13  298.67   15.40
   4   2 -13  125.99    7.70
   4  -2  13  124.89   10.60
   4   2  13  122.49   10.40
  -4   2 -13  121.09    7.60
   0   3 -13   49.60    4.60
   1  -3  13   91.99   10.30
   1   3 -13   97.79    6.80
   1  -3  13   96.39    6.20
  -1   3 -13   85.39    6.40
   2  -3  13  126.09   10.80
   2  -3  13  125.29    8.00
   2   3 -13  124.49    8.10
  -2   3 -13  135.99    8.20
   2   3  13  138.19   11.30
   3   3 -13    1.90    1.30
   3  -3  13    2.10    2.00
   3   3  13    1.50    1.90
   4   3 -13   15.20    2.50
   4  -3  13   17.40    4.00
   4   3  13   19.70    4.20
  -4   3 -13   19.70    2.60
   0   4 -13  862.81   38.60
   1   4 -13  263.97   13.70
   1  -4  13  250.07   13.30
  -1   4 -13  281.07   13.90
   2   4 -13  402.46   19.50
   2  -4  13  397.26   19.50
   2  -4  13  407.86   22.90
  -2   4 -13  415.76   19.50
   2   4  13  403.46   22.80
   3   4 -13   48.00    4.10
   3  -4  13   48.70    4.20
   3  -4  13   52.69    6.20
  -3   4 -13   43.60    4.00
   3   4  13   45.20    6.00
   0   5 -13  623.44   28.60
   1  -5  13  639.74   30.60
  -1   5 -13  692.03   31.10
   2  -5  13   21.60    2.70
   0   0 -14  989.70   43.60
   1   0 -14  193.38   10.30
  -1   0 -14  180.08   10.10
   2   0 -14   69.49    5.10
   0   1 -14   69.89    5.20
   1   1 -14  304.17   15.30
  -1   1 -14  310.67   15.30
   2   1 -14   23.90    3.10
  -2   1 -14   33.80    3.30
   0   2 -14   76.19    5.40
   1   2 -14  112.59    7.00
  -1   2 -14  108.49    6.80
   2   2 -14    1.30    1.20
  -2   2 -14    2.10    1.30
   0   3 -14  307.47   15.20
  -1   3 -14   97.29    7.60

_computing_structure_solution     'SHELXT 2014/4 (Sheldrick, 2014)'
;
_shelx_hkl_checksum              24034
loop_
_space_group_symop_operation_xyz
'x, y, z'
'-x+1/2, -y, z+1/2'
'-x, y+1/2, -z+1/2'
'x+1/2, -y+1/2, -z'
loop_
_atom_site_label
_atom_site_type_symbol
_atom_site_fract_x
_atom_site_fract_y
_atom_site_fract_z
_atom_site_U_iso_or_equiv
_atom_site_adp_type
_atom_site_occupancy
_atom_site_site_symmetry_order
_atom_site_calc_flag
_atom_site_refinement_flags_posn
_atom_site_refinement_flags_adp
S1 S 0.18781(5) 0.55476(4) 0.56422(4) 0.01172(14) Uani 1 1 d . .
O1 O -0.00163(15) 0.74411(15) 0.48805(13) 0.0204(3) Uani 1 1 d . .
O2 O 0.31876(15) 0.67603(14) 0.28879(12) 0.0181(3) Uani 1 1 d . .
O3 O 0.06941(14) 0.48089(13) 0.55433(13) 0.0170(3) Uani 1 1 d . .
O4 O 0.21185(14) 0.62443(14) 0.66417(12) 0.0164(3) Uani 1 1 d . .
N1 N 0.20183(17) 0.65959(15) 0.45462(14) 0.0129(4) Uani 1 1 d . .
C1 C 0.3018(2) 0.62362(19) 0.37612(17) 0.0140(4) Uani 1 1 d . .
C2 C 0.3724(2) 0.50986(19) 0.41974(18) 0.0135(4) Uani 1 1 d . .
C3 C 0.3251(2) 0.46505(19) 0.52003(16) 0.0136(4) Uani 1 1 d . .
C4 C 0.3794(2) 0.35905(19) 0.57369(19) 0.0166(4) Uani 1 1 d . .
H4 H 0.3455 0.3289 0.6425 0.020 Uiso 1 1 calc R U
C5 C 0.4854(2) 0.2996(2) 0.52185(19) 0.0204(5) Uani 1 1 d . .
H5 H 0.5265 0.2277 0.5565 0.025 Uiso 1 1 calc R U
C6 C 0.5331(2) 0.3428(2) 0.42029(19) 0.0201(5) Uani 1 1 d . .
H6 H 0.6052 0.2992 0.3864 0.024 Uiso 1 1 calc R U
C7 C 0.4774(2) 0.4482(2) 0.36758(18) 0.0172(4) Uani 1 1 d . .
H7 H 0.5100 0.4773 0.2980 0.021 Uiso 1 1 calc R U
C8 C 0.10281(19) 0.7554(2) 0.44013(18) 0.0144(4) Uani 1 1 d . .
C9 C 0.1359(2) 0.86614(19) 0.36697(18) 0.0139(4) Uani 1 1 d . .
C10 C 0.0474(2) 0.8978(2) 0.28290(18) 0.0162(4) Uani 1 1 d . .
H10 H -0.0309 0.8485 0.2723 0.019 Uiso 1 1 calc R U
C11 C 0.0746(2) 1.0020(2) 0.21473(19) 0.0199(5) Uani 1 1 d . .
H11 H 0.0174 1.0211 0.1543 0.024 Uiso 1 1 calc R U
C12 C 0.1850(2) 1.0784(2) 0.23414(18) 0.0202(5) Uani 1 1 d . .
H12 H 0.2021 1.1507 0.1881 0.024 Uiso 1 1 calc R U
C13 C 0.2704(2) 1.0490(2) 0.32107(18) 0.0188(5) Uani 1 1 d . .
H13 H 0.3439 1.1034 0.3363 0.023 Uiso 1 1 calc R U
C14 C 0.2486(2) 0.9404(2) 0.38571(18) 0.0172(4) Uani 1 1 d . .
H14 H 0.3099 0.9171 0.4421 0.021 Uiso 1 1 calc R U
loop_
_atom_site_aniso_label
_atom_site_aniso_U_11
_atom_site_aniso_U_22
_atom_site_aniso_U_33
_atom_site_aniso_U_23
_atom_site_aniso_U_13
_atom_site_aniso_U_12
S1 0.0124(2) 0.0109(2) 0.0119(2) 0.00042(18) 0.00110(19) 0.00001(19)
O1 0.0153(7) 0.0181(7) 0.0279(8) 0.0039(7) 0.0074(6) 0.0031(6)
O2 0.0209(7) 0.0198(7) 0.0135(7) 0.0042(6) 0.0029(7) 0.0019(7)
O3 0.0142(7) 0.0157(7) 0.0212(8) 0.0007(6) 0.0013(6) -0.0022(6)
O4 0.0192(8) 0.0159(7) 0.0141(7) -0.0018(6) 0.0013(6) 0.0007(6)
N1 0.0133(8) 0.0122(8) 0.0133(8) 0.0017(6) 0.0005(7) 0.0010(7)
C1 0.0109(9) 0.0142(9) 0.0169(11) -0.0020(8) -0.0010(8) -0.0018(9)
C2 0.0133(9) 0.0127(9) 0.0144(11) -0.0009(8) -0.0024(8) -0.0009(8)
C3 0.0135(9) 0.0132(9) 0.0141(9) -0.0037(8) -0.0007(8) -0.0002(8)
C4 0.0214(10) 0.0136(10) 0.0149(11) 0.0015(9) 0.0000(9) 0.0013(9)
C5 0.0241(12) 0.0155(11) 0.0217(11) -0.0013(9) -0.0038(9) 0.0043(9)
C6 0.0187(11) 0.0214(11) 0.0202(12) -0.0058(9) -0.0001(9) 0.0068(9)
C7 0.0170(10) 0.0207(11) 0.0139(10) -0.0032(9) 0.0023(8) -0.0005(9)
C8 0.0141(9) 0.0144(10) 0.0146(10) -0.0022(9) -0.0014(9) 0.0010(8)
C9 0.0145(9) 0.0115(9) 0.0158(10) -0.0009(8) 0.0027(8) 0.0017(8)
C10 0.0136(9) 0.0152(10) 0.0198(11) -0.0021(9) -0.0011(8) 0.0008(9)
C11 0.0214(11) 0.0196(10) 0.0187(11) 0.0035(9) -0.0013(9) 0.0055(10)
C12 0.0233(10) 0.0140(9) 0.0234(11) 0.0045(8) 0.0063(9) 0.0024(10)
C13 0.0167(10) 0.0150(10) 0.0247(12) -0.0020(9) 0.0050(8) -0.0017(9)
C14 0.0146(9) 0.0188(10) 0.0182(10) 0.0002(9) -0.0005(9) 0.0022(10)
loop_
_atom_type_symbol
_atom_type_description
_atom_type_scat_dispersion_real
_atom_type_scat_dispersion_imag
_atom_type_scat_source
C C 0.0181 0.0091 'International Tables Vol C Tables 4.2.6.8 and 6.1.1.4'
H H 0.0000 0.0000 'International Tables Vol C Tables 4.2.6.8 and 6.1.1.4'
N N 0.0311 0.0180 'International Tables Vol C Tables 4.2.6.8 and 6.1.1.4'
O O 0.0492 0.0322 'International Tables Vol C Tables 4.2.6.8 and 6.1.1.4'
S S 0.3331 0.5567 'International Tables Vol C Tables 4.2.6.8 and 6.1.1.4'
loop_
_geom_angle_atom_site_label_1
_geom_angle_atom_site_label_2
_geom_angle_atom_site_label_3
_geom_angle
O3 S1 O4 119.12(9)
O3 S1 N1 110.26(9)
O4 S1 N1 108.26(8)
O3 S1 C3 110.55(9)
O4 S1 C3 113.08(9)
N1 S1 C3 92.21(9)
C8 N1 C1 126.65(17)
C8 N1 S1 118.72(13)
C1 N1 S1 113.59(13)
O2 C1 N1 124.23(19)
O2 C1 C2 127.43(19)
N1 C1 C2 108.28(17)
C3 C2 C7 120.30(19)
C3 C2 C1 114.48(19)
C7 C2 C1 125.2(2)
C2 C3 C4 122.55(19)
C2 C3 S1 111.11(15)
C4 C3 S1 126.29(16)
C5 C4 C3 116.7(2)
C5 C4 H4 121.7
C3 C4 H4 121.7
C4 C5 C6 121.4(2)
C4 C5 H5 119.3
C6 C5 H5 119.3
C7 C6 C5 121.3(2)
C7 C6 H6 119.4
C5 C6 H6 119.4
C6 C7 C2 117.8(2)
C6 C7 H7 121.1
C2 C7 H7 121.1
O1 C8 N1 119.15(19)
O1 C8 C9 123.68(19)
N1 C8 C9 117.17(16)
C10 C9 C14 120.81(19)
C10 C9 C8 118.05(18)
C14 C9 C8 121.05(18)
C11 C10 C9 119.2(2)
C11 C10 H10 120.4
C9 C10 H10 120.4
C10 C11 C12 120.4(2)
C10 C11 H11 119.8
C12 C11 H11 119.8
C11 C12 C13 120.0(2)
C11 C12 H12 120.0
C13 C12 H12 120.0
C14 C13 C12 120.1(2)
C14 C13 H13 119.9
C12 C13 H13 119.9
C13 C14 C9 119.3(2)
C13 C14 H14 120.4
C9 C14 H14 120.4
loop_
_geom_bond_atom_site_label_1
_geom_bond_atom_site_label_2
_geom_bond_distance
S1 O3 1.4253(14)
S1 O4 1.4258(15)
S1 N1 1.7176(17)
S1 C3 1.753(2)
O1 C8 1.208(3)
O2 C1 1.197(3)
N1 C8 1.421(3)
N1 C1 1.432(3)
C1 C2 1.477(3)
C2 C3 1.380(3)
C2 C7 1.389(3)
C3 C4 1.390(3)
C4 C5 1.385(3)
C4 H4 0.9500
C5 C6 1.389(3)
C5 H5 0.9500
C6 C7 1.385(3)
C6 H6 0.9500
C7 H7 0.9500
C8 C9 1.487(3)
C9 C10 1.390(3)
C9 C14 1.394(3)
C10 C11 1.386(3)
C10 H10 0.9500
C11 C12 1.388(3)
C11 H11 0.9500
C12 C13 1.391(3)
C12 H12 0.9500
C13 C14 1.388(3)
C13 H13 0.9500
C14 H14 0.9500
