#------------------------------------------------------------------------------
#$Date: 2016-08-05 06:35:42 +0300 (Fri, 05 Aug 2016) $
#$Revision: 184951 $
#$URL: file:///home/coder/svn-repositories/cod/cif/1/54/34/1543408.cif $
#------------------------------------------------------------------------------
#
# This file is available in the Crystallography Open Database (COD),
# http://www.crystallography.net/
#
# All data on this site have been placed in the public domain by the
# contributors.
#
data_1543408
loop_
_publ_author_name
'Seitz, Tobias'
'Fu, Peng'
'Haut, Franz-Lucas'
'Adam, Lutz'
'Habicht, Marija'
'Lentz, Dieter'
'MacMillan, John B.'
'Christmann, Mathias'
_publ_section_title
;
 One-Pot Synthesis of 5-Hydroxy-4H-1,3-thiazin-4-ones: Structure Revision,
 Synthesis, and NMR Shift Dependence of Thiasporine A.
;
_journal_issue                   13
_journal_name_full               'Organic letters'
_journal_page_first              3070
_journal_page_last               3073
_journal_paper_doi               10.1021/acs.orglett.6b01166
_journal_volume                  18
_journal_year                    2016
_chemical_formula_sum            'C15 H17 Br N2 O4 S'
_chemical_formula_weight         401.27
_space_group_crystal_system      monoclinic
_space_group_IT_number           14
_space_group_name_Hall           '-P 2yn'
_space_group_name_H-M_alt        'P 1 21/n 1'
_symmetry_space_group_name_Hall  '-P 2yn'
_symmetry_space_group_name_H-M   'P 1 21/n 1'
_atom_sites_solution_hydrogens   geom
_audit_creation_method           SHELXL-2014/7
_cell_angle_alpha                90
_cell_angle_beta                 95.100(3)
_cell_angle_gamma                90
_cell_formula_units_Z            4
_cell_length_a                   6.2837(5)
_cell_length_b                   19.6717(16)
_cell_length_c                   13.8626(9)
_cell_measurement_reflns_used    6059
_cell_measurement_temperature    142(2)
_cell_measurement_theta_max      28.26
_cell_measurement_theta_min      2.5
_cell_volume                     1706.8(2)
_computing_cell_refinement       'Bruker SAINT'
_computing_data_collection       'Bruker APEX2'
_computing_data_reduction        'Bruker SAINT'
_computing_structure_refinement  'SHELXL-2014/7 (Sheldrick, 2014)'
_computing_structure_solution    'SHELXS-97 (Sheldrick 2008)'
_diffrn_ambient_temperature      142(2)
_diffrn_measured_fraction_theta_full 0.999
_diffrn_measured_fraction_theta_max 0.995
_diffrn_measurement_device_type  'Bruker D8 Venture Photon'
_diffrn_measurement_method       '\f and \w scans'
_diffrn_radiation_type           MoK\a
_diffrn_radiation_wavelength     0.71073
_diffrn_reflns_av_R_equivalents  0.0685
_diffrn_reflns_av_unetI/netI     0.0583
_diffrn_reflns_Laue_measured_fraction_full 0.999
_diffrn_reflns_Laue_measured_fraction_max 0.995
_diffrn_reflns_limit_h_max       8
_diffrn_reflns_limit_h_min       -8
_diffrn_reflns_limit_k_max       26
_diffrn_reflns_limit_k_min       -22
_diffrn_reflns_limit_l_max       17
_diffrn_reflns_limit_l_min       -18
_diffrn_reflns_number            19461
_diffrn_reflns_point_group_measured_fraction_full 0.999
_diffrn_reflns_point_group_measured_fraction_max 0.995
_diffrn_reflns_theta_full        25.242
_diffrn_reflns_theta_max         28.342
_diffrn_reflns_theta_min         2.542
_diffrn_source                   'Incoatec Microfocus Source'
_exptl_absorpt_coefficient_mu    2.551
_exptl_absorpt_correction_T_max  0.862
_exptl_absorpt_correction_T_min  0.704
_exptl_absorpt_correction_type   multi-scan
_exptl_absorpt_process_details   'SADABS (Bruker-AXS)'
_exptl_crystal_colour            'pale yellow'
_exptl_crystal_density_diffrn    1.562
_exptl_crystal_description       prism
_exptl_crystal_F_000             816
_exptl_crystal_size_max          0.300
_exptl_crystal_size_mid          0.100
_exptl_crystal_size_min          0.070
_refine_diff_density_max         0.584
_refine_diff_density_min         -0.792
_refine_diff_density_rms         0.099
_refine_ls_extinction_method     none
_refine_ls_goodness_of_fit_ref   1.037
_refine_ls_hydrogen_treatment    constr
_refine_ls_matrix_type           full
_refine_ls_number_parameters     212
_refine_ls_number_reflns         4254
_refine_ls_number_restraints     0
_refine_ls_restrained_S_all      1.037
_refine_ls_R_factor_all          0.0810
_refine_ls_R_factor_gt           0.0525
_refine_ls_shift/su_max          0.000
_refine_ls_shift/su_mean         0.000
_refine_ls_structure_factor_coef Fsqd
_refine_ls_weighting_details
'w=1/[\s^2^(Fo^2^)+(0.0176P)^2^+4.9164P] where P=(Fo^2^+2Fc^2^)/3'
_refine_ls_weighting_scheme      calc
_refine_ls_wR_factor_gt          0.0873
_refine_ls_wR_factor_ref         0.0957
_reflns_Friedel_coverage         0.000
_reflns_number_gt                3158
_reflns_number_total             4254
_reflns_threshold_expression     'I > 2\s(I)'
_cod_data_source_file            ol6b01166_si_001.cif
_cod_data_source_block           372ts
_cod_depositor_comments
'Adding full bibliography for 1543407--1543408.cif.'
_cod_database_code               1543408
_shelx_shelxl_version_number     2014/7
_shelx_space_group_comment
;
The symmetry employed for this shelxl refinement is uniquely defined
by the following loop, which should always be used as a source of
symmetry information in preference to the above space-group names.
They are only intended as comments.
;
_shelx_estimated_absorpt_t_min   0.515
_shelx_estimated_absorpt_t_max   0.842
_shelx_res_file
;

    372ts.res created by SHELXL-2014/7

TITL fastscan_a.res in P2(1)/n
CELL  0.71073   6.28370  19.67170  13.86260  90.0000  95.1003    90.000
ZERR    4.000   0.00050   0.00160   0.00090   0.0000   0.0031   0.000
LATT 1
SYMM 1/2-X, 1/2+Y, 1/2-Z
SFAC C  H  N  O  S  Br
UNIT 60  68  8  16  4  4
L.S. 10
ACTA
BOND $H
FMAP 2
PLAN 20
SIZE 0.07 0.10 0.30
TEMP -130.940
WGHT    0.017600    4.916400
FVAR       0.18248
BR1   6    0.634347    0.510420    0.271697    11.00000    0.05490    0.02338 =
         0.01761    0.00495   -0.00288    0.00868
S1    5    0.156943    0.653619    0.158603    11.00000    0.00957    0.01968 =
         0.02281   -0.00724    0.00012   -0.00054
O2    4    0.585822    0.613978    0.016615    11.00000    0.04044    0.01139 =
         0.00810    0.00053    0.00788    0.00212
AFIX 147
H2    2    0.545654    0.653662    0.001902    11.00000   -1.50000
AFIX   0
O4    4    1.040034    0.667350    0.400950    11.00000    0.01812    0.02412 =
         0.01372   -0.00656   -0.00410    0.00910
O3    4    0.914521    0.757730    0.479722    11.00000    0.03012    0.01775 =
         0.01341   -0.00669   -0.00375    0.00192
O1    4    0.197818    0.535953    0.067499    11.00000    0.02039    0.02078 =
         0.02895   -0.01016   -0.00383   -0.00323
N1    3    0.578870    0.655667    0.174905    11.00000    0.01382    0.01090 =
         0.01191   -0.00030   -0.00201    0.00008
N2    3    0.780917    0.727384    0.326621    11.00000    0.01421    0.01867 =
         0.01299   -0.00676   -0.00350    0.00211
AFIX  43
H2A   2    0.808071    0.702198    0.276704    11.00000   -1.20000
AFIX   0
C4    1    0.420485    0.750407    0.256173    11.00000    0.01401    0.01100 =
         0.01009    0.00016    0.00286    0.00109
C1    1    0.285740    0.584276    0.105547    11.00000    0.01354    0.01531 =
         0.01140    0.00039   -0.00199    0.00195
C10   1    0.913998    0.720780    0.409516    11.00000    0.01575    0.01467 =
         0.01321   -0.00117    0.00120   -0.00354
C2    1    0.530496    0.598336    0.110549    11.00000    0.01318    0.01169 =
         0.01084   -0.00206   -0.00058    0.00117
C3    1    0.413556    0.687058    0.199037    11.00000    0.01154    0.01268 =
         0.00756    0.00051   -0.00172   -0.00363
C15   1    0.658713    0.534956    0.138014    11.00000    0.01911    0.01502 =
         0.01271    0.00051    0.00069    0.00407
AFIX  23
H15A  2    0.810775    0.542981    0.128108    11.00000   -1.20000
H15B  2    0.606720    0.496926    0.095462    11.00000   -1.20000
AFIX   0
C9    1    0.604345    0.771179    0.314853    11.00000    0.01357    0.01551 =
         0.01216   -0.00195    0.00172    0.00062
C5    1    0.240508    0.792279    0.249993    11.00000    0.01617    0.01772 =
         0.01757    0.00117   -0.00068    0.00244
AFIX  43
H5    2    0.115893    0.778358    0.211199    11.00000   -1.20000
AFIX   0
C8    1    0.603437    0.834293    0.361110    11.00000    0.02640    0.01300 =
         0.01971   -0.00432   -0.00249   -0.00080
AFIX  43
H8    2    0.728612    0.849626    0.398231    11.00000   -1.20000
AFIX   0
C11   1    1.164685    0.638622    0.487846    11.00000    0.02888    0.02868 =
         0.01400    0.00013   -0.00547    0.01458
C7    1    0.422948    0.874638    0.353545    11.00000    0.03261    0.01152 =
         0.02298   -0.00533    0.00356    0.00283
AFIX  43
H7    2    0.424650    0.917197    0.385991    11.00000   -1.20000
AFIX   0
C6    1    0.238951    0.853499    0.298886    11.00000    0.02566    0.01646 =
         0.02569   -0.00121    0.00521    0.00977
AFIX  43
H6    2    0.113663    0.880745    0.295140    11.00000   -1.20000
AFIX   0
C14   1    1.007547    0.614923    0.556734    11.00000    0.05773    0.03832 =
         0.03996    0.01894    0.01121    0.01479
AFIX 137
H14A  2    0.927988    0.654045    0.578533    11.00000   -1.50000
H14B  2    1.084748    0.592865    0.612789    11.00000   -1.50000
H14C  2    0.907739    0.582449    0.523670    11.00000   -1.50000
AFIX   0
C13   1    1.324058    0.689727    0.531945    11.00000    0.02903    0.06362 =
         0.04039   -0.00860   -0.02169    0.00642
AFIX 137
H13A  2    1.248463    0.725701    0.563923    11.00000   -1.50000
H13B  2    1.402728    0.709662    0.480932    11.00000   -1.50000
H13C  2    1.424454    0.666997    0.579610    11.00000   -1.50000
AFIX   0
C12   1    1.276841    0.579500    0.444577    11.00000    0.05728    0.05558 =
         0.03284   -0.00749   -0.01055    0.03794
AFIX 137
H12A  2    1.360533    0.554637    0.496168    11.00000   -1.50000
H12B  2    1.372194    0.596540    0.397827    11.00000   -1.50000
H12C  2    1.170520    0.548989    0.411680    11.00000   -1.50000
AFIX   0
HKLF 4

REM  fastscan_a.res in P2(1)/n
REM R1 =  0.0525 for    3158 Fo > 4sig(Fo)  and  0.0810 for all    4254 data
REM    212 parameters refined using      0 restraints

END

WGHT      0.0360      3.2180

REM Highest difference peak  0.584,  deepest hole -0.792,  1-sigma level  0.099
Q1    1   0.4596  0.5132  0.2645  11.00000  0.05    0.58
Q2    1   0.6969  0.6136  0.0273  11.00000  0.05    0.51
Q3    1   0.5432  0.6071 -0.0176  11.00000  0.05    0.46
Q4    1   0.5644  0.6346  0.0169  11.00000  0.05    0.44
Q5    1   1.3921  0.6746  0.4788  11.00000  0.05    0.44
Q6    1   0.3098  0.6615  0.2157  11.00000  0.05    0.43
Q7    1   0.5267  0.5443  0.2767  11.00000  0.05    0.42
Q8    1   0.2971  0.7583  0.2591  11.00000  0.05    0.42
Q9    1   0.5297  0.6030  0.0381  11.00000  0.05    0.40
Q10   1   0.7265  0.5449  0.2662  11.00000  0.05    0.40
Q11   1   0.3403  0.8533  0.3232  11.00000  0.05    0.38
Q12   1   0.5746  0.5645  0.1044  11.00000  0.05    0.38
Q13   1   0.5760  0.6245  0.1459  11.00000  0.05    0.37
Q14   1   0.2325  0.6221  0.1221  11.00000  0.05    0.37
Q15   1   0.5416  0.6693 -0.1144  11.00000  0.05    0.37
Q16   1   0.6427  0.6427  0.2150  11.00000  0.05    0.37
Q17   1   1.2468  0.6120  0.4618  11.00000  0.05    0.37
Q18   1   0.4981  0.8493  0.3558  11.00000  0.05    0.33
Q19   1   0.1645  0.7882  0.2027  11.00000  0.05    0.33
Q20   1   0.7278  0.6903  0.3056  11.00000  0.05    0.33
;
_shelx_res_checksum              56216
_shelx_hkl_file
;
   1   0   0    0.15    0.40
  -1   0   0   -0.15    0.36
   2   0   0   26.88    1.59
  -2   0   0   23.96    1.58
  -3   0   0   -1.07    1.07
   3   0   0    0.73    1.06
  -4   0   0  238.45    7.15
   4   0   0  245.09    7.15
   5   0   0    0.56    1.92
  -5   0   0    0.15    1.94
  -6   0   0    3.29    2.64
   6   0   0    1.34    2.80
  -7   0   0    4.83    3.13
   7   0   0    1.67    3.13
   8   0   0    2.86    3.96
  -8   0   0    3.40    4.84
   1  -1   0  174.37    4.05
  -1  -1   0  168.62    4.07
  -1   1   0  171.39    4.06
   1   1   0  173.61    4.10
  -2  -1   0   46.48    2.02
   2  -1   0   43.63    1.93
   2   1   0   46.04    2.04
  -2   1   0   44.18    1.99
   3  -1   0   82.61    3.24
  -3  -1   0   75.55    3.23
   3   1   0   81.10    3.32
  -3   1   0   84.21    3.36
   4  -1   0    6.20    1.71
  -4  -1   0   10.39    1.99
  -4   1   0    4.31    1.61
   4   1   0    7.25    1.89
  -5  -1   0   27.77    3.31
   5  -1   0   26.73    3.16
  -5   1   0   24.21    2.91
   5   1   0   25.59    3.24
   6  -1   0    4.35    2.82
  -6  -1   0    5.07    2.60
  -6   1   0    1.22    2.60
   6   1   0    7.51    3.03
  -7  -1   0   -2.09    2.86
   7  -1   0    1.59    2.90
  -7   1   0    1.96    3.49
   7   1   0   -3.44    2.99
  -8  -1   0   26.85    5.32
   8  -1   0   30.75    5.12
  -8   1   0   27.37    5.55
   8   1   0   28.77    5.28
   1  -2   0   99.72    2.55
  -1  -2   0   93.21    2.48
  -1  -2   0   97.82    2.61
   1   2   0   94.85    2.63
  -1   2   0   98.65    2.57
  -2  -2   0   60.64    2.34
   2  -2   0   60.67    2.27
   2   2   0   63.79    2.43
  -2   2   0   62.32    2.37
  -3  -2   0   11.04    1.63
   3  -2   0   15.83    1.78
   3   2   0   10.33    1.67
  -3   2   0   14.50    1.68
  -4  -2   0   30.08    2.76
   4  -2   0   35.23    2.74
  -4   2   0   32.54    2.92
   4   2   0   27.41    2.78
  -5  -2   0   44.22    3.72
   5  -2   0   45.34    3.58
   5   2   0   38.50    3.65
  -5   2   0   39.76    3.75
  -6  -2   0   51.21    4.71
   6  -2   0   45.71    4.28
  -6   2   0   42.95    4.55
   6   2   0   51.51    4.92
  -7  -2   0   -0.17    2.99
   7  -2   0    9.28    3.23
  -7   2   0   12.96    3.85
   7   2   0   10.36    3.75
   8  -2   0    3.03    3.91
  -8  -2   0    3.49    4.85
   8   2   0    3.64    4.10
  -8   2   0   13.52    5.21
   0  -3   0    0.50    0.33
   0   3   0    0.29    0.31
   0   3   0    0.19    0.31
  -1  -3   0  515.64   11.17
  -1  -3   0  509.81   11.02
   1  -3   0  510.27   11.06
  -1   3   0  516.21   11.11
   1   3   0  512.68   11.24
   1   3   0  520.31   11.07
   2  -3   0  375.09    8.72
  -2  -3   0  366.85    8.79
   2   3   0  378.97    8.93
  -2   3   0  377.51    8.81
  -3  -3   0  240.04    6.63
   3  -3   0  244.40    6.57
  -3   3   0  240.23    6.67
   3   3   0  247.67    6.82
   4  -3   0    2.15    1.47
  -4  -3   0    0.45    1.52
   4   3   0    0.93    1.65
  -4   3   0    3.63    1.70
  -5  -3   0    9.87    2.39
   5  -3   0    8.58    2.37
   5   3   0    5.27    2.38
  -5   3   0    9.35    2.33
   6  -3   0    0.85    2.44
  -6  -3   0    2.56    2.60
  -6   3   0    3.13    2.57
   6   3   0    1.76    2.74
   7  -3   0   67.87    5.69
   7   3   0   66.73    5.93
  -7   3   0   57.12    5.90
   8  -3   0    9.72    4.29
  -8  -3   0  -10.21    4.67
   8   3   0    8.45    4.41
  -8   3   0   -1.62    4.75
   0  -4   0   38.37    1.31
   0   4   0   38.12    1.32
   0   4   0   36.90    1.33
   0   4   0   34.75    1.23
   1  -4   0   13.82    0.94
  -1  -4   0   17.28    1.14
  -1  -4   0   16.06    0.96
   1   4   0   16.52    1.19
  -1   4   0   12.64    0.96
   1   4   0   15.91    1.03
  -2  -4   0   61.11    2.43
  -2  -4   0   62.09    2.30
   2  -4   0   66.20    2.38
   2   4   0   60.99    2.56
  -2   4   0   60.00    2.40
   3  -4   0  254.33    6.71
  -3  -4   0  252.04    6.83
  -3   4   0  249.46    6.86
   3   4   0  242.94    6.96
   4  -4   0   92.13    3.98
  -4  -4   0   91.68    4.12
   4   4   0   94.33    4.39
  -4   4   0   92.13    4.19
   5  -4   0   55.14    3.80
  -5  -4   0   54.18    3.94
   5   4   0   57.87    4.17
  -5   4   0   51.06    4.15
   6  -4   0    8.26    2.70
  -6  -4   0    5.48    2.81
   6   4   0    8.56    3.14
  -6   4   0   10.33    2.91
   7  -4   0    9.64    3.61
  -7  -4   0    3.52    3.59
  -7   4   0   12.12    3.88
   7   4   0    9.80    3.62
  -8  -4   0    2.42    4.99
   8  -4   0    6.86    4.30
   8   4   0   15.67    4.95
  -8   4   0    0.50    4.97
   0  -5   0    0.17    0.47
   0   5   0    0.16    0.41
   0   5   0    0.96    0.51
   0   5   0    0.68    0.52
  -1  -5   0   79.47    2.30
  -1  -5   0   79.88    2.50
   1  -5   0   78.96    2.37
   1   5   0   82.17    2.60
  -1   5   0   78.41    2.41
   1   5   0   77.30    2.39
   2  -5   0  153.63    4.25
  -2  -5   0  151.84    4.37
  -2  -5   0  150.79    4.15
  -2   5   0  152.03    4.35
   2   5   0  152.41    4.57
  -3  -5   0   92.15    3.39
  -3  -5   0   89.13    3.54
   3  -5   0   90.95    3.45
   3   5   0   91.29    3.83
  -3   5   0   89.82    3.61
  -4  -5   0   14.13    2.17
   4  -5   0   12.38    2.05
  -4   5   0   14.46    2.34
   4   5   0   16.34    2.46
   5  -5   0   21.11    2.82
  -5  -5   0   22.06    2.92
  -5   5   0   19.40    3.71
   5   5   0   27.52    3.50
  -6  -5   0    2.30    2.77
   6  -5   0    3.08    2.45
   6   5   0    4.50    3.04
   7  -5   0   19.70    3.91
  -7   5   0   15.85    3.83
   7   5   0   25.77    4.82
  -8  -5   0    3.47    5.08
   8  -5   0    4.16    4.07
   8   5   0    2.79    4.69
   0  -6   0  496.53   10.71
   0   6   0  487.81   10.65
   0   6   0  488.99   10.79
   0   6   0  472.08   10.69
   1  -6   0   22.70    1.31
  -1  -6   0   25.73    1.47
  -1  -6   0   26.36    1.32
  -1   6   0   22.73    1.36
   1   6   0   24.69    1.42
   1   6   0   26.52    1.61
  -2  -6   0   10.57    1.36
   2  -6   0   14.73    1.47
  -2  -6   0   13.44    1.54
  -2   6   0   12.87    1.49
   2   6   0   11.38    1.48
  -3  -6   0   19.66    1.95
   3  -6   0   19.55    2.01
  -3  -6   0   19.28    2.13
   3   6   0   23.04    2.46
  -3   6   0   19.96    2.13
  -4  -6   0  165.11    5.76
  -4  -6   0  175.17    5.53
   4  -6   0  174.81    5.67
  -4   6   0  166.31    5.92
   4   6   0  174.73    6.15
  -5  -6   0   52.70    3.75
   5  -6   0   42.52    3.65
  -5  -6   0   48.08    3.88
  -5   6   0   52.41    4.06
   5   6   0   44.85    4.17
  -6  -6   0   33.21    4.42
   6  -6   0   38.33    4.27
  -6  -6   0   38.81    4.48
   6   6   0   43.92    4.94
   7  -6   0    2.74    3.19
  -7  -6   0    8.33    3.84
  -7  -6   0   -1.17    3.63
   7   6   0    3.64    3.65
  -7   6   0    2.52    3.71
  -8  -6   0   12.91    5.12
   8  -6   0    9.12    4.51
   8   6   0    2.72    4.36
   0   7   0    0.99    0.60
   0   7   0    0.62    0.72
   1  -7   0   24.87    1.44
  -1  -7   0   27.00    1.58
  -1  -7   0   23.79    1.37
   1   7   0   25.16    1.74
   1   7   0   23.05    1.52
  -1   7   0   21.91    1.48
  -2  -7   0  324.33    7.57
  -2  -7   0  320.76    7.90
   2  -7   0  315.82    7.73
   2   7   0  307.38    7.73
  -2   7   0  312.25    7.86
   2   7   0  322.72    8.22
   3  -7   0   12.49    1.69
  -3  -7   0   10.11    1.69
  -3  -7   0   11.32    1.59
   3   7   0    9.41    1.79
  -3   7   0    9.72    1.60
  -4  -7   0   18.11    2.33
   4  -7   0   17.66    2.31
  -4  -7   0   17.86    2.20
  -4   7   0   20.59    2.59
   4   7   0   17.65    2.59
   5  -7   0   44.26    3.66
  -5  -7   0   50.68    3.98
  -5  -7   0   52.40    3.73
  -5   7   0   41.67    4.05
   5   7   0   48.89    4.43
   6  -7   0    3.39    2.49
  -6  -7   0    1.87    2.83
  -6  -7   0    1.73    2.88
   6   7   0   -0.20    2.85
  -7  -7   0    4.52    3.97
   7  -7   0   -4.76    3.14
  -7  -7   0    6.03    3.98
  -7   7   0    6.94    3.85
   7   7   0    1.65    3.70
  -8  -7   0   -5.23    5.19
   8  -7   0   -4.69    3.98
   8   7   0    2.45    4.81
   0   8   0  577.14   12.66
   0   8   0  563.65   12.81
   0   8   0  573.60   12.76
  -1  -8   0    7.65    1.12
   1  -8   0    8.37    1.10
  -1  -8   0    6.90    0.96
   1   8   0    9.35    1.40
  -1   8   0   10.20    1.34
  -1   8   0    9.74    1.24
   2  -8   0   28.67    1.92
  -2  -8   0   32.77    1.87
  -2  -8   0   32.25    2.16
   2   8   0   30.26    2.38
  -2   8   0   29.89    2.05
  -3  -8   0    1.76    1.42
  -3  -8   0    0.82    1.12
   3  -8   0    1.44    1.28
   3   8   0    0.10    1.43
  -3   8   0    1.28    1.32
  -4  -8   0  123.60    4.88
  -4  -8   0  119.70    4.42
   4  -8   0  119.47    4.69
  -4   8   0  119.08    5.04
   4   8   0  117.55    5.29
   5  -8   0    2.15    1.99
  -5  -8   0    4.01    2.31
  -5  -8   0    5.16    2.13
   5   8   0    0.20    2.32
  -5   8   0    5.10    2.36
  -6  -8   0    1.19    2.88
  -6  -8   0    5.46    3.00
   6  -8   0    0.15    2.41
  -6   8   0    6.03    2.57
   6   8   0    3.24    3.33
  -7  -8   0   26.80    4.31
   7  -8   0   14.59    3.93
   7   8   0   20.44    4.68
  -7   8   0   11.70    4.06
   0   9   0    0.96    0.93
   0   9   0    0.53    0.76
   0   9   0   -0.49    0.84
  -1  -9   0  193.10    5.22
   1  -9   0  194.45    5.11
  -1  -9   0  194.80    4.99
   1   9   0  196.18    5.57
   1   9   0  189.99    5.24
  -1   9   0  189.32    5.17
  -1   9   0  184.40    5.28
  -2  -9   0  304.51    7.92
   2  -9   0  311.48    7.81
  -2  -9   0  321.02    7.57
   2   9   0  318.13    7.96
   2   9   0  318.04    8.41
  -2   9   0  307.57    8.00
  -3  -9   0   99.48    4.01
   3  -9   0  101.84    3.88
  -3  -9   0   97.60    3.57
  -3   9   0  105.44    4.14
   3   9   0  101.04    4.43
  -4  -9   0  103.18    4.55
   4  -9   0  102.47    4.42
  -4  -9   0  110.24    4.20
  -4   9   0  103.05    4.78
   4   9   0  103.73    5.12
   5  -9   0   -0.55    2.06
  -5  -9   0    0.74    2.11
  -5  -9   0    1.76    2.13
  -5   9   0    0.28    2.19
   5   9   0   -0.55    2.46
   6  -9   0    5.71    2.89
  -6  -9   0    1.82    2.96
  -6  -9   0   13.15    3.02
   6   9   0    2.69    3.28
  -6   9   0    3.97    2.97
   7  -9   0   33.42    4.58
  -7   9   0   36.69    5.01
   7   9   0   34.65    5.43
   0  10   0    2.10    0.90
   0  10   0    2.17    1.07
   0  10   0    0.92    1.03
   1 -10   0  310.40    7.64
  -1 -10   0  310.56    7.71
  -1 -10   0  315.45    7.51
   1  10   0  315.95    8.15
  -1  10   0  311.78    7.90
   1  10   0  305.03    7.79
  -1  10   0  304.55    7.72
   2 -10   0    5.69    1.28
  -2 -10   0    5.98    1.17
  -2 -10   0    5.34    1.30
   2  10   0    1.90    1.33
   2  10   0    2.82    1.46
  -2  10   0    3.78    1.28
  -3 -10   0   20.36    2.08
  -3 -10   0   26.15    2.56
   3 -10   0   23.34    2.34
   3  10   0   26.89    2.98
  -3  10   0   24.09    2.59
   4 -10   0    0.90    1.62
  -4 -10   0    4.37    1.92
  -4 -10   0    1.06    1.59
  -4  10   0    0.56    1.78
   4  10   0    1.22    1.97
  -5 -10   0    4.21    2.18
  -5 -10   0    4.75    2.40
   5 -10   0    1.73    2.56
  -5  10   0    4.71    2.51
   5  10   0    1.55    2.71
  -6 -10   0    3.17    2.92
  -6 -10   0    1.59    3.00
   6 -10   0    0.34    2.63
  -6  10   0    1.62    3.00
   6  10   0    6.87    3.57
  -7 -10   0   -5.60    3.45
   7 -10   0   -1.27    3.26
  -7 -10   0    3.35    3.85
  -7  10   0    7.98    4.39
   7  10   0    1.14    4.64
   0  11   0    0.34    1.14
   0  11   0   -1.15    1.09
   0  11   0    0.13    0.92
   1 -11   0  203.36    5.52
  -1 -11   0  198.50    5.60
  -1 -11   0  201.47    5.40
  -1  11   0  200.85    5.84
  -1  11   0  198.30    5.75
   1  11   0  199.95    5.73
   1  11   0  203.47    6.09
  -1  11   0  207.98    5.69
  -2 -11   0   28.69    2.00
  -2 -11   0   27.12    2.28
   2 -11   0   24.51    2.17
  -2  11   0   22.98    2.31
   2  11   0   26.94    2.35
   2  11   0   27.47    2.74
  -2  11   0   26.32    2.51
  -3 -11   0  149.18    5.16
  -3 -11   0  154.84    4.71
   3 -11   0  155.77    5.18
   3  11   0  148.35    5.79
  -3  11   0  161.04    5.47
  -4 -11   0   -0.16    1.54
  -4 -11   0    3.03    2.01
   4 -11   0    0.86    1.78
  -4  11   0   -1.91    1.64
   4  11   0   -3.70    1.91
  -5 -11   0   -3.65    2.38
  -5 -11   0    1.60    2.12
   5 -11   0    1.66    2.18
   6 -11   0   -2.03    2.56
  -6 -11   0    3.98    2.79
  -6 -11   0    0.51    3.07
   6  11   0   -4.08    3.23
  -6  11   0   -5.20    2.89
   7 -11   0   -0.37    3.34
  -7 -11   0    3.46    3.86
  -7  11   0    7.72    5.13
   7  11   0    5.35    4.46
   0  12   0  197.05    5.87
   0  12   0  209.03    5.75
   0  12   0  207.73    6.08
  -1 -12   0   77.55    3.07
  -1  12   0   75.99    3.34
   1  12   0   80.12    3.70
  -1  12   0   77.33    3.45
   1  12   0   82.01    3.45
  -1  12   0   77.16    3.25
   2 -12   0   12.06    1.80
  -2 -12   0   13.91    1.85
  -2 -12   0   11.19    1.51
  -2  12   0   12.59    1.96
   2  12   0   13.10    2.16
   2  12   0   11.48    1.90
  -2  12   0   12.95    1.83
   3 -12   0   51.63    3.15
  -3 -12   0   48.74    3.15
  -3 -12   0   45.52    2.70
   3  12   0   43.11    3.76
  -3  12   0   43.39    3.24
  -4 -12   0   49.86    3.71
   4 -12   0   46.77    3.59
  -4 -12   0   48.86    3.15
   4  12   0   47.71    4.41
  -4  12   0   59.25    5.86
   5 -12   0   73.94    4.76
  -5 -12   0   79.08    4.21
   5  12   0   69.64    5.76
   6 -12   0    5.14    2.93
  -6 -12   0    0.99    3.29
  -6 -12   0    4.21    2.82
   6  12   0    0.22    3.52
  -6  12   0    0.20    3.34
  -7 -12   0    9.86    4.37
   7 -12   0   -0.36    3.42
   7  12   0    2.93    4.60
   0  13   0    0.42    1.41
   0  13   0   -0.30    1.13
   0  13   0    0.62    1.35
  -1 -13   0   -0.09    1.23
  -1  13   0   -0.20    1.49
   1  13   0    1.82    1.59
  -1  13   0   -0.38    1.19
   1  13   0    1.17    1.44
  -1  13   0    2.27    1.45
  -2 -13   0   62.52    2.83
   2 -13   0   65.72    3.24
  -2 -13   0   59.92    3.17
  -2  13   0   61.54    3.62
   2  13   0   61.53    3.43
  -2  13   0   64.78    3.43
   2  13   0   66.08    3.94
  -3 -13   0    1.98    1.42
   3 -13   0    2.94    1.66
  -3 -13   0    1.74    1.64
  -3  13   0    3.62    2.10
   3  13   0    1.45    1.82
  -3  13   0    1.76    1.65
   3  13   0    3.70    2.25
   4 -13   0    1.20    2.04
  -4 -13   0    1.33    1.69
  -4 -13   0    1.74    2.08
   4  13   0   -1.13    2.39
  -5 -13   0   -1.22    2.61
   5 -13   0    0.65    2.38
  -5 -13   0    3.43    2.24
   5  13   0   -4.49    2.97
  -5  13   0    1.42    2.49
   6 -13   0    3.79    2.93
  -6 -13   0    6.01    2.94
  -6 -13   0    6.51    3.56
   6  13   0    3.37    4.04
  -6  13   0    8.73    3.73
  -7 -13   0   -0.27    4.45
   7 -13   0    4.84    3.65
   7  13   0    6.92    5.11
   0  14   0   31.67    2.89
   0  14   0   30.00    2.46
   0  14   0   26.56    2.73
   1  14   0    7.42    1.87
  -1  14   0    4.87    1.72
  -1  14   0    8.66    1.80
   1  14   0    8.30    2.08
  -1  14   0    9.01    1.96
   2 -14   0   49.62    3.08
  -2 -14   0   50.19    3.08
  -2 -14   0   48.30    2.74
   2  14   0   46.91    3.34
  -2  14   0   52.54    3.65
   2  14   0   47.74    3.77
  -2  14   0   51.77    3.26
   3 -14   0    2.50    1.88
  -3 -14   0    4.48    1.56
  -3 -14   0    0.86    1.76
   3  14   0    0.81    2.25
  -3  14   0    3.25    1.96
  -3  14   0    2.54    2.18
   3  14   0    0.87    1.86
  -4 -14   0   14.75    2.62
  -4 -14   0   16.21    2.15
   4  14   0   14.44    3.27
  -4  14   0   14.16    3.07
  -5 -14   0    8.86    2.84
  -5 -14   0    4.51    2.98
   5 -14   0    3.51    2.85
  -5  14   0    9.16    3.33
   5  14   0    4.43    3.42
  -5  14   0    8.40    3.27
   6 -14   0    1.14    2.93
  -6 -14   0    5.09    2.92
  -6 -14   0   -3.33    3.97
   6  14   0    5.39    4.10
  -6  14   0    8.44    3.86
  -6  14   0    1.35    3.85
  -7 -14   0   -3.31    4.56
   7 -14   0    1.11    3.96
  -7  14   0   -2.77    4.56
   7  14   0   -3.14    4.96
   0  15   0   -0.14    1.25
   0  15   0   -0.46    1.58
   0  15   0    0.38    1.66
   1  15   0   27.25    2.53
  -1  15   0   27.78    3.06
   1  15   0   28.44    3.25
  -1  15   0   28.81    2.62
   1  15   0   26.99    2.98
  -1  15   0   26.89    2.99
   2 -15   0  191.02    6.16
  -2 -15   0  198.89    5.79
  -2 -15   0  201.00    6.15
   2  15   0  202.02    6.56
  -2  15   0  199.17    6.49
   2  15   0  195.17    7.10
  -2  15   0  192.04    6.73
  -2  15   0  200.02    6.61
   3 -15   0   26.92    3.11
  -3 -15   0   30.14    3.13
  -3 -15   0   29.55    2.61
   3  15   0   30.65    3.94
   3  15   0   29.01    3.30
  -3  15   0   30.16    3.79
   4 -15   0    1.06    2.13
  -4 -15   0    2.89    1.85
  -4 -15   0    2.72    2.31
  -4  15   0    3.01    2.78
   4  15   0    5.73    4.15
   5 -15   0    3.86    2.82
  -5 -15   0    6.24    2.90
  -5  15   0    0.75    3.06
  -5  15   0    3.83    2.97
   5  15   0    7.65    3.79
  -6 -15   0   16.35    3.07
   6 -15   0   19.18    3.82
  -6  15   0   31.44    5.31
  -6  15   0   14.22    4.34
   6  15   0   12.96    4.61
   0  16   0   15.76    2.65
   0  16   0   12.76    2.37
   1  16   0   36.22    3.36
  -1  16   0   32.10    3.37
   1  16   0   38.56    3.64
  -1  16   0   35.91    3.01
  -1  16   0   38.51    3.42
   2  16   0   29.74    3.42
   2  16   0   25.40    3.35
  -2  16   0   26.83    3.51
  -2  16   0   25.72    3.08
  -2  16   0   29.99    3.12
   3 -16   0   25.06    3.30
  -3 -16   0   26.80    3.21
  -3 -16   0   21.13    2.65
  -3  16   0   24.97    3.29
   3  16   0   25.98    3.46
   3  16   0   23.18    3.72
  -4 -16   0    8.74    2.27
  -4 -16   0    8.90    3.39
   4 -16   0   12.36    2.69
  -4  16   0    9.07    3.17
   4  16   0   12.50    3.89
   5 -16   0   -4.49    2.89
  -5 -16   0    4.22    2.88
  -5  16   0   -3.80    2.85
   5  16   0    5.22    3.83
   6 -16   0   14.24    3.96
  -6  16   0   13.88    4.57
   6  16   0   17.50    5.05
   0  17   0   -0.20    1.63
   0  17   0    1.51    2.01
   0  17   0    2.51    2.23
  -1  17   0    7.00    2.36
   1  17   0   10.30    1.95
  -1  17   0   13.68    2.32
   1  17   0   12.11    2.60
  -1  17   0   12.98    2.86
   1  17   0   11.02    2.45
  -2  17   0    4.38    2.46
   2  17   0    4.55    2.31
   2  17   0    4.16    2.45
  -2  17   0    2.80    2.03
  -2  17   0    4.79    2.46
  -3 -17   0   21.86    2.78
  -3 -17   0   33.04    3.55
   3 -17   0   26.06    3.72
  -3  17   0   23.94    3.53
   3  17   0   26.85    3.73
   4 -17   0   14.48    2.83
  -4 -17   0   15.98    3.64
  -4 -17   0   12.58    2.85
   4  17   0   10.91    3.95
  -4  17   0   13.58    3.42
   5 -17   0   10.59    3.47
  -5 -17   0    8.93    2.53
  -5 -17   0    9.05    3.07
   5  17   0   10.62    4.35
  -5  17   0    6.72    3.35
  -5  17   0   12.79    4.04
   6 -17   0   10.98    3.99
  -6 -17   0   -2.57    4.16
   6  17   0    3.41    4.91
  -6  17   0   14.21    4.86
   0  18   0   19.73    2.54
   0  18   0   23.93    3.14
   0  18   0   14.83    2.67
   1  18   0   51.89    3.56
   1  18   0   52.07    4.48
  -1  18   0   45.60    4.10
  -1  18   0   59.71    4.38
  -1  18   0   48.60    3.63
   1  18   0   47.73    4.14
   2  18   0   22.94    3.74
  -2  18   0   23.16    3.41
  -2  18   0   25.55    3.57
   2  18   0   24.45    3.34
  -2  18   0   28.58    3.32
   3 -18   0    9.40    2.55
  -3 -18   0    4.62    1.99
   3  18   0    3.28    3.18
  -3  18   0    8.78    3.07
  -3  18   0    3.65    2.83
   3  18   0    6.24    2.62
  -4 -18   0    4.97    2.74
  -4 -18   0    4.44    2.09
   4 -18   0    6.03    2.77
  -4  18   0    9.37    3.11
   4  18   0    3.04    3.60
  -4  18   0   14.65    3.71
  -5 -18   0   56.51    5.36
   5 -18   0   64.89    5.70
  -5 -18   0   65.05    4.10
  -5  18   0   71.95    6.49
  -5  18   0   66.56    6.79
   5  18   0   72.31    7.17
   6 -18   0   -0.98    3.78
   6  18   0    0.05    5.22
  -6  18   0   -5.47    4.27
   0  19   0   -0.25    1.70
   0  19   0   -1.14    2.39
  -1  19   0    0.41    1.94
  -1  19   0    2.60    2.66
  -1  19   0    0.55    2.50
   1  19   0   -1.11    2.02
   1  19   0    0.80    2.33
  -2  19   0   47.77    4.70
   2  19   0   47.73    5.08
  -2  19   0   50.92    4.78
   2  19   0   43.25    4.52
  -2  19   0   47.87    4.06
  -3  19   0    6.49    3.15
   3  19   0   -0.82    3.42
   3  19   0    2.73    2.67
  -3  19   0    0.61    2.39
  -3  19   0    6.43    3.27
  -4 -19   0   10.57    2.44
   4 -19   0    8.90    3.19
  -4 -19   0    8.86    3.06
   4  19   0    9.11    4.37
  -4  19   0   13.50    3.68
  -4  19   0   11.48    5.03
  -4  19   0    6.00    3.26
   5 -19   0   -2.67    3.14
   5  19   0   -1.67    4.42
  -5  19   0   -3.67    4.05
   0  20   0   18.38    3.61
   0  20   0   16.67    3.30
   0  20   0   16.73    2.72
   1  20   0   67.44    5.05
   1  20   0   63.58    4.31
  -1  20   0   61.82    5.14
  -1  20   0   56.25    4.27
  -1  20   0   62.75    5.27
   1  20   0   68.27    5.56
   2  20   0   -2.17    3.08
  -2  20   0    1.46    3.01
  -2  20   0    3.79    2.31
  -2  20   0   -1.26    2.82
   2  20   0   -0.26    2.68
   2  20   0    2.36    2.27
  -3  20   0   20.08    4.16
  -3  20   0   19.93    3.62
   3  20   0   14.41    4.24
   3  20   0   21.12    3.61
  -3  20   0   21.15    4.19
   4 -20   0    7.96    3.31
  -4  20   0    4.73    3.53
   4  20   0    8.44    4.19
  -4  20   0    5.20    4.01
  -4  20   0    1.08    3.12
   5 -20   0    0.62    3.45
   5  20   0   -3.76    4.82
  -5  20   0    0.60    4.00
  -5  20   0   -0.53    4.20
   0  21   0    0.53    2.35
   0  21   0   -0.86    3.14
   0  21   0   -2.79    2.84
  -1  21   0   26.50    3.38
  -1  21   0   20.10    3.97
  -1  21   0   22.67    3.79
   1  21   0   20.77    3.07
   1  21   0   24.06    3.76
   1  21   0   25.97    4.04
  -2  21   0   85.90    6.17
   2  21   0   90.23    5.83
   2  21   0   90.30    6.91
  -2  21   0   98.03    5.63
   2  21   0   81.79    5.11
  -2  21   0   86.94    6.45
   3  21   0    4.79    3.20
  -3  21   0    2.19    3.65
  -3  21   0    1.29    3.00
   3  21   0    2.69    4.26
   4 -21   0    8.32    3.32
   4  21   0    1.87    4.47
  -4  21   0    4.35    3.67
  -4  21   0    2.73    4.24
   5 -21   0    6.10    4.15
  -5  21   0   -0.24    4.61
  -5  21   0    5.29    4.59
   5  21   0    8.17    5.61
   0  22   0    5.07    2.59
   0  22   0    2.40    3.48
   0  22   0    8.28    3.68
   1  22   0   15.08    2.88
  -1  22   0   22.67    4.31
   1  22   0   10.50    3.58
   1  22   0   16.21    3.93
  -1  22   0   14.16    2.98
  -1  22   0   13.22    3.96
   2  22   0    7.44    3.27
   2  22   0    0.42    3.99
  -2  22   0    0.86    3.48
  -2  22   0   10.67    3.93
   2  22   0    4.04    2.61
  -2  22   0    1.99    3.01
   3  22   0   -3.57    3.31
  -3  22   0   -0.94    3.75
  -3  22   0    8.55    4.97
   3  22   0   -1.00    4.10
  -3  22   0   -0.27    3.73
   4  22   0   -7.76    4.80
  -4  22   0    4.23    4.31
  -4  22   0    5.96    4.53
   0  23   0    0.18    3.68
   0  23   0    0.28    2.38
   0  23   0    1.61    3.54
   1  23   0    1.50    3.70
   1  23   0    4.14    2.78
  -1  23   0    3.72    4.04
  -1  23   0    5.87    3.56
  -1  23   0    5.75    2.68
   1  23   0    3.36    3.70
   2  23   0   16.06    4.00
   2  23   0    9.89    4.51
  -2  23   0    7.92    4.39
   2  23   0   14.29    3.40
  -2  23   0   17.05    3.45
  -3  23   0    3.51    4.27
   3  23   0   -0.87    4.49
   3  23   0    9.15    3.96
  -3  23   0    3.14    4.32
   4  23   0    1.40    5.59
  -4  23   0    0.62    4.70
  -4  23   0   -0.62    4.41
   0  24   0   -3.23    3.77
   0  24   0    2.07    4.24
   0  24   0    0.60    2.83
  -1  24   0   40.19    5.11
   1  24   0   38.51    4.87
  -1  24   0   34.68    5.17
   1  24   0   39.02    5.32
   1  24   0   33.12    5.38
   2  24   0    0.91    3.92
  -2  24   0   -1.73    3.81
  -2  24   0   -3.02    4.65
   2  24   0   -6.36    4.26
   3  24   0    3.70    5.36
  -3  24   0   -1.51    4.52
  -3  24   0   13.89    5.02
   3  24   0    9.56    4.13
   0  25   0    2.35    4.64
   0  25   0    4.77    4.18
   1  25   0    4.18    4.18
  -1  25   0    3.34    4.47
   1  25   0    8.43    4.85
  -1  25   0   -1.31    4.62
   2  25   0    5.58    5.37
  -2  25   0   -0.62    4.66
  -2  25   0   -0.69    4.85
   2  25   0    5.87    4.40
   0  26   0   -0.91    4.95
   0  26   0   22.32    7.19
   1  26   0    0.74    5.00
  -1  26   0   -1.70    5.02
   1  26   0    9.49    4.68
  -1  26   0    6.81    4.95
  -8   0   1   -4.19    4.56
   8   0  -1    1.55    3.92
   7   0  -1   32.52    4.32
  -6   0   1   -2.62    2.39
   5   0  -1   59.77    3.86
  -5   0   1   63.28    4.02
  -4   0   1    0.68    1.45
   4   0  -1   -2.10    1.19
  -3   0   1  528.00   12.28
   3   0  -1  524.30   12.31
  -2   0   1   -0.08    0.65
   2   0  -1   -0.38    0.65
   1   0  -1  447.64    9.41
  -1   0   1  431.42    9.40
   1   0   1  110.37    2.90
  -1   0  -1  111.73    2.93
   2   0   1   -0.42    0.73
  -2   0  -1   -0.22    0.77
   3   0   1   -0.46    1.06
  -3   0  -1   -0.23    1.10
   4   0   1   -1.11    1.43
  -4   0  -1   -0.50    1.43
   5   0   1   16.65    2.80
  -5   0  -1   18.64    2.92
  -6   0  -1    1.22    2.60
   6   0   1   -2.31    2.36
   7   0   1   -1.55    3.04
  -7   0  -1    9.57    3.62
   8   0   1    8.54    4.24
  -8   0  -1   10.09    5.23
   8  -1  -1    5.34    4.08
  -8  -1   1    3.53    4.69
   8   1  -1   10.54    4.60
  -8   1   1    1.02    4.87
   7  -1  -1   22.97    3.79
   7   1  -1   30.17    4.42
  -6  -1   1   29.51    3.53
   6   1  -1   26.79    5.41
  -6   1   1   31.84    3.95
  -5  -1   1   83.60    4.39
   5  -1  -1   76.76    4.22
   5   1  -1   74.98    4.25
  -5   1   1   87.70    4.49
   4  -1  -1   17.23    2.35
  -4  -1   1   16.92    2.09
  -4   1   1   18.66    2.41
   4   1  -1   18.60    2.38
   3  -1  -1   33.84    2.16
  -3  -1   1   29.75    2.14
  -3   1   1   32.46    2.27
   3   1  -1   28.98    2.18
   2  -1  -1  545.28   12.22
  -2  -1   1  552.43   12.20
   2   1  -1  553.28   12.27
  -2   1   1  551.46   12.25
  -1  -1   1  107.93    2.68
   1  -1  -1  112.85    2.77
  -1   1   1  112.41    2.77
   1   1  -1  113.36    2.75
   1  -1   1   68.00    1.97
  -1  -1  -1   65.02    2.05
  -1   1  -1   68.52    2.01
   1   1   1   66.63    2.06
  -2  -1  -1  734.04   16.19
   2  -1   1  728.88   16.09
  -2   1  -1  740.39   16.19
   2   1   1  733.22   16.21
  -3  -1  -1   22.20    2.14
   3  -1   1   22.03    2.04
   3   1   1   19.47    2.11
  -3   1  -1   25.67    2.23
  -4  -1  -1    1.50    1.54
   4  -1   1    2.00    1.56
   4   1   1    2.38    1.54
  -4   1  -1    3.93    1.69
   5  -1   1   13.36    2.61
  -5  -1  -1   13.95    2.59
  -5   1  -1   15.02    2.77
   5   1   1   16.83    2.94
   6  -1   1   28.24    3.75
  -6  -1  -1   23.90    3.56
   6   1   1   16.11    3.07
  -6   1  -1   24.34    3.62
  -7  -1  -1   -3.69    3.43
   7  -1   1   -3.05    2.87
   7   1   1    1.63    3.25
  -7   1  -1    1.67    3.37
  -8  -1  -1   30.38    5.77
   8  -1   1   23.88    5.01
   8   1   1   34.84    5.56
  -8   1  -1   26.47    5.51
   8  -2  -1    5.59    4.29
  -8  -2   1    9.56    4.88
  -8   2   1   13.14    5.06
   8   2  -1    9.96    4.46
   7  -2  -1    9.94    3.25
  -7   2   1    3.98    2.89
   7   2  -1    8.64    3.65
  -6  -2   1   28.94    3.93
   6  -2  -1   26.88    3.93
   6   2  -1   29.11    5.64
  -6   2   1   24.14    3.46
   5  -2  -1   37.71    3.37
  -5  -2   1   34.73    3.39
  -5   2   1   38.63    3.49
   5   2  -1   31.35    3.42
   4  -2  -1   10.99    1.93
  -4  -2   1   12.04    1.87
  -4   2   1    7.87    1.89
   4   2  -1    8.63    1.99
   3  -2  -1  101.05    3.58
  -3  -2   1  103.42    3.63
   3   2  -1  105.27    3.80
  -3   2   1   99.84    3.70
   2  -2  -1  109.47    3.19
  -2  -2   1  103.70    3.13
  -2   2   1  105.60    3.21
   2   2  -1  105.32    3.23
   1  -2  -1  102.51    2.56
  -1  -2   1   95.52    2.44
  -1   2   1   98.94    2.56
   1   2  -1   96.72    2.51
   0  -2  -1  270.03    5.89
   0  -2  -1  264.54    5.84
   0   2   1  268.52    5.90
   0   2   1  256.04    5.71
   0   2   1  269.49    5.86
  -1  -2  -1  487.05   10.55
  -1  -2  -1  475.09   10.54
   1  -2   1  472.17   10.32
   1   2   1  485.84   10.56
  -1   2  -1  471.63   10.37
  -2  -2  -1  100.65    3.39
   2  -2   1  118.91    3.38
  -2   2  -1  107.53    3.40
   2   2   1  106.08    3.47
  -3  -2  -1   99.15    3.77
   3  -2   1   94.25    3.58
  -3   2  -1  100.23    3.81
   3   2   1   95.84    3.81
  -4  -2  -1   32.97    2.93
   4  -2   1   32.89    2.76
   4   2   1   30.76    3.01
  -4   2  -1   30.80    2.97
   5  -2   1   62.88    4.03
  -5  -2  -1   68.83    4.33
  -5   2  -1   64.65    4.32
   5   2   1   65.57    4.29
   6  -2   1   11.10    2.83
  -6  -2  -1   10.96    2.92
   6   2   1   13.07    3.16
  -6   2  -1   13.01    3.06
  -7  -2  -1    6.23    3.61
   7  -2   1    4.71    3.27
  -7   2  -1    9.97    3.65
   7   2   1    8.09    3.66
  -8  -2  -1   11.33    5.18
   8  -2   1    7.56    4.12
   8   2   1    3.95    4.21
  -8   2  -1    3.12    5.59
  -8  -3   1   23.15    5.14
   8  -3  -1   13.96    4.39
  -8   3   1   22.88    5.36
   8   3  -1   15.17    4.74
   7  -3  -1   -0.14    3.07
   7   3  -1    0.97    3.36
  -7   3   1    0.10    3.04
  -6  -3   1    5.10    3.17
   6  -3  -1    3.86    2.53
  -6   3   1    7.07    2.83
  -5  -3   1    1.32    1.96
   5  -3  -1    1.47    1.73
  -5   3   1   -0.71    1.96
   5   3  -1   -0.24    1.95
   4  -3  -1    9.40    1.89
  -4  -3   1   10.36    1.83
  -4   3   1    9.34    1.93
   4   3  -1   11.81    2.14
   3  -3  -1  135.51    4.30
  -3  -3   1  136.71    4.32
  -3   3   1  131.62    4.37
   3   3  -1  136.74    4.46
  -2  -3   1  165.24    4.41
   2  -3  -1  175.17    4.48
  -2   3   1  167.61    4.52
   2   3  -1  163.23    4.55
  -1  -3   1   11.65    0.56
  -1  -3   1   12.69    0.79
   1  -3  -1   11.95    0.83
   1   3  -1   12.36    0.86
  -1   3   1   11.81    0.87
  -1   3   1   12.79    0.93
   0  -3  -1    0.35    0.38
   0  -3  -1    0.46    0.43
   0   3   1    0.04    0.41
   0   3   1    0.55    0.44
   0   3   1    0.25    0.30
   1  -3   1  218.10    5.01
  -1  -3  -1  215.39    5.25
  -1  -3  -1  218.21    5.27
   1   3   1  207.60    5.25
   1   3   1  219.43    5.33
  -1   3  -1  215.27    5.05
  -2  -3  -1  307.90    7.47
   2  -3   1  293.69    7.21
  -2   3  -1  292.15    7.32
   2   3   1  306.61    7.55
   3  -3   1   76.81    3.13
  -3  -3  -1   66.13    3.20
   3   3   1   68.85    3.34
  -3   3  -1   69.99    3.24
  -4  -3  -1   57.05    3.46
   4  -3   1   59.83    3.32
  -4   3  -1   56.82    3.59
   4   3   1   63.00    3.70
   5  -3   1   26.87    3.29
  -5  -3  -1   37.41    3.63
   5   3   1   29.37    3.66
  -6  -3  -1   33.64    4.42
   6  -3   1   32.90    4.19
   6   3   1   32.52    4.11
  -6   3  -1   38.19    5.06
  -7  -3  -1    5.53    3.73
   7  -3   1    6.20    3.32
  -7   3  -1    0.71    3.62
   7   3   1    5.90    3.31
  -8  -3  -1   11.51    5.28
   8  -3   1   15.70    4.83
   8   3   1   10.76    4.67
   8  -4  -1    6.69    4.41
  -8  -4   1   -6.24    4.74
  -8   4   1   11.55    4.95
   8   4  -1    5.10    4.55
  -7  -4   1    0.50    4.59
   7  -4  -1    0.51    2.91
   7   4  -1    0.85    3.19
  -7   4   1   -4.68    3.31
  -6  -4   1    6.07    3.36
   6  -4  -1    3.32    2.59
  -6   4   1    6.78    2.74
   5  -4  -1  134.05    5.40
  -5  -4   1  128.91    5.32
   5   4  -1  132.42    5.74
  -5   4   1  133.37    5.67
  -4  -4   1    2.26    1.54
   4  -4  -1   -0.40    1.43
   4   4  -1    1.04    1.49
  -4   4   1    1.74    1.62
  -3  -4   1    8.33    1.42
   3  -4  -1    8.47    1.42
  -3   4   1    8.33    1.52
   3   4  -1   10.02    1.68
  -2  -4   1   31.48    1.69
  -2  -4   1   31.70    1.44
   2  -4  -1   31.63    1.69
   2   4  -1   32.42    1.85
  -2   4   1   31.57    1.75
   1  -4  -1  399.17    8.66
  -1  -4   1  383.74    8.51
  -1  -4   1  389.85    8.27
   1   4  -1  382.77    8.64
   1   4  -1  386.87    8.35
  -1   4   1  399.13    8.81
  -1   4   1  394.40    8.68
   0  -4  -1   47.16    1.63
   0  -4  -1   46.61    1.65
   0   4   1   46.97    1.69
   0   4  -1   45.95    1.39
   0   4   1   47.77    1.52
   0   4   1   47.89    1.71
  -1  -4  -1 1000.00   21.09
  -1  -4  -1  987.79   21.01
   1  -4   1  993.80   20.77
   1   4   1  997.14   21.18
  -1   4  -1  973.21   20.83
   1   4   1  976.76   21.08
  -2  -4  -1  124.98    3.87
  -2  -4  -1  119.53    3.76
   2  -4   1  119.97    3.57
  -2   4  -1  117.15    3.67
   2   4   1  125.13    3.97
   3  -4   1   73.19    3.06
  -3  -4  -1   64.31    3.17
   3   4   1   68.38    3.32
  -3   4  -1   66.67    3.19
  -4  -4  -1   10.83    2.21
   4  -4   1   14.73    2.12
   4   4   1   11.10    2.25
  -4   4  -1   12.98    2.14
  -5  -4  -1   52.47    4.13
   5  -4   1   53.35    3.82
   5   4   1   58.73    4.34
  -5   4  -1   51.82    4.26
  -6  -4  -1    6.27    2.88
   6  -4   1    0.05    2.55
   6   4   1    3.09    2.86
   7  -4   1    1.33    3.19
  -7  -4  -1    2.82    3.53
  -7   4  -1    0.33    3.57
   7   4   1    2.14    3.38
  -8  -4  -1    8.48    5.44
   8  -4   1    1.45    4.02
   8   4   1    5.63    4.64
  -8  -5   1   14.77    4.90
   8  -5  -1   11.61    4.29
  -8   5   1   27.59    5.61
   8   5  -1   15.38    4.82
   7  -5  -1   16.71    3.54
  -7  -5   1   27.89    4.10
  -7  -5   1   15.93    4.75
  -7   5   1   21.04    4.16
   7   5  -1   20.40    4.63
   6  -5  -1    7.94    2.81
   6   5  -1    7.21    3.64
  -6   5   1   14.63    3.04
  -5  -5   1   35.69    3.51
   5  -5  -1   38.25    3.41
   5   5  -1   37.58    3.85
  -5   5   1   36.75    3.70
  -4  -5   1   30.34    2.70
   4  -5  -1   30.21    2.66
   4   5  -1   28.22    2.85
  -4   5   1   28.01    2.79
  -3  -5   1    9.22    1.48
   3  -5  -1    8.48    1.39
  -3  -5   1    8.52    1.29
   3   5  -1    6.99    1.49
  -3   5   1    9.13    1.62
   2  -5  -1   87.47    2.94
  -2  -5   1   88.65    2.60
  -2  -5   1   88.07    2.90
   2   5  -1   95.67    3.19
  -2   5   1   93.58    3.09
   1  -5  -1  222.35    5.15
  -1  -5   1  206.14    4.75
  -1  -5   1  207.36    4.99
   1   5  -1  203.43    4.85
  -1   5   1  227.80    5.21
   1   5  -1  207.28    5.16
  -1   5   1  219.61    5.38
   0  -5  -1   63.66    2.12
   0  -5  -1   65.02    2.10
   0   5   1   65.31    2.01
   0   5  -1   63.51    1.88
   0   5   1   67.60    2.22
   0   5   1   65.35    2.20
  -1  -5  -1    3.00    0.83
  -1  -5  -1    3.42    0.78
   1  -5   1    2.41    0.62
  -1   5  -1    2.31    0.62
   1   5   1    2.94    0.85
   1   5   1    2.56    0.87
   2  -5   1  207.61    5.36
  -2  -5  -1  206.69    5.66
  -2  -5  -1  203.62    5.52
   2   5   1  206.53    5.80
  -2   5  -1  207.38    5.52
   3  -5   1  180.62    5.34
  -3  -5  -1  183.51    5.60
  -3  -5  -1  175.40    5.40
   3   5   1  189.42    5.86
  -3   5  -1  173.31    5.50
   4  -5   1   32.21    2.75
  -4  -5  -1   32.68    2.95
  -4  -5  -1   33.34    2.88
   4   5   1   28.83    3.16
  -4   5  -1   34.92    3.13
  -5  -5  -1   17.81    2.79
   5  -5   1   14.77    2.61
  -5  -5  -1   18.41    2.79
   5   5   1   10.63    2.71
  -5   5  -1   16.62    2.82
  -6  -5  -1   25.51    3.68
  -6  -5  -1   28.93    3.94
   6  -5   1   29.74    3.49
   6   5   1   28.37    4.10
  -7  -5  -1   39.61    5.01
  -7  -5  -1   24.59    4.39
   7  -5   1   30.71    4.45
  -7   5  -1   24.11    4.20
   7   5   1   31.00    4.53
   8  -5   1   -1.10    4.09
  -8  -5  -1    7.70    5.31
   8   5   1    4.00    4.60
  -8  -6   1   -4.34    4.93
   8  -6  -1   -0.80    4.02
  -8   6   1    1.66    6.06
   8   6  -1    8.40    4.57
   7  -6  -1   14.97    3.54
  -7  -6   1   17.44    4.26
  -7  -6   1   20.84    3.99
  -7   6   1   14.06    4.07
   7   6  -1   20.20    4.17
   6  -6  -1    2.95    2.48
  -6  -6   1    3.91    2.65
  -6   6   1    6.85    3.31
   6   6  -1    1.44    2.89
   5  -6  -1   10.19    2.26
  -5  -6   1   14.72    2.54
  -5  -6   1   13.14    2.34
  -5   6   1   10.56    2.93
   5   6  -1    8.72    2.54
  -4  -6   1    4.77    1.52
   4  -6  -1    3.08    1.52
  -4  -6   1    4.30    1.60
  -4   6   1    4.93    1.81
   4   6  -1    4.10    1.85
  -3  -6   1  178.60    5.26
   3  -6  -1  180.79    5.31
  -3  -6   1  180.47    4.88
  -3   6   1  176.67    5.45
   3   6  -1  182.59    5.65
   2  -6  -1   16.57    1.50
  -2  -6   1   17.18    1.19
  -2  -6   1   19.03    1.53
   2   6  -1   17.32    1.71
  -2   6   1   17.80    1.63
  -1  -6   1    0.74    0.48
  -1  -6   1    0.84    0.57
   1  -6  -1    0.76    0.62
  -1   6   1    0.89    0.79
  -1   6   1    1.75    0.68
   1   6  -1    1.66    0.56
   1   6  -1    2.47    0.79
   0  -6  -1  161.36    4.09
   0  -6  -1  155.65    4.02
   0   6  -1  149.73    3.80
   0   6   1  161.59    4.21
   0   6   1  159.95    3.96
   0   6   1  135.84    4.43
   0   6  -1  152.40    3.82
  -1  -6  -1  245.25    6.06
  -1  -6  -1  240.87    6.19
   1  -6   1  257.17    5.91
  -1   6  -1  253.41    5.97
   1   6   1  243.96    6.23
   1   6   1  249.26    6.38
  -2  -6  -1    1.37    1.00
   2  -6   1   -0.51    0.77
  -2  -6  -1    1.40    1.13
  -2   6  -1   -0.99    0.91
   2   6   1   -0.91    1.04
  -3  -6  -1    5.17    1.45
  -3  -6  -1    4.03    1.52
   3  -6   1    2.41    1.21
  -3   6  -1    3.81    1.31
   3   6   1    3.95    1.56
  -4  -6  -1   35.39    3.11
  -4  -6  -1   39.33    3.04
   4  -6   1   38.71    2.90
  -4   6  -1   34.13    3.16
   4   6   1   36.40    3.36
  -5  -6  -1   20.27    3.07
   5  -6   1   18.08    2.81
  -5  -6  -1   24.36    3.06
  -5   6  -1   17.43    2.90
   5   6   1   15.25    2.94
  -6  -6  -1    0.76    2.77
  -6  -6  -1    3.51    3.08
   6  -6   1    0.96    2.59
   6   6   1    1.81    2.94
  -7  -6  -1    8.22    3.88
   7  -6   1    8.99    3.60
  -7  -6  -1    5.98    4.22
  -7   6  -1   13.36    4.13
   7   6   1    6.00    3.94
  -8  -6  -1    1.49    5.33
   8  -6   1    9.38    4.39
   8   6   1    6.73    4.87
  -8  -7   1    5.25    5.14
   8  -7  -1    3.96    4.39
   8   7  -1    1.73    4.38
  -7  -7   1   -1.68    3.83
   7  -7  -1   -1.76    3.00
  -7  -7   1    3.98    3.67
  -7   7   1   10.19    3.83
   7   7  -1    6.05    3.93
   6  -7  -1   27.40    3.62
  -6  -7   1   30.88    3.52
  -6  -7   1   20.14    5.32
   6   7  -1   20.48    3.91
  -5  -7   1   17.53    2.47
   5  -7  -1   15.89    2.50
  -5  -7   1   18.26    2.74
   5   7  -1   23.69    3.36
  -5   7   1   14.19    2.76
   4  -7  -1   18.36    2.26
  -4  -7   1   16.87    2.23
  -4  -7   1   20.87    2.62
   4   7  -1   19.99    2.55
  -4   7   1   18.68    2.38
  -3  -7   1   18.82    1.64
   3  -7  -1   16.90    1.97
  -3  -7   1   23.28    2.08
   3   7  -1   20.53    2.36
  -3   7   1   15.91    2.09
  -2  -7   1  488.25   10.87
  -2  -7   1  495.01   11.31
   2  -7  -1  508.06   11.44
   2   7  -1  488.81   11.67
  -2   7   1  506.62   11.56
   1  -7  -1    4.41    0.88
  -1  -7   1    4.40    0.81
  -1  -7   1    4.74    0.71
   1   7  -1    4.32    0.78
   1   7  -1    4.62    0.94
  -1   7   1    4.01    1.00
  -1   7   1    3.81    0.86
   0  -7  -1   41.07    1.82
   0  -7  -1   39.20    1.81
   0   7  -1   36.79    1.57
   0   7   1   36.15    1.90
   0   7   1   38.72    1.69
   0   7   1   37.98    1.92
   0   7  -1   34.63    1.59
  -1  -7  -1    9.37    1.30
  -1  -7  -1    6.40    1.08
   1  -7   1    7.45    0.95
  -1   7  -1    8.02    1.02
   1   7   1    9.94    1.43
  -2  -7  -1  876.02   19.06
  -2  -7  -1  865.59   19.28
   2  -7   1  864.39   18.91
  -2   7  -1  873.53   19.13
   2   7   1  864.91   19.56
   2   7   1  860.57   19.26
   3  -7   1   29.59    2.26
  -3  -7  -1   34.20    2.47
  -3  -7  -1   35.88    2.70
  -3   7  -1   30.52    2.46
   3   7   1   28.95    2.78
  -4  -7  -1    4.62    1.93
  -4  -7  -1    3.36    1.79
   4  -7   1    1.34    1.60
  -4   7  -1    2.45    1.76
   4   7   1    0.74    1.78
  -5  -7  -1    6.02    2.42
  -5  -7  -1   -0.37    2.27
   5  -7   1    2.12    1.97
  -5   7  -1    2.30    2.32
   5   7   1    1.61    2.40
   6  -7   1   12.77    2.93
  -6  -7  -1   14.83    3.60
  -6  -7  -1   16.95    3.49
   6   7   1   10.31    3.60
   7  -7   1    2.41    3.30
  -7  -7  -1    4.92    3.85
  -7  -7  -1    2.44    4.26
  -7   7  -1    9.83    3.90
   7   7   1   -4.01    3.52
   7  -8  -1    2.36    3.10
  -7  -8   1    9.68    3.72
  -7  -8   1    1.77    3.95
   7   8  -1    3.87    4.23
  -7   8   1    8.86    4.07
   6  -8  -1   30.73    4.20
  -6  -8   1   37.56    4.33
  -6  -8   1   39.55    4.40
   6   8  -1   33.05    4.33
  -5  -8   1    9.93    2.49
   5  -8  -1   10.13    2.44
  -5  -8   1   11.36    2.27
  -5   8   1   13.23    2.73
   5   8  -1    7.94    2.69
  -4  -8   1   21.68    2.31
  -4  -8   1   25.08    2.69
   4  -8  -1   20.72    2.63
  -4   8   1   22.36    2.91
   4   8  -1   22.90    3.11
   3  -8  -1   16.22    2.02
  -3  -8   1   13.95    1.58
  -3  -8   1   16.90    2.03
   3   8  -1   18.40    2.28
  -3   8   1   16.15    1.95
  -2  -8   1    4.82    0.90
  -2  -8   1    5.11    1.11
   2  -8  -1    3.62    1.12
  -2   8   1    3.43    1.24
   2   8  -1    4.25    1.03
  -2   8   1    4.84    1.28
   2   8  -1    6.51    1.44
   1  -8  -1  320.66    7.62
  -1  -8   1  313.94    7.26
  -1   8   1  324.99    7.70
   1   8  -1  313.72    7.76
  -1   8   1  326.20    7.92
  -1   8   1  320.05    7.81
   1   8  -1  312.73    7.43
   0  -8  -1  328.25    7.80
   0   8   1  333.74    8.05
   0   8  -1  325.18    7.69
   0   8  -1  325.25    7.60
   0   8   1  326.52    7.73
   0   8   1  328.85    7.99
   0   8  -1  317.83    7.60
  -1  -8  -1   37.50    2.00
   1  -8   1   39.18    1.81
  -1  -8  -1   38.53    2.10
   1   8   1   40.54    2.35
  -1   8  -1   39.34    1.93
   1   8   1   37.01    2.19
  -2  -8  -1    2.42    1.28
  -2  -8  -1    0.74    1.03
   2  -8   1    1.46    0.97
   2   8   1    1.61    1.24
  -2   8  -1    1.92    1.09
   2   8   1    0.35    1.27
   3  -8   1   37.28    2.45
  -3  -8  -1   39.23    2.61
  -3  -8  -1   36.60    2.78
   3   8   1   38.38    3.07
  -3   8  -1   33.45    2.58
  -4  -8  -1  196.59    6.29
   4  -8   1  199.59    6.28
  -4  -8  -1  188.78    6.60
   4   8   1  201.04    7.14
  -4   8  -1  201.40    6.78
   5  -8   1   12.55    2.46
  -5  -8  -1   17.30    2.82
   5   8   1   11.93    2.94
  -5   8  -1   13.24    2.69
   6  -8   1   11.55    2.85
  -6  -8  -1   13.78    3.43
  -6  -8  -1   15.68    3.44
   6   8   1   12.72    3.63
  -6   8  -1   15.05    3.36
  -7  -8  -1    3.33    4.00
  -7  -8  -1   13.04    4.29
   7  -8   1   -0.95    3.34
   7   8   1   -3.43    3.62
  -7   8  -1    7.93    3.85
   7  -9  -1    2.61    3.19
  -7  -9   1   -2.50    4.77
   7   9  -1   10.32    4.32
  -7   9   1   -1.40    4.10
   6  -9  -1   28.15    3.50
  -6  -9   1   33.56    4.34
   6   9  -1   33.99    4.61
  -5  -9   1   26.99    3.01
  -5  -9   1   31.15    3.57
   5  -9  -1   26.69    3.18
  -5   9   1   32.61    3.74
   5   9  -1   32.70    4.08
  -4  -9   1   19.02    2.33
   4  -9  -1   14.28    2.26
  -4  -9   1   16.12    2.20
   4   9  -1   16.29    2.69
  -4   9   1   12.05    2.22
  -3  -9   1    4.45    1.44
  -3  -9   1    4.71    1.15
   3  -9  -1    3.43    1.37
   3   9  -1    4.73    1.66
  -3   9   1    2.51    1.37
   2  -9  -1  102.73    3.55
  -2  -9   1  103.85    3.02
  -2  -9   1  105.79    3.44
   2   9  -1  100.67    3.90
  -2   9   1   99.95    3.67
  -2   9   1   97.91    3.80
   2   9  -1  103.51    3.37
   1  -9  -1  103.21    3.34
  -1  -9   1  105.11    3.04
   1   9  -1  104.49    3.53
  -1   9   1  102.57    3.38
  -1   9   1   99.21    3.61
  -1   9   1  102.81    3.51
   1   9  -1   91.38    3.50
   0  -9  -1    9.27    1.33
   0   9  -1    9.97    1.25
   0   9   1    6.97    1.08
   0   9   1    8.78    1.34
   0   9   1   10.22    1.56
   0   9  -1   10.72    1.32
   0   9  -1    7.41    1.04
  -1  -9  -1    1.71    1.06
  -1  -9  -1    2.02    1.02
   1  -9   1    1.62    0.87
   1   9   1    1.31    1.23
  -1   9  -1    1.40    0.95
   1   9   1    1.19    1.15
  -2  -9  -1    2.57    1.18
  -2  -9  -1    3.49    1.40
   2  -9   1    2.06    0.99
  -2   9  -1    2.68    1.26
   2   9   1    2.30    1.33
   2   9   1    4.56    1.58
  -3  -9  -1    7.53    1.83
  -3  -9  -1    5.63    1.57
   3  -9   1    4.77    1.53
   3   9   1    6.17    1.92
  -3   9  -1    6.21    1.57
  -4  -9  -1    2.66    1.82
   4  -9   1    2.83    1.79
  -4  -9  -1   -0.12    1.85
   4   9   1    0.39    1.98
  -5  -9  -1    6.80    3.12
   5  -9   1   10.21    2.74
  -5  -9  -1   15.54    2.75
   5   9   1    6.20    2.97
  -5   9  -1    9.22    2.71
   6  -9   1    3.69    2.81
  -6  -9  -1    3.41    3.13
  -6  -9  -1    5.96    3.08
  -6   9  -1    8.26    3.33
   6   9   1    2.00    3.47
  -7  -9  -1   11.31    4.23
  -7  -9  -1   -0.79    4.18
   7  -9   1   -4.22    3.16
   7   9   1    4.85    4.10
  -7   9  -1    7.34    4.13
  -7 -10   1    6.48    6.86
   7 -10  -1    7.89    3.49
  -7 -10   1   11.82    3.68
  -7  10   1   10.31    5.07
   7  10  -1   10.43    4.60
  -6 -10   1    5.47    3.01
   6 -10  -1    1.63    2.58
  -6 -10   1    3.79    2.89
   6  10  -1    3.57    3.51
  -6  10   1    1.43    2.99
   5 -10  -1   27.24    3.80
  -5 -10   1   35.09    3.16
  -5 -10   1   31.60    3.64
   5  10  -1   34.80    4.18
  -5  10   1   33.64    3.73
   4 -10  -1   27.46    2.99
  -4 -10   1   29.75    2.42
  -4 -10   1   30.13    2.98
   4  10  -1   27.25    3.39
  -3 -10   1   27.64    1.88
   3 -10  -1   26.31    2.39
  -3 -10   1   24.16    2.33
  -3  10   1   29.74    2.79
  -3  10   1   29.51    2.66
   3  10  -1   27.62    2.85
  -2 -10   1   29.55    1.68
  -2 -10   1   28.69    2.00
   2 -10  -1   27.61    2.12
  -2  10   1   27.82    2.49
   2  10  -1   30.96    2.54
  -2  10   1   24.12    2.18
   1 -10  -1  154.14    4.51
   1  10  -1  144.92    4.69
  -1  10   1  157.65    4.77
   1  10  -1  148.77    4.38
  -1  10   1  156.36    4.59
  -1  10   1  158.08    4.84
   0 -10  -1   19.32    1.85
   0  10  -1   23.72    1.84
   0  10   1   19.45    1.71
   0  10  -1   25.58    1.79
   0  10   1   20.25    2.05
   0  10   1   20.01    2.03
   0  10  -1   23.76    1.69
  -1 -10  -1  114.81    3.83
   1 -10   1  106.62    3.49
  -1 -10  -1  110.96    3.63
  -1  10  -1  109.27    3.61
  -1  10  -1  111.58    3.78
   1  10   1  112.26    4.16
   1  10   1  109.01    3.97
  -2 -10  -1   15.05    1.89
   2 -10   1   13.84    1.78
  -2 -10  -1   17.06    2.12
   2  10   1   18.18    2.12
  -2  10  -1   17.94    2.02
   2  10   1   19.91    2.46
  -3 -10  -1   33.62    2.91
  -3 -10  -1   28.79    2.51
   3 -10   1   32.35    2.50
  -3  10  -1   34.35    2.86
   3  10   1   36.17    3.35
   4 -10   1   17.29    2.47
  -4 -10  -1   17.13    2.38
  -4 -10  -1   17.16    2.67
   4  10   1   14.66    2.81
  -4  10  -1   11.41    2.32
  -5 -10  -1   72.37    4.50
  -5 -10  -1   64.63    4.61
   5 -10   1   59.96    4.68
   5  10   1   62.74    8.48
   6 -10   1   25.64    3.71
  -6 -10  -1   29.85    3.92
  -6 -10  -1   25.53    4.67
  -6  10  -1   26.16    4.26
   6  10   1   24.67    4.72
  -7 -10  -1    0.24    4.17
  -7 -10  -1   10.10    4.31
   7 -10   1    4.01    3.40
   7  10   1    3.93    4.28
  -7  10  -1   -2.13    4.26
   7 -11  -1   28.98    4.50
  -7  11   1   34.85    5.37
   7  11  -1   25.18    5.42
  -6 -11   1   12.94    3.30
   6 -11  -1    8.11    2.91
  -6 -11   1    9.24    2.62
   6  11  -1   10.21    3.79
  -6  11   1   12.64    3.40
   5 -11  -1    9.97    2.58
  -5 -11   1   12.70    2.15
  -5 -11   1   11.41    2.67
   5  11  -1   12.02    3.30
  -4 -11   1    8.90    1.63
   4 -11  -1    6.49    1.96
  -4 -11   1    6.90    1.99
   4  11  -1   10.15    2.65
  -4  11   1    6.55    2.08
   3 -11  -1  141.36    5.00
  -3 -11   1  151.20    4.27
  -3 -11   1  151.30    4.85
  -3  11   1  149.93    5.35
   3  11  -1  149.70    5.65
  -3  11   1  147.45    5.43
  -2 -11   1   61.05    2.42
  -2 -11   1   60.79    2.83
   2 -11  -1   67.05    3.04
  -2  11   1   65.55    3.14
   2  11  -1   67.62    3.44
   2  11  -1   65.35    2.91
  -2  11   1   65.97    3.40
   1 -11  -1   25.09    1.97
  -1  11   1   27.18    2.05
  -1  11   1   28.28    2.34
   1  11  -1   24.76    2.22
   1  11  -1   22.94    1.94
  -1  11   1   24.50    2.37
   0 -11  -1   21.14    2.01
   0  11   1   20.14    2.21
   0  11  -1   22.14    1.75
   0  11   1   19.07    1.80
   0  11  -1   22.49    1.93
   0  11  -1   20.07    1.87
   0  11   1   21.22    2.22
  -1 -11  -1  116.65    4.09
  -1 -11  -1  121.46    3.89
  -1  11  -1  118.91    4.03
  -1  11  -1  118.09    3.92
   1  11   1  114.65    4.26
   1  11   1  118.44    4.50
  -2 -11  -1   31.82    2.36
   2 -11   1   35.66    2.33
  -2 -11  -1   35.27    2.59
  -2  11  -1   34.25    2.49
   2  11   1   34.01    3.02
   2  11   1   34.54    2.80
   3 -11   1   17.96    2.37
  -3 -11  -1   18.56    2.13
  -3 -11  -1   19.79    2.70
  -3  11  -1   17.61    2.45
   3  11   1   19.89    2.72
   4 -11   1    1.68    1.77
  -4 -11  -1    2.70    2.13
  -4 -11  -1    1.72    1.85
   4  11   1   -0.34    2.27
  -4  11  -1    1.86    2.19
  -5 -11  -1    1.55    2.36
   5 -11   1    3.29    2.42
  -5 -11  -1    2.22    2.59
   5  11   1    1.89    2.88
   6 -11   1   -1.59    2.64
  -6 -11  -1    7.54    3.07
  -6  11  -1   -1.24    3.16
   6  11   1    1.37    3.68
   7 -11   1   28.66    4.27
  -7 -11  -1   26.29    4.92
   7  11   1   41.94    6.11
   7 -12  -1   31.29    4.71
   7  12  -1   31.28    5.94
  -7  12   1   26.22    5.15
  -6 -12   1   15.92    2.73
   6 -12  -1   13.77    3.30
  -6 -12   1   12.73    3.35
   6  12  -1    5.65    3.89
  -6  12   1   11.85    3.68
  -6  12   1   15.22    3.55
   5 -12  -1   -2.77    2.24
  -5 -12   1    1.98    1.84
  -5 -12   1    2.88    2.39
  -5  12   1    0.76    2.65
   5  12  -1    1.68    4.73
  -4 -12   1   19.94    2.48
   4 -12  -1   16.35    2.56
  -4 -12   1   17.06    2.21
  -4  12   1   17.76    2.75
  -4  12   1   22.05    3.16
   4  12  -1   19.78    3.22
  -3 -12   1   52.67    3.00
   3 -12  -1   49.83    3.22
  -3 -12   1   50.78    2.45
  -3  12   1   54.39    3.65
   3  12  -1   52.90    3.72
  -3  12   1   55.52    3.45
  -2 -12   1    2.32    1.03
   2 -12  -1    3.52    1.36
  -2 -12   1    1.93    1.28
   2  12  -1    0.86    1.28
  -2  12   1    4.97    1.78
  -2  12   1    2.22    1.34
   2  12  -1    2.80    1.69
  -1  12   1   30.42    2.24
   1  12  -1   27.77    2.43
   1  12  -1   26.20    2.17
  -1  12   1   28.17    2.66
  -1  12   1   31.50    2.57
   0  12   1   87.50    3.36
   0  12  -1   88.07    3.28
   0  12  -1   90.03    3.50
   0  12   1   85.91    3.73
   0  12   1   86.72    3.79
   0  12  -1   81.17    3.33
  -1 -12  -1   23.22    2.15
  -1 -12  -1   24.30    2.27
  -1  12  -1   30.80    2.23
   1  12   1   25.38    2.53
   1  12   1   25.67    2.68
  -1  12  -1   27.86    2.28
  -2 -12  -1    2.49    1.47
   2 -12   1    0.11    1.23
  -2 -12  -1    0.93    1.27
  -2  12  -1    0.15    1.33
   2  12   1    0.90    1.82
   2  12   1   -0.21    1.63
   3 -12   1    1.06    1.57
  -3 -12  -1    0.24    1.69
  -3 -12  -1    1.40    1.53
   3  12   1    3.88    2.05
  -3  12  -1    0.56    1.71
  -4 -12  -1   16.81    2.70
   4 -12   1    8.37    2.10
  -4 -12  -1   10.72    2.18
   4  12   1   13.74    3.13
   5 -12   1    6.46    2.41
  -5 -12  -1    6.25    2.47
  -5 -12  -1    9.58    3.02
   5  12   1    6.12    3.28
  -6 -12  -1    6.13    3.12
   6 -12   1   -2.07    2.71
   6  12   1    3.57    3.70
  -6  12  -1   -0.77    3.37
  -7 -12  -1    0.47    4.52
   7 -12   1    0.93    3.55
   7  12   1    2.85    4.95
   7 -13  -1    0.00    3.57
  -7  13   1    1.53    4.37
   7  13  -1   -0.39    4.61
  -6 -13   1   12.70    3.44
   6 -13  -1   15.01    3.39
  -6 -13   1   13.10    2.58
  -6  13   1   15.54    4.00
   6  13  -1    8.07    3.89
   5 -13  -1   11.01    2.81
  -5 -13   1   11.83    2.05
  -5 -13   1   11.55    2.68
  -5  13   1    5.31    2.43
  -5  13   1    8.07    3.04
   5  13  -1    8.67    3.42
  -4 -13   1   -0.94    1.83
  -4 -13   1    2.35    1.37
   4 -13  -1    1.41    1.93
  -4  13   1    2.55    2.22
  -4  13   1   -0.20    2.27
   4  13  -1    2.84    2.56
  -3 -13   1   50.70    3.07
   3 -13  -1   54.92    3.36
  -3 -13   1   48.02    2.50
   3  13  -1   55.50    4.04
  -3  13   1   53.38    3.58
  -3  13   1   55.17    3.75
  -2 -13   1   80.10    3.06
   2 -13  -1   91.44    3.76
   2  13  -1   81.67    3.57
   2  13  -1   83.45    4.20
  -2  13   1   80.10    3.97
  -2  13   1   85.39    3.97
  -2  13   1   84.64    3.80
  -1  13   1  153.26    4.87
   1  13  -1  143.60    4.74
  -1  13   1  145.95    5.10
   1  13  -1  140.69    5.08
  -1  13   1  142.72    5.13
   0  13   1    3.48    1.70
   0  13  -1    3.97    1.40
   0  13  -1    5.29    1.45
   0  13  -1    3.87    1.29
   0  13   1    5.93    1.51
   0  13   1    5.99    1.87
  -1 -13  -1   34.41    2.44
  -1 -13  -1   30.62    2.50
  -1  13  -1   32.95    2.43
   1  13   1   36.26    3.08
  -1  13  -1   33.59    2.56
  -1  13  -1   33.36    2.66
   1  13   1   36.59    2.90
  -2 -13  -1   67.65    3.46
  -2 -13  -1   67.01    3.19
   2 -13   1   70.67    3.31
   2  13   1   69.89    3.82
  -2  13  -1   67.59    3.50
   2  13   1   68.51    4.13
  -2  13  -1   64.92    3.68
   3 -13   1   53.55    3.39
  -3 -13  -1   57.75    3.33
  -3 -13  -1   61.44    3.73
  -3  13  -1   53.41    3.71
   3  13   1   64.81    3.95
   3  13   1   63.77    4.38
   4 -13   1    2.80    2.11
  -4 -13  -1    0.21    2.32
   4  13   1    1.72    2.58
  -5 -13  -1    2.43    2.86
   5 -13   1    0.73    2.29
  -5 -13  -1    2.42    2.41
   5  13   1   -6.41    3.23
   6 -13   1   34.09    4.02
  -6  13  -1   49.58    6.01
   6  13   1   31.20    5.05
   7 -13   1    3.51    3.78
  -7 -13  -1   -2.41    4.75
   7  13   1   -0.03    4.75
   7 -14  -1   23.54    4.21
  -7  14   1   12.67    4.79
   7  14  -1   15.59    5.68
  -6 -14   1   13.84    2.51
  -6 -14   1   11.94    3.44
   6 -14  -1   14.21    3.46
  -6  14   1   10.46    3.91
  -6  14   1   18.54    4.44
   6  14  -1   17.46    4.70
  -5 -14   1    5.43    2.58
  -5 -14   1    2.03    1.73
   5 -14  -1   -0.88    2.49
   5  14  -1    2.80    3.23
  -5  14   1    4.04    2.75
  -5  14   1   -1.53    2.94
  -4 -14   1   13.13    1.83
  -4 -14   1   10.69    2.26
   4 -14  -1   14.62    2.97
   4  14  -1   17.57    3.33
  -4  14   1   16.55    3.02
   3 -14  -1   36.84    3.19
  -3 -14   1   37.16    2.35
  -3 -14   1   39.82    2.97
  -3  14   1   34.08    3.59
   3  14  -1   35.69    2.97
   3  14  -1   35.28    3.91
  -3  14   1   39.91    3.44
   2 -14  -1   21.96    2.63
   2  14  -1   26.40    3.07
  -2  14   1   25.35    2.69
   2  14  -1   22.98    2.58
  -2  14   1   27.52    2.96
  -2  14   1   25.55    3.11
  -1  14   1    5.21    1.53
  -1  14   1    5.69    2.02
   1  14  -1    6.76    1.75
  -1  14   1    8.33    1.98
   1  14  -1    6.92    1.94
   0  14   1  292.65    8.37
   0  14   1  292.66    7.79
   0  14  -1  289.96    8.01
   0  14   1  287.79    8.16
   0  14  -1  278.51    7.73
   0  14  -1  278.81    7.61
  -1 -14  -1   39.61    3.09
  -1  14  -1   41.86    2.76
   1  14   1   40.46    3.22
  -1  14  -1   43.73    3.06
   1  14   1   39.59    3.37
  -1  14  -1   42.20    2.88
   2 -14   1   -0.07    1.33
  -2 -14  -1    1.87    1.50
  -2 -14  -1    3.04    1.71
  -2  14  -1    2.36    1.73
  -2  14  -1   -1.12    1.49
   2  14   1   -2.33    1.72
   2  14   1    2.34    1.99
  -3 -14  -1   80.43    3.78
  -3 -14  -1   80.36    4.19
   3 -14   1   78.32    3.94
   3  14   1   84.73    5.05
  -3  14  -1   76.72    4.31
   3  14   1   80.04    4.36
  -4 -14  -1   19.83    3.07
  -4 -14  -1   24.97    2.95
  -5 -14  -1    5.66    3.11
  -5 -14  -1    7.77    2.68
   5 -14   1    3.77    2.73
   5  14   1   -3.25    3.29
  -5  14  -1    8.28    2.76
  -6 -14  -1   11.65    3.36
   6 -14   1    7.99    3.19
  -6 -14  -1    0.39    3.21
  -6  14  -1   15.84    4.23
   6  14   1   14.92    4.52
  -7 -14  -1   -3.93    4.96
   7 -14   1    0.93    4.00
   7  14   1    5.39    5.78
  -6 -15   1   16.94    2.47
  -6 -15   1   13.22    3.64
   6 -15  -1   24.64    3.92
  -6  15   1   12.02    4.37
  -6  15   1   19.63    4.45
   6  15  -1   30.89    5.11
  -5 -15   1    7.51    3.36
  -5 -15   1   11.27    1.96
   5 -15  -1    9.81    3.04
   5  15  -1    7.21    3.80
  -5  15   1   16.63    3.92
  -5  15   1    9.33    3.28
  -4 -15   1   10.39    1.74
  -4 -15   1   11.75    2.34
   4 -15  -1    8.19    2.52
   4  15  -1    6.01    2.94
  -4  15   1   10.22    3.08
   3 -15  -1    2.30    1.90
  -3 -15   1    1.38    1.33
  -3 -15   1    3.67    1.80
   3  15  -1    0.73    2.38
  -3  15   1   -0.33    2.31
   3  15  -1    0.92    1.80
   2 -15  -1   44.59    3.20
   2  15  -1   38.70    3.07
   2  15  -1   38.15    3.56
  -2  15   1   39.66    3.48
  -2  15   1   40.67    3.18
  -2  15   1   36.51    3.70
  -1  15   1   36.13    3.28
   1  15  -1   42.76    3.41
   1  15  -1   44.25    2.78
  -1  15   1   42.76    3.43
  -1  15   1   35.07    2.84
   1  15  -1   37.32    3.00
   0  15   1   43.01    2.92
   0  15   1   40.55    3.35
   0  15  -1   40.58    2.81
   0  15  -1   40.42    3.20
   0  15   1   48.46    3.59
   0  15  -1   49.65    3.09
  -1 -15  -1    4.48    1.61
   1  15   1    2.44    2.00
   1  15   1    4.46    1.62
  -1  15  -1    3.86    1.66
   1  15   1    6.64    2.43
  -1  15  -1    4.18    1.67
  -1  15  -1    4.13    1.76
  -2 -15  -1   10.94    2.31
  -2 -15  -1   10.68    2.12
   2 -15   1    9.71    1.82
   2  15   1    6.56    2.27
   2  15   1   10.74    2.65
  -2  15  -1   13.81    2.43
  -2  15  -1    9.53    2.04
  -3 -15  -1   25.08    3.31
  -3 -15  -1   26.91    3.27
   3 -15   1   24.60    2.99
   3  15   1   31.70    3.67
   3  15   1   27.53    3.68
  -3  15  -1   21.70    3.03
  -3  15  -1   24.30    3.20
  -4 -15  -1    6.06    2.62
   4 -15   1    6.69    2.26
  -4 -15  -1    3.15    2.04
   4  15   1    3.67    3.04
   5 -15   1    2.28    2.73
  -5 -15  -1    4.84    2.51
  -5 -15  -1    1.40    2.98
  -5  15  -1    4.83    3.02
   5  15   1   -3.12    3.45
   6 -15   1    7.50    3.43
  -6 -15  -1   11.20    3.44
   6  15   1    9.46    4.48
  -6 -16   1    0.34    3.28
   6 -16  -1    9.73    3.68
  -6  16   1    0.99    4.22
   6  16  -1    6.55    4.76
   5 -16  -1   35.24    4.62
  -5 -16   1   29.82    2.88
   5  16  -1   32.36    5.00
  -5  16   1   39.94    4.83
   4 -16  -1   91.27    5.16
  -4 -16   1   84.02    4.45
  -4 -16   1   81.23    3.46
  -4  16   1   80.73    6.86
   4  16  -1   82.90    6.01
  -4  16   1   91.07    5.91
  -3 -16   1   23.92    2.44
   3 -16  -1   22.95    2.92
   3  16  -1   31.15    3.88
   3  16  -1   21.36    2.70
  -3  16   1   29.29    3.73
  -3  16   1   16.57    3.87
  -2  16   1   15.03    2.78
   2  16  -1   10.96    2.23
   2  16  -1   12.35    2.79
  -2  16   1   11.85    2.65
   1  16  -1   18.86    2.65
  -1  16   1   24.37    3.26
  -1  16   1   20.48    2.70
  -1  16   1   22.10    2.98
   1  16  -1   18.92    2.55
   1  16  -1   18.64    2.47
   0  16  -1   73.59    4.03
   0  16  -1   62.74    3.73
   0  16   1   65.81    4.10
   0  16   1   65.81    3.96
   0  16  -1   71.51    3.55
   0  16   1   76.53    4.39
  -1 -16  -1   16.72    2.23
  -1  16  -1   17.24    2.44
   1  16   1   21.70    3.01
   1  16   1   19.76    2.63
  -1  16  -1   18.64    2.53
  -1  16  -1   17.84    2.44
   1  16   1   17.01    2.65
  -2 -16  -1   10.66    1.99
  -2 -16  -1   14.95    2.47
   2  16   1    6.37    2.61
  -2  16  -1    6.69    2.41
  -2  16  -1    6.93    2.17
   2  16   1    8.73    2.61
  -3 -16  -1    1.92    1.82
   3 -16   1    0.17    1.89
  -3  16  -1    0.89    2.34
   3  16   1   -1.33    2.26
   3  16   1    0.56    2.63
  -3  16  -1    0.44    2.37
  -4 -16  -1   50.23    3.82
   4 -16   1   44.38    4.23
  -4 -16  -1   50.54    4.35
   4  16   1   62.46    5.81
  -4  16  -1   50.31    4.88
   5 -16   1   27.20    3.90
  -5 -16  -1   24.24    3.25
  -5  16  -1   33.60    4.29
   5  16   1   26.94    5.08
   6 -16   1    4.56    3.56
  -6 -16  -1    0.32    4.03
   6  16   1   -1.71    4.45
  -6  16  -1    9.93    4.23
   6 -17  -1   -2.92    3.90
  -6 -17   1    5.51    3.44
   6  17  -1    6.18    4.96
  -6  17   1   13.23    4.79
   5 -17  -1   -0.12    3.07
  -5 -17   1    0.23    1.72
  -5 -17   1    1.70    2.72
  -5  17   1   -2.22    3.60
   5  17  -1    0.08    3.93
  -5  17   1   11.56    3.69
  -4 -17   1   -2.45    1.58
  -4 -17   1    3.21    2.31
   4 -17  -1    0.33    2.39
   4  17  -1    0.26    3.14
  -4  17   1    3.43    3.19
  -4  17   1    0.49    2.62
   3 -17  -1   37.70    3.79
   3  17  -1   37.00    4.69
  -3  17   1   33.45    4.18
   3  17  -1   39.12    3.59
  -3  17   1   35.96    4.55
   2  17  -1    4.19    2.15
  -2  17   1    5.71    2.54
   2  17  -1    6.70    2.75
  -2  17   1    3.37    2.39
   1  17  -1   33.89    2.99
   1  17  -1   35.61    3.77
  -1  17   1   38.16    3.79
   1  17  -1   34.00    3.42
  -1  17   1   35.16    3.74
  -1  17   1   37.25    3.18
   0  17   1    5.67    1.82
   0  17   1    6.64    2.47
   0  17  -1    7.50    1.84
   0  17   1    5.50    2.46
   0  17  -1    6.98    2.16
   0  17  -1    7.03    2.19
  -1  17  -1   94.36    4.69
   1  17   1   94.31    4.34
   1  17   1   90.15    4.87
   1  17   1   93.60    5.23
  -1  17  -1  100.40    4.42
  -1  17  -1   93.36    4.71
  -2 -17  -1    4.70    1.95
  -2  17  -1    3.70    2.46
  -2  17  -1    6.38    2.23
  -2  17  -1    6.58    2.20
   2  17   1    6.20    2.47
   2  17   1    8.34    2.87
   3 -17   1   88.41    5.38
  -3 -17  -1   87.65    4.21
  -3 -17  -1   85.54    4.74
  -3  17  -1   86.49    5.31
   3  17   1   90.68    5.13
  -3  17  -1   83.92    4.97
   3  17   1   88.69    6.05
  -4 -17  -1    6.96    2.51
   4 -17   1    5.91    2.54
  -4 -17  -1   13.23    2.95
  -4  17  -1    0.43    2.47
   4  17   1   15.55    3.93
  -4  17  -1    7.50    3.24
  -5 -17  -1   12.44    2.78
   5 -17   1    8.79    3.31
   5  17   1   10.47    4.46
  -5  17  -1    7.25    3.92
  -5  17  -1   10.67    3.77
   6 -17   1    9.08    4.06
  -6 -17  -1   -4.41    4.03
  -6  17  -1    3.83    4.40
   6  17   1   13.59    5.33
   6 -18  -1   -6.97    3.85
  -6 -18   1    1.43    3.41
   6  18  -1    7.49    5.67
  -6  18   1    0.95    4.46
  -5 -18   1    4.25    3.00
   5 -18  -1    8.84    3.43
  -5  18   1    2.11    4.02
  -5  18   1    7.79    3.69
   5  18  -1   11.36    4.61
   4 -18  -1    1.07    2.63
  -4  18   1    0.15    2.89
  -4  18   1   -0.31    3.21
  -4  18   1   -4.34    2.97
   4  18  -1    4.54    3.71
   3 -18  -1   29.99    3.90
   3  18  -1   25.73    3.63
   3  18  -1   30.86    4.11
  -3  18   1   36.39    4.19
  -3  18   1   23.85    3.71
  -2  18   1    5.17    2.81
   2  18  -1    5.19    2.38
  -2  18   1   10.80    2.79
   2  18  -1    9.28    2.89
  -1  18   1   57.20    3.74
  -1  18   1   58.64    4.55
   1  18  -1   53.87    4.04
  -1  18   1   55.65    4.96
   1  18  -1   60.64    4.41
   1  18  -1   53.64    3.59
   0  18   1   20.21    2.70
   0  18  -1   23.51    3.25
   0  18  -1   20.35    2.53
   0  18  -1   18.98    2.84
   0  18   1   17.51    3.18
   0  18   1   15.77    3.07
  -1  18  -1   20.18    2.57
  -1  18  -1   22.42    2.91
   1  18   1   25.91    3.70
  -1  18  -1   21.84    3.02
   1  18   1   22.81    3.01
   1  18   1   22.52    3.22
  -2 -18  -1   72.27    4.02
  -2  18  -1   66.10    4.66
  -2  18  -1   70.74    4.37
   2  18   1   63.29    6.98
   2  18   1   63.88    4.93
  -2  18  -1   75.54    4.90
  -3 -18  -1    2.30    2.10
  -3 -18  -1    6.56    2.60
   3 -18   1    2.24    2.34
   3  18   1   -0.05    2.73
   3  18   1    3.73    3.30
  -3  18  -1    0.22    2.18
  -3  18  -1   -2.27    2.68
  -4 -18  -1    7.40    2.84
  -4 -18  -1    2.99    2.30
   4 -18   1    2.07    2.48
  -4  18  -1    4.02    2.88
  -4  18  -1    4.24    3.34
   4  18   1   -6.70    3.59
   5 -18   1    3.49    3.18
  -5 -18  -1   -3.43    2.87
  -5 -18  -1   -1.37    2.75
   5  18   1   -3.10    4.49
  -5  18  -1    4.96    4.09
  -6 -18  -1   -4.51    4.19
   6 -18   1    1.70    3.84
  -6  18  -1    3.96    4.77
   6  18   1   10.41    5.33
   5 -19  -1    4.07    3.25
  -5  19   1    5.88    4.18
  -5  19   1   11.46    4.29
   5  19  -1   14.06    4.97
   4 -19  -1    3.08    3.03
  -4  19   1    3.39    3.06
  -4  19   1   -3.16    2.98
  -4  19   1    3.61    4.69
   4  19  -1    3.90    3.74
   3 -19  -1   49.64    4.28
  -3  19   1   44.11    5.13
   3  19  -1   43.25    5.09
   3  19  -1   49.02    4.20
  -3  19   1   44.50    5.23
  -2  19   1   32.44    4.20
   2  19  -1   24.77    3.29
  -2  19   1   23.52    3.85
   1  19  -1   26.60    3.98
  -1  19   1   22.98    2.91
  -1  19   1   23.47    3.48
   1  19  -1   22.24    2.75
  -1  19   1   26.78    3.78
   1  19  -1   25.12    3.21
   0  19   1   -2.97    2.41
   0  19   1   -2.72    2.51
   0  19  -1    0.26    2.16
   0  19  -1    1.76    2.04
   0  19  -1    0.68    2.53
   0  19   1    2.20    1.90
   1  19   1   19.24    3.66
  -1  19  -1   25.22    3.62
  -1  19  -1   23.63    3.07
   1  19   1   19.50    2.85
  -1  19  -1   20.54    3.06
   1  19   1   22.96    3.52
  -2  19  -1   42.09    4.65
  -2  19  -1   43.36    4.06
  -2  19  -1   47.81    4.70
   2  19   1   48.40    4.76
   2  19   1   46.01    5.35
  -3 -19  -1   38.89    3.67
  -3  19  -1   31.41    4.25
   3  19   1   46.07    4.77
  -3  19  -1   43.45    4.78
  -3  19  -1   48.60    4.91
   3  19   1   44.95    5.72
  -4 -19  -1   -1.69    2.34
   4 -19   1    1.77    2.65
  -4  19  -1    7.35    3.27
  -4  19  -1   -0.10    4.28
   4  19   1   -7.82    3.52
  -5 -19  -1   -5.37    3.38
   5 -19   1    1.29    3.22
   5  19   1    2.10    4.36
  -5  19  -1    0.98    4.13
   5 -20  -1    7.56    3.81
  -5  20   1   -3.41    4.29
  -5  20   1    0.01    4.51
   5  20  -1    5.55    4.74
   4 -20  -1   43.05    5.19
   4  20  -1   54.99    6.18
  -4  20   1   53.57    5.72
  -4  20   1   46.10    6.01
  -4  20   1   50.43    6.59
  -3  20   1   20.16    3.30
  -3  20   1   20.45    4.35
   3  20  -1   23.22    3.45
   3  20  -1   18.04    4.28
  -3  20   1   19.88    4.33
  -2  20   1    2.36    2.12
   2  20  -1    0.86    2.14
  -2  20   1    3.96    2.97
  -2  20   1    6.97    3.38
   2  20  -1   -3.45    2.50
   2  20  -1    0.91    3.13
  -1  20   1    6.54    2.33
   1  20  -1   12.20    3.53
  -1  20   1   14.70    3.66
   1  20  -1    8.20    2.73
  -1  20   1    5.03    3.18
   1  20  -1   13.56    2.68
   0  20  -1   47.25    4.73
   0  20  -1   44.63    4.32
   0  20  -1   50.43    3.97
   0  20   1   48.76    5.18
   0  20   1   48.41    3.94
   0  20   1   49.50    5.01
   1  20   1   10.44    2.76
   1  20   1    6.61    3.16
  -1  20  -1    4.40    2.69
  -1  20  -1    8.16    3.19
   1  20   1   10.16    3.40
  -1  20  -1    6.64    2.41
   2  20   1    6.63    3.19
  -2  20  -1    5.76    3.08
  -2  20  -1    9.53    3.15
   2  20   1    6.86    3.50
  -2  20  -1    7.04    2.77
   2  20   1    5.95    2.36
  -3 -20  -1   -1.26    2.35
  -3  20  -1    4.90    3.39
  -3  20  -1    3.40    2.94
   3  20   1   -3.64    3.68
  -3  20  -1    2.51    3.37
   3  20   1   -0.94    3.00
  -4 -20  -1    8.89    2.81
   4 -20   1   10.31    3.27
  -4 -20  -1    4.13    4.66
  -4  20  -1   11.61    4.14
   4  20   1   11.57    4.91
  -4  20  -1   16.49    3.61
   5 -20   1    2.44    3.38
  -5 -20  -1    1.35    3.69
  -5  20  -1   12.38    4.91
   5  20   1    0.52    5.23
   5 -21  -1   34.04    4.83
  -5  21   1   18.96    5.56
   5  21  -1   35.64    6.16
  -5  21   1   27.25    5.74
   4 -21  -1    3.69    3.27
  -4  21   1    1.97    4.18
  -4  21   1    2.26    4.09
   4  21  -1   -2.07    4.48
  -3  21   1   -0.56    2.77
  -3  21   1   -2.67    3.69
   3  21  -1   -6.17    2.67
   3  21  -1   -1.22    3.74
   2  21  -1    9.91    2.76
  -2  21   1    8.38    3.57
  -2  21   1    8.10    3.08
   2  21  -1    7.92    3.12
  -2  21   1    7.71    3.64
   2  21  -1    5.74    3.54
  -1  21   1   19.70    3.92
  -1  21   1   16.33    2.97
   1  21  -1   22.69    4.13
  -1  21   1   18.89    3.84
   1  21  -1   23.46    3.34
   1  21  -1   18.31    3.55
   0  21   1    2.91    3.27
   0  21  -1    1.25    2.82
   0  21   1    0.29    2.16
   0  21  -1    1.24    2.98
   0  21   1    5.15    3.09
   0  21  -1    4.49    2.34
  -1  21  -1   18.26    3.93
  -1  21  -1   15.02    2.80
   1  21   1   11.04    4.05
   1  21   1   11.20    2.70
   1  21   1   12.49    3.76
  -1  21  -1   10.04    3.36
   2  21   1    5.15    2.48
  -2  21  -1   -4.11    2.36
  -2  21  -1   -6.59    3.00
  -2  21  -1    5.24    3.28
   2  21   1   -1.46    3.81
   2  21   1    5.81    3.17
  -3  21  -1    9.89    3.44
  -3  21  -1    5.19    3.72
   3  21   1    4.44    3.41
   3  21   1    6.65    4.29
  -4 -21  -1    1.03    3.16
   4 -21   1   -1.24    3.06
  -4  21  -1    1.14    4.00
  -4  21  -1    9.22    4.20
   4  21   1    4.62    4.75
  -4  22   1   42.15    6.02
   4  22  -1   42.89    6.24
  -4  22   1   31.36    5.46
  -3  22   1   -0.03    3.69
   3  22  -1   -2.52    3.87
  -3  22   1   -5.23    3.64
   3  22  -1    0.37    3.16
  -3  22   1    5.11    3.84
  -2  22   1    4.88    3.93
  -2  22   1    1.42    3.96
  -2  22   1    1.13    2.75
   2  22  -1    2.66    3.94
   2  22  -1    3.15    2.63
   2  22  -1    7.35    3.17
   1  22  -1    4.82    3.05
  -1  22   1    6.16    4.01
  -1  22   1    4.91    3.64
   1  22  -1    2.33    2.44
   1  22  -1    9.46    3.91
  -1  22   1    7.70    2.89
   0  22   1   67.54    6.13
   0  22  -1   66.74    4.60
   0  22  -1   66.08    5.62
   0  22   1   68.26    5.89
   0  22  -1   70.09    6.01
   0  22   1   62.13    4.73
   1  22   1   13.55    4.01
  -1  22  -1   16.08    3.13
   1  22   1    4.07    4.13
  -1  22  -1   12.57    3.86
   1  22   1   10.98    3.03
  -1  22  -1    9.60    3.53
  -2  22  -1    5.50    2.94
  -2  22  -1    1.84    3.48
  -2  22  -1    1.62    3.61
   2  22   1   -6.38    3.70
   2  22   1    2.65    2.54
   2  22   1   -4.27    3.44
  -3  22  -1    5.40    4.19
   3  22   1   16.87    4.96
  -3  22  -1    7.53    4.18
  -3  22  -1   15.28    4.81
   3  22   1    7.14    3.84
   4  22   1   27.86    5.96
  -4  22  -1   26.35    5.28
  -4  22  -1   23.52    5.11
  -4  23   1    3.47    5.33
  -4  23   1   21.25    5.86
   4  23  -1   20.91    6.09
   3  23  -1    8.73    4.86
  -3  23   1    7.08    4.58
   3  23  -1    0.82    3.30
  -3  23   1   10.61    4.61
  -2  23   1    4.33    4.69
  -2  23   1   14.05    3.77
   2  23  -1    9.24    2.97
   2  23  -1    9.56    3.61
  -2  23   1   12.36    4.65
   2  23  -1   13.01    4.70
  -1  23   1   15.09    4.17
   1  23  -1   17.29    3.84
  -1  23   1    8.72    3.97
   1  23  -1   11.54    3.06
  -1  23   1   26.44    3.94
   1  23  -1   16.69    4.42
   0  23  -1   10.79    4.02
   0  23  -1   18.47    3.31
   0  23   1   12.35    3.04
   0  23   1    7.50    3.89
   0  23  -1   11.36    3.85
   0  23   1   17.42    4.41
  -1  23  -1   12.57    4.05
   1  23   1    9.11    4.22
   1  23   1   13.17    3.27
  -1  23  -1   15.79    3.30
  -1  23  -1    6.63    3.91
   1  23   1   13.58    4.20
   2  23   1    3.22    3.74
  -2  23  -1   -2.34    3.73
   2  23   1   -1.51    2.64
  -2  23  -1    5.03    3.29
   2  23   1    3.19    4.40
   3  23   1   19.44    4.43
  -3  23  -1   18.24    4.99
   3  23   1   31.04    5.76
  -3  23  -1   30.50    5.38
   3  24  -1    2.06    5.29
  -3  24   1   -4.90    5.04
  -3  24   1    3.91    4.65
   3  24  -1    0.37    3.69
  -2  24   1   11.96    4.96
  -2  24   1    7.04    4.62
   2  24  -1   14.68    4.94
   2  24  -1   21.55    4.23
   1  24  -1    4.71    3.68
   1  24  -1   -2.26    2.95
   1  24  -1    2.07    4.33
  -1  24   1    0.62    4.23
   0  24  -1   15.88    4.15
   0  24   1   17.54    4.28
   0  24   1   13.37    3.53
   0  24  -1   15.83    3.28
   0  24  -1   24.51    4.70
   0  24   1   17.28    4.67
  -1  24  -1    5.54    4.40
   1  24   1    3.04    4.18
  -1  24  -1    1.18    3.85
  -1  24  -1    7.20    4.32
   1  24   1    0.73    4.09
   2  24   1   12.50    4.48
   2  24   1   11.15    4.94
  -2  24  -1    2.03    4.43
  -2  24  -1    8.96    4.43
   3  24   1    1.45    4.33
   3  24   1    2.43    5.18
  -3  24  -1   -7.54    4.46
  -3  24  -1    6.59    5.09
  -2  25   1    1.98    5.29
   2  25  -1    5.65    4.27
   2  25  -1    5.49    5.09
  -2  25   1   -5.89    4.47
   1  25  -1   17.40    4.46
  -1  25   1   12.49    4.80
   1  25  -1   17.70    4.99
  -1  25   1   12.66    4.66
   0  25   1   10.23    4.66
   0  25  -1   14.16    4.41
   0  25   1   19.29    5.31
   0  25  -1   13.21    4.96
  -1  25  -1   10.46    4.81
   1  25   1   11.11    4.77
  -1  25  -1   14.05    7.55
   1  25   1   20.69    5.05
   2  25   1    9.21    4.73
  -2  25  -1   16.12    5.24
   2  25   1   17.49    5.79
  -2  25  -1    7.76    4.88
  -1  26   1    4.77    5.15
   1  26  -1   -3.17    4.26
   1  26  -1   -2.58    4.93
  -1  26   1    2.23    5.10
   0  26   1    5.21    5.16
   0  26  -1   -3.08    4.71
   0  26  -1   15.73    5.60
   0  26   1    8.39    5.02
  -8   0   2   -4.29    4.52
   8   0  -2   -5.66    4.26
  -7   0   2   -0.70    3.26
   7   0  -2   -1.32    3.08
   6   0  -2    4.20    2.54
   5   0  -2   -2.76    1.63
  -5   0   2    0.43    1.80
  -4   0   2   50.80    3.00
   4   0  -2   48.26    2.93
  -3   0   2   -0.64    0.93
   3   0  -2    1.05    1.00
   2   0  -2  247.27    5.92
  -2   0   2  241.92    5.85
   1   0  -2   -0.01    0.33
  -1   0   2    0.22    0.28
   1   0  -2    0.94    0.32
  -1   0   2    0.47    0.37
   0   0  -2  266.93    5.46
   0   0   2  239.60    5.79
   0   0  -2  262.95    5.83
   0   0   2  245.62    5.34
   0   0   2  268.90    5.38
   1   0   2    0.37    0.53
  -1   0  -2    0.12    0.52
  -2   0  -2    2.78    1.03
   2   0   2    2.41    0.95
  -3   0  -2   -0.09    1.17
   3   0   2   -1.61    1.04
   4   0   2  175.68    5.86
  -4   0  -2  172.27    6.00
   5   0   2   -2.29    1.83
   6   0   2    0.51    2.77
  -7   0  -2    2.87    3.59
   7   0   2   -1.63    3.18
   8   0   2   35.19    5.20
   8  -1  -2    1.21    3.76
  -8  -1   2    0.24    4.46
   8   1  -2   -1.42    3.78
  -8   1   2    0.98    4.44
  -7  -1   2   10.36    3.53
   7  -1  -2    3.03    3.21
   7   1  -2    6.48    3.33
   6  -1  -2   13.86    4.02
  -6  -1   2    9.98    2.78
   6   1  -2   16.04    3.18
  -6   1   2   16.45    3.61
   5  -1  -2   32.14    3.20
  -5  -1   2   33.98    3.19
   5   1  -2   27.45    3.23
  -5   1   2   27.84    3.25
   4  -1  -2   16.68    2.27
  -4  -1   2   19.23    2.36
   4   1  -2   18.74    2.40
  -4   1   2   18.04    2.16
   3  -1  -2  162.49    4.81
  -3  -1   2  168.21    4.76
  -3   1   2  157.96    4.82
   3   1  -2  165.26    4.86
  -2  -1   2   11.20    1.07
   2  -1  -2    8.71    1.08
  -2   1   2   12.11    1.19
   2   1  -2   10.60    1.15
   1  -1  -2  538.68   11.43
  -1  -1   2  539.60   11.22
   1  -1  -2  542.44   11.39
  -1   1   2  532.84   11.37
  -1   1   2  531.98   11.48
  -1   1   2  538.05   11.34
   0  -1  -2    8.50    0.58
   0  -1  -2    8.71    0.75
   0   1   2    8.85    0.46
   0   1   2    9.47    0.59
   0   1   2    8.29    0.83
  -1  -1  -2   28.15    1.38
   1  -1   2   27.60    1.21
   1   1   2   27.76    1.36
  -1   1  -2   26.16    1.26
   2  -1   2   59.56    2.37
  -2  -1  -2   57.63    2.47
  -2   1  -2   58.42    2.47
   2   1   2   55.92    2.46
   3  -1   2   54.02    2.81
  -3  -1  -2   55.61    2.99
  -3   1  -2   56.22    3.02
   3   1   2   59.45    3.02
   4  -1   2   -0.90    1.33
  -4  -1  -2   -2.12    1.54
  -4   1  -2    1.26    1.51
   4   1   2   -0.38    1.65
   5  -1   2    4.93    2.19
  -5   1  -2    3.98    2.70
   5   1   2    1.27    1.96
   6  -1   2   50.49    4.61
  -6  -1  -2   65.35    6.04
   6   1   2   48.56    4.68
   7  -1   2    2.55    3.06
  -7  -1  -2    2.60    3.77
  -7   1  -2    8.68    3.69
   7   1   2    7.34    3.75
   8  -1   2    4.64    4.28
   8   1   2    8.44    4.56
  -8  -2   2   14.18    4.71
   8  -2  -2    5.23    4.15
   8   2  -2   -4.70    4.21
  -8   2   2    3.02    4.63
  -7  -2   2   20.14    3.81
   7  -2  -2   21.09    3.88
   7   2  -2   17.46    3.72
  -6  -2   2    5.78    2.52
   6   2  -2    0.05    2.28
  -6   2   2    8.02    2.69
   5  -2  -2    1.11    1.76
  -5  -2   2    3.45    1.86
  -5   2   2    2.66    1.94
   5   2  -2    1.68    1.91
  -4  -2   2  169.07    5.39
   4  -2  -2  174.12    5.51
  -4   2   2  167.01    5.61
   4   2  -2  170.85    5.66
   3  -2  -2    0.20    0.97
  -3  -2   2   -0.42    0.92
   3   2  -2   -0.59    1.02
  -3   2   2   -0.73    1.01
   2  -2  -2   43.03    1.87
  -2  -2   2   47.52    1.74
  -2   2   2   41.79    1.87
   2   2  -2   46.68    1.88
   1  -2  -2  593.16   12.55
  -1  -2   2  588.82   12.21
   1  -2  -2  594.45   12.64
  -1   2   2  581.54   12.70
  -1   2   2  591.25   12.56
  -1   2   2  593.09   12.55
   0  -2  -2   68.68    2.13
   0  -2  -2   68.81    1.97
   0   2   2   71.71    2.01
   0   2   2   70.64    1.81
   0   2   2   70.75    2.20
   1  -2   2    0.22    0.44
  -1  -2  -2    0.29    0.58
  -1  -2  -2   -0.25    0.76
  -1   2  -2   -0.41    0.46
   1   2   2   -0.01    0.58
  -2  -2  -2    6.27    1.16
   2  -2   2    5.36    1.06
  -2   2  -2    6.17    1.12
   2   2   2    5.45    1.12
   3  -2   2  181.87    5.44
  -3  -2  -2  183.11    5.66
   3   2   2  186.90    5.72
  -3   2  -2  180.14    5.64
  -4  -2  -2   96.41    4.38
   4  -2   2   91.71    4.08
   4   2   2   94.11    4.42
  -4   2  -2   94.13    4.42
   5  -2   2   26.75    3.15
   5   2   2   22.79    3.15
  -5   2  -2   21.95    2.99
   6  -2   2   25.50    3.31
  -6  -2  -2   26.56    4.15
   6   2   2   26.13    3.60
  -7  -2  -2   19.95    4.34
   7  -2   2   23.40    3.91
   7   2   2   23.32    4.21
  -7   2  -2   23.01    4.31
   8  -2   2   -5.10    3.96
   8   2   2   11.86    4.75
   8  -3  -2   -0.27    3.84
  -8  -3   2    1.80    4.50
  -8   3   2   -6.49    4.54
   8   3  -2    1.89    4.31
   7  -3  -2   10.28    3.57
  -7  -3   2    8.55    3.51
   7   3  -2    7.88    3.48
   6  -3  -2    0.16    2.52
  -6  -3   2    2.66    2.45
  -6   3   2   -2.55    2.32
   6   3  -2   -3.40    2.32
  -5  -3   2    2.70    1.99
   5  -3  -2    3.43    1.82
  -5   3   2    6.35    2.10
   5   3  -2   -0.67    1.95
   4  -3  -2    9.20    1.86
  -4  -3   2    8.65    1.72
   4   3  -2    6.09    1.80
  -4   3   2    7.88    1.83
   3  -3  -2  108.16    3.69
  -3  -3   2  105.63    3.53
   3   3  -2  107.25    3.79
  -3   3   2  108.42    3.78
   2  -3  -2    9.89    1.18
  -2  -3   2    9.07    0.98
   2   3  -2    9.23    1.17
  -2   3   2    8.83    1.18
   1  -3  -2   87.02    2.39
   1  -3  -2   90.39    2.55
   1   3  -2   86.71    2.17
  -1   3   2   85.51    2.61
  -1   3   2   84.92    2.39
  -1   3   2   89.78    2.47
   0  -3  -2  329.70    7.43
   0  -3  -2  343.37    7.55
   0   3   2  328.41    7.45
   0   3  -2  329.56    6.96
   0   3   2  328.29    7.60
   0   3   2  322.04    7.22
   1  -3   2  318.49    7.17
  -1  -3  -2  328.46    7.61
  -1  -3  -2  327.10    7.72
   1   3   2  316.64    7.74
  -1   3  -2  316.54    7.27
   1   3   2  327.55    7.63
  -2  -3  -2    9.19    1.29
   2  -3   2   10.35    1.31
  -2  -3  -2    9.92    1.45
   2   3   2   12.24    1.54
  -2   3  -2    9.59    1.24
  -3  -3  -2  448.50   11.07
   3  -3   2  460.16   10.83
   3   3   2  422.32   11.10
  -3   3  -2  445.98   11.02
  -4  -3  -2   15.78    2.45
   4  -3   2   13.42    2.11
  -4   3  -2   10.38    2.09
   4   3   2   16.11    2.51
   5  -3   2   32.00    3.49
  -5   3  -2   36.93    3.84
   5   3   2   28.86    3.74
   6  -3   2    0.41    2.50
  -6  -3  -2   -3.91    2.73
   6   3   2    1.16    2.68
  -7  -3  -2   27.09    4.47
   7  -3   2   31.25    4.27
  -7   3  -2   26.18    4.53
   7   3   2   36.70    4.75
   8  -3   2    0.46    4.11
   8   3   2    9.69    4.70
   8  -4  -2   19.93    4.40
  -8  -4   2   24.80    5.10
  -8   4   2   22.95    5.20
   8   4  -2   18.94    4.85
  -7  -4   2   12.90    3.75
   7  -4  -2   15.44    3.68
   7   4  -2    8.73    3.70
  -7   4   2    5.05    3.01
  -6  -4   2    9.15    2.78
   6  -4  -2    3.76    2.48
   6   4  -2   10.10    3.08
  -6   4   2    6.43    2.76
   5  -4  -2    1.71    1.79
  -5  -4   2    2.30    1.93
  -5   4   2    1.48    2.03
   5   4  -2   -0.42    1.88
   4  -4  -2   45.30    2.93
  -4  -4   2   46.08    2.80
   4   4  -2   40.59    3.11
  -4   4   2   49.14    3.16
  -3  -4   2    1.49    0.99
   3  -4  -2    0.23    1.02
   3   4  -2    0.70    1.17
  -3   4   2    0.63    1.11
  -2  -4   2   62.64    1.82
   2  -4  -2   64.93    2.40
  -2  -4   2   65.99    2.13
  -2   4   2   68.77    2.48
   2   4  -2   68.01    2.44
  -2   4   2   63.49    2.44
   1  -4  -2   38.85    1.49
   1  -4  -2   42.50    1.70
   1   4  -2   35.84    0.95
  -1   4   2   42.27    1.63
   1   4  -2   36.70    1.29
  -1   4   2   38.97    1.50
   0  -4  -2  722.66   15.16
   0  -4  -2  690.08   15.08
   0   4   2  700.03   14.88
   0   4  -2  675.19   14.61
   0   4   2  703.00   15.16
   0   4   2  711.47   15.27
   1  -4   2  125.92    3.22
  -1  -4  -2  132.69    3.73
  -1  -4  -2  126.66    3.74
   1   4   2  128.26    3.75
  -1   4  -2  125.37    3.32
   1   4   2  120.49    3.81
   2  -4   2   43.79    2.04
  -2  -4  -2   42.11    2.35
  -2  -4  -2   44.79    2.38
   2   4   2   43.24    2.41
  -2   4  -2   47.08    2.21
  -3  -4  -2   29.66    2.45
   3  -4   2   29.59    2.23
  -3  -4  -2   26.83    2.45
  -3   4  -2   25.38    2.35
   3   4   2   27.17    2.52
   4  -4   2   68.32    3.59
  -4  -4  -2   68.16    3.83
  -4   4  -2   61.34    3.76
   4   4   2   71.39    4.06
   5  -4   2   39.79    3.64
  -5   4  -2   48.46    4.17
   5   4   2   48.34    4.22
  -6  -4  -2   19.37    4.21
   6  -4   2   22.05    3.39
   6   4   2   12.75    3.35
   7  -4   2   12.09    3.59
  -7  -4  -2   14.86    4.07
   7   4   2   14.71    3.97
  -7   4  -2   15.64    4.11
   8  -4   2    4.40    4.47
   8   4   2    1.75    4.44
   8  -5  -2    9.25    4.15
  -8  -5   2    1.20    4.32
   8   5  -2    5.39    4.81
  -8   5   2    7.47    5.21
   7  -5  -2    6.75    3.36
  -7  -5   2    5.65    3.36
   7   5  -2   -1.52    3.32
  -7   5   2    8.68    3.59
  -6  -5   2   18.09    3.01
   6  -5  -2   14.86    3.13
  -6   5   2   16.52    3.22
   6   5  -2   18.03    4.57
  -5  -5   2   36.06    3.28
   5  -5  -2   33.05    3.32
   5   5  -2   34.90    3.76
  -5   5   2   35.97    3.69
  -4  -5   2   76.82    3.45
   4  -5  -2   74.38    3.60
   4   5  -2   76.04    3.88
  -4   5   2   76.71    3.76
  -3  -5   2   93.91    3.26
  -3  -5   2   96.49    2.91
   3  -5  -2   91.41    3.42
  -3   5   2   88.68    3.51
   3   5  -2   90.29    3.60
   2  -5  -2   38.29    1.91
  -2  -5   2   42.76    1.31
  -2  -5   2   44.57    1.72
  -2   5   2   39.88    2.00
  -2   5   2   39.05    2.09
   2   5  -2   41.69    2.00
   1  -5  -2  409.66    9.14
   1  -5  -2  400.69    8.95
   1   5  -2  389.57    8.73
  -1   5   2  400.36    9.22
   1   5  -2  382.95    8.39
  -1   5   2  402.11    9.11
  -1   5   2  404.58    8.96
   0  -5  -2   32.13    1.63
   0  -5  -2   33.59    1.59
   0   5   2   33.81    1.41
   0   5   2   31.70    1.67
   0   5   2   31.85    2.08
   0   5  -2   34.97    1.20
   1  -5   2   85.02    2.39
  -1  -5  -2   78.99    2.83
  -1  -5  -2   84.04    2.87
  -1   5  -2   81.26    2.49
   1   5   2   80.43    2.93
   2  -5   2   41.59    1.99
  -2  -5  -2   40.43    2.40
  -2  -5  -2   38.66    2.36
   2   5   2   39.77    2.44
  -2   5  -2   38.87    2.10
  -3  -5  -2   75.05    3.52
  -3  -5  -2   70.90    3.45
   3  -5   2   78.12    3.21
  -3   5  -2   75.67    3.41
   3   5   2   70.66    3.64
  -4  -5  -2    9.52    2.16
  -4  -5  -2   11.45    2.28
   4  -5   2    8.27    1.81
   4   5   2   13.08    2.61
  -4   5  -2    6.74    2.02
  -5  -5  -2    5.20    2.56
  -5  -5  -2    7.67    2.82
   5  -5   2   10.76    2.45
   5   5   2    9.26    2.71
  -5   5  -2   13.37    2.90
   6  -5   2    0.01    2.39
  -6  -5  -2    0.40    3.25
   6   5   2   -3.07    2.93
  -6   5  -2    1.13    2.66
  -7  -5  -2   -1.20    3.74
   7  -5   2   -0.40    3.26
   7   5   2    2.44    3.71
  -7   5  -2   -0.38    3.62
   8  -5   2    4.58    4.10
   8   5   2    0.19    4.68
  -8  -6   2   -3.22    4.42
   8  -6  -2    7.10    4.19
  -8   6   2    4.98    5.30
   8   6  -2    1.61    4.51
  -7  -6   2   13.12    3.69
  -7  -6   2    4.31    3.64
   7  -6  -2   11.76    3.57
  -7   6   2    8.00    3.82
   7   6  -2    5.36    3.72
  -6  -6   2    4.41    3.48
  -6  -6   2    8.09    2.70
   6  -6  -2    8.79    2.77
  -6   6   2    5.43    2.93
   5  -6  -2    4.77    2.01
  -5  -6   2    4.53    2.03
  -5  -6   2    4.70    1.87
   5   6  -2    4.68    2.40
  -5   6   2    7.50    2.54
  -4  -6   2   18.70    1.97
   4  -6  -2   15.09    2.04
  -4  -6   2   13.77    1.89
   4   6  -2   11.82    2.14
  -4   6   2   16.76    2.33
  -3  -6   2   16.33    1.39
   3  -6  -2   19.80    2.00
  -3  -6   2   19.36    1.79
  -3   6   2   18.02    2.03
   3   6  -2   17.85    2.09
  -2  -6   2    5.06    0.84
   2  -6  -2    4.98    0.99
  -2  -6   2    4.71    0.56
  -2   6   2    5.48    1.25
   2   6  -2    4.86    1.06
  -2   6   2    5.11    1.08
   1  -6  -2  233.64    5.85
   1  -6  -2  232.69    5.66
  -1   6   2  234.76    5.88
  -1   6   2  226.36    5.93
   1   6  -2  228.53    5.49
  -1   6   2  234.58    5.69
   1   6  -2  229.80    5.16
   0  -6  -2  692.12   15.31
   0  -6  -2  723.62   15.34
   0   6  -2  674.86   14.85
   0   6   2  696.25   15.12
   0   6   2  711.25   15.55
   0   6   2  699.47   15.48
  -1  -6  -2  131.53    3.92
   1  -6   2  125.02    3.36
  -1  -6  -2  126.60    3.82
   1   6   2  122.00    4.02
   1   6   2  130.40    4.03
  -1   6  -2  125.08    3.47
  -2  -6  -2   23.87    2.10
  -2  -6  -2   19.76    1.98
   2  -6   2   22.00    1.62
  -2   6  -2   23.62    1.83
   2   6   2   22.03    2.16
   2   6   2   22.08    2.20
   3  -6   2    3.45    1.26
  -3  -6  -2    4.56    1.51
  -3  -6  -2    4.12    1.58
  -3   6  -2    6.91    1.68
   3   6   2    4.47    1.73
   4  -6   2  229.85    7.03
  -4  -6  -2  247.72    7.49
  -4  -6  -2  239.67    7.60
  -4   6  -2  247.93    7.59
   4   6   2  230.88    7.73
   5  -6   2    7.22    2.35
  -5  -6  -2    9.13    2.68
  -5  -6  -2    7.67    2.50
  -5   6  -2    2.84    2.43
   5   6   2    2.46    2.26
   6  -6   2    3.44    2.80
  -6  -6  -2    2.81    3.24
   6   6   2    1.59    3.03
  -6   6  -2   -1.74    2.50
   7  -6   2   -0.79    3.27
  -7  -6  -2   16.50    6.99
  -7  -6  -2    4.82    4.13
   7   6   2    0.09    3.52
  -7   6  -2   -0.15    3.70
   8  -6   2   10.97    4.73
   8   6   2   16.60    5.28
  -8  -7   2   -2.86    4.51
   8  -7  -2   -1.96    3.95
   8   7  -2    3.66    4.89
  -8   7   2   -0.28    4.51
  -8   7   2   -2.77    5.57
  -7  -7   2    9.65    3.65
  -7  -7   2    7.34    3.58
   7  -7  -2   10.48    3.55
  -7   7   2   11.90    3.93
   7   7  -2   13.39    4.11
   6  -7  -2    0.33    2.44
  -6  -7   2    0.53    2.44
  -6  -7   2    2.02    2.68
  -6   7   2    1.03    3.16
   6   7  -2    0.41    3.25
  -5  -7   2   57.63    3.37
  -5  -7   2   58.11    3.70
   5  -7  -2   61.93    3.94
  -5   7   2   55.10    4.25
   5   7  -2   60.87    4.51
   4  -7  -2   33.21    2.82
  -4  -7   2   31.62    2.57
  -4  -7   2   30.96    2.15
  -4   7   2   29.48    2.92
   4   7  -2   30.25    3.11
  -3  -7   2   60.15    2.66
  -3  -7   2   58.76    2.15
   3  -7  -2   65.12    2.98
  -3   7   2   63.26    3.06
  -3   7   2   63.85    3.05
   3   7  -2   64.12    3.19
   2  -7  -2    1.47    0.94
  -2  -7   2    3.29    0.56
  -2  -7   2    2.85    0.82
   2   7  -2    0.91    1.01
  -2   7   2    3.21    1.31
  -2   7   2    1.62    0.93
   1  -7  -2  282.48    6.87
   1  -7  -2  289.70    7.09
  -1   7   2  284.06    6.89
   1   7  -2  278.46    6.73
  -1   7   2  290.05    7.12
   1   7  -2  280.79    6.40
  -1   7   2  291.49    7.26
   0  -7  -2   29.58    1.80
   0  -7  -2   30.02    1.74
   0   7  -2   33.91    1.45
   0   7   2   31.23    1.93
   0   7   2   31.36    1.62
   0   7   2   32.68    2.04
   1  -7   2   73.68    2.33
  -1  -7  -2   70.27    2.79
  -1  -7  -2   66.84    2.83
   1   7   2   72.59    3.05
   1   7   2   68.24    3.00
  -1   7  -2   73.52    2.48
  -2  -7  -2  228.14    6.33
   2  -7   2  233.26    5.92
  -2  -7  -2  224.29    6.40
  -2   7  -2  229.97    6.14
   2   7   2  236.38    6.74
   2   7   2  220.65    6.49
  -3  -7  -2  107.01    4.17
   3  -7   2  107.85    3.83
  -3  -7  -2   95.64    4.19
  -3   7  -2  100.39    4.05
   3   7   2  101.01    4.51
   4  -7   2    6.82    1.87
  -4  -7  -2    6.56    2.05
  -4  -7  -2    9.44    2.26
   4   7   2    9.52    2.35
  -4   7  -2    5.17    1.97
   5  -7   2   18.44    2.68
  -5  -7  -2   18.79    3.07
  -5  -7  -2   19.71    3.13
   5   7   2   16.21    3.20
  -5   7  -2   23.12    5.12
  -6  -7  -2    9.61    3.61
   6  -7   2    6.00    2.72
  -6   7  -2    9.58    3.11
   6   7   2    6.19    3.31
  -7  -7  -2    1.69    3.96
  -7  -7  -2    3.37    5.16
   7  -7   2   -0.83    3.50
   7   7   2    0.52    3.87
  -7   7  -2   15.03    4.56
  -7  -8   2   -1.09    3.29
   7  -8  -2    3.30    3.32
  -7  -8   2    5.84    3.43
  -7   8   2   -0.37    3.79
   7   8  -2    4.51    4.29
   6  -8  -2   -1.70    2.50
  -6  -8   2   -0.98    2.48
  -6  -8   2    3.97    2.42
   6   8  -2    1.54    2.85
  -5  -8   2   18.91    2.63
  -5  -8   2   16.69    2.17
   5  -8  -2   17.90    2.87
   5   8  -2   16.40    3.06
  -5   8   2   15.48    2.84
  -4  -8   2   81.95    3.10
  -4  -8   2   86.62    3.68
   4  -8  -2   82.24    3.88
  -4   8   2   92.34    4.30
   4   8  -2   84.44    4.37
  -3  -8   2  220.87    5.99
   3  -8  -2  234.39    6.44
  -3  -8   2  223.93    5.39
  -3   8   2  223.87    6.57
  -3   8   2  231.45    6.63
   3   8  -2  228.38    6.71
   2  -8  -2   78.00    2.95
  -2  -8   2   73.30    2.53
  -2  -8   2   76.06    2.10
   2   8  -2   72.39    2.34
  -2   8   2   73.33    2.99
  -2   8   2   74.69    3.16
   2   8  -2   75.99    3.05
   1  -8  -2   10.75    1.36
  -1   8   2    9.33    1.19
   1   8  -2   12.76    1.35
   1   8  -2   10.92    1.10
  -1   8   2   13.02    1.72
  -1   8   2   11.02    1.39
   0  -8  -2  155.84    4.57
   0  -8  -2  160.75    4.55
   0   8   2  161.58    4.83
   0   8   2  162.56    4.41
   0   8  -2  159.16    4.15
   0   8   2  159.56    4.78
  -1  -8  -2   95.86    3.35
   1  -8   2   95.30    2.91
  -1  -8  -2   95.80    3.46
   1   8   2   94.34    3.69
  -1   8  -2   98.77    3.09
   1   8   2   90.82    3.59
  -2  -8  -2    3.87    1.41
   2  -8   2    3.63    1.00
  -2  -8  -2    3.91    1.25
   2   8   2    4.12    1.45
   2   8   2    3.19    1.53
  -2   8  -2    5.37    1.21
  -3  -8  -2    6.58    1.77
   3  -8   2    3.30    1.29
  -3  -8  -2    5.40    1.70
   3   8   2    3.38    1.77
  -3   8  -2    4.41    1.58
  -4  -8  -2   14.80    2.74
   4  -8   2   15.11    2.26
  -4  -8  -2   10.13    2.38
  -4   8  -2    9.96    2.23
   4   8   2   11.90    2.67
   5  -8   2    2.43    2.00
  -5  -8  -2    2.11    2.51
  -5  -8  -2   -0.11    2.34
   5   8   2    2.50    2.73
   6  -8   2   15.14    3.11
  -6  -8  -2   29.64    4.04
  -6   8  -2   17.00    4.10
   6   8   2   20.54    4.11
  -7  -8  -2    5.31    4.72
   7  -8   2    0.27    3.37
  -7  -8  -2    2.78    3.99
   7   8   2    0.84    4.26
  -7   8  -2   -0.44    4.14
  -7  -9   2   19.26    3.59
  -7  -9   2   13.78    3.61
   7  -9  -2    5.90    3.59
  -7   9   2    5.85    4.04
   7   9  -2   14.73    4.47
   6  -9  -2   -4.51    2.48
  -6  -9   2    1.53    2.28
  -6  -9   2    2.57    2.66
   6   9  -2   -3.29    3.16
  -5  -9   2    2.69    2.04
   5  -9  -2    7.11    2.25
  -5  -9   2    6.83    1.82
  -5   9   2    5.04    2.51
   5   9  -2   10.44    2.91
  -4  -9   2    1.16    1.52
  -4  -9   2   -0.27    1.09
   4  -9  -2    0.98    1.68
   4   9  -2    0.33    1.89
  -4   9   2    0.48    1.83
  -4   9   2    3.34    2.02
  -3  -9   2   14.20    1.80
  -3  -9   2   13.49    1.28
   3  -9  -2   16.34    2.12
   3   9  -2   14.86    2.07
  -3   9   2   20.71    2.31
  -3   9   2   18.17    2.55
  -2  -9   2   18.83    1.54
   2  -9  -2   20.30    1.93
  -2  -9   2   20.44    1.20
  -2   9   2   20.88    2.32
   2   9  -2   18.89    1.46
  -2   9   2   19.73    1.97
   2   9  -2   21.43    2.04
   1  -9  -2   43.42    2.20
  -1   9   2   46.31    2.24
   1   9  -2   44.25    2.17
  -1   9   2   45.76    2.68
  -1   9   2   45.92    2.45
   1   9  -2   41.94    1.86
   0  -9  -2    2.76    1.03
   0  -9  -2    3.48    1.13
   0   9   2    3.09    1.00
   0   9  -2    1.03    0.76
   0   9  -2    2.51    0.90
   0   9   2    3.22    1.31
   0   9   2    2.70    1.31
  -1  -9  -2    1.11    1.07
  -1  -9  -2    1.41    1.15
   1  -9   2    1.38    0.85
   1   9   2   -0.30    1.23
   1   9   2    1.57    1.26
  -1   9  -2    0.16    0.88
   2  -9   2   92.58    3.23
  -2  -9  -2   88.89    3.74
  -2  -9  -2   90.39    3.54
  -2   9  -2   91.26    3.46
   2   9   2   88.44    4.04
   2   9   2   88.91    3.88
   3  -9   2  122.83    4.22
  -3  -9  -2  112.99    4.44
  -3  -9  -2  106.95    4.56
  -3   9  -2  120.31    4.60
   3   9   2  116.75    5.03
   4  -9   2   10.49    2.11
  -4  -9  -2    9.33    2.36
  -4   9  -2   13.21    2.53
   4   9   2   11.02    2.57
  -5  -9  -2   26.54    3.76
  -5  -9  -2   21.39    3.39
   5  -9   2   27.63    3.83
   6  -9   2   54.10    4.78
  -6  -9  -2   64.20    5.48
  -6   9  -2   47.56    5.32
   6   9   2   57.80    6.03
  -7  -9  -2   33.09    5.23
   7  -9   2   47.06    5.54
   7   9   2   51.59    6.24
  -7   9  -2   45.01    5.87
   7 -10  -2    4.94    3.55
  -7 -10   2   -2.20    3.48
   7  10  -2    3.78    4.24
  -7  10   2    1.14    3.66
  -7  10   2    0.82    4.25
  -6 -10   2    8.39    2.93
  -6 -10   2    7.56    2.28
   6 -10  -2    9.01    2.94
  -6  10   2    8.35    3.16
  -6  10   2   -0.37    2.58
   6  10  -2    4.91    3.47
   5 -10  -2   28.47    3.69
  -5 -10   2   23.00    2.48
  -5 -10   2   25.21    3.24
   5  10  -2   26.56    3.57
  -5  10   2   22.03    3.19
  -5  10   2   23.15    3.25
   4 -10  -2   99.25    4.40
  -4 -10   2   99.74    4.00
  -4 -10   2   92.97    3.17
  -4  10   2  101.38    4.82
  -4  10   2   90.80    5.43
   4  10  -2   92.43    4.77
  -3 -10   2    1.32    0.81
  -3 -10   2    0.89    1.13
   3 -10  -2   -0.07    1.33
  -3  10   2    0.95    1.39
  -3  10   2    1.53    1.73
   3  10  -2    0.79    1.52
  -2 -10   2   44.85    2.08
   2 -10  -2   34.90    2.30
   2  10  -2   41.22    2.59
  -2  10   2   36.30    2.54
   2  10  -2   39.55    2.01
  -2  10   2   41.11    2.88
  -2  10   2   40.88    2.51
   1 -10  -2   44.30    2.33
   1  10  -2   47.11    2.36
  -1  10   2   46.20    2.38
  -1  10   2   45.00    2.63
  -1  10   2   45.41    2.80
   0 -10  -2   59.34    2.74
   0 -10  -2   63.12    2.78
   0  10   2   59.39    2.59
   0  10   2   57.00    3.01
   0  10  -2   59.06    2.36
   0  10  -2   59.29    2.39
   0  10   2   59.96    3.05
  -1 -10  -2  149.80    4.57
  -1 -10  -2  146.54    4.71
   1 -10   2  139.62    4.12
  -1  10  -2  146.14    4.35
   1  10   2  147.60    5.06
   1  10   2  146.98    4.99
  -2 -10  -2  106.96    3.97
   2 -10   2  116.87    3.73
  -2 -10  -2  105.34    4.18
   2  10   2  107.29    4.42
  -2  10  -2  108.19    3.96
   2  10   2  101.78    4.57
   3 -10   2    6.57    1.53
  -3 -10  -2    5.06    1.82
  -3 -10  -2    8.43    1.85
   3  10   2    7.17    2.12
  -3  10  -2    6.04    1.70
  -4 -10  -2    0.44    2.03
   4 -10   2    1.29    1.81
  -4 -10  -2    1.72    2.22
   4  10   2    4.07    2.54
  -4  10  -2   -1.67    1.72
   5 -10   2    6.13    2.43
  -5 -10  -2    8.75    2.87
  -5 -10  -2   11.58    2.84
   5  10   2    9.45    3.50
  -6 -10  -2   -2.88    3.18
  -6 -10  -2    9.38    3.43
   6 -10   2    8.52    3.10
  -6  10  -2    1.36    3.19
   6  10   2    4.20    3.76
   7 -10   2    4.05    3.54
  -7 -10  -2   -7.25    4.33
   7  10   2    3.21    4.44
   7 -11  -2    0.61    3.33
  -7 -11   2    1.02    3.75
  -7  11   2   -3.50    4.39
   7  11  -2   -8.10    4.22
  -7  11   2   -5.34    3.87
  -6 -11   2   13.18    2.29
  -6 -11   2   14.71    3.18
   6 -11  -2    9.53    2.96
  -6  11   2   10.75    3.63
  -6  11   2   13.86    3.50
   6  11  -2    8.26    3.61
   5 -11  -2   59.10    4.33
  -5 -11   2   53.67    2.93
  -5 -11   2   55.64    3.80
   5  11  -2   52.34    4.87
  -5  11   2   52.83    4.73
  -5  11   2   60.59    5.41
  -4 -11   2    5.67    1.25
   4 -11  -2    9.14    2.01
  -4 -11   2    9.38    1.85
   4  11  -2    3.50    2.25
  -4  11   2    9.12    2.35
  -4  11   2    8.88    2.25
   3 -11  -2   12.56    2.06
  -3 -11   2   11.86    1.59
  -3 -11   2    8.31    1.08
   3  11  -2   10.40    2.11
  -3  11   2   12.41    2.04
  -3  11   2   10.67    2.22
   2 -11  -2   21.29    2.17
  -2  11   2   19.69    2.55
   2  11  -2   20.19    1.80
   2  11  -2   23.33    2.36
  -2  11   2   20.46    2.22
  -2  11   2   22.20    2.36
   1  11  -2   47.02    2.24
  -1  11   2   42.77    2.43
  -1  11   2   44.37    2.78
  -1  11   2   45.70    2.96
   1  11  -2   48.44    2.57
   0 -11  -2    0.84    1.15
   0  11   2    1.93    1.11
   0  11  -2    0.93    0.97
   0  11   2    2.76    1.59
   0  11  -2    2.34    1.04
   0  11  -2    0.84    0.91
   0  11   2   -1.18    1.31
  -1 -11  -2   97.68    3.83
  -1 -11  -2  100.75    3.72
   1  11   2   96.03    4.19
  -1  11  -2   94.68    3.46
   1  11   2   98.75    4.15
  -2 -11  -2    1.82    1.51
  -2 -11  -2    1.17    1.35
   2 -11   2    2.64    1.18
   2  11   2   -0.12    1.58
  -2  11  -2    0.60    1.22
   2  11   2    1.15    1.65
  -3 -11  -2   21.82    2.68
  -3 -11  -2   23.94    3.02
   3 -11   2   24.41    2.48
   3  11   2   29.25    3.33
  -3  11  -2   25.49    2.86
  -4 -11  -2   64.20    4.04
  -4 -11  -2   57.69    4.36
   4 -11   2   61.61    3.75
  -4  11  -2   63.78    4.86
   4  11   2   65.82    4.82
  -5 -11  -2   13.91    2.90
  -5 -11  -2   12.48    3.12
   5 -11   2    9.33    2.73
   5  11   2    8.90    3.49
  -6 -11  -2   -4.14    2.88
   6 -11   2   -0.84    2.70
  -6 -11  -2    7.72    3.43
  -6  11  -2    0.97    3.55
   6  11   2   -4.22    3.77
   7 -11   2    2.79    3.53
  -7 -11  -2    0.08    4.58
   7  11   2    2.42    4.66
  -7 -12   2    7.68    3.89
   7 -12  -2   12.29    3.84
  -7  12   2    7.09    4.68
  -7  12   2    4.12    4.50
   7  12  -2   10.80    4.83
  -6 -12   2   10.70    2.17
   6 -12  -2    6.62    2.94
  -6 -12   2    7.98    3.04
  -6  12   2   11.97    3.70
  -6  12   2   14.16    3.54
   6  12  -2    4.58    3.51
  -5 -12   2   29.62    2.38
  -5 -12   2   30.37    3.39
   5 -12  -2   35.71    3.95
   5  12  -2   34.51    4.30
  -5  12   2   31.36    4.06
  -4 -12   2   47.10    2.24
   4 -12  -2   49.94    3.66
  -4 -12   2   44.88    3.06
  -4  12   2   49.56    4.29
   4  12  -2   49.59    4.19
  -4  12   2   44.79    3.78
  -3 -12   2    4.91    1.03
  -3 -12   2    4.38    1.42
   3 -12  -2    3.82    1.65
  -3  12   2    5.73    1.89
   3  12  -2    1.66    1.87
  -3  12   2    3.43    2.05
   2 -12  -2   33.64    2.52
   2  12  -2   34.88    2.79
   2  12  -2   29.29    2.46
  -2  12   2   28.60    2.71
  -2  12   2   29.86    2.52
  -2  12   2   31.15    3.06
  -1  12   2   21.06    2.47
  -1  12   2   18.29    2.04
   1  12  -2   19.08    1.86
   1  12  -2   20.50    2.18
  -1  12   2   19.53    2.57
   0 -12  -2  141.55    4.61
   0  12   2  140.31    4.48
   0  12   2  141.59    5.05
   0  12  -2  132.30    4.37
   0  12  -2  133.51    4.22
   0  12  -2  135.43    4.25
   0  12   2  135.75    5.00
  -1 -12  -2   27.91    2.33
  -1 -12  -2   26.89    2.42
  -1  12  -2   28.70    2.20
   1  12   2   24.33    2.83
  -1  12  -2   25.70    2.30
   1  12   2   28.14    2.79
  -2 -12  -2   12.46    1.99
   2 -12   2   15.11    2.02
  -2 -12  -2   10.59    1.98
   2  12   2   13.68    2.30
   2  12   2    8.74    2.16
  -2  12  -2   13.02    1.90
  -3 -12  -2   13.54    2.30
  -3 -12  -2    9.88    2.27
   3 -12   2    9.42    1.89
   3  12   2    8.16    2.49
  -3  12  -2    9.54    3.15
   3  12   2   10.40    2.40
  -4 -12  -2   87.65    5.08
   4 -12   2   89.55    4.44
  -4 -12  -2   93.73    4.62
   4  12   2   87.31    5.52
  -5 -12  -2   75.55    5.36
  -5 -12  -2   76.20    4.90
   5 -12   2   67.21    4.69
   5  12   2   72.41    5.96
  -6 -12  -2    6.45    3.41
   6 -12   2   -1.59    2.72
  -6 -12  -2   -0.21    3.37
   6  12   2   -4.85    3.62
  -6  12  -2    9.31    3.68
   7 -12   2    0.34    3.50
  -7 -12  -2    7.13    4.91
   7  12   2    7.35    5.06
   7 -13  -2   12.97    4.19
  -7 -13   2    2.31    3.76
   7  13  -2   13.48    5.16
  -7  13   2    6.47    4.52
  -6 -13   2   15.56    2.05
  -6 -13   2   11.90    3.15
   6 -13  -2   16.27    3.34
   6  13  -2   17.20    4.50
  -6  13   2   19.68    4.07
  -5 -13   2   70.29    4.10
   5 -13  -2   71.41    4.71
  -5 -13   2   61.74    2.79
  -5  13   2   64.48    5.38
   4 -13  -2    0.21    2.13
  -4 -13   2    1.98    1.09
  -4 -13   2    0.94    1.60
  -4  13   2   -0.67    2.38
   4  13  -2    1.40    2.30
  -4  13   2    1.29    2.01
   3 -13  -2   20.47    2.47
  -3 -13   2   16.92    2.19
   3  13  -2   18.55    2.63
  -3  13   2   21.45    2.89
  -3  13   2   23.05    3.15
   2 -13  -2   55.29    3.12
  -2  13   2   51.75    3.64
  -2  13   2   57.15    3.26
   2  13  -2   55.83    3.47
  -2  13   2   54.87    3.55
   2  13  -2   55.72    2.82
   1  13  -2   87.79    3.72
  -1  13   2   74.09    3.82
  -1  13   2   80.51    3.50
   1  13  -2   82.06    3.24
  -1  13   2   81.52    3.93
   0 -13  -2    0.56    1.46
   0  13   2   -0.51    1.16
   0  13  -2    1.15    1.25
   0  13   2    1.60    1.67
   0  13  -2    0.62    1.23
   0  13   2    0.77    1.61
   0  13  -2   -0.18    1.06
  -1 -13  -2    1.77    1.49
  -1 -13  -2   -0.32    1.55
  -1  13  -2    1.12    1.39
  -1  13  -2   -0.08    1.20
   1  13   2    0.36    1.86
   1  13   2   -0.06    1.71
   2 -13   2   83.10    3.48
  -2 -13  -2   86.29    4.30
  -2 -13  -2   91.54    4.13
   2  13   2   86.26    4.66
   2  13   2   87.46    4.48
  -2  13  -2   87.28    3.90
   3 -13   2   -0.34    1.50
  -3 -13  -2    2.59    2.06
  -3 -13  -2   -0.59    1.77
  -3  13  -2   -1.07    1.76
   3  13   2   -1.04    1.94
   3  13   2   -2.71    2.14
  -4 -13  -2   37.09    3.71
  -4 -13  -2   29.69    3.71
   4 -13   2   32.41    3.37
   4  13   2   34.66    4.46
  -5 -13  -2    3.31    2.77
   5 -13   2    0.45    2.36
  -5 -13  -2    4.49    3.08
   5  13   2    1.03    3.19
  -6 -13  -2   13.48    3.58
  -6 -13  -2    3.02    3.70
   6 -13   2    1.86    2.87
   6  13   2    4.46    3.96
  -6  13  -2    8.91    3.74
  -7 -13  -2    2.41    5.05
   7 -13   2    3.71    3.67
   7  13   2    2.28    5.10
  -7 -14   2   11.52    4.72
   7 -14  -2   12.09    4.24
   7  14  -2   17.25    5.55
  -7  14   2   10.69    4.83
  -6 -14   2    3.48    1.66
   6 -14  -2   -2.29    3.04
  -6 -14   2   -3.08    2.72
  -6  14   2    2.48    3.51
   6  14  -2    1.41    3.90
  -6  14   2    5.52    3.94
  -5 -14   2   -1.33    2.12
  -5 -14   2   -0.86    1.25
   5 -14  -2   -1.81    2.60
   5  14  -2    4.01    3.22
  -5  14   2    1.33    3.13
  -5  14   2    0.48    2.88
   4 -14  -2   22.81    2.97
  -4 -14   2   17.16    1.82
  -4 -14   2   17.49    2.28
   4  14  -2   18.73    3.31
  -4  14   2   17.33    3.27
   3 -14  -2   90.68    4.31
  -3  14   2   78.40    4.78
  -3  14   2   87.15    4.41
   3  14  -2   92.00    4.86
   2 -14  -2    3.76    1.67
  -2  14   2    6.12    2.37
   2  14  -2    3.77    1.45
  -2  14   2    8.76    2.06
   2  14  -2    3.07    1.91
  -2  14   2    2.40    1.91
  -1  14   2   54.65    3.10
  -1  14   2   49.09    3.57
   1  14  -2   56.70    3.29
  -1  14   2   58.21    3.66
   1  14  -2   57.47    2.95
   0 -14  -2  172.71    5.54
   0  14   2  164.39    6.03
   0  14   2  168.94    5.40
   0  14  -2  167.34    5.43
   0  14  -2  161.28    5.15
   0  14   2  170.32    6.06
   0  14  -2  171.28    5.19
  -1 -14  -2   44.69    3.06
  -1 -14  -2   38.16    2.84
  -1  14  -2   35.87    2.83
   1  14   2   35.66    3.41
   1  14   2   32.86    3.44
  -1  14  -2   39.26    2.73
  -2 -14  -2    0.35    1.54
  -2 -14  -2    0.35    1.77
   2 -14   2    1.39    1.43
   2  14   2   -0.44    2.05
   2  14   2   -0.14    1.97
  -2  14  -2   -0.10    1.46
  -3 -14  -2    1.91    2.10
  -3 -14  -2    1.12    1.87
   3 -14   2    2.69    1.64
  -3  14  -2    1.09    1.77
   3  14   2    1.59    2.38
   3  14   2    3.06    2.27
  -4 -14  -2    7.07    2.44
   4 -14   2    2.26    2.09
  -4 -14  -2    2.67    2.44
   4  14   2    2.21    2.91
  -5 -14  -2    4.03    2.82
   5 -14   2    5.21    2.84
  -5  14  -2    0.98    2.37
   5  14   2   -2.77    3.52
   6 -14   2    2.71    3.01
  -6 -14  -2   -0.87    4.04
  -6 -14  -2   12.11    3.66
   6  14   2    1.53    4.14
  -6  14  -2    9.74    4.43
  -6 -15   2    0.57    2.92
  -6 -15   2    0.75    1.43
   6 -15  -2    2.78    3.47
  -6  15   2    1.24    3.94
   6  15  -2   -6.02    4.15
  -6  15   2    3.11    3.97
  -5 -15   2    2.01    1.32
   5 -15  -2    0.59    2.78
  -5 -15   2    1.56    2.19
   5  15  -2    7.26    3.75
  -5  15   2    7.37    3.50
  -5  15   2    5.83    3.21
   4 -15  -2    2.54    2.30
  -4 -15   2    2.04    1.88
  -4  15   2    1.70    2.90
   4  15  -2   -0.02    2.83
   3 -15  -2    1.72    1.92
   3  15  -2    0.82    2.25
   3  15  -2    2.77    1.74
  -3  15   2    4.12    2.34
  -3  15   2    1.37    2.00
  -3  15   2    2.85    2.50
   2 -15  -2  164.06    5.73
   2  15  -2  174.20    6.25
  -2  15   2  164.41    6.22
   2  15  -2  168.31    5.41
  -2  15   2  165.84    6.40
  -2  15   2  165.37    5.86
   1  15  -2   50.88    2.88
  -1  15   2   54.35    3.98
  -1  15   2   54.34    4.69
  -1  15   2   50.80    3.74
   1  15  -2   49.37    3.41
   1  15  -2   45.42    2.99
   0  15  -2    0.41    1.47
   0  15  -2    1.42    1.55
   0  15   2    2.41    2.10
   0  15   2   -0.88    1.29
   0  15   2    1.51    2.16
   0  15  -2    1.15    1.38
  -1 -15  -2   23.22    2.89
  -1 -15  -2   25.85    2.72
   1  15   2   24.49    3.05
   1  15   2   21.54    2.87
  -1  15  -2   25.52    2.76
  -1  15  -2   19.87    2.72
   1  15   2   25.74    3.80
  -1  15  -2   21.07    2.55
  -2 -15  -2  186.13    5.90
   2 -15   2  176.37    5.67
  -2 -15  -2  180.00    6.22
  -2  15  -2  178.42    6.14
   2  15   2  180.75    6.83
   2  15   2  178.85    7.09
  -2  15  -2  180.10    6.24
   3 -15   2  103.78    4.61
  -3 -15  -2  108.33    5.13
  -3 -15  -2  106.61    4.65
   3  15   2  110.61    5.48
   3  15   2  107.63    6.09
  -3  15  -2  111.90    5.16
   4 -15   2    1.39    2.25
  -4 -15  -2   -2.45    2.47
  -4 -15  -2    1.91    2.27
   4  15   2    3.03    3.05
   5 -15   2   19.53    3.37
  -5 -15  -2   22.47    3.34
   5  15   2   10.37    4.11
  -5  15  -2   22.26    3.84
  -6 -15  -2   11.08    4.54
   6 -15   2   14.87    3.65
   6  15   2   14.63    5.11
   6 -16  -2    4.95    3.74
  -6 -16   2    1.70    4.92
  -6  16   2    1.07    4.35
   6  16  -2    5.93    4.68
   5 -16  -2    3.46    2.96
  -5 -16   2    2.10    2.33
   5  16  -2    0.05    3.61
  -5  16   2    4.13    3.15
   4 -16  -2   29.83    3.96
  -4  16   2   17.04    3.03
  -4  16   2   22.11    3.74
  -3  16   2   31.89    4.06
   3  16  -2   29.02    3.81
  -3  16   2   28.93    3.82
   3  16  -2   20.23    2.73
   2  16  -2   66.03    4.34
  -2  16   2   61.34    4.63
   2  16  -2   62.75    3.55
  -2  16   2   67.17    4.39
  -1  16   2   17.69    3.04
  -1  16   2   18.96    2.43
   1  16  -2   16.45    2.23
   1  16  -2   18.24    2.64
   1  16  -2   21.52    2.39
  -1  16   2   15.66    2.73
   0  16  -2    2.33    1.71
   0  16  -2    4.21    1.81
   0  16  -2    5.94    1.70
   0  16   2    3.40    2.17
   0  16   2    6.31    1.79
   0  16   2    7.09    2.35
  -1 -16  -2  183.22    5.95
   1  16   2  185.14    6.03
  -1  16  -2  157.50    7.79
  -1  16  -2  179.65    6.12
   1  16   2  181.65    6.84
   1  16   2  178.09    6.98
  -1  16  -2  187.08    6.16
  -2 -16  -2   14.06    2.24
   2  16   2   24.57    3.36
  -2  16  -2   19.47    2.57
   2  16   2   18.91    3.30
  -2  16  -2   21.48    2.90
  -3 -16  -2   -1.33    1.92
   3 -16   2    2.90    1.93
  -3 -16  -2    0.67    2.17
  -3  16  -2   -1.65    2.21
  -3  16  -2   -1.08    2.01
   3  16   2   -3.83    4.32
   3  16   2    0.10    2.57
   4 -16   2    2.05    2.36
  -4 -16  -2    1.01    2.64
  -4 -16  -2    0.24    2.38
  -4  16  -2    2.30    2.81
   4  16   2   -1.86    3.01
  -5 -16  -2   18.43    3.29
   5 -16   2   15.37    3.30
   5  16   2   10.43    4.20
  -5  16  -2   14.05    3.66
  -6 -16  -2   -5.59    4.26
   6 -16   2    0.33    3.25
   6  16   2   -5.30    4.62
   6 -17  -2   12.33    3.93
   6  17  -2   20.22    5.28
  -6  17   2    7.30    4.56
   5 -17  -2   -1.53    2.91
  -5  17   2    3.69    3.72
  -5  17   2    8.40    3.21
  -5  17   2    3.09    3.18
   5  17  -2   -0.06    3.76
   4 -17  -2    2.97    2.69
  -4  17   2    0.32    3.13
  -4  17   2    3.35    3.08
  -4  17   2    5.20    2.80
   4  17  -2    4.28    3.32
   3 -17  -2    1.03    2.22
   3  17  -2   -0.12    2.71
  -3  17   2   -1.72    2.61
   3  17  -2    0.47    1.90
  -3  17   2    2.33    2.74
  -2  17   2   32.25    4.14
  -2  17   2   32.98    5.42
   2  17  -2   42.20    4.21
   2  17  -2   41.53    3.33
  -1  17   2   -1.05    2.33
  -1  17   2    5.47    2.52
   1  17  -2    3.17    2.17
   1  17  -2    5.12    1.87
   1  17  -2    0.10    1.93
   0  17   2   22.00    2.79
   0  17  -2   23.23    2.84
   0  17  -2   19.13    2.31
   0  17  -2   18.40    2.48
   0  17   2   22.04    3.31
   0  17   2   16.00    2.95
  -1 -17  -2   10.31    2.20
   1  17   2   16.56    2.52
   1  17   2   16.04    3.23
   1  17   2   18.63    3.18
  -1  17  -2   17.98    2.74
  -1  17  -2   18.13    2.58
  -1  17  -2   14.91    2.58
  -2 -17  -2   13.37    2.27
  -2 -17  -2   17.77    2.78
  -2  17  -2   16.50    2.68
   2  17   2   19.91    3.97
  -2  17  -2   19.37    2.82
   2  17   2   14.59    3.13
   3 -17   2    7.78    2.33
  -3 -17  -2    4.58    2.45
  -3 -17  -2    4.58    2.29
   3  17   2    5.28    2.91
   3  17   2    8.38    3.50
  -3  17  -2    6.64    2.57
  -3  17  -2    5.63    2.66
   4 -17   2   31.34    3.97
  -4 -17  -2   28.50    3.89
  -4  17  -2   23.53    3.72
  -4  17  -2   24.41    3.92
   4  17   2   23.00    4.24
   5 -17   2    5.58    3.03
  -5 -17  -2    1.87    3.03
  -5 -17  -2    3.03    3.59
  -5  17  -2   -0.27    3.42
  -5  17  -2    0.85    3.54
   5  17   2    7.00    4.26
   6 -17   2    6.31    3.73
  -6 -17  -2   -7.96    4.47
  -6  17  -2    7.21    4.64
   6  17   2    7.59    5.03
   6 -18  -2    5.57    4.23
  -6  18   2   -5.05    4.44
   6  18  -2   -2.49    5.14
  -6  18   2    1.53    4.81
   5 -18  -2   20.06    3.96
  -5  18   2   28.65    4.37
  -5  18   2   15.75    4.52
   5  18  -2   19.90    4.62
  -5  18   2   14.37    4.00
   4 -18  -2    0.66    2.60
   4  18  -2    1.63    3.39
  -4  18   2    8.63    2.89
  -4  18   2    7.23    3.42
  -4  18   2    6.43    3.66
   3 -18  -2    2.90    2.38
  -3  18   2    0.01    2.93
  -3  18   2    1.09    3.07
   3  18  -2    1.60    2.10
   2  18  -2    2.14    2.04
  -2  18   2    0.23    2.64
  -2  18   2    4.48    2.99
   2  18  -2   -1.60    2.54
   1  18  -2   28.69    3.36
   1  18  -2   30.28    3.88
  -1  18   2   26.60    3.51
   1  18  -2   29.51    3.06
   0  18  -2    4.34    1.78
   0  18  -2    7.90    2.28
   0  18   2    9.19    3.19
   0  18  -2    9.68    2.65
   0  18   2    8.22    2.72
  -1 -18  -2   26.42    3.38
  -1  18  -2   30.40    3.26
  -1  18  -2   32.86    3.58
   1  18   2   37.25    3.33
   1  18   2   29.56    3.69
  -1  18  -2   31.95    3.56
  -2 -18  -2   10.45    2.37
  -2 -18  -2    9.86    2.43
   2  18   2   14.23    3.19
  -2  18  -2   13.40    3.02
  -2  18  -2   18.50    2.95
  -2  18  -2   11.59    2.63
   2  18   2   13.63    3.72
   3 -18   2   48.08    4.08
  -3 -18  -2   45.22    4.34
  -3 -18  -2   52.21    4.05
   3  18   2   55.34    5.04
  -3  18  -2   50.53    4.49
   3  18   2   57.25    5.85
  -3  18  -2   56.45    4.91
  -4 -18  -2    9.43    2.79
   4 -18   2   14.50    3.09
   4  18   2   11.46    4.45
  -4  18  -2    6.55    3.04
  -4  18  -2   13.47    3.71
   5 -18   2   28.04    4.09
  -5 -18  -2   45.12    4.90
  -5 -18  -2   28.96    4.49
  -5  18  -2   28.80    4.78
   5  18   2   36.58    5.47
   5 -19  -2   30.28    4.52
   5  19  -2   26.52    5.36
  -5  19   2   21.09    4.68
  -5  19   2   25.02    4.86
   4 -19  -2    6.33    3.05
  -4  19   2   11.72    3.43
   4  19  -2    5.31    3.84
  -4  19   2    0.58    3.52
  -4  19   2   -3.81    3.60
  -3  19   2    2.84    3.03
  -3  19   2    1.67    2.42
   3  19  -2   -0.86    2.22
  -3  19   2   -2.43    3.11
   3  19  -2   -1.93    3.00
   2  19  -2   47.07    6.73
   2  19  -2   36.89    3.87
  -2  19   2   42.98    4.92
  -2  19   2   41.32    4.91
   1  19  -2   10.99    2.55
  -1  19   2   10.24    3.43
   1  19  -2   10.99    2.31
  -1  19   2    5.91    2.95
   1  19  -2   10.28    2.93
   0  19   2  104.77    6.05
   0  19  -2   95.31    4.97
   0  19  -2   96.72    4.67
   0  19  -2  108.37    5.54
   0  19   2  103.26    5.84
  -1  19  -2    0.32    1.99
  -1  19  -2    0.19    2.37
   1  19   2    3.95    3.06
   1  19   2    1.05    2.01
   1  19   2    2.78    2.86
  -1  19  -2    5.38    3.10
  -2 -19  -2   33.10    3.67
  -2  19  -2   37.41    4.03
   2  19   2   34.78    4.26
  -2  19  -2   31.78    4.21
  -2  19  -2   35.69    4.09
   2  19   2   37.44    4.72
   2  19   2   35.35    3.68
  -3 -19  -2    0.43    2.40
   3  19   2   -2.19    2.99
  -3  19  -2    0.49    3.01
   3  19   2    4.29    3.68
  -3  19  -2    0.25    2.49
   4 -19   2   17.12    3.37
  -4 -19  -2    8.60    2.87
  -4  19  -2   20.23    3.75
  -4  19  -2   14.53    4.02
   4  19   2   13.87    4.57
   5 -19   2   12.89    3.59
  -5 -19  -2   -2.26    3.65
   5  19   2   10.49    5.26
  -5  19  -2    5.81    4.25
   5 -20  -2   16.12    3.91
  -5  20   2    4.46    4.96
  -5  20   2    8.08    5.01
   5  20  -2    8.52    4.94
   4 -20  -2    3.52    3.21
   4  20  -2    0.21    4.00
  -4  20   2    6.00    3.35
  -4  20   2    2.97    3.78
  -4  20   2    1.12    4.15
   3  20  -2   37.08    3.89
  -3  20   2   32.28    4.90
  -3  20   2   44.34    5.63
  -3  20   2   37.94    4.55
   3  20  -2   32.22    4.58
  -2  20   2    6.00    3.41
   2  20  -2    7.91    2.46
  -2  20   2    9.34    3.75
  -2  20   2    1.29    2.88
   2  20  -2    5.84    3.38
   2  20  -2    4.27    2.61
   1  20  -2    3.80    2.71
  -1  20   2    1.10    3.04
   1  20  -2    2.23    2.59
   1  20  -2    3.57    2.19
  -1  20   2    2.15    3.18
   0  20   2   19.75    3.67
   0  20   2   29.08    4.25
   0  20   2   16.18    2.71
   0  20  -2   20.46    3.19
   0  20  -2   27.42    3.76
   0  20  -2   21.26    3.05
   1  20   2   13.56    3.54
  -1  20  -2   18.98    3.26
   1  20   2   21.50    3.06
  -1  20  -2   19.39    2.89
  -1  20  -2   20.34    3.45
   1  20   2   18.24    4.14
  -2 -20  -2    4.88    2.56
  -2  20  -2    9.12    3.24
  -2  20  -2    5.61    3.00
   2  20   2    5.00    2.54
   2  20   2    3.84    3.36
   2  20   2    7.14    3.81
  -2  20  -2    2.04    2.62
  -3 -20  -2   -0.70    2.55
  -3 -20  -2   -1.76    2.94
   3  20   2   -3.00    3.07
  -3  20  -2   -1.42    3.25
   3  20   2   -0.66    3.89
  -3  20  -2    1.38    2.83
  -3  20  -2   -0.22    2.95
   4 -20   2    2.76    3.05
  -4 -20  -2    0.93    3.27
  -4 -20  -2    6.00    2.91
   4  20   2   -2.12    4.38
  -4  20  -2    1.26    3.64
  -4  20  -2   10.30    3.99
   5 -20   2   -1.32    3.33
  -5 -20  -2   -4.55    4.02
  -5  20  -2    6.20    4.44
   5  20   2    2.66    5.07
   5  21  -2   15.93    5.44
  -5  21   2   17.30    5.21
   4 -21  -2   12.25    3.53
  -4  21   2   13.78    4.67
   4  21  -2   19.13    4.92
  -4  21   2   15.32    4.79
   3  21  -2    0.46    2.61
  -3  21   2    0.95    4.09
   3  21  -2    3.76    3.82
  -3  21   2    8.70    3.11
  -3  21   2    0.53    3.59
   2  21  -2   69.75    5.03
  -2  21   2   76.90    6.35
   2  21  -2   73.36    4.77
  -2  21   2   74.08    6.41
  -2  21   2   75.16    5.21
   2  21  -2   79.45    6.30
  -1  21   2    1.07    2.40
  -1  21   2    0.52    3.17
   1  21  -2    1.99    2.21
   1  21  -2    6.97    2.70
  -1  21   2    1.96    3.26
   1  21  -2    4.63    3.36
   0  21  -2    2.08    2.79
   0  21  -2    7.12    2.41
   0  21  -2    3.71    3.25
   0  21   2    4.15    3.53
   0  21   2    0.49    3.22
   0  21   2    6.86    2.52
   1  21   2   -0.17    3.31
  -1  21  -2   -1.55    2.66
  -1  21  -2    1.97    2.34
  -1  21  -2   -0.14    3.06
   1  21   2   -1.29    3.30
   1  21   2   -0.81    2.52
  -2  21  -2   36.56    5.08
   2  21   2   32.00    4.92
  -2  21  -2   30.86    3.71
   2  21   2   39.58    5.14
  -2  21  -2   32.39    4.52
   2  21   2   38.44    4.11
  -3 -21  -2   -1.32    2.85
  -3  21  -2   -0.97    3.03
   3  21   2    2.87    4.34
  -3  21  -2    2.54    3.21
   3  21   2    3.76    3.53
  -4 -21  -2    1.25    3.60
  -4 -21  -2    2.62    3.25
   4  21   2   -1.17    4.45
  -4  21  -2    2.23    4.19
  -4  22   2   -1.92    4.80
   4  22  -2    5.79    4.74
  -4  22   2   -4.51    4.55
  -3  22   2   47.23    5.76
   3  22  -2   39.12    5.75
  -3  22   2   36.58    5.23
   3  22  -2   43.44    4.54
  -3  22   2   49.68    7.54
  -2  22   2   15.96    4.44
   2  22  -2   16.88    4.30
  -2  22   2   25.59    3.66
  -2  22   2   20.34    4.83
   2  22  -2   16.25    2.99
   2  22  -2   17.15    3.43
   1  22  -2    3.95    2.57
  -1  22   2    0.63    2.78
   1  22  -2    3.18    2.88
  -1  22   2    3.19    3.67
  -1  22   2   -1.38    3.53
   1  22  -2    2.24    3.50
   0  22   2    7.29    3.85
   0  22   2   -3.87    2.44
   0  22  -2   -0.35    2.82
   0  22   2    0.23    3.36
   0  22  -2    0.98    2.28
   0  22  -2   -4.46    3.14
  -1  22  -2   53.41    5.40
  -1  22  -2   60.21    5.79
   1  22   2   53.50    6.13
  -1  22  -2   57.63    4.75
   1  22   2   47.22    4.71
   1  22   2   58.00    6.34
   2  22   2    1.00    3.84
   2  22   2   -1.85    3.61
   2  22   2    1.30    2.76
  -2  22  -2   -1.06    2.82
  -2  22  -2    1.88    3.30
  -2  22  -2   -0.39    3.35
  -3  22  -2   -1.00    3.53
  -3  22  -2    4.09    3.71
   3  22   2   -4.98    3.71
   3  22   2   -4.57    4.38
   4  22   2   -7.01    4.71
  -4  22  -2   -4.90    4.07
  -4  22  -2   -0.22    3.88
  -4  23   2   16.73    5.35
  -3  23   2   -0.44    4.45
  -3  23   2    0.56    4.72
   3  23  -2   -1.58    4.55
   3  23  -2    3.81    3.09
   3  23  -2    3.86    3.12
   2  23  -2   75.49    6.95
  -2  23   2   60.33    8.14
   2  23  -2   86.20    5.81
   2  23  -2   81.61    5.50
  -2  23   2   81.52    7.31
  -2  23   2   78.66    7.27
  -1  23   2    5.87    4.18
  -1  23   2   -0.35    2.98
  -1  23   2    1.82    4.03
   1  23  -2   -1.46    2.63
   1  23  -2    0.39    3.90
   1  23  -2    2.03    3.06
   0  23   2   11.74    3.05
   0  23   2   10.90    4.02
   0  23  -2    8.12    2.79
   0  23   2   10.56    4.25
   0  23  -2    4.27    3.85
   0  23  -2    7.15    3.32
   1  23   2   12.71    4.41
  -1  23  -2   10.27    3.64
  -1  23  -2    9.00    3.22
   1  23   2   10.87    4.50
  -1  23  -2   14.67    4.48
   1  23   2   16.38    3.35
   2  23   2   -0.74    3.70
   2  23   2    7.16    4.69
  -2  23  -2   10.79    3.47
   2  23   2    9.26    4.38
  -2  23  -2    1.62    4.15
  -2  23  -2   11.70    4.22
  -3  23  -2    1.38    4.02
  -3  23  -2   -1.25    4.28
   3  23   2   10.72    5.36
   3  23   2    1.88    4.12
   3  24  -2    4.96    5.16
  -3  24   2    1.99    5.14
  -3  24   2    6.14    5.00
   3  24  -2    3.99    3.37
   2  24  -2   -7.26    3.71
  -2  24   2   -2.27    4.79
   2  24  -2    5.44    3.70
   2  24  -2    0.24    4.54
  -2  24   2    0.77    4.27
   1  24  -2   26.49    4.25
   1  24  -2   22.58    3.36
   1  24  -2   15.74    4.81
  -1  24   2   22.04    4.81
  -1  24   2   23.08    5.53
   0  24   2    6.32    4.53
   0  24  -2    5.41    3.69
   0  24  -2   -0.56    3.08
   0  24  -2    0.73    3.87
   0  24   2    2.54    4.34
   1  24   2   13.98    4.91
  -1  24  -2    5.91    3.84
  -1  24  -2   12.44    4.36
  -1  24  -2   19.58    4.76
   1  24   2   18.26    4.94
  -2  24  -2    0.27    3.81
   2  24   2    9.37    4.60
  -2  24  -2   -2.06    4.45
   2  24   2   -2.19    4.58
   3  24   2    5.72    4.67
  -3  24  -2   11.35    4.75
   3  24   2    3.98    5.37
  -3  24  -2   15.55    5.09
   2  25  -2   -0.48    4.83
   2  25  -2   14.12    4.22
  -2  25   2   -3.85    4.86
  -2  25   2    1.26    4.99
   1  25  -2   -4.19    4.37
   1  25  -2    1.65    3.83
  -1  25   2    0.77    4.77
  -1  25   2    1.82    4.69
   0  25   2   23.87    8.48
   0  25  -2   25.80    5.52
   0  25  -2   26.86    4.67
   0  25   2   32.48    5.95
  -1  25  -2    6.04    4.62
   1  25   2   -6.90    4.51
   1  25   2   -1.99    4.76
   2  25   2   26.29    6.29
  -2  25  -2   23.36    4.99
   2  25   2   30.98    5.32
  -2  25  -2   20.79    5.71
   0  26  -2   -7.28    4.09
   0  26   2   -2.75    5.29
   0  26   2    1.84    4.97
   0  26  -2    0.03    4.90
  -8   0   3  -10.67    4.22
   8   0  -3    4.40    4.17
  -7   0   3   19.77    3.83
   7   0  -3   15.58    3.93
  -6   0   3    2.30    2.46
   6   0  -3   -1.64    2.33
   5   0  -3    5.46    1.93
  -5   0   3    4.72    1.96
   4   0  -3    0.01    1.27
  -4   0   3   -0.22    1.28
   3   0  -3   85.08    3.12
  -3   0   3   80.74    2.97
   2   0  -3    0.04    0.59
  -2   0   3   -0.35    0.57
  -2   0   3   -0.01    0.52
   1   0  -3   13.61    0.87
   1   0  -3   14.09    0.61
  -1   0   3   12.76    0.95
   1   0  -3   11.69    0.65
   0   0   3    0.14    0.16
   0   0   3   -0.17    0.60
   0   0  -3   -0.10    0.29
   0   0  -3    0.26    0.59
   0   0   3   -0.16    0.21
   1   0   3  788.01   16.47
  -1   0  -3  749.32   16.54
  -2   0  -3   -0.60    0.90
   2   0   3   -0.60    0.80
   3   0   3   59.86    3.03
  -3   0  -3   58.47    3.12
  -4   0  -3    0.46    1.61
   4   0   3   -0.76    1.45
   5   0   3  180.21    6.80
  -5   0  -3  185.21    7.03
   6   0   3    3.29    2.59
   7   0   3   47.13    5.57
  -7   0  -3   51.31    6.02
   8   0   3    2.96    4.65
   8  -1  -3    1.03    3.94
  -8  -1   3   -0.98    3.98
   8   1  -3    9.78    4.24
  -8   1   3   12.45    4.64
  -7  -1   3    0.01    3.19
   7  -1  -3   -2.58    3.06
   7   1  -3    1.59    3.26
  -7   1   3   -1.23    3.19
  -6  -1   3   15.10    2.96
   6  -1  -3   15.53    3.02
  -6   1   3   17.25    2.96
   6   1  -3   18.71    3.16
  -5  -1   3   96.44    4.38
   5  -1  -3   93.19    4.49
   5   1  -3   94.95    4.54
  -5   1   3   92.91    4.47
  -4  -1   3    1.70    1.31
   4  -1  -3    2.66    1.46
   4   1  -3    2.45    1.49
  -4   1   3    1.80    1.38
   3  -1  -3    2.84    1.09
  -3  -1   3    1.65    0.93
   3   1  -3    3.13    1.15
  -3   1   3    3.09    1.09
  -2  -1   3   46.26    1.61
   2  -1  -3   45.67    1.82
  -2  -1   3   46.55    1.58
  -2   1   3   46.95    1.81
   2   1  -3   45.18    1.79
  -2   1   3   46.60    1.85
  -1  -1   3  532.49   11.54
   1  -1  -3  534.10   11.44
   1  -1  -3  557.52   11.70
   1  -1  -3  537.85   11.47
  -1   1   3  548.87   11.42
  -1   1   3  544.82   11.80
   1   1  -3  547.04   11.46
  -1   1   3  528.67   11.37
   0  -1  -3  181.82    4.10
   0  -1  -3  167.98    4.42
   0   1   3  167.68    4.49
   0   1  -3  175.40    3.71
   0   1  -3  168.98    4.36
   0   1   3  178.16    4.01
   0   1   3  175.92    3.84
  -1  -1  -3   53.47    1.99
  -1  -1  -3   51.47    2.31
   1  -1   3   49.30    1.72
   1   1   3   52.40    1.94
  -1   1  -3   45.55    1.82
   2  -1   3  138.65    4.09
  -2  -1  -3  138.79    4.29
  -2   1  -3  138.15    4.25
   2   1   3  138.86    4.26
  -3  -1  -3    0.09    1.34
   3  -1   3   -0.46    1.06
  -3   1  -3    0.60    1.25
   3   1   3   -1.70    1.15
  -4  -1  -3   12.71    2.31
   4  -1   3   11.81    2.15
  -4   1  -3   14.13    2.41
   4   1   3   12.72    2.37
  -5  -1  -3   11.05    2.71
   5  -1   3    7.85    2.37
   5   1   3   11.57    2.62
  -5   1  -3    5.56    2.38
   6  -1   3   44.11    4.58
   6   1   3   48.62    4.75
  -7  -1  -3    1.67    3.89
   7  -1   3    7.53    3.57
   7   1   3    0.71    3.24
  -7   1  -3    2.34    3.65
   8  -1   3   -2.21    4.05
   8   1   3   -4.29    4.00
   8  -2  -3    9.42    4.41
  -8   2   3    7.01    4.62
   8   2  -3   11.57    4.34
  -7  -2   3    6.29    3.33
   7  -2  -3    2.48    3.14
   7   2  -3    8.06    3.56
  -7   2   3    5.08    3.37
   6  -2  -3    0.37    2.73
  -6  -2   3    0.86    2.40
  -6   2   3    1.68    2.73
   6   2  -3    5.67    2.56
  -5  -2   3   18.61    2.41
   5  -2  -3   12.32    2.21
   5   2  -3   14.10    2.53
  -5   2   3   14.46    2.46
   4  -2  -3    0.40    1.34
  -4  -2   3   -0.86    1.22
   4   2  -3   -1.05    1.27
  -4   2   3   -0.04    1.38
  -3  -2   3   42.07    2.07
   3  -2  -3   42.87    2.29
  -3   2   3   41.01    2.31
   3   2  -3   43.62    2.33
   2  -2  -3    0.01    0.64
  -2  -2   3   -0.21    0.43
  -2  -2   3    0.17    0.44
  -2   2   3    0.60    0.66
  -2   2   3    0.53    0.88
   2   2  -3    0.07    0.59
  -1  -2   3  672.87   14.93
   1  -2  -3  711.72   15.07
   1  -2  -3  735.44   15.34
   1  -2  -3  700.42   15.12
  -1   2   3  730.48   15.47
   1   2  -3  734.40   14.89
  -1   2   3  719.46   15.15
  -1   2   3  713.36   15.05
   0  -2  -3  128.99    3.56
   0  -2  -3  125.14    3.24
   0   2   3  123.71    2.98
   0   2  -3  121.83    2.66
   0   2   3  129.25    3.23
   0   2   3  119.78    3.58
  -1  -2  -3  689.73   15.08
   1  -2   3  681.17   14.63
  -1  -2  -3  680.95   15.37
   1   2   3  696.14   15.06
  -1   2  -3  690.47   14.80
  -2  -2  -3  108.05    3.71
   2  -2   3  107.87    3.41
   2   2   3  100.69    3.67
  -2   2  -3  117.24    3.68
   3  -2   3   22.17    2.11
  -3  -2  -3   24.21    2.41
   3   2   3   23.10    2.41
  -3   2  -3   21.20    2.37
   4  -2   3   78.32    3.90
  -4  -2  -3   85.11    4.28
   4   2   3   79.86    4.19
  -4   2  -3   81.47    4.22
   5  -2   3    8.85    2.29
  -5  -2  -3   10.14    2.64
  -5   2  -3   12.69    2.75
   5   2   3   11.09    2.59
   6  -2   3    3.80    2.80
   6   2   3   -0.95    2.52
   7  -2   3   15.92    3.81
  -7  -2  -3   15.69    4.36
  -7   2  -3   16.62    4.18
   7   2   3   17.66    4.09
   8  -2   3   12.36    4.93
   8   2   3   15.31    4.84
   8  -3  -3   -1.87    3.77
  -8   3   3    4.20    4.78
   8   3  -3    4.94    4.38
  -8   3   3   -3.57    3.87
  -7  -3   3   16.48    3.54
   7  -3  -3    6.26    3.46
   7   3  -3    3.97    3.41
  -6  -3   3   29.31    3.78
  -6   3   3   28.72    4.05
   6   3  -3   32.90    3.95
   5  -3  -3    0.69    1.66
  -5  -3   3   -1.40    1.66
   5   3  -3   -0.40    1.87
  -5   3   3    1.27    1.84
  -4  -3   3   89.47    3.56
   4  -3  -3   87.71    3.80
   4   3  -3   93.71    4.07
  -4   3   3  101.06    4.08
   3  -3  -3    2.01    1.12
  -3  -3   3    3.77    0.98
  -3   3   3    3.73    1.10
  -3   3   3    1.94    1.13
   3   3  -3    3.75    1.18
  -2  -3   3  415.63    9.01
  -2  -3   3  413.54    8.92
   2  -3  -3  426.19    9.63
  -2   3   3  419.42    9.63
   2   3  -3  437.14    9.52
  -2   3   3  429.91    9.82
   1  -3  -3  217.68    5.23
   1  -3  -3  213.31    5.07
   1  -3  -3  218.39    5.00
  -1   3   3  218.30    5.15
  -1   3   3  213.66    5.48
   1   3  -3  201.25    4.60
  -1   3   3  212.68    4.97
   0  -3  -3  879.71   19.03
   0  -3  -3  931.34   19.30
   0   3   3  870.50   18.76
   0   3   3  912.77   19.08
   0   3   3  877.67   19.37
  -1  -3  -3  147.10    4.10
  -1  -3  -3  141.77    4.32
   1  -3   3  142.20    3.55
   1   3   3  153.49    4.15
   1   3   3  138.84    4.40
  -1   3  -3  141.40    3.71
  -2  -3  -3  203.56    6.00
   2  -3   3  209.42    5.42
  -2  -3  -3  199.64    5.77
  -2   3  -3  209.63    5.63
   2   3   3  213.00    5.88
  -3  -3  -3   35.59    2.73
   3  -3   3   37.78    2.42
  -3   3  -3   34.10    2.65
   3   3   3   34.60    2.74
  -4  -3  -3   92.64    4.47
   4  -3   3   85.07    4.06
  -4   3  -3   93.06    4.49
   4   3   3   89.23    4.44
  -5  -3  -3   12.33    2.82
   5  -3   3   12.62    2.44
   5   3   3   16.23    3.09
  -5   3  -3    8.55    2.49
   6  -3   3   -3.10    2.36
  -6   3  -3   -1.02    2.55
   6   3   3    1.66    2.74
   7  -3   3    4.74    3.41
  -7  -3  -3    5.60    4.09
  -7   3  -3   14.66    4.30
   7   3   3    0.54    3.33
   8  -3   3    2.80    4.19
   8   3   3   13.93    5.22
   8  -4  -3    1.33    4.08
  -8   4   3   10.12    4.75
  -8   4   3   -1.72    4.24
   8   4  -3    6.22    4.52
   7  -4  -3   -0.25    3.15
  -7  -4   3    5.09    3.33
   7   4  -3    1.21    3.12
   6  -4  -3    0.68    2.40
  -6  -4   3    3.17    2.36
  -6   4   3   -1.76    2.34
   6   4  -3    2.97    2.66
  -5  -4   3    5.22    1.97
   5  -4  -3    5.89    2.00
   5   4  -3    6.37    2.35
  -5   4   3    3.73    2.14
  -4  -4   3   16.88    2.06
   4  -4  -3   17.08    2.30
   4   4  -3   19.54    2.29
  -4   4   3   19.11    2.29
   3  -4  -3    3.46    1.19
  -3  -4   3    4.30    1.01
  -3   4   3    4.47    1.29
  -3   4   3    3.53    1.22
   3   4  -3    5.83    1.34
   2  -4  -3  245.68    5.98
  -2  -4   3  232.40    5.25
  -2   4   3  246.87    6.02
  -2   4   3  241.19    6.21
   2   4  -3  233.95    5.80
   1  -4  -3   87.28    2.49
   1  -4  -3   88.98    2.71
   1  -4  -3   84.86    2.57
  -1   4   3   83.27    2.44
   1   4  -3   73.37    1.98
  -1   4   3   86.10    2.66
  -1   4   3   87.37    2.90
   0  -4  -3    5.28    0.94
   0  -4  -3    5.29    1.01
   0   4   3    7.30    0.82
   0   4  -3    3.59    0.48
   0   4   3    5.43    0.89
  -1  -4  -3   74.66    2.86
   1  -4   3   78.26    2.18
  -1  -4  -3   75.19    2.75
  -1   4  -3   74.94    2.33
   1   4   3   74.28    2.78
   1   4   3   72.57    3.01
  -2  -4  -3   24.66    2.16
   2  -4   3   21.55    1.61
  -2  -4  -3   24.48    2.04
  -2   4  -3   19.48    1.75
   2   4   3   24.23    2.11
   3  -4   3   43.33    2.56
  -3  -4  -3   42.73    2.95
  -3  -4  -3   43.56    2.92
   3   4   3   40.89    2.93
  -3   4  -3   43.02    2.80
  -4  -4  -3    0.79    2.02
  -4  -4  -3    0.86    1.82
   4  -4   3   -0.38    1.49
  -4   4  -3    2.45    1.66
   4   4   3    1.86    1.87
  -5  -4  -3  111.38    5.53
   5  -4   3  102.70    5.01
  -5  -4  -3   98.27    5.31
   5   4   3   98.24    5.46
  -5   4  -3  112.60    5.60
   6  -4   3    0.18    2.46
  -6  -4  -3    5.85    3.65
  -6   4  -3   -1.49    2.45
   6   4   3   -1.21    2.59
  -7  -4  -3    7.60    5.19
   7  -4   3    3.60    3.15
  -7  -4  -3    0.21    4.07
   7   4   3    4.22    3.76
  -7   4  -3    8.05    3.78
   8  -4   3    2.19    4.57
   8   4   3    0.80    4.90
   8  -5  -3    8.04    4.41
   8   5  -3    5.67    4.30
  -8   5   3   -4.65    4.85
  -8   5   3   -0.92    6.50
   7  -5  -3   28.89    4.33
  -7  -5   3   20.62    4.33
   7   5  -3   24.78    4.40
   6  -5  -3   45.54    4.32
  -6  -5   3   42.03    3.98
  -6   5   3   42.91    4.55
   6   5  -3   39.84    4.69
  -5  -5   3   16.40    2.27
   5  -5  -3   17.90    2.59
  -5   5   3   18.40    2.84
   5   5  -3   18.77    2.99
   4  -5  -3   -0.84    1.32
  -4  -5   3   -0.30    1.22
  -4   5   3   -0.31    1.42
   4   5  -3   -0.11    1.51
   3  -5  -3   60.78    2.81
  -3  -5   3   62.85    2.34
  -3   5   3   59.47    2.86
  -3   5   3   60.13    2.89
   3   5  -3   67.25    2.97
   2  -5  -3  176.24    4.68
  -2  -5   3  164.62    3.91
  -2   5   3  182.09    4.76
   2   5  -3  162.39    4.48
  -2   5   3  180.84    4.99
   1  -5  -3    3.95    0.92
   1  -5  -3    2.92    0.69
  -1   5   3    3.45    1.05
   1   5  -3    4.72    0.59
  -1   5   3    3.52    0.86
  -1   5   3    3.06    0.71
   0  -5  -3   44.65    2.06
   0  -5  -3   41.72    1.92
   0   5   3   43.35    2.23
   0   5  -3   44.08    1.35
   0   5   3   42.80    1.68
   0   5   3   40.69    1.97
  -1  -5  -3  146.38    4.40
   1  -5   3  145.99    3.58
  -1  -5  -3  142.57    4.26
   1   5   3  133.74    4.42
  -1   5  -3  145.67    3.76
   1   5   3  136.82    4.30
  -2  -5  -3   63.36    3.04
  -2  -5  -3   66.44    3.16
   2  -5   3   63.19    2.46
  -2   5  -3   64.61    2.70
   2   5   3   69.55    3.15
   3  -5   3    0.02    1.17
  -3  -5  -3    0.16    1.61
  -3  -5  -3   -0.35    1.28
  -3   5  -3   -1.34    1.29
   3   5   3   -0.68    1.43
   4  -5   3   19.10    2.40
  -4  -5  -3   13.63    2.38
  -4  -5  -3   14.43    2.62
  -4   5  -3   11.98    2.27
   4   5   3   11.89    2.43
   5  -5   3   94.85    4.77
  -5  -5  -3   89.99    5.15
  -5  -5  -3   92.76    5.39
   5   5   3   97.23    5.54
  -6  -5  -3   29.11    4.27
   6  -5   3   25.42    3.64
   6   5   3   21.70    4.02
  -7  -5  -3   18.06    4.82
  -7  -5  -3   -3.25    4.01
   7  -5   3    5.04    3.27
  -7   5  -3   14.87    4.43
   7   5   3    0.48    3.52
   8  -6  -3    4.77    4.06
  -8  -6   3    9.53    4.68
  -8   6   3    8.14    4.52
  -8   6   3    9.84    5.23
   8   6  -3    9.40    4.96
   7  -6  -3   15.99    3.64
   7   6  -3   15.12    4.35
  -7   6   3   10.55    3.46
  -7   6   3    5.65    3.26
  -6  -6   3    4.56    2.34
   6  -6  -3    0.01    2.44
  -6  -6   3   -1.14    2.25
   6   6  -3    0.45    2.77
  -6   6   3   -0.66    2.53
  -5  -6   3   48.61    3.02
   5  -6  -3   57.22    3.81
  -5  -6   3   45.80    3.30
  -5   6   3   56.57    4.03
   5   6  -3   47.38    4.01
  -4  -6   3   73.17    3.05
  -4  -6   3   70.53    2.66
   4  -6  -3   63.76    3.45
  -4   6   3   69.67    3.69
  -4   6   3   70.31    3.63
   4   6  -3   68.12    3.69
  -3  -6   3  560.20   12.42
  -3  -6   3  559.37   11.92
   3  -6  -3  564.35   13.09
  -3   6   3  563.05   13.20
   3   6  -3  566.67   13.20
  -3   6   3  559.15   13.29
   2  -6  -3   20.02    1.62
   2   6  -3   13.91    1.44
  -2   6   3   20.62    1.69
  -2   6   3   18.59    1.84
  -2   6   3   16.83    1.59
   1  -6  -3   89.09    2.77
   1  -6  -3   90.62    3.03
   1   6  -3   82.56    2.09
  -1   6   3   83.21    2.97
   1   6  -3   82.80    2.34
  -1   6   3   88.22    3.23
  -1   6   3   86.31    2.74
   0  -6  -3    1.27    0.81
   0  -6  -3    2.59    1.02
   0   6   3    3.37    0.75
   0   6   3    3.68    1.00
   0   6   3    2.15    1.06
   0   6  -3    2.08    0.52
  -1  -6  -3   74.05    3.04
  -1  -6  -3   75.23    2.98
   1  -6   3   79.29    2.32
   1   6   3   77.48    3.27
   1   6   3   75.64    3.11
  -1   6  -3   77.21    2.50
  -2  -6  -3    3.16    1.48
  -2  -6  -3    3.52    1.33
   2  -6   3    3.44    0.92
   2   6   3    4.08    1.43
   2   6   3    4.27    1.69
  -2   6  -3    4.06    1.21
  -3  -6  -3   12.01    1.99
   3  -6   3   12.95    1.61
  -3  -6  -3   10.67    1.96
  -3   6  -3   13.48    1.99
   3   6   3   17.33    2.38
  -4  -6  -3    1.93    2.10
   4  -6   3   -0.05    1.49
  -4  -6  -3    0.98    1.92
  -4   6  -3    0.96    1.73
   4   6   3   -0.96    1.93
   5  -6   3    4.39    2.27
  -5  -6  -3    5.44    2.64
  -5  -6  -3    0.76    2.20
   5   6   3    2.18    2.48
  -6  -6  -3   15.39    3.84
   6  -6   3   10.50    2.99
  -6   6  -3    7.41    3.19
   6   6   3    4.32    3.49
  -7  -6  -3   31.45    5.22
   7  -6   3   27.37    4.12
  -7   6  -3   27.09    4.73
   7   6   3   35.39    5.47
  -8  -7   3   -1.30    4.55
   8  -7  -3    2.85    4.39
  -8   7   3   12.02    5.49
  -8   7   3    1.26    4.34
   8   7  -3    1.28    4.87
  -7  -7   3    0.95    4.67
   7  -7  -3   -2.41    3.11
  -7   7   3    3.11    3.69
  -7   7   3    4.17    3.40
   7   7  -3    3.05    3.68
  -6  -7   3    9.39    2.34
  -6  -7   3    4.86    2.47
   6  -7  -3    9.41    2.77
  -6   7   3    5.78    2.91
  -6   7   3    7.57    2.72
   6   7  -3    4.15    5.16
   5  -7  -3   -0.23    1.87
  -5  -7   3    0.42    1.74
  -5  -7   3    0.20    1.51
   5   7  -3    2.52    2.32
  -5   7   3    3.43    2.58
  -5   7   3    1.03    1.99
  -4  -7   3    1.78    1.27
   4  -7  -3    0.02    1.45
  -4  -7   3   -0.80    0.98
  -4   7   3    0.06    1.55
  -4   7   3    0.51    1.65
   4   7  -3   -0.40    1.61
  -3  -7   3    0.97    0.46
   3  -7  -3    2.36    1.23
  -3  -7   3    2.25    0.91
   3   7  -3   -0.14    1.14
  -3   7   3    0.06    1.34
  -3   7   3    0.07    1.21
   2  -7  -3   39.37    2.10
   2   7  -3   35.49    1.96
  -2   7   3   42.44    2.27
  -2   7   3   39.93    2.44
  -2   7   3   37.61    2.15
   1  -7  -3  195.91    5.04
   1  -7  -3  193.81    5.27
   1   7  -3  185.77    4.35
   1   7  -3  188.86    4.64
  -1   7   3  193.60    5.03
  -1   7   3  186.22    5.51
  -1   7   3  194.77    5.35
   0  -7  -3   50.23    2.38
   0  -7  -3   49.62    2.30
   0   7   3   50.47    2.07
   0   7  -3   48.71    1.76
   0   7   3   47.60    2.60
   0   7   3   53.65    2.52
  -1  -7  -3   89.37    3.38
  -1  -7  -3   91.02    3.41
   1  -7   3   87.06    2.62
   1   7   3   86.94    3.50
   1   7   3   88.64    3.63
  -1   7  -3   89.13    2.84
   2  -7   3  186.33    5.04
  -2  -7  -3  187.73    5.77
  -2  -7  -3  188.98    5.76
  -2   7  -3  185.61    5.35
   2   7   3  190.24    5.95
   2   7   3  186.22    5.98
  -3  -7  -3   76.49    3.78
   3  -7   3   69.60    3.14
  -3  -7  -3   70.30    3.68
  -3   7  -3   71.97    3.51
   3   7   3   69.64    3.92
  -4  -7  -3    5.38    2.09
   4  -7   3    3.18    1.79
  -4  -7  -3    2.28    1.99
   4   7   3    0.72    2.02
  -4   7  -3    1.29    2.08
  -5  -7  -3   45.56    4.34
   5  -7   3   38.86    3.72
  -5  -7  -3   46.37    4.43
   5   7   3   38.25    4.53
   6  -7   3   37.69    4.52
  -6  -7  -3   41.76    4.81
  -6   7  -3   39.50    5.30
   6   7   3   33.69    4.45
  -7  -7  -3    6.79    4.32
   7  -7   3    0.03    3.18
  -7  -7  -3   11.22    5.49
  -7   7  -3   10.51    4.12
   7   7   3    2.05    4.02
   7  -8  -3    3.43    3.50
  -7  -8   3    0.97    3.43
  -7  -8   3    7.35    3.09
  -7   8   3   10.25    3.89
   7   8  -3    4.90    3.81
  -7   8   3    1.72    3.54
  -6  -8   3    3.09    2.13
   6  -8  -3   -1.52    2.49
  -6  -8   3    1.24    2.41
   6   8  -3    1.24    4.40
  -6   8   3    2.35    2.86
  -5  -8   3    9.43    1.73
   5  -8  -3    9.16    2.38
  -5  -8   3   10.03    2.01
  -5   8   3   13.98    2.83
   5   8  -3   11.05    2.76
  -5   8   3   11.12    2.65
   4  -8  -3    3.27    1.59
  -4  -8   3    2.99    1.32
  -4  -8   3    1.65    0.92
   4   8  -3   -0.57    1.71
  -4   8   3   -0.16    1.76
  -4   8   3    3.59    1.94
   3  -8  -3   94.01    3.65
  -3  -8   3   88.22    2.88
  -3   8   3   90.10    3.95
   3   8  -3   88.48    3.71
  -3   8   3   85.32    3.67
   2  -8  -3   45.29    2.36
  -2   8   3   44.70    2.70
   2   8  -3   45.18    2.26
  -2   8   3   48.08    2.45
  -2   8   3   50.04    2.59
   1  -8  -3   76.50    2.81
   1  -8  -3   75.71    2.96
  -1   8   3   73.52    3.23
  -1   8   3   74.35    2.76
   1   8  -3   74.73    2.16
  -1   8   3   74.70    3.09
   1   8  -3   77.64    2.48
   0  -8  -3   81.13    3.12
   0  -8  -3   78.80    3.04
   0   8   3   77.67    2.78
   0   8  -3   76.54    2.45
   0   8   3   78.22    3.28
   0   8   3   80.43    3.34
  -1  -8  -3  515.91   11.92
   1  -8   3  511.10   11.11
  -1  -8  -3  486.94   11.87
   1   8   3  496.47   12.23
  -1   8  -3  502.45   11.32
   1   8   3  488.60   12.12
  -2  -8  -3   30.73    2.52
  -2  -8  -3   26.77    2.41
   2  -8   3   33.40    1.89
  -2   8  -3   28.43    2.11
   2   8   3   30.88    2.80
   2   8   3   24.83    2.62
  -3  -8  -3    3.10    1.74
  -3  -8  -3    2.89    1.82
   3  -8   3    6.13    1.42
   3   8   3    5.24    1.99
  -3   8  -3    4.33    1.53
   4  -8   3   43.50    3.16
  -4  -8  -3   43.64    3.71
  -4  -8  -3   42.20    3.70
   4   8   3   42.78    4.01
  -5  -8  -3   98.41    5.55
   5  -8   3   89.77    4.82
  -5  -8  -3   97.10    5.49
  -6  -8  -3   12.31    3.85
   6  -8   3   11.73    3.14
   6   8   3   14.22    3.99
  -6   8  -3   13.37    3.60
  -7  -8  -3   13.76    5.88
   7  -8   3   -1.60    3.23
  -7  -8  -3    4.35    4.23
  -7   8  -3    4.34    4.57
   7   8   3    0.10    4.14
   7  -9  -3    4.14    3.28
  -7  -9   3    2.80    2.76
  -7  -9   3    2.96    3.28
   7   9  -3   11.60    4.38
  -7   9   3    8.36    7.45
  -7   9   3   -1.02    3.91
  -6  -9   3    7.99    2.59
  -6  -9   3    9.11    2.07
   6  -9  -3   13.36    3.19
   6   9  -3   12.53    3.90
  -6   9   3   11.71    3.54
   5  -9  -3   22.20    3.06
  -5  -9   3   22.83    2.48
  -5  -9   3   21.48    2.11
  -5   9   3   21.62    3.13
  -5   9   3   19.50    3.01
   5   9  -3   25.28    3.49
  -4  -9   3   20.44    1.35
  -4  -9   3   18.30    2.12
   4  -9  -3   15.86    2.24
  -4   9   3   26.07    3.25
   4   9  -3   20.33    2.70
  -4   9   3   24.98    2.82
  -3  -9   3   45.74    2.09
   3  -9  -3   43.51    2.74
  -3   9   3   46.13    3.31
  -3   9   3   42.77    2.88
   3   9  -3   46.28    2.92
   2  -9  -3  282.50    7.24
  -2   9   3  273.01    7.65
  -2   9   3  276.91    7.30
  -2   9   3  288.74    7.52
   2   9  -3  269.53    7.13
   2   9  -3  274.55    6.22
   1  -9  -3   87.44    3.38
   1  -9  -3   83.49    3.07
  -1   9   3   85.26    3.07
  -1   9   3   81.49    3.59
   1   9  -3   78.22    2.75
   1   9  -3   80.19    2.46
  -1   9   3   84.28    3.43
   0  -9  -3  329.72    8.27
   0  -9  -3  327.69    8.23
   0   9   3  328.41    8.66
   0   9  -3  323.76    7.62
   0   9   3  322.41    8.54
   0   9   3  326.39    8.00
  -1  -9  -3   73.45    3.30
   1  -9   3   75.87    2.56
  -1  -9  -3   75.00    3.25
   1   9   3   73.94    3.58
   1   9   3   79.87    3.61
  -1   9  -3   77.71    2.83
   2  -9   3   59.57    2.52
  -2  -9  -3   54.53    3.17
  -2  -9  -3   58.11    3.13
   2   9   3   58.25    3.46
   2   9   3   60.61    3.57
  -2   9  -3   56.47    2.80
  -3  -9  -3   46.37    3.23
   3  -9   3   46.28    2.73
  -3  -9  -3   45.21    3.35
  -3   9  -3   43.26    3.02
   3   9   3   45.68    3.66
  -4  -9  -3   69.91    4.30
  -4  -9  -3   58.22    4.78
   4  -9   3   70.55    3.77
   4   9   3   61.92    4.61
  -4   9  -3   63.68    4.18
  -5  -9  -3   44.18    4.56
  -5  -9  -3   51.05    4.54
   5   9   3   37.17    4.87
  -6  -9  -3    8.51    3.74
   6  -9   3    4.64    2.98
  -6  -9  -3   -3.46    2.96
  -6   9  -3    1.01    3.20
   6   9   3   -4.02    3.42
   7  -9   3   11.07    3.62
  -7  -9  -3    4.41    4.58
   7   9   3    5.58    4.60
   7 -10  -3    0.92    3.21
  -7 -10   3   -3.25    3.12
  -7 -10   3    2.05    2.68
  -7  10   3    5.15    4.30
   7  10  -3    2.62    4.38
  -7  10   3    3.24    3.93
   6 -10  -3    0.75    2.75
  -6 -10   3    1.18    1.67
  -6 -10   3    3.00    2.40
   6  10  -3   -3.20    3.13
  -6  10   3    6.70    2.61
  -6  10   3   -1.96    2.78
   5 -10  -3    6.84    2.51
  -5 -10   3    7.94    2.00
  -5 -10   3    7.48    1.34
  -5  10   3    6.08    2.81
   5  10  -3   12.03    3.07
  -5  10   3    5.21    2.54
   4 -10  -3    1.36    1.85
  -4 -10   3    0.37    0.67
  -4 -10   3    1.02    1.34
  -4  10   3    1.88    2.07
  -4  10   3    0.70    1.68
   4  10  -3   -0.36    1.85
   3 -10  -3    2.23    1.43
  -3 -10   3    2.58    1.06
   3  10  -3    3.29    1.57
  -3  10   3    1.36    1.75
  -3  10   3    2.21    1.43
   2 -10  -3    7.95    1.51
   2  10  -3   11.11    1.62
   2  10  -3    7.60    0.99
  -2  10   3    8.18    1.56
  -2  10   3    8.22    1.81
  -2  10   3    7.60    1.61
   1 -10  -3   59.00    2.82
   1 -10  -3   56.21    2.63
  -1  10   3   57.97    3.05
  -1  10   3   56.02    2.63
   1  10  -3   55.18    2.11
   1  10  -3   51.59    2.38
  -1  10   3   56.42    3.25
   0 -10  -3   49.63    2.66
   0 -10  -3   44.76    2.61
   0  10   3   45.02    2.87
   0  10  -3   44.01    2.06
   0  10   3   43.96    2.35
   0  10   3   45.79    3.04
  -1 -10  -3   21.83    2.25
  -1 -10  -3   19.64    2.20
   1  10   3   18.77    2.52
   1  10   3   23.08    2.56
  -1  10  -3   19.08    1.77
  -2 -10  -3    4.06    1.69
   2 -10   3    1.60    1.01
  -2 -10  -3    0.37    1.53
  -2  10  -3    0.76    1.16
   2  10   3    0.75    1.62
   2  10   3   -0.18    1.75
  -3 -10  -3   64.32    3.84
   3 -10   3   61.98    3.12
   3  10   3   57.26    4.10
  -3  10  -3   57.78    3.47
  -4 -10  -3    3.79    2.16
   4 -10   3    4.11    1.81
  -4 -10  -3    5.27    2.45
  -4  10  -3    3.11    2.12
   4  10   3    2.29    2.57
  -5 -10  -3   35.86    4.44
   5 -10   3   33.05    3.74
  -5 -10  -3   32.61    4.46
   5  10   3   26.59    3.84
  -6 -10  -3   18.47    4.08
  -6 -10  -3   20.34    3.97
   6 -10   3   16.82    3.16
   6  10   3   18.61    4.51
  -6  10  -3   13.16    3.67
  -7 -10  -3    6.65    4.81
   7 -10   3   11.25    3.96
   7  10   3   23.15    5.48
   7 -11  -3   -2.89    3.30
  -7 -11   3   -1.89    3.29
  -7  11   3    6.12    4.45
   7  11  -3   -1.80    4.41
  -7  11   3   -4.82    3.82
   6 -11  -3   23.75    3.85
  -6 -11   3   21.99    2.26
  -6 -11   3   22.09    2.95
  -6  11   3   23.04    4.02
  -6  11   3   12.22    3.43
   6  11  -3   14.86    3.83
   5 -11  -3   12.77    2.72
  -5 -11   3   15.99    2.21
  -5 -11   3   12.70    1.50
  -5  11   3   11.52    2.82
   5  11  -3   11.73    3.24
  -5  11   3   16.32    3.26
  -4 -11   3    0.58    0.61
  -4 -11   3    0.46    1.27
   4 -11  -3    0.47    1.67
  -4  11   3   -0.26    1.84
   4  11  -3   -1.59    1.91
  -4  11   3    3.29    2.39
   3 -11  -3   15.84    2.20
  -3  11   3   13.91    2.21
  -3  11   3   17.00    2.64
   3  11  -3   17.31    2.33
  -3  11   3   17.42    2.28
   2 -11  -3   97.80    3.79
  -2  11   3  100.15    4.44
  -2  11   3   95.11    3.84
   2  11  -3   97.28    3.02
  -2  11   3   95.90    4.12
   2  11  -3  102.85    3.89
   1 -11  -3    1.53    1.39
  -1  11   3    0.82    1.64
  -1  11   3    0.20    0.97
   1  11  -3    0.75    0.90
   1  11  -3    0.97    1.05
  -1  11   3    1.90    1.53
   0 -11  -3   21.37    2.17
   0 -11  -3   25.30    2.21
   0  11  -3   24.73    1.77
   0  11   3   20.86    1.99
   0  11  -3   22.36    1.73
   0  11   3   21.84    2.56
   0  11   3   20.76    2.73
  -1 -11  -3    2.87    1.41
  -1 -11  -3   -0.60    1.34
   1  11   3    2.17    1.63
  -1  11  -3   -0.06    1.06
   1  11   3   -0.98    1.58
   2 -11   3   96.58    3.42
  -2 -11  -3   91.38    4.04
  -2 -11  -3   86.47    4.08
   2  11   3   85.90    4.51
  -2  11  -3   92.60    3.75
   2  11   3   89.38    4.48
   3 -11   3  150.68    5.04
  -3 -11  -3  157.12    5.87
  -3 -11  -3  156.02    5.59
  -3  11  -3  149.32    5.52
   3  11   3  150.27    6.24
   4 -11   3  104.83    4.58
  -4 -11  -3  102.32    5.10
  -4 -11  -3  113.74    5.44
  -4  11  -3  110.48    5.21
   4  11   3   96.38    5.81
   5 -11   3   16.41    2.83
  -5 -11  -3   25.05    4.41
  -5 -11  -3   25.95    3.50
   5  11   3   15.48    3.53
   6 -11   3    1.96    2.60
  -6 -11  -3   -4.46    3.44
  -6 -11  -3    9.55    3.76
   6  11   3   -0.36    3.94
  -6  11  -3   -2.69    3.37
  -7 -11  -3   15.98    5.18
   7 -11   3   12.79    4.09
   7  11   3    9.97    5.05
   7 -12  -3   21.88    4.49
  -7 -12   3   11.93    3.41
   7  12  -3    9.45    5.02
  -7  12   3   12.90    4.53
  -7  12   3   17.55    5.00
   6 -12  -3   -2.47    2.95
  -6 -12   3    1.70    2.29
  -6 -12   3    1.03    1.07
  -6  12   3   -1.90    3.25
  -6  12   3    5.00    3.63
   6  12  -3    4.35    3.52
  -5 -12   3    3.53    1.90
   5 -12  -3    2.79    2.32
   5  12  -3   -2.74    2.71
  -5  12   3    1.95    2.82
   4 -12  -3   50.63    3.75
  -4 -12   3   53.13    2.83
  -4  12   3   54.69    3.94
  -4  12   3   46.76    4.11
   4  12  -3   58.33    4.32
   3 -12  -3   71.53    3.68
   3  12  -3   67.72    3.86
  -3  12   3   68.84    3.83
  -3  12   3   67.37    4.31
  -3  12   3   73.96    3.96
   2 -12  -3  161.84    5.21
  -2  12   3  163.45    5.31
  -2  12   3  166.38    5.96
   2  12  -3  162.83    4.47
  -2  12   3  153.63    5.54
   2  12  -3  156.65    5.27
   1 -12  -3   41.77    2.75
   1  12  -3   40.72    2.15
  -1  12   3   40.52    2.55
   1  12  -3   41.09    2.48
  -1  12   3   41.73    3.10
  -1  12   3   44.30    3.11
   0 -12  -3  104.89    4.12
   0 -12  -3  101.62    4.02
   0  12  -3  110.24    3.60
   0  12   3   98.67    4.57
   0  12   3  102.02    3.83
   0  12  -3  109.13    3.57
   0  12   3  104.19    4.51
  -1 -12  -3  105.06    4.32
   1  12   3  110.91    4.86
   1  12   3  112.15    4.88
  -1  12  -3  118.00    4.01
   2 -12   3  264.63    6.90
  -2 -12  -3  255.84    7.70
  -2 -12  -3  254.94    8.20
   2  12   3  255.21    8.15
  -2  12  -3  255.82    7.32
   2  12   3  266.49    8.36
   3 -12   3   15.57    2.12
  -3 -12  -3   10.03    2.40
  -3 -12  -3   14.59    2.48
   3  12   3   15.55    3.13
   3  12   3   17.54    2.93
  -4 -12  -3   12.39    2.69
  -4 -12  -3   15.67    2.99
   4 -12   3   11.60    2.35
   4  12   3   15.56    3.49
  -4  12  -3   12.48    2.63
   5 -12   3    7.22    2.68
  -5 -12  -3    8.77    3.03
   5  12   3   11.40    3.57
   6 -12   3    4.67    3.10
  -6 -12  -3    2.74    3.73
  -6 -12  -3   10.96    3.87
   6  12   3    0.38    3.76
  -6  12  -3    7.02    3.79
  -7 -12  -3   22.07    5.47
   7 -12   3    4.60    4.04
   7  12   3    6.40    5.28
  -7 -13   3   -1.72    3.40
   7 -13  -3    5.35    3.95
  -7  13   3    5.13    4.37
   7  13  -3    8.40    4.86
   6 -13  -3    0.25    3.06
  -6  13   3    0.18    3.44
   6  13  -3    3.01    3.81
  -5 -13   3   10.82    2.05
   5 -13  -3    7.83    2.74
   5  13  -3   11.69    3.28
  -5  13   3   11.42    3.59
  -4 -13   3    8.00    1.70
  -4  13   3   12.97    2.51
   4  13  -3    6.72    2.73
  -4  13   3   12.05    3.08
   3 -13  -3   21.25    2.82
  -3  13   3   14.23    2.73
   3  13  -3   17.77    2.62
  -3  13   3   20.25    2.67
  -3  13   3   24.10    3.19
   2 -13  -3   61.34    3.37
  -2  13   3   67.82    3.83
   2  13  -3   61.97    3.48
  -2  13   3   67.30    3.48
  -2  13   3   63.73    4.11
   1  13  -3   75.48    3.37
   1  13  -3   78.08    3.01
  -1  13   3   73.26    4.14
  -1  13   3   70.00    3.94
  -1  13   3   75.99    3.45
   0 -13  -3   12.74    2.01
   0  13  -3   12.79    1.67
   0  13   3   10.75    2.18
   0  13  -3   13.44    1.79
   0  13   3   10.62    2.34
   0  13   3   13.22    1.83
   0  13  -3   12.46    1.63
  -1 -13  -3   23.09    2.54
  -1 -13  -3   18.57    2.54
   1  13   3   24.51    3.16
   1  13   3   18.76    2.76
  -1  13  -3   23.42    2.17
  -2 -13  -3  136.73    5.31
   2 -13   3  139.92    4.56
  -2 -13  -3  141.92    5.13
   2  13   3  135.13    5.95
   2  13   3  138.91    5.81
  -2  13  -3  139.52    5.04
   3 -13   3   26.84    2.77
  -3 -13  -3   30.05    3.40
   3  13   3   26.54    3.45
   3  13   3   26.53    3.75
  -3  13  -3   30.22    3.20
   4 -13   3   -0.67    1.79
  -4 -13  -3   -1.91    2.18
  -4 -13  -3   -4.50    2.32
   4  13   3   -2.85    2.81
  -4  13  -3    2.77    2.26
   5 -13   3    0.01    2.45
  -5 -13  -3    5.68    3.01
  -5  13  -3    0.32    2.33
   5  13   3   -4.58    3.22
  -6 -13  -3    5.16    4.06
  -6 -13  -3   12.94    3.93
   6 -13   3    2.05    3.19
   6  13   3    7.22    4.39
  -6  13  -3   11.52    3.82
  -7 -13  -3   -3.38    5.82
   7 -13   3    6.35    3.94
   7  13   3    3.26    5.43
   7 -14  -3   10.77    3.96
  -7  14   3   22.70    5.50
   7  14  -3   19.96    5.79
  -6 -14   3   -0.38    2.34
   6 -14  -3   -5.52    2.94
  -6  14   3    0.77    3.75
   6  14  -3    0.60    4.10
  -5 -14   3   14.36    2.24
   5 -14  -3   18.69    3.22
  -5  14   3   19.22    3.63
  -5  14   3   13.52    3.70
   5  14  -3   14.27    4.18
   4 -14  -3   48.42    4.00
  -4  14   3   46.91    6.26
  -4  14   3   45.23    4.69
   4  14  -3   46.15    4.45
  -4  14   3   39.48    4.44
   3 -14  -3  137.38    5.39
  -3  14   3  138.72    6.20
   3  14  -3  140.67    5.83
  -3  14   3  138.80    5.89
  -3  14   3  149.92    5.71
   2 -14  -3   88.17    4.09
   2  14  -3   91.22    4.25
  -2  14   3   94.84    4.66
  -2  14   3   87.76    4.76
   2  14  -3   90.53    3.45
   1  14  -3    5.07    1.59
  -1  14   3    6.81    1.67
   1  14  -3    4.68    1.43
  -1  14   3    6.43    2.34
  -1  14   3    5.59    2.05
   0 -14  -3   19.00    2.56
   0  14  -3   17.03    2.26
   0  14  -3   16.25    2.03
   0  14  -3   17.26    2.15
   0  14   3   16.14    2.63
   0  14   3   18.65    2.21
   0  14   3   14.35    2.53
  -1 -14  -3   43.39    3.24
  -1 -14  -3   43.20    3.08
   1  14   3   44.47    3.86
  -1  14  -3   45.57    2.98
   1  14   3   40.33    3.78
   1  14   3   44.40    2.91
  -1  14  -3   40.19    2.76
  -2 -14  -3   13.92    2.23
  -2 -14  -3   18.99    2.65
   2 -14   3   15.33    1.91
   2  14   3   10.53    2.66
  -2  14  -3   13.77    2.29
   2  14   3   12.39    2.91
  -3 -14  -3   -0.21    1.98
  -3 -14  -3   -2.09    1.98
   3 -14   3    0.46    1.68
  -3  14  -3    0.43    1.90
   3  14   3   -2.36    2.62
   3  14   3   -0.25    2.42
  -4 -14  -3   19.18    3.37
  -4 -14  -3   18.21    3.00
   4 -14   3   18.46    2.82
  -4  14  -3   11.12    2.61
   4  14   3   17.36    3.81
  -5 -14  -3   13.02    3.33
   5 -14   3    4.52    2.62
  -5 -14  -3   -1.27    2.73
   5  14   3    3.80    3.71
  -5  14  -3    5.66    3.36
   6 -14   3    3.02    3.27
  -6 -14  -3   10.46    3.96
  -6 -14  -3   -1.73    4.03
   6  14   3   -2.27    4.23
  -6 -15   3    0.40    2.36
   6 -15  -3    8.75    3.47
  -6  15   3   12.30    4.36
  -6  15   3    5.10    4.16
   6  15  -3    4.07    4.21
   5 -15  -3   60.89    5.12
  -5  15   3   53.43    5.77
   5  15  -3   60.13    5.86
  -5  15   3   62.87    5.34
  -5  15   3   53.68    5.19
   4 -15  -3   11.88    2.95
  -4  15   3   12.66    3.48
  -4  15   3   10.58    3.04
   4  15  -3   11.98    3.11
   3 -15  -3    7.45    2.21
  -3  15   3    9.37    2.84
  -3  15   3    6.67    2.54
   3  15  -3   12.30    2.79
  -3  15   3    7.15    2.40
   2 -15  -3   31.07    3.08
   2  15  -3   28.06    3.26
  -2  15   3   24.85    3.50
  -2  15   3   32.89    3.66
   2  15  -3   30.78    2.49
  -2  15   3   32.71    3.08
   1  15  -3  152.31    4.87
   1  15  -3  148.31    5.32
  -1  15   3  158.98    6.09
   1  15  -3  145.82    4.78
  -1  15   3  119.59    6.05
  -1  15   3  148.49    6.08
   0 -15  -3    1.48    1.74
   0  15  -3    3.36    1.54
   0  15   3    2.49    2.25
   0  15  -3    3.66    1.66
   0  15  -3    4.74    1.47
   0  15   3    2.92    2.33
  -1 -15  -3    4.66    1.86
  -1 -15  -3    4.34    1.95
  -1  15  -3    2.40    1.65
   1  15   3    4.92    1.68
   1  15   3    2.18    2.35
   1  15   3    2.73    2.32
  -1  15  -3    2.73    1.65
  -2 -15  -3   51.47    4.21
  -2 -15  -3   57.64    3.69
  -2  15  -3   60.26    3.75
   2  15   3   59.31    4.55
   2  15   3   63.85    4.79
  -3 -15  -3   28.23    3.59
   3 -15   3   19.05    2.41
  -3 -15  -3   23.42    3.29
   3  15   3   32.27    3.88
  -3  15  -3   28.51    3.35
   3  15   3   20.03    6.27
   4 -15   3    9.57    2.88
  -4 -15  -3   13.37    2.99
  -4  15  -3   12.57    2.72
   4  15   3   15.57    3.68
   5 -15   3   10.30    3.02
  -5 -15  -3   16.16    3.54
  -5 -15  -3    4.15    3.47
   5  15   3    3.50    4.15
  -5  15  -3    9.54    3.20
   6 -15   3    5.45    3.52
  -6 -15  -3   -3.33    4.52
   6  15   3    3.20    4.74
   6 -16  -3    6.48    3.74
   6  16  -3    7.00    4.84
  -6  16   3    4.70    4.46
  -6  16   3   -0.21    3.91
  -6  16   3   -1.19    4.94
   5 -16  -3   -5.67    2.67
  -5  16   3   -0.52    3.16
   5  16  -3   -3.08    3.52
  -5  16   3    1.39    3.13
   4 -16  -3   46.48    4.33
   4  16  -3   39.66    4.58
  -4  16   3   47.18    4.78
  -4  16   3   44.29    5.28
   3 -16  -3    0.10    2.10
  -3  16   3   -1.49    2.51
  -3  16   3   -3.00    2.46
   3  16  -3   -0.43    2.29
   2  16  -3   29.51    3.57
  -2  16   3   35.22    3.88
   2  16  -3   29.94    2.74
  -2  16   3   27.05    3.19
  -2  16   3   32.38    3.80
  -1  16   3    1.36    2.17
   1  16  -3    2.72    1.96
   1  16  -3    1.49    1.47
  -1  16   3   -0.61    2.23
   1  16  -3    2.27    1.53
  -1  16   3    0.20    1.70
   0 -16  -3   60.01    3.75
   0  16   3   58.99    3.50
   0  16   3   58.21    4.44
   0  16  -3   70.57    3.52
   0  16   3   63.03    4.57
   0  16  -3   60.65    3.59
   0  16  -3   68.14    3.41
  -1 -16  -3   16.75    2.54
  -1 -16  -3   15.50    2.40
   1  16   3   13.79    3.07
   1  16   3   20.62    2.73
  -1  16  -3   16.25    2.30
   1  16   3   18.52    3.27
  -2 -16  -3    1.42    1.99
  -2 -16  -3    2.45    2.16
   2  16   3    1.68    2.54
  -2  16  -3    5.12    2.12
  -2  16  -3    2.60    2.05
   2  16   3    1.74    2.69
  -3 -16  -3   21.27    2.89
   3 -16   3   15.85    2.37
  -3 -16  -3   23.36    3.37
   3  16   3   26.18    4.30
  -3  16  -3   20.15    3.08
   3  16   3   20.36    3.59
  -4 -16  -3   40.97    4.38
   4 -16   3   41.57    4.10
  -4  16  -3   33.23    4.53
   4  16   3   36.94    4.77
   5 -16   3    3.26    2.98
  -5 -16  -3   13.14    3.56
  -5 -16  -3   -5.11    3.43
   5  16   3    7.13    4.48
  -5  16  -3    3.19    3.37
   6 -16   3   13.81    3.92
  -6 -16  -3    0.36    4.77
   6  16   3   13.88    5.34
   6 -17  -3   19.02    4.55
  -6  17   3    8.71    4.24
   6  17  -3   16.55    5.43
  -6  17   3    0.47    4.39
   5 -17  -3    1.32    3.24
  -5  17   3    8.24    3.38
  -5  17   3    1.51    3.60
   5  17  -3    9.28    4.23
  -5  17   3    5.55    3.67
   4 -17  -3    0.52    2.54
  -4  17   3   -1.51    3.16
   4  17  -3    4.27    3.43
  -4  17   3   -1.09    2.72
  -4  17   3    4.48    3.24
   3 -17  -3   20.71    3.02
   3  17  -3   21.98    2.70
   3  17  -3   21.70    3.66
  -3  17   3   23.03    3.89
  -3  17   3   16.66    3.43
  -2  17   3   34.77    4.19
   2  17  -3   30.41    3.51
   2  17  -3   25.86    2.96
  -1  17   3   31.92    4.17
   1  17  -3   38.11    3.08
   1  17  -3   39.71    3.70
  -1  17   3   34.90    4.23
   0 -17  -3   67.92    4.05
   0  17  -3   76.18    4.11
   0  17  -3   70.39    3.82
   0  17  -3   68.36    4.18
   0  17   3   70.74    4.97
   0  17   3   72.40    5.03
  -1 -17  -3   24.12    2.84
   1  17   3   31.65    3.92
  -1  17  -3   23.76    3.15
  -1  17  -3   26.61    3.25
  -1  17  -3   26.55    3.01
   1  17   3   32.11    4.18
  -2 -17  -3   -3.00    1.95
  -2 -17  -3   -1.81    2.13
  -2  17  -3   -1.55    1.83
   2  17   3   -2.63    2.49
   2  17   3   -1.32    3.13
  -2  17  -3    2.75    2.29
   3 -17   3   21.63    2.69
  -3 -17  -3   30.52    3.92
  -3 -17  -3   18.75    2.90
   3  17   3   24.92    3.94
  -3  17  -3   16.50    2.94
   3  17   3   22.19    3.99
  -4 -17  -3   11.31    2.96
   4 -17   3   12.40    2.86
   4  17   3    4.85    3.85
  -4  17  -3    9.80    3.18
  -5 -17  -3    5.70    3.52
  -5 -17  -3    3.45    3.86
   5 -17   3    1.80    3.01
   5  17   3    3.40    4.41
  -5  17  -3    2.65    3.66
  -6 -17  -3    8.62    5.00
   6 -17   3    5.84    4.01
   6  17   3    4.78    5.34
   6 -18  -3   -3.14    3.85
  -6  18   3   -2.73    4.44
   6  18  -3    7.68    5.36
  -6  18   3   -2.69    4.73
   5 -18  -3    3.65    3.21
  -5  18   3    4.25    4.47
  -5  18   3   -3.55    3.91
   5  18  -3    4.63    4.10
  -5  18   3    2.51    3.52
   4 -18  -3   17.91    3.50
   4  18  -3   25.47    4.12
  -4  18   3   16.66    3.29
  -4  18   3   19.93    4.05
  -4  18   3   20.57    4.89
   3 -18  -3   24.18    3.21
  -3  18   3   20.14    3.14
  -3  18   3   27.30    4.04
   3  18  -3   26.05    4.03
   3  18  -3   31.58    2.98
  -3  18   3   19.28    3.76
  -2  18   3   35.13    4.66
   2  18  -3   31.81    4.33
  -2  18   3   31.55    4.02
   2  18  -3   34.89    3.33
  -1  18   3    0.50    2.63
   1  18  -3    3.66    1.79
   1  18  -3    2.78    1.99
   1  18  -3    4.81    2.44
  -1  18   3    3.45    2.86
   0  18  -3  165.04    5.77
   0  18  -3  165.91    5.89
   0  18  -3  173.75    6.35
   0  18   3  132.17    9.91
   0  18   3  159.51    6.98
  -1 -18  -3   12.54    2.45
  -1  18  -3   22.59    3.06
   1  18   3   12.56    3.29
   1  18   3   10.76    3.18
  -1  18  -3   11.58    2.50
  -1  18  -3   17.04    2.87
  -2 -18  -3   84.31    5.00
  -2 -18  -3   87.26    4.71
   2  18   3   99.17    6.11
  -2  18  -3   90.01    4.93
   2  18   3   93.38    6.33
  -2  18  -3   94.82    5.15
   3 -18   3    3.79    2.56
  -3 -18  -3    3.85    2.52
  -3  18  -3    1.90    2.74
   3  18   3    2.73    3.48
   3  18   3    4.14    3.33
  -3  18  -3    5.13    2.88
   4 -18   3    3.79    2.63
  -4 -18  -3   -0.64    3.09
  -4 -18  -3    6.81    2.88
   4  18   3   -1.06    3.65
  -4  18  -3    2.62    3.00
  -4  18  -3    7.73    4.05
  -5 -18  -3    3.81    4.16
  -5 -18  -3    5.02    3.56
   5 -18   3    6.88    3.36
   5  18   3   -0.77    4.73
   5 -19  -3   -0.16    3.42
   5  19  -3   -1.04    4.35
  -5  19   3   -0.78    4.13
  -5  19   3    0.15    4.02
   4 -19  -3    2.74    3.09
  -4  19   3    2.70    3.86
  -4  19   3    1.62    3.58
   4  19  -3    7.73    3.91
  -4  19   3    5.64    3.29
  -3  19   3    3.27    3.41
  -3  19   3    8.59    3.63
   3  19  -3    3.50    3.28
  -3  19   3    2.65    2.66
   3  19  -3    4.97    2.14
  -2  19   3    2.61    3.13
  -2  19   3    5.07    3.58
   2  19  -3    6.61    3.08
   2  19  -3    8.42    2.40
  -1  19   3   73.02    5.60
   1  19  -3   76.14    5.10
   1  19  -3   70.87    4.09
  -1  19   3   81.88    5.75
   1  19  -3   73.97    4.30
   0  19  -3    5.67    2.61
   0  19  -3    0.33    1.98
   0  19  -3    0.22    2.11
   0  19   3   -0.13    2.68
   0  19   3    3.20    3.02
  -1 -19  -3    2.67    2.54
   1  19   3   -1.17    2.88
  -1  19  -3    1.09    1.96
   1  19   3    0.45    2.92
  -1  19  -3    0.25    2.39
  -2 -19  -3   13.56    2.89
   2  19   3   15.82    2.83
  -2  19  -3   17.36    3.23
   2  19   3   23.66    4.13
  -2  19  -3   12.46    2.77
   2  19   3   10.33    3.59
  -2  19  -3   14.43    3.16
  -3 -19  -3   30.79    4.15
   3  19   3   33.02    4.72
  -3  19  -3   37.74    4.95
  -3  19  -3   28.66    3.67
   3  19   3   41.57    5.53
   4 -19   3    2.21    2.72
  -4 -19  -3    2.35    3.03
  -4 -19  -3    4.85    3.06
   4  19   3   -3.31    4.21
  -4  19  -3    1.27    3.69
  -4  19  -3    3.43    3.50
   5 -19   3   -4.77    3.16
  -5 -19  -3   -5.97    4.11
  -5  19  -3   -1.03    4.20
   5  19   3    0.97    4.75
   5 -20  -3   25.16    4.50
  -5  20   3   21.59    5.37
   5  20  -3   23.23    5.58
  -5  20   3   19.62    5.51
   4 -20  -3   13.00    3.56
   4  20  -3   12.34    4.30
  -4  20   3   11.58    4.66
  -4  20   3    7.38    4.18
  -4  20   3   15.39    3.68
  -3  20   3   29.13    5.39
   3  20  -3   32.28    3.56
   3  20  -3   32.39    4.77
  -3  20   3   34.64    4.58
  -3  20   3   34.77    4.77
  -2  20   3    4.11    3.39
   2  20  -3   -0.04    3.08
   2  20  -3    0.59    2.25
   2  20  -3   -1.09    2.05
  -2  20   3    0.06    2.33
  -2  20   3   -1.76    3.36
   1  20  -3    0.14    2.34
  -1  20   3   -1.73    3.15
   1  20  -3   -1.42    1.80
  -1  20   3    5.69    3.22
   1  20  -3    3.80    3.73
   0  20  -3   48.61    4.23
   0  20  -3   42.28    3.74
   0  20   3   47.70    5.45
   0  20   3   47.52    5.28
   0  20  -3   55.36    4.93
  -1  20  -3    0.70    2.51
  -1  20  -3   -0.93    2.19
   1  20   3    1.35    1.79
   1  20   3    5.56    3.58
  -1  20  -3    1.72    2.41
   1  20   3    0.23    3.48
  -2 -20  -3   21.87    3.34
  -2  20  -3   16.05    3.09
  -2  20  -3   21.73    3.61
   2  20   3   19.01    4.23
  -2  20  -3   20.56    3.47
   2  20   3   23.59    3.21
   2  20   3   25.25    4.48
  -3 -20  -3   -0.63    2.96
  -3 -20  -3    3.56    2.84
   3  20   3    5.31    3.72
   3  20   3    5.21    4.05
  -3  20  -3   -0.67    2.81
  -3  20  -3    7.72    3.34
  -4 -20  -3   17.91    3.57
   4 -20   3    9.81    3.13
  -4 -20  -3    4.41    3.44
  -4  20  -3   18.73    4.53
   4  20   3    4.02    4.18
   5 -20   3    5.94    3.53
  -5 -20  -3    2.25    4.35
  -5  20  -3    0.52    4.52
   5  20   3    8.55    5.59
   4 -21  -3   -3.88    3.25
  -4  21   3    0.72    4.40
  -4  21   3    3.71    4.52
   4  21  -3    7.66    4.46
  -3  21   3    6.79    4.20
  -3  21   3   12.23    3.46
  -3  21   3    9.10    4.43
   3  21  -3   12.50    2.66
   3  21  -3   22.92    4.49
  -2  21   3    1.82    2.71
   2  21  -3    2.04    2.42
   2  21  -3   -1.84    2.52
   2  21  -3    6.01    3.49
  -2  21   3   -1.05    3.54
  -2  21   3    2.83    3.69
  -1  21   3   53.32    5.88
   1  21  -3   45.91    5.23
   1  21  -3   50.58    4.08
  -1  21   3   35.01    3.98
   1  21  -3   44.51    4.42
  -1  21   3   50.28    5.63
   0  21  -3    1.98    2.24
   0  21   3    1.41    3.30
   0  21  -3    1.77    2.96
   0  21   3    1.77    2.33
   0  21  -3    3.98    2.68
   0  21   3   -0.25    3.59
   1  21   3    2.32    3.62
  -1  21  -3    4.20    2.43
   1  21   3   -0.83    2.43
  -1  21  -3   -0.43    2.68
   1  21   3    4.34    3.45
  -1  21  -3   -0.41    2.88
  -2 -21  -3    1.18    4.18
  -2  21  -3    4.45    2.99
   2  21   3    0.65    2.47
  -2  21  -3   -3.55    2.88
   2  21   3    2.06    3.66
  -2  21  -3    4.55    2.85
   2  21   3    0.18    3.80
  -3 -21  -3   36.62    4.53
   3  21   3   42.98    6.11
  -3  21  -3   42.62    5.13
   3  21   3   43.00    5.46
  -3  21  -3   44.09    5.00
  -4 -21  -3   -5.99    3.59
   4  21   3    0.39    4.75
  -4  21  -3    4.01    4.14
   4  22  -3   21.94    5.20
  -4  22   3   14.73    5.37
  -4  22   3   15.75    5.49
   3  22  -3    1.63    2.54
  -3  22   3    5.63    4.38
   3  22  -3    1.12    4.07
  -3  22   3    4.55    4.61
  -2  22   3    4.31    4.07
  -2  22   3    8.53    3.21
   2  22  -3    1.87    2.76
   2  22  -3    6.78    2.77
   2  22  -3    4.21    3.83
  -1  22   3   10.39    4.11
  -1  22   3   18.23    4.58
  -1  22   3   13.81    3.29
   1  22  -3   18.62    4.09
   1  22  -3    9.05    3.06
   1  22  -3   17.63    3.11
   0  22  -3   72.41    5.25
   0  22  -3   77.48    6.04
   0  22   3   71.83    6.67
   0  22  -3   69.69    4.80
   0  22   3   69.14    4.94
   0  22   3   77.24    6.84
   1  22   3    3.64    4.09
  -1  22  -3    0.84    3.09
   1  22   3   -4.38    2.47
  -1  22  -3    2.42    3.34
  -1  22  -3   -1.49    2.46
   1  22   3   -8.46    3.65
  -2  22  -3   -2.54    3.27
  -2  22  -3    3.27    3.72
   2  22   3   11.90    3.00
  -2  22  -3   12.10    3.45
   2  22   3    8.18    4.52
   2  22   3    2.62    4.30
   3  22   3    8.87    4.42
  -3  22  -3    5.03    3.55
   3  22   3   12.26    4.76
  -3  22  -3    9.70    4.22
  -4  22  -3   12.06    4.57
   4  22   3   18.91    5.83
   3  23  -3    8.52    2.91
  -3  23   3    8.95    4.93
  -3  23   3    2.26    5.09
   3  23  -3   -4.42    4.51
   3  23  -3    3.59    3.03
   2  23  -3   13.25    3.42
   2  23  -3    9.24    3.02
  -2  23   3   11.64    4.80
   2  23  -3   20.87    4.60
  -2  23   3    6.38    4.05
  -1  23   3   43.49    7.19
   1  23  -3   48.92    5.44
  -1  23   3   46.05    4.98
   1  23  -3   49.13    4.89
   1  23  -3   39.44    4.46
  -1  23   3   42.20    5.85
   0  23   3    5.55    4.07
   0  23   3    8.18    4.35
   0  23   3    1.16    2.66
   0  23  -3    4.52    3.95
   0  23  -3    1.00    3.17
   0  23  -3   -0.98    2.71
   1  23   3   -3.84    3.96
   1  23   3    4.38    4.33
  -1  23  -3    0.45    3.34
  -1  23  -3    1.89    2.91
   1  23   3   -0.54    2.71
  -1  23  -3   -4.66    3.54
   2  23   3    5.21    4.88
  -2  23  -3    4.82    3.32
  -2  23  -3    4.21    3.92
  -2  23  -3    5.48    5.95
   2  23   3    4.42    4.40
   3  23   3   50.79    6.82
   3  23   3   60.67    7.43
  -3  23  -3   46.16    5.90
  -3  23  -3   36.59    4.99
  -3  24   3    3.35    5.03
   3  24  -3    5.54    4.97
   3  24  -3    6.64    3.18
  -3  24   3   -5.45    4.89
   2  24  -3   17.98    5.09
  -2  24   3    7.73    4.81
   2  24  -3   10.10    3.53
  -2  24   3    8.64    5.01
   1  24  -3    7.05    2.95
  -1  24   3    3.26    4.75
   1  24  -3   -4.55    3.95
   1  24  -3   -1.26    3.35
  -1  24   3    3.87    4.78
   0  24  -3   25.63    4.36
   0  24  -3   28.34    3.97
   0  24  -3   25.81    4.55
   0  24   3   36.90    8.55
  -1  24  -3    0.24    4.18
  -1  24  -3   -5.93    3.86
   1  24   3    3.75    4.80
  -1  24  -3    1.35    3.81
   1  24   3    4.52    4.67
   2  24   3   47.79    6.26
  -2  24  -3   39.04    5.50
   2  24   3   58.66    7.50
  -2  24  -3   55.95    6.20
  -2  25   3   -0.11    5.17
   2  25  -3    1.96    5.24
   2  25  -3   10.60    3.89
  -2  25   3    2.11    5.00
   1  25  -3   12.38    4.93
  -1  25   3    6.22    4.88
  -1  25   3    9.39    5.10
   1  25  -3    6.85    3.94
   0  25  -3    7.67    4.01
   0  25   3    3.47    4.91
   0  25  -3    9.22    4.76
   0  25   3   -3.09    4.82
  -1  25  -3   14.24    4.87
   1  25   3    5.71    5.38
  -1  25  -3   10.49    7.21
   1  25   3   10.40    9.22
  -2  25  -3   -3.89    4.82
   2  25   3   -5.06    5.32
  -2  25  -3    7.02    4.59
  -8   0   4    7.70    3.63
   8   0  -4    4.20    3.91
   7   0  -4    3.12    3.11
  -7   0   4    3.18    3.15
  -7   0   4   -1.88    2.53
  -6   0   4   25.89    3.21
   6   0  -4   27.46    3.41
   5   0  -4   -1.74    1.71
  -5   0   4    1.19    1.68
   4   0  -4   15.87    1.99
  -4   0   4   14.43    1.87
  -4   0   4   13.03    1.74
  -3   0   4    0.09    0.87
   3   0  -4    0.44    0.93
  -3   0   4    0.44    0.84
  -2   0   4   22.90    1.44
   2   0  -4   23.29    1.30
  -2   0   4   25.27    1.02
  -2   0   4   21.35    1.01
   1   0  -4    0.17    0.33
   1   0  -4    0.02    0.32
  -1   0   4    0.01    0.65
   1   0  -4    0.13    0.57
   0   0  -4  127.76    3.01
   0   0   4  121.17    3.67
   0   0  -4  126.79    3.68
   0   0   4  121.55    2.77
   0   0   4  116.46    2.64
  -1   0  -4    0.09    0.64
   1   0   4   -0.42    0.56
  -2   0  -4  118.02    3.94
   2   0   4  116.93    3.81
   3   0   4   -1.89    1.18
  -3   0  -4   -0.22    1.36
   4   0   4  122.75    4.99
  -4   0  -4  120.83    5.14
   5   0   4    2.61    2.15
  -5   0  -4    2.42    2.29
  -6   0  -4   -3.10    2.19
   6   0   4    3.31    2.81
  -7   0  -4    7.59    3.87
   7   0   4    0.98    3.45
  -8  -1   4   17.64    6.44
  -8  -1   4   22.09    4.02
   8  -1  -4   17.26    4.62
   8   1  -4   20.13    4.88
  -8   1   4   14.35    4.07
  -7  -1   4    1.81    2.58
   7  -1  -4    7.31    3.37
  -7   1   4    0.76    3.15
  -7   1   4    7.08    2.92
   7   1  -4    7.85    3.46
  -6  -1   4    9.15    2.51
   6  -1  -4    3.38    2.48
  -6   1   4    5.62    2.51
   6   1  -4    5.45    2.53
  -5  -1   4   66.38    3.63
   5  -1  -4   70.87    3.99
   5   1  -4   64.56    3.98
  -5   1   4   71.37    3.80
   4  -1  -4   52.09    2.99
  -4  -1   4   57.64    2.55
  -4  -1   4   50.28    2.65
  -4   1   4   52.01    2.88
   4   1  -4   51.66    3.00
  -4   1   4   54.47    2.76
   3  -1  -4   22.39    1.81
  -3  -1   4   17.06    1.75
  -3  -1   4   23.78    1.52
  -3   1   4   19.58    1.67
  -3   1   4   20.83    1.77
   3   1  -4   21.97    1.79
   2  -1  -4    2.81    0.76
  -2  -1   4    3.62    0.76
  -2   1   4    4.61    0.71
   2   1  -4    2.48    0.67
  -2   1   4    4.74    1.19
  -2   1   4    3.22    0.69
   1  -1  -4  730.01   15.36
   1  -1  -4  753.99   15.82
   1  -1  -4  727.69   15.45
  -1  -1   4  715.15   15.73
  -1   1   4  743.13   15.99
  -1   1   4  709.33   15.15
   1   1  -4  755.15   15.64
   0  -1  -4    0.26    0.49
   0  -1  -4   -0.26    0.79
   0   1  -4    0.55    0.78
   0   1   4   -0.39    0.41
   0   1  -4   -0.04    0.29
   0   1   4   -0.05    0.27
   0   1   4   -0.46    0.86
  -1  -1  -4   36.74    1.81
   1  -1   4   38.82    1.55
  -1  -1  -4   34.76    2.21
   1   1   4   40.02    1.78
  -1   1  -4   37.39    1.70
   2  -1   4  170.47    4.76
  -2  -1  -4  163.36    4.99
  -2   1  -4  167.57    4.97
   2   1   4  167.00    4.91
   3  -1   4  228.04    6.55
  -3  -1  -4  224.76    6.81
   3   1   4  232.14    6.73
  -3   1  -4  230.87    6.87
  -4  -1  -4    5.62    1.96
   4  -1   4    7.10    2.04
   4   1   4    7.05    2.08
  -4   1  -4    7.33    2.06
  -5  -1  -4   -0.17    2.13
   5  -1   4   -1.44    1.92
  -5   1  -4    4.34    2.67
   5   1   4    1.60    2.29
  -6  -1  -4   -2.12    2.22
   6  -1   4   -1.15    2.49
  -6   1  -4   -4.31    2.34
   6   1   4   -2.77    2.70
  -7  -1  -4    3.93    3.99
   7  -1   4    8.49    3.47
   7   1   4    3.27    3.62
  -7   1  -4   12.81    4.04
  -8  -2   4   10.44    4.35
   8  -2  -4   18.17    4.53
  -8  -2   4   18.47    3.74
  -8   2   4    1.06    4.20
  -8   2   4   13.45    4.15
   8   2  -4   10.43    4.31
   7  -2  -4   13.79    3.58
  -7  -2   4   12.40    3.94
   7   2  -4   15.83    4.03
  -7   2   4   20.15    3.76
  -7   2   4   16.89    3.45
  -6  -2   4   12.72    2.58
   6  -2  -4    9.87    2.69
  -6   2   4    6.68    2.60
  -6   2   4   10.52    2.48
   6   2  -4   13.32    2.99
  -5  -2   4   14.28    2.11
   5  -2  -4   13.63    2.35
  -5   2   4   14.49    2.24
   5   2  -4   13.89    2.39
  -5   2   4    7.92    2.11
  -4  -2   4  233.96    6.04
  -4  -2   4  235.93    6.33
   4  -2  -4  246.18    6.88
  -4   2   4  237.69    6.72
  -4   2   4  236.76    6.58
   4   2  -4  238.21    6.88
   3  -2  -4   25.21    1.92
  -3  -2   4   25.82    1.50
  -3  -2   4   26.29    1.45
  -3   2   4   25.70    1.92
   3   2  -4   27.00    1.94
  -3   2   4   25.80    1.99
  -2  -2   4   96.03    2.59
   2  -2  -4   96.37    2.88
  -2   2   4   96.38    2.77
  -2   2   4   95.06    3.16
  -2   2   4   95.27    2.80
   2   2  -4   92.87    2.68
   1  -2  -4   81.68    2.60
   1  -2  -4   77.48    2.17
   1  -2  -4   77.47    2.29
  -1   2   4   75.96    2.09
  -1   2   4   81.91    2.25
  -1   2   4   73.64    3.09
   1   2  -4   84.69    2.28
   0  -2  -4   66.16    2.54
   0  -2  -4   67.91    2.19
   0   2   4   70.41    2.11
   0   2   4   65.63    1.84
   0   2  -4   58.97    2.34
   0   2  -4   67.48    1.57
  -1  -2  -4   58.83    2.66
   1  -2   4   58.22    1.85
  -1  -2  -4   55.84    2.31
  -1   2  -4   58.44    2.08
   1   2   4   60.37    2.29
   2  -2   4   76.56    2.78
  -2  -2  -4   75.55    3.48
  -2  -2  -4   70.41    3.10
  -2   2  -4   74.16    3.04
   2   2   4   73.14    3.11
  -3  -2  -4   18.15    2.39
   3  -2   4   14.75    1.99
  -3   2  -4   19.95    2.24
   3   2   4   19.97    2.26
   4  -2   4    2.23    1.63
  -4  -2  -4    2.31    1.94
  -4   2  -4    2.03    1.78
   4   2   4   -0.91    1.79
   5  -2   4   -0.17    1.99
  -5  -2  -4    1.98    2.25
   5   2   4   -1.25    2.00
  -6  -2  -4    0.68    2.37
   6  -2   4    8.33    2.85
   6   2   4    7.64    3.06
  -6   2  -4    4.18    2.74
   7  -2   4    8.48    3.53
  -7  -2  -4    9.72    4.20
  -7   2  -4    5.59    4.22
   7   2   4    5.63    3.60
  -8  -3   4   12.37    4.31
   8  -3  -4    5.51    3.93
  -8  -3   4    8.43    3.37
  -8   3   4   -0.99    4.52
   8   3  -4   17.40    4.98
  -8   3   4    9.46    4.16
   7  -3  -4    3.94    3.27
  -7  -3   4    5.84    3.17
  -7   3   4    5.63    3.51
  -7   3   4    2.24    2.96
   7   3  -4    3.66    3.60
  -6  -3   4    0.51    2.24
  -6   3   4    1.09    2.13
   6   3  -4    2.70    2.61
  -6   3   4    2.08    2.51
   5  -3  -4    9.97    2.26
  -5  -3   4    8.41    1.89
   5   3  -4    6.76    2.34
  -5   3   4   11.58    2.27
  -5   3   4   10.13    2.06
  -4  -3   4    9.49    1.47
   4  -3  -4   10.75    1.76
  -4   3   4   11.87    1.82
   4   3  -4   10.04    1.86
  -4   3   4   11.89    1.91
   3  -3  -4    2.83    1.09
  -3  -3   4    4.13    0.74
  -3  -3   4    3.04    0.79
  -3   3   4    5.61    1.38
   3   3  -4    1.58    1.08
  -3   3   4    2.08    1.09
  -2  -3   4    5.19    0.62
   2  -3  -4    5.56    0.96
  -2   3   4    4.87    0.88
   2   3  -4    5.85    0.79
  -2   3   4    5.23    1.16
  -2   3   4    8.16    1.04
   1  -3  -4   57.78    2.20
   1  -3  -4   58.37    1.97
   1  -3  -4   55.66    1.81
  -1   3   4   53.71    1.95
   1   3  -4   52.51    1.70
  -1   3   4   52.48    1.74
  -1   3   4   54.88    2.42
   0  -3  -4   25.16    1.66
   0  -3  -4   28.03    1.51
   0   3   4   26.51    1.17
   0   3   4   25.10    1.93
   0   3  -4   24.25    0.78
   0   3   4   28.17    1.47
  -1  -3  -4    0.99    1.18
   1  -3   4    2.54    0.56
  -1  -3  -4    1.22    0.90
   1   3   4    0.50    0.79
   1   3   4    2.41    1.26
  -1   3  -4    1.94    0.69
   2  -3   4  240.10    5.98
  -2  -3  -4  223.98    6.77
  -2  -3  -4  221.81    6.41
   2   3   4  231.23    6.44
  -2   3  -4  237.09    6.27
  -3  -3  -4  110.92    4.68
  -3  -3  -4  110.77    4.45
   3  -3   4  114.39    4.05
  -3   3  -4  109.64    4.33
   3   3   4  107.92    4.45
   4  -3   4    4.37    1.71
  -4  -3  -4    7.43    2.13
   4   3   4    2.65    1.94
  -4   3  -4    3.09    1.93
   5  -3   4   -1.45    2.04
  -5  -3  -4    1.51    2.36
   5   3   4   -1.71    2.25
   6  -3   4    5.32    2.86
  -6  -3  -4    1.98    2.48
  -6   3  -4    4.35    2.87
   6   3   4    7.83    3.08
  -7  -3  -4   27.05    4.85
   7  -3   4   17.38    3.99
  -7   3  -4   17.23    4.34
   7   3   4   23.68    4.78
   8  -4  -4    7.37    4.50
  -8  -4   4    8.16    3.33
   8   4  -4    6.52    4.29
  -8   4   4    8.08    4.71
  -8   4   4    7.79    4.30
   7  -4  -4   -3.75    3.03
  -7  -4   4   -1.04    2.93
  -7   4   4    3.17    3.03
   7   4  -4   -7.10    3.11
  -7   4   4    3.81    3.38
   6  -4  -4    9.78    2.72
  -6  -4   4   13.84    2.59
  -6   4   4   12.82    2.69
   6   4  -4    9.63    2.98
   5  -4  -4   14.61    2.40
  -5  -4   4   15.05    2.09
  -5   4   4   16.63    2.47
   5   4  -4   14.11    2.59
  -5   4   4   16.00    2.56
   4  -4  -4   74.46    3.50
  -4  -4   4   74.65    2.90
  -4   4   4   67.50    3.51
   4   4  -4   73.07    3.61
  -4   4   4   78.23    3.57
   3  -4  -4    3.39    1.20
  -3  -4   4    3.14    0.75
  -3  -4   4    2.61    0.62
  -3   4   4    2.77    1.19
   3   4  -4    2.34    1.13
  -3   4   4    3.08    1.27
   2  -4  -4  385.34    8.90
  -2   4   4  385.98    8.92
  -2   4   4  377.69    9.33
  -2   4   4  399.19    9.02
   2   4  -4  379.99    8.60
   1  -4  -4    2.88    0.77
   1  -4  -4    3.25    0.72
   1  -4  -4    2.77    0.91
  -1   4   4    2.70    1.08
  -1   4   4    4.07    0.88
  -1   4   4    2.78    0.66
   0  -4  -4  721.11   15.47
   0  -4  -4  691.67   15.16
   0   4  -4  674.48   14.32
   0   4   4  704.84   15.20
   0   4   4  674.94   15.58
   0   4   4  667.77   14.75
  -1  -4  -4    1.83    0.97
  -1  -4  -4    0.81    1.14
   1  -4   4    1.43    0.51
   1   4   4    1.52    1.23
   1   4   4    0.34    0.90
  -1   4  -4    1.11    0.67
  -2  -4  -4  183.15    5.82
  -2  -4  -4  181.00    5.56
   2  -4   4  186.73    4.93
  -2   4  -4  183.32    5.26
   2   4   4  182.67    5.58
   3  -4   4   12.52    1.81
  -3  -4  -4   12.14    2.25
  -3  -4  -4    8.96    1.76
   3   4   4    7.91    2.00
  -3   4  -4    9.37    1.78
  -4  -4  -4   64.47    4.03
  -4  -4  -4   65.87    4.18
   4  -4   4   60.06    3.54
  -4   4  -4   56.66    3.93
   4   4   4   69.83    4.25
  -5  -4  -4   20.54    3.11
   5  -4   4   32.94    3.53
  -5  -4  -4   29.48    3.72
   5   4   4   33.87    4.00
  -6  -4  -4   27.43    4.70
   6  -4   4   22.58    3.65
  -6   4  -4   15.28    3.48
   6   4   4   19.21    3.73
  -7  -4  -4    7.82    4.06
   7  -4   4    4.46    3.60
   7   4   4    8.94    3.83
  -7   4  -4   13.38    4.53
  -8  -5   4   13.54    3.31
  -8  -5   4    9.42    4.44
   8  -5  -4    9.69    4.43
   8   5  -4    8.76    4.61
  -8   5   4   11.39    4.94
  -7  -5   4   -2.03    2.92
   7  -5  -4    5.45    3.30
  -7   5   4   -0.84    3.16
   7   5  -4   -7.28    3.21
   6  -5  -4   23.44    3.39
  -6  -5   4   19.01    2.79
  -6   5   4   17.42    3.05
  -6   5   4   22.06    3.38
   6   5  -4   23.44    3.64
  -5  -5   4    5.24    1.72
   5  -5  -4    8.42    2.15
  -5   5   4    7.60    2.25
   5   5  -4    8.08    2.47
  -5   5   4    5.39    2.26
  -4  -5   4   -0.48    0.75
   4  -5  -4   -1.28    1.28
  -4  -5   4   -0.64    0.98
  -4   5   4   -0.02    1.50
  -4   5   4    1.56    1.55
   4   5  -4   -1.09    1.38
  -3  -5   4   51.16    1.40
  -3  -5   4   50.73    1.65
   3  -5  -4   55.08    2.67
   3   5  -4   54.68    2.64
  -3   5   4   56.27    2.73
  -3   5   4   55.97    2.97
   2  -5  -4   34.58    1.88
   2   5  -4   37.60    1.65
  -2   5   4   37.35    1.97
  -2   5   4   36.29    2.40
  -2   5   4   38.19    2.05
   1  -5  -4  287.92    7.00
   1  -5  -4  290.36    6.84
   1  -5  -4  297.62    7.22
  -1   5   4  286.34    6.78
  -1   5   4  287.87    7.49
  -1   5   4  288.94    7.14
   0  -5  -4  171.44    4.71
   0  -5  -4  170.67    4.88
   0   5   4  169.90    4.77
   0   5   4  173.96    5.18
   0   5   4  170.55    4.34
   0   5  -4  164.23    3.88
   1  -5   4  149.31    3.69
  -1  -5  -4  151.00    4.78
  -1  -5  -4  154.55    4.62
  -1   5  -4  147.60    3.97
   1   5   4  144.06    4.98
   1   5   4  154.39    4.65
  -2  -5  -4   -1.07    1.32
  -2  -5  -4   -0.27    1.16
   2  -5   4   -0.15    0.80
   2   5   4    0.98    1.28
  -2   5  -4   -0.88    0.96
   3  -5   4  126.50    4.29
  -3  -5  -4  124.26    4.84
  -3  -5  -4  130.72    5.18
   3   5   4  126.77    4.99
  -3   5  -4  122.02    4.66
   4  -5   4   56.28    3.45
  -4  -5  -4   61.29    4.22
  -4  -5  -4   61.94    4.07
   4   5   4   56.91    4.13
  -4   5  -4   55.73    3.88
   5  -5   4    4.91    2.25
  -5  -5  -4    9.79    3.01
  -5  -5  -4    1.80    2.48
   5   5   4    2.60    2.61
  -6  -5  -4    0.31    2.66
   6  -5   4    5.26    2.62
  -6  -5  -4   11.13    3.99
   6   5   4    1.65    3.02
  -6   5  -4   -0.23    3.07
   7  -5   4   11.62    3.96
  -7  -5  -4    3.33    3.98
  -7   5  -4   -1.41    3.99
   7   5   4   10.51    4.02
  -8  -6   4   10.13    3.00
   8  -6  -4   -0.88    4.00
   8   6  -4    8.62    4.94
  -8   6   4    2.30    4.93
  -8   6   4    4.18    4.63
  -7  -6   4   -1.24    2.77
   7  -6  -4    0.37    3.18
  -7  -6   4   11.04    5.35
   7   6  -4   -0.61    3.58
  -7   6   4    3.59    3.39
   6  -6  -4    1.54    2.36
  -6  -6   4    0.80    2.08
  -6  -6   4    1.12    2.17
  -6   6   4    0.68    2.69
  -6   6   4    2.65    2.55
   6   6  -4    3.46    2.98
   5  -6  -4    4.02    2.10
  -5  -6   4    4.59    1.61
  -5   6   4    5.09    2.16
   5   6  -4    3.53    2.31
  -5   6   4    5.13    2.29
  -4  -6   4   16.77    1.43
  -4  -6   4   12.85    1.66
   4  -6  -4   17.20    2.23
  -4  -6   4   15.50    1.15
   4   6  -4   18.31    2.25
  -4   6   4   19.54    2.44
  -4   6   4   14.38    2.22
   3  -6  -4   33.79    2.28
  -3  -6   4   32.62    1.24
  -3   6   4   36.05    2.40
  -3   6   4   32.84    2.69
   3   6  -4   30.32    2.19
   2  -6  -4   73.15    2.73
  -2   6   4   73.01    2.76
   2   6  -4   67.46    2.39
  -2   6   4   69.12    3.21
  -2   6   4   75.93    2.92
   1  -6  -4    2.03    1.05
   1  -6  -4    1.43    0.90
   1  -6  -4    0.79    0.75
  -1   6   4    1.17    1.22
  -1   6   4    1.03    0.98
  -1   6   4    0.37    0.69
   0  -6  -4   13.07    1.57
   0  -6  -4   13.56    1.61
   0   6   4   13.13    1.27
   0   6  -4   13.29    0.88
   0   6   4   13.99    1.88
   0   6   4   14.22    1.69
   1  -6   4    1.41    0.58
  -1  -6  -4   -0.05    1.16
  -1  -6  -4    0.40    1.02
   1   6   4   -0.17    1.32
  -1   6  -4    0.71    0.75
   1   6   4   -0.18    1.10
  -2  -6  -4   25.82    2.40
   2  -6   4   28.45    1.74
  -2  -6  -4   25.91    2.57
   2   6   4   27.75    2.79
   2   6   4   28.45    2.53
  -2   6  -4   29.86    2.07
  -3  -6  -4    6.54    1.84
   3  -6   4   14.10    1.77
  -3   6  -4   10.53    1.95
   3   6   4    8.36    1.94
  -4  -6  -4    1.32    2.23
   4  -6   4   -0.38    1.62
  -4  -6  -4    2.37    1.96
   4   6   4   -1.75    2.02
  -4   6  -4    3.76    1.97
   5  -6   4    3.97    2.15
  -5  -6  -4    1.30    2.60
  -5  -6  -4    2.74    2.93
   5   6   4    3.07    3.08
   6  -6   4    9.70    3.11
  -6  -6  -4    7.76    3.55
  -6  -6  -4   11.49    4.12
   6   6   4    6.00    3.57
  -6   6  -4   -0.74    2.67
   7  -6   4    1.95    3.53
  -7  -6  -4    6.45    4.30
  -7   6  -4    3.60    4.22
   7   6   4   -2.43    3.75
   8  -7  -4    1.25    4.32
  -8   7   4   -6.95    5.06
   8   7  -4   -0.57    4.66
  -7  -7   4   16.83    3.21
  -7  -7   4   16.17    3.10
   7  -7  -4   14.79    3.90
  -7  -7   4   14.78    2.33
   7   7  -4   12.87    4.24
  -7   7   4   17.36    4.13
   6  -7  -4    1.25    2.55
  -6  -7   4    3.27    2.12
  -6  -7   4    5.06    2.05
  -6   7   4    1.04    2.80
   6   7  -4    6.92    3.15
  -6   7   4    5.35    2.76
  -5  -7   4   57.37    3.02
  -5  -7   4   62.55    2.71
   5  -7  -4   58.32    3.86
   5   7  -4   53.97    4.32
  -5   7   4   55.73    4.15
  -5   7   4   52.42    4.01
  -4  -7   4    3.43    0.57
  -4  -7   4    2.80    1.07
   4  -7  -4    3.62    1.73
  -4   7   4    6.59    2.05
   4   7  -4    3.80    1.69
  -4   7   4    5.28    1.87
   3  -7  -4   10.67    1.60
  -3   7   4   10.70    1.64
  -3   7   4   13.03    2.15
  -3   7   4    8.21    1.48
   3   7  -4    9.65    1.56
   2  -7  -4   17.36    1.70
  -2   7   4   16.69    2.00
  -2   7   4   16.23    1.73
  -2   7   4   18.10    1.94
   2   7  -4   17.24    1.47
   1  -7  -4  492.23   11.43
   1  -7  -4  476.90   11.09
   1  -7  -4  483.82   11.27
  -1   7   4  482.68   11.78
  -1   7   4  493.08   11.09
  -1   7   4  490.34   11.53
   0  -7  -4   21.61    2.00
   0  -7  -4   24.73    1.91
   0   7   4   24.20    1.61
   0   7   4   23.19    2.22
   0   7   4   23.37    2.06
   0   7  -4   21.96    1.20
  -1  -7  -4    0.89    1.25
   1  -7   4    0.97    0.62
  -1  -7  -4    0.30    1.19
   1   7   4   -1.50    1.47
  -1   7  -4    0.56    0.76
   1   7   4    0.24    1.18
  -2  -7  -4   78.15    3.65
   2  -7   4   81.76    2.84
  -2  -7  -4   80.07    3.73
   2   7   4   72.89    3.70
  -2   7  -4   81.27    3.21
   2   7   4   78.96    3.99
  -3  -7  -4  142.00    6.41
  -3  -7  -4  158.18    5.70
   3  -7   4  164.14    4.94
   3   7   4  156.61    5.91
  -3   7  -4  161.75    5.42
  -4  -7  -4    1.01    2.06
  -4  -7  -4    1.20    2.88
   4  -7   4    0.71    1.53
  -4   7  -4   -0.78    3.21
   4   7   4   -1.43    1.94
   5  -7   4   23.69    2.93
  -5  -7  -4   16.73    3.25
  -5  -7  -4   23.74    3.78
   5   7   4   17.40    4.69
  -6  -7  -4    1.57    3.33
   6  -7   4    1.06    2.80
  -6  -7  -4   -1.23    3.76
   6   7   4    0.34    3.27
  -6   7  -4    2.32    3.15
  -7  -7  -4   10.05    4.77
   7  -7   4   10.37    3.72
   7   7   4   13.93    4.55
  -7  -8   4    0.96    2.79
  -7  -8   4    4.08    1.91
  -7  -8   4    7.64    2.52
   7  -8  -4    6.61    3.44
  -7   8   4   15.34    4.06
  -7   8   4   -3.04    3.54
   7   8  -4    1.23    4.03
   6  -8  -4    0.08    2.55
  -6  -8   4    6.60    1.82
  -6  -8   4    0.69    2.04
  -6   8   4    4.68    3.01
  -6   8   4   -0.12    2.91
   6   8  -4    3.13    4.27
   5  -8  -4   17.63    2.59
  -5  -8   4   20.35    1.73
  -5  -8   4   19.68    2.33
  -5   8   4   26.78    3.32
   5   8  -4   22.99    3.23
   4  -8  -4   59.75    3.48
  -4  -8   4   61.86    2.44
   4   8  -4   71.06    3.82
  -4   8   4   60.48    3.72
  -4   8   4   64.08    3.95
   3  -8  -4  139.56    4.69
   3   8  -4  144.98    4.71
  -3   8   4  145.74    4.83
  -3   8   4  137.66    5.20
  -3   8   4  141.85    4.81
   2  -8  -4   77.49    3.08
  -2   8   4   77.19    3.32
  -2   8   4   78.37    3.70
  -2   8   4   73.96    3.08
   2   8  -4   81.94    2.81
   1  -8  -4    6.27    1.37
   1  -8  -4    4.38    1.34
   1  -8  -4    3.52    1.06
  -1   8   4    5.17    1.41
   1   8  -4    5.92    0.79
  -1   8   4    3.73    0.99
  -1   8   4    5.05    1.61
   0  -8  -4  378.83    9.25
   0  -8  -4  364.96    9.11
   0   8  -4  365.32    8.31
   0   8   4  364.17    8.76
   0   8   4  370.33    9.66
   0   8   4  367.37    9.36
   1  -8   4  125.86    3.40
  -1  -8  -4  125.82    4.39
  -1  -8  -4  126.43    4.49
  -1   8  -4  126.05    3.71
   1   8   4  125.43    4.61
   1   8   4  123.69    4.83
   2  -8   4   15.05    1.54
  -2  -8  -4   17.27    2.27
  -2  -8  -4   16.68    2.22
   2   8   4   15.30    2.40
   2   8   4   17.52    2.36
  -2   8  -4   15.19    1.82
   3  -8   4   -1.22    1.08
  -3  -8  -4    0.96    1.84
  -3  -8  -4    0.19    1.78
   3   8   4   -0.18    1.87
  -3   8  -4   -1.16    1.40
  -4  -8  -4   70.76    4.50
   4  -8   4   69.22    3.72
  -4  -8  -4   74.39    4.64
   4   8   4   64.87    4.63
  -4   8  -4   68.98    4.28
   5  -8   4    3.39    2.34
  -5  -8  -4    8.70    3.09
  -5  -8  -4    7.58    2.71
   5   8   4    5.05    2.91
   6  -8   4    0.29    2.55
  -6  -8  -4    3.57    3.24
  -6  -8  -4   11.32    4.08
  -6   8  -4   -0.41    3.30
   6   8   4    5.73    3.53
  -7  -8  -4   20.51    4.93
   7  -8   4   20.45    4.28
   7   8   4   21.21    4.95
  -7  -9   4    6.78    2.61
  -7  -9   4    1.61    2.84
   7  -9  -4    1.55    3.11
  -7   9   4    8.64    4.18
  -7   9   4    1.75    5.08
   7   9  -4   -0.39    3.91
  -6  -9   4    5.37    1.41
  -6  -9   4    3.10    2.07
   6  -9  -4    6.42    3.01
  -6  -9   4    2.30    1.17
   6   9  -4    4.83    6.09
  -6   9   4    3.88    2.92
   5  -9  -4   29.61    3.88
  -5  -9   4   23.83    2.38
   5   9  -4   22.63    3.32
  -5   9   4   25.65    3.28
  -5   9   4   23.49    3.42
  -4  -9   4    1.53    1.03
   4  -9  -4    1.28    1.68
  -4   9   4    2.10    1.71
  -4   9   4   -0.23    1.93
   4   9  -4   -1.65    1.63
   3  -9  -4   20.59    2.31
   3   9  -4   18.53    2.19
  -3   9   4   21.06    2.46
  -3   9   4   22.79    2.42
  -3   9   4   21.95    2.73
   2  -9  -4   20.45    1.99
  -2   9   4   23.84    2.32
  -2   9   4   20.01    2.43
  -2   9   4   21.95    2.05
   2   9  -4   22.71    1.84
   1  -9  -4  115.92    4.08
   1  -9  -4  113.40    3.77
   1   9  -4  108.44    2.95
   1   9  -4  109.36    3.21
  -1   9   4  111.56    4.18
  -1   9   4  113.49    4.45
  -1   9   4  110.51    3.67
   0  -9  -4   36.51    2.49
   0  -9  -4   35.06    2.36
   0   9   4   35.47    2.63
   0   9  -4   35.97    1.71
   0   9   4   38.42    2.12
   0   9   4   32.53    2.84
  -1  -9  -4    3.69    1.62
  -1  -9  -4    3.62    1.47
   1  -9   4    2.17    0.75
   1   9   4    2.18    1.50
  -1   9  -4    3.70    1.06
   1   9   4    3.30    1.76
   2  -9   4    1.62    0.98
  -2  -9  -4    2.61    1.57
  -2  -9  -4   -0.80    1.43
   2   9   4   -0.96    1.75
   2   9   4   -1.25    1.51
  -2   9  -4    1.27    1.21
  -3  -9  -4   56.65    3.74
   3  -9   4   54.55    2.88
  -3  -9  -4   57.27    3.75
  -3   9  -4   54.02    3.32
   3   9   4   54.40    3.99
   4  -9   4    1.49    1.75
  -4  -9  -4    1.63    2.15
  -4  -9  -4    0.87    2.28
  -4   9  -4    1.10    2.05
   4   9   4   -0.37    2.19
  -5  -9  -4   21.76    3.70
   5   9   4   13.58    3.64
  -6  -9  -4   21.56    4.57
   6  -9   4   12.63    3.07
  -6  -9  -4   10.75    3.73
   6   9   4   13.11    4.30
  -6   9  -4   15.01    3.89
   7  -9   4    1.06    3.64
  -7  -9  -4   -5.33    4.63
   7   9   4    2.47    4.66
   7 -10  -4    3.44    3.26
  -7 -10   4    3.81    2.67
   7  10  -4    4.01    4.19
  -7  10   4    3.03    4.25
  -7  10   4   -2.97    3.97
   6 -10  -4    1.39    2.81
  -6 -10   4    2.01    1.95
   6  10  -4    1.02    3.38
  -6  10   4   -0.42    3.02
  -5 -10   4    3.88    1.48
   5 -10  -4    1.65    2.18
  -5  10   4    0.55    2.37
   5  10  -4    4.50    2.58
  -5  10   4    2.55    2.66
  -4 -10   4   51.37    2.22
   4 -10  -4   51.46    3.53
   4  10  -4   50.42    3.75
  -4  10   4   55.74    4.12
  -4  10   4   57.58    3.78
   3 -10  -4    1.89    1.47
   3  10  -4    0.53    1.36
  -3  10   4    0.12    1.86
  -3  10   4    0.44    1.59
  -3  10   4    1.19    1.49
   2 -10  -4   51.91    2.82
  -2  10   4   49.06    3.27
   2  10  -4   54.07    2.62
  -2  10   4   52.32    2.83
  -2  10   4   53.65    3.14
   2  10  -4   51.58    1.60
   1 -10  -4    3.64    1.60
   1 -10  -4    1.12    1.16
  -1  10   4    2.36    1.70
   1  10  -4    3.57    0.95
   1  10  -4    1.83    0.76
  -1  10   4    1.58    1.47
  -1  10   4    1.61    1.06
   0 -10  -4  196.33    5.95
   0  10   4  194.88    6.18
   0  10  -4  194.98    5.07
   0  10   4  195.34    6.39
   0  10   4  193.59    5.49
  -1 -10  -4    2.09    1.40
  -1 -10  -4    3.85    1.62
  -1  10  -4    2.92    1.11
   1  10   4    1.24    1.53
   1  10   4    1.57    1.67
   2 -10   4  212.00    5.58
  -2 -10  -4  190.72    7.16
  -2 -10  -4  209.60    6.64
  -2  10  -4  205.69    6.05
   2  10   4  208.58    7.04
   2  10   4  207.25    6.98
  -3 -10  -4    3.59    2.10
  -3 -10  -4    2.40    2.08
   3 -10   4    0.86    1.27
   3  10   4    2.53    2.04
  -3  10  -4    3.23    1.66
  -4 -10  -4   66.80    4.53
   4 -10   4   64.22    3.70
  -4 -10  -4   56.06    4.41
  -4  10  -4   66.89    4.30
   4  10   4   60.52    4.92
  -5 -10  -4   43.14    4.86
   5 -10   4   34.60    3.89
   5  10   4   43.05    5.13
  -6 -10  -4   44.19    5.88
  -6 -10  -4   34.75    4.91
   6 -10   4   38.80    4.28
   6  10   4   35.60    5.08
  -6  10  -4   31.02    4.29
   7 -10   4   -0.16    3.49
  -7 -10  -4   -5.45    4.95
   7  10   4    5.44    5.04
  -7 -11   4   -1.36    2.35
   7 -11  -4    9.43    3.81
  -7  11   4    4.78    4.46
   7  11  -4    3.75    4.54
  -7  11   4    5.33    4.53
   6 -11  -4   35.36    4.65
  -6 -11   4   28.42    2.99
  -6  11   4   32.44    4.28
  -6  11   4   27.39    4.27
   6  11  -4   31.86    4.33
  -5 -11   4   11.85    1.69
   5 -11  -4   14.06    2.73
   5  11  -4   10.11    2.97
  -5  11   4    6.97    2.99
  -5  11   4   13.55    3.01
   4 -11  -4   33.86    3.24
  -4  11   4   31.40    3.41
  -4  11   4   30.88    3.43
  -4  11   4   34.95    4.05
   4  11  -4   32.07    3.53
   3 -11  -4    1.37    1.50
   3  11  -4    2.27    1.59
  -3  11   4    1.57    1.79
  -3  11   4    0.36    2.07
  -3  11   4    1.60    1.56
   2 -11  -4  221.63    6.40
   2  11  -4  227.03    5.25
  -2  11   4  218.34    6.44
  -2  11   4  221.19    7.15
  -2  11   4  228.49    6.90
   2  11  -4  220.41    6.25
   1 -11  -4   50.33    2.85
   1  11  -4   47.11    2.28
  -1  11   4   49.72    3.46
  -1  11   4   42.59    2.57
  -1  11   4   48.62    3.23
   0 -11  -4  245.81    6.99
   0 -11  -4  243.81    6.96
   0  11   4  244.70    7.58
   0  11   4  248.68    6.70
   0  11   4  246.58    7.42
   0  11  -4  244.08    6.24
  -1 -11  -4    1.67    1.58
  -1 -11  -4    1.81    1.51
  -1  11  -4    1.17    1.08
   1  11   4   -1.80    1.72
   1  11   4    1.54    1.72
  -2 -11  -4  229.08    7.30
  -2 -11  -4  244.75    7.33
   2 -11   4  247.83    6.36
   2  11   4  233.39    7.78
  -2  11  -4  239.21    6.82
   2  11   4  232.87    7.83
   3 -11   4  140.95    4.79
  -3 -11  -4  131.74    5.49
  -3 -11  -4  144.20    5.93
   3  11   4  137.02    6.10
  -3  11  -4  148.23    5.49
  -4 -11  -4    3.57    2.46
  -4 -11  -4    3.65    2.56
   4 -11   4    4.94    2.01
   4  11   4    3.57    2.82
  -4  11  -4    1.53    2.00
   5 -11   4    7.06    2.62
  -5 -11  -4   12.39    3.19
   5  11   4    7.54    3.61
  -5  11  -4    5.59    2.97
  -6 -11  -4   -7.04    3.65
  -6 -11  -4   12.64    4.55
   6 -11   4    2.61    2.98
  -6  11  -4    0.36    3.58
   6  11   4   -5.34    3.54
   7 -11   4   11.06    3.75
   7  11   4   22.07    5.37
   7 -12  -4    8.83    3.94
  -7 -12   4    1.93    3.83
  -7  12   4   -2.60    4.43
  -7  12   4   13.34    4.96
   7  12  -4    4.10    4.60
  -6 -12   4    8.41    1.99
   6 -12  -4   13.21    3.48
   6  12  -4   17.24    4.04
  -6  12   4    6.66    3.76
  -6  12   4   14.10    3.87
   5 -12  -4    2.48    2.33
  -5 -12   4    4.02    1.49
   5  12  -4   -1.70    2.62
  -5  12   4    4.66    3.05
   4 -12  -4   30.18    3.49
  -4  12   4   30.99    4.30
  -4  12   4   39.10    3.65
  -4  12   4   31.27    3.69
   4  12  -4   30.94    3.34
   3 -12  -4   21.78    2.52
  -3  12   4   24.41    3.21
   3  12  -4   22.02    2.82
  -3  12   4   24.20    3.28
  -3  12   4   25.03    2.88
   2 -12  -4    5.71    1.68
  -2  12   4    2.42    2.14
   2  12  -4    3.41    0.97
  -2  12   4    7.22    2.13
  -2  12   4    6.60    1.66
   2  12  -4    5.10    1.53
   1 -12  -4    8.56    1.92
   1  12  -4   10.49    1.50
  -1  12   4    7.36    2.11
   1  12  -4   10.69    1.29
  -1  12   4    5.77    1.48
  -1  12   4    6.65    1.94
   0 -12  -4   12.79    2.01
   0 -12  -4   13.50    2.04
   0  12   4    9.23    2.24
   0  12   4   11.03    2.19
   0  12   4   15.03    2.03
   0  12  -4   13.27    1.57
  -1 -12  -4   72.32    3.66
  -1 -12  -4   69.09    3.67
   1  12   4   73.53    4.22
  -1  12  -4   71.14    3.08
   1  12   4   64.38    4.12
  -2 -12  -4   -0.21    1.79
   2 -12   4   -0.12    1.17
  -2 -12  -4    0.45    1.80
  -2  12  -4   -0.10    1.35
   2  12   4   -2.49    2.10
   2  12   4   -1.11    1.90
  -3 -12  -4   10.12    2.46
  -3 -12  -4    9.72    2.36
   3 -12   4   11.36    1.88
   3  12   4    8.64    2.72
  -3  12  -4   11.67    2.37
  -4 -12  -4   33.13    4.28
   4 -12   4   35.19    3.34
  -4 -12  -4   31.67    3.93
   4  12   4   42.24    5.39
  -4  12  -4   28.21    3.37
   5 -12   4    2.10    2.40
  -5 -12  -4   10.39    3.32
  -5 -12  -4    1.52    2.67
   5  12   4    4.59    3.55
  -5  12  -4   10.70    3.16
  -6 -12  -4    0.55    3.92
   6 -12   4    2.56    2.96
  -6  12  -4    5.98    4.23
   6  12   4    3.85    4.33
   7 -12   4    1.90    3.72
   7  12   4   15.33    5.79
   7 -13  -4   47.23    6.21
   7  13  -4   61.00    7.91
  -7  13   4   50.96    7.20
  -7  13   4   43.99    5.85
  -6 -13   4   16.13    2.16
   6 -13  -4   16.23    3.56
   6  13  -4   28.71    4.56
  -6  13   4   14.77    4.09
  -6  13   4   14.73    6.94
   5 -13  -4   31.96    4.33
  -5  13   4   29.59    3.79
   5  13  -4   33.49    4.19
  -5  13   4   38.15    4.57
   4 -13  -4    2.25    2.79
  -4  13   4    5.04    2.52
  -4  13   4    6.82    2.91
   4  13  -4    2.92    2.42
  -4  13   4    5.31    2.35
   3 -13  -4  115.90    4.83
  -3  13   4  116.02    5.74
  -3  13   4  114.12    5.27
   3  13  -4  114.97    4.99
  -3  13   4  120.91    5.04
   2 -13  -4    4.56    1.69
   2  13  -4    1.30    1.04
   2  13  -4    2.49    1.55
  -2  13   4    4.20    1.62
  -2  13   4    2.76    2.28
  -2  13   4    4.33    2.17
   1 -13  -4  220.53    6.77
  -1  13   4  220.16    7.19
   1  13  -4  213.83    5.72
  -1  13   4  220.25    7.42
  -1  13   4  222.25    6.51
   1  13  -4  218.93    6.20
   0 -13  -4   15.12    2.19
   0 -13  -4   19.20    2.53
   0  13   4   23.83    2.97
   0  13  -4   15.63    1.92
   0  13   4   18.08    2.07
   0  13   4   14.18    2.59
   0  13  -4   13.40    1.84
  -1 -13  -4    1.68    1.68
  -1 -13  -4    4.05    1.83
   1  13   4    2.17    2.32
  -1  13  -4    2.54    1.30
   1  13   4    2.06    1.60
   1  13   4    0.88    2.04
  -2 -13  -4    3.27    1.91
   2 -13   4    2.07    1.28
  -2 -13  -4    1.26    1.96
   2  13   4    2.00    2.21
   2  13   4    3.04    2.44
  -2  13  -4    2.43    1.64
   3 -13   4    4.15    1.65
  -3 -13  -4    3.40    2.35
  -3 -13  -4    5.49    2.44
   3  13   4    7.50    2.83
  -3  13  -4    3.79    1.88
   3  13   4    3.65    2.94
  -4 -13  -4   55.76    4.70
   4 -13   4   62.63    3.96
  -4 -13  -4   61.82    4.50
   4  13   4   55.83    5.44
  -4  13  -4   51.90    4.42
   5 -13   4    7.32    2.78
  -5 -13  -4    8.53    3.48
  -5 -13  -4    0.28    2.92
  -5  13  -4    9.11    3.12
   5  13   4   11.19    3.73
   6 -13   4    1.15    2.97
  -6 -13  -4    3.66    4.07
   6  13   4   -1.86    4.40
   7 -14  -4    8.49    4.34
   6 -14  -4   -2.39    3.23
  -6  14   4   -0.67    3.46
  -6  14   4   -2.76    3.98
   6  14  -4    8.80    4.22
  -6  14   4    0.58    3.79
   5 -14  -4   38.49    4.54
   5  14  -4   36.65    6.89
  -5  14   4   38.04    4.84
  -5  14   4   38.01    4.68
   4 -14  -4    0.59    2.27
  -4  14   4    1.87    3.15
   4  14  -4    4.55    2.52
  -4  14   4   -0.31    2.62
  -4  14   4   -0.10    2.49
   3 -14  -4   40.73    3.52
  -3  14   4   35.67    4.28
   3  14  -4   39.18    3.71
  -3  14   4   44.86    3.56
  -3  14   4   38.24    3.98
   2 -14  -4   10.23    2.00
  -2  14   4   15.00    3.83
  -2  14   4   11.34    2.84
  -2  14   4   15.88    2.89
   2  14  -4    8.50    1.95
   1 -14  -4   18.98    2.64
  -1  14   4   19.01    2.93
  -1  14   4   19.92    2.32
  -1  14   4   21.32    2.78
   1  14  -4   22.64    2.03
   1  14  -4   23.89    2.43
   1  14  -4   25.34    2.12
   0 -14  -4   12.69    2.16
   0 -14  -4   15.38    2.20
   0  14  -4   18.12    2.19
   0  14  -4   17.93    2.15
   0  14   4   16.27    2.80
   0  14  -4   16.54    2.03
   0  14   4   23.22    3.24
   0  14   4   18.46    2.13
  -1 -14  -4  172.94    5.87
  -1 -14  -4  164.73    5.84
   1  14   4  148.12    6.70
   1  14   4  166.91    6.68
   1  14   4  157.88    6.56
  -1  14  -4  170.29    5.34
  -2 -14  -4   -0.48    1.83
  -2 -14  -4   -1.62    1.91
   2 -14   4    1.46    1.36
   2  14   4   -0.06    2.36
   2  14   4    1.71    2.59
  -2  14  -4    1.98    1.70
  -3 -14  -4    2.68    2.33
  -3 -14  -4    0.15    2.24
   3 -14   4    2.54    1.73
   3  14   4   -1.74    2.49
   3  14   4    0.44    2.62
  -3  14  -4    1.35    1.95
  -4 -14  -4   13.87    3.12
   4 -14   4    5.71    2.34
   4  14   4    9.78    3.44
  -4  14  -4    8.49    2.71
   5 -14   4   33.18    3.72
  -5 -14  -4   26.86    3.86
  -5 -14  -4   33.36    4.44
  -5  14  -4   33.21    4.49
   5  14   4   29.32    5.23
   6 -14   4   10.68    3.42
  -6 -14  -4   11.41    4.49
   6  14   4   -2.03    4.42
   6 -15  -4   -1.00    3.24
  -6  15   4    5.03    4.05
   6  15  -4    8.63    4.45
  -6  15   4   -2.09    4.06
  -6  15   4   -0.58    3.70
   5 -15  -4    2.55    2.82
   5  15  -4    5.22    3.45
  -5  15   4    6.88    3.30
  -5  15   4    2.90    3.50
  -5  15   4   -0.55    2.91
   4 -15  -4   -0.05    2.46
   4  15  -4   -1.68    2.51
  -4  15   4    1.02    2.77
  -4  15   4   -1.54    2.77
   3  15  -4    0.50    2.22
  -3  15   4    2.61    2.55
  -3  15   4    2.67    2.05
  -3  15   4    2.35    2.72
   2 -15  -4   60.55    3.76
  -2  15   4   66.90    4.94
   2  15  -4   63.68    3.95
  -2  15   4   65.56    4.54
   2  15  -4   63.11    2.97
  -2  15   4   58.86    3.75
   1  15  -4   30.11    2.45
   1  15  -4   29.42    2.82
  -1  15   4   29.71    3.66
  -1  15   4   27.92    3.70
  -1  15   4   29.10    2.86
   1  15  -4   29.12    2.39
   0 -15  -4    0.29    1.83
   0  15  -4    0.34    1.40
   0  15   4    0.49    2.18
   0  15  -4    0.33    1.49
   0  15   4    2.72    2.46
   0  15  -4    1.23    1.37
   0  15   4   -0.88    1.41
  -1 -15  -4    3.95    1.94
  -1 -15  -4    3.76    2.04
   1  15   4    2.38    2.54
   1  15   4    2.96    2.61
   1  15   4    2.74    1.64
  -1  15  -4    6.30    1.79
  -2 -15  -4   25.58    3.22
  -2 -15  -4   20.43    2.77
  -2  15  -4   22.24    3.03
   2  15   4   22.53    3.80
   2  15   4   18.14    3.44
  -3 -15  -4   15.60    2.80
   3 -15   4   11.93    2.10
  -3 -15  -4   13.19    2.78
   3  15   4    5.78    3.06
   3  15   4   18.79    3.53
  -3  15  -4   12.36    2.77
  -4 -15  -4    5.07    3.07
  -4  15  -4    1.90    2.69
   4  15   4   -4.67    2.85
   5 -15   4   -1.01    2.53
  -5 -15  -4    4.07    3.47
  -5 -15  -4   -3.31    3.68
   5  15   4   -1.03    3.76
  -5  15  -4    2.54    3.18
   6 -15   4    9.13    3.41
  -6 -15  -4   19.20    5.27
  -6 -15  -4    5.14    4.77
   6  15   4    6.78    4.61
   6 -16  -4   -2.96    3.77
  -6  16   4   11.29    4.62
  -6  16   4   -2.08    4.25
  -6  16   4    0.05    3.79
   6  16  -4    5.77    4.64
   5 -16  -4    9.82    3.27
  -5  16   4    1.73    3.20
  -5  16   4    0.01    4.04
   5  16  -4    5.85    3.63
  -5  16   4    5.23    4.00
   4 -16  -4   31.69    4.21
   4  16  -4   39.33    4.78
  -4  16   4   34.92    4.75
  -4  16   4   39.05    4.61
   3 -16  -4   26.53    3.58
  -3  16   4   27.24    3.81
  -3  16   4   33.19    4.38
   3  16  -4   35.61    4.16
  -2  16   4   33.32    4.48
   2  16  -4   29.15    2.53
  -2  16   4   30.78    4.14
  -2  16   4   25.52    3.25
   2  16  -4   31.86    3.54
   1  16  -4    6.91    2.05
  -1  16   4    0.11    2.65
  -1  16   4    5.65    2.55
   1  16  -4    4.94    1.67
   1  16  -4    6.24    1.68
  -1  16   4    2.81    1.70
   0 -16  -4  214.38    6.98
   0  16   4  211.69    6.74
   0  16  -4  218.92    6.40
   0  16  -4  207.11    6.59
   0  16   4  220.16    7.99
   0  16   4  205.79    7.75
   0  16  -4  198.69    6.25
  -1 -16  -4  122.14    5.33
  -1 -16  -4  139.56    5.37
  -1  16  -4  130.73    5.02
   1  16   4  120.63    6.18
   1  16   4  123.59    6.29
  -2 -16  -4   13.80    2.66
  -2 -16  -4   16.51    2.81
   2  16   4   16.28    3.43
  -2  16  -4   16.56    2.53
   2  16   4   18.62    5.38
   3 -16   4   29.11    3.21
  -3 -16  -4   29.50    4.05
  -3  16  -4   29.30    3.85
   3  16   4   29.91    4.21
   3  16   4   39.38    4.53
  -4 -16  -4   38.04    4.82
   4 -16   4   37.26    3.94
  -4  16  -4   37.93    4.63
   4  16   4   36.09    4.86
   5 -16   4    6.96    2.85
  -5 -16  -4   13.92    4.08
  -5 -16  -4    4.99    3.97
  -5  16  -4   10.43    3.60
   5  16   4    4.66    4.22
  -6 -16  -4    7.32    5.12
   6 -16   4    2.18    3.39
   6  16   4   13.93    5.34
   6 -17  -4   17.50    4.38
   6  17  -4   26.66    5.72
  -6  17   4   16.80    5.20
  -6  17   4    8.09    4.86
   5 -17  -4    2.88    3.19
   5  17  -4   -2.00    3.57
  -5  17   4   -0.49    3.65
  -5  17   4   -5.19    4.03
  -5  17   4   -0.12    3.25
   4 -17  -4    0.71    2.65
  -4  17   4   -1.90    3.02
  -4  17   4   -4.28    2.63
  -4  17   4   -4.17    3.29
   3 -17  -4    1.55    2.29
  -3  17   4   -1.03    3.03
   3  17  -4    4.40    2.73
  -3  17   4    3.05    2.75
  -3  17   4    1.60    2.97
  -2  17   4   56.57    5.30
  -2  17   4   67.45    5.17
   2  17  -4   57.81    4.32
   2  17  -4   63.86    3.32
  -1  17   4   50.43    4.78
  -1  17   4   42.25    4.71
   1  17  -4   50.97    3.88
  -1  17   4   48.61    3.81
   1  17  -4   51.93    3.39
   1  17  -4   48.87    3.22
   0 -17  -4   22.75    3.02
   0  17   4   25.18    3.75
   0  17  -4   30.36    3.20
   0  17   4   22.98    3.53
   0  17  -4   23.19    2.86
  -1 -17  -4   28.70    3.28
  -1 -17  -4   27.59    3.54
  -1  17  -4   32.49    3.32
   1  17   4   26.96    3.84
   1  17   4   27.33    5.94
  -1  17  -4   26.72    3.09
  -2 -17  -4   67.03    4.51
  -2 -17  -4   67.58    4.50
  -2  17  -4   72.35    4.50
   2  17   4   65.10    5.57
  -2  17  -4   69.99    4.36
   2  17   4   60.84    5.67
  -3 -17  -4   14.13    2.86
   3 -17   4    9.94    2.39
   3  17   4    9.26    3.95
  -3  17  -4   12.92    2.98
   3  17   4   13.62    3.86
  -4 -17  -4   38.17    4.93
  -4 -17  -4   39.53    5.20
   4 -17   4   51.41    4.30
   4  17   4   46.96    6.42
  -4  17  -4   45.04    5.01
   5 -17   4   20.46    3.68
  -5 -17  -4   23.13    4.62
   5  17   4   26.41    5.02
   5 -18  -4    1.07    3.27
  -5  18   4   -2.36    4.13
  -5  18   4    6.17    3.88
  -5  18   4   -2.23    4.05
   5  18  -4    2.67    4.07
   4 -18  -4   -3.67    2.70
  -4  18   4    2.72    2.92
   4  18  -4    2.22    3.31
  -4  18   4   -0.25    3.68
   3 -18  -4   21.47    3.30
   3  18  -4   19.96    3.71
  -3  18   4   17.72    4.31
  -3  18   4   18.55    2.94
  -3  18   4   23.75    4.26
  -2  18   4   -1.26    3.04
   2  18  -4    0.71    2.37
  -2  18   4    3.16    2.95
   2  18  -4    3.32    1.94
  -1  18   4    5.16    3.07
   1  18  -4    3.58    1.94
   1  18  -4    2.98    1.79
   1  18  -4    5.16    2.42
  -1  18   4    2.83    2.95
   0  18   4   -0.58    2.87
   0  18  -4    2.94    2.15
   0  18  -4   -0.17    1.70
   0  18   4    1.89    2.94
   0  18  -4    2.65    1.98
  -1 -18  -4    3.59    2.88
  -1 -18  -4    6.56    2.42
  -1  18  -4    7.82    2.42
  -1  18  -4    9.06    2.46
  -1  18  -4    4.53    1.93
   1  18   4    0.28    3.07
   1  18   4    0.93    3.00
  -2 -18  -4    6.58    2.75
  -2  18  -4    8.52    2.68
   2  18   4   12.82    3.90
   2  18   4    6.24    3.39
  -2  18  -4   13.31    2.83
  -3 -18  -4   -2.24    2.10
  -3 -18  -4   -0.55    2.80
   3  18   4    4.24    3.73
  -3  18  -4    2.03    2.56
   3  18   4   -0.34    3.57
   4 -18   4    3.25    2.68
  -4 -18  -4    4.73    3.18
  -4 -18  -4    2.05    3.37
   4  18   4    8.86    4.31
  -4  18  -4    5.64    3.37
   5 -18   4    9.44    3.37
  -5 -18  -4    2.00    4.42
   5  18   4   20.26    5.31
   5 -19  -4    6.53    3.89
   5  19  -4    5.36    4.52
  -5  19   4    9.06    4.62
  -5  19   4    2.71    4.35
   4 -19  -4   21.65    3.73
  -4  19   4   23.60    4.67
   4  19  -4   31.20    4.72
  -4  19   4   23.82    4.56
  -4  19   4   28.39    4.21
  -3  19   4   21.95    4.47
   3  19  -4   23.01    5.35
  -3  19   4   24.79    4.25
  -3  19   4   23.07    3.44
   2  19  -4   76.87    5.28
   2  19  -4   69.78    3.97
  -2  19   4   66.69    4.76
  -2  19   4   71.10    6.10
  -2  19   4   83.22    6.09
   2  19  -4   79.75    4.26
   1  19  -4   21.57    2.67
  -1  19   4   18.51    3.67
   1  19  -4   17.59    2.57
  -1  19   4   28.77    4.29
   1  19  -4   18.81    3.04
   0  19  -4   36.80    3.33
   0  19  -4   36.82    3.98
   0  19   4   33.45    4.21
   0  19  -4   40.98    3.66
   0  19   4   36.15    5.12
  -1 -19  -4   -0.24    2.44
  -1  19  -4    3.18    2.28
   1  19   4   -1.45    3.17
   1  19   4    2.11    3.16
  -1  19  -4    2.77    2.27
  -2 -19  -4   86.68    5.09
  -2  19  -4   82.23    5.28
  -2  19  -4   83.02    5.08
   2  19   4   91.61    6.63
   2  19   4   85.89    6.71
  -3 -19  -4   17.54    3.56
  -3 -19  -4   13.76    3.51
  -3  19  -4   13.24    3.42
  -3  19  -4   19.81    3.50
   3  19   4   15.02    4.58
   3  19   4   19.73    4.62
  -4 -19  -4   16.62    3.98
   4 -19   4   26.57    3.54
  -4  19  -4   23.06    4.23
  -4  19  -4   20.37    4.01
   4  19   4   20.92    5.33
  -5 -19  -4    7.52    4.74
   5 -19   4    8.80    3.39
   5  19   4   12.62    5.51
   5 -20  -4    7.96    3.93
  -5  20   4    6.17    4.95
  -5  20   4    9.40    5.04
   5  20  -4   -6.21    4.61
   4 -20  -4   12.00    3.52
  -4  20   4   -3.44    4.18
  -4  20   4    3.94    3.31
   4  20  -4    3.10    4.07
  -4  20   4    2.08    4.61
   3  20  -4   85.01    6.70
  -3  20   4   87.86    5.63
  -3  20   4   79.60    6.77
  -2  20   4    3.02    2.58
   2  20  -4    2.95    3.51
  -2  20   4    0.08    3.46
   2  20  -4    5.51    2.24
  -2  20   4    0.08    3.61
   2  20  -4    3.35    2.19
  -1  20   4   10.58    2.70
   1  20  -4   12.93    2.63
  -1  20   4   15.90    4.08
   1  20  -4   11.38    2.34
  -1  20   4    5.71    3.46
   0  20   4   19.76    4.23
   0  20  -4   22.84    4.78
   0  20  -4   21.84    3.01
   0  20  -4   13.73    2.42
   0  20   4   23.85    4.35
  -1  20  -4  171.95    6.94
  -1  20  -4  160.56    6.45
   1  20   4  164.32    8.24
   1  20   4  150.94    8.13
  -1  20  -4  155.68    6.57
  -2 -20  -4    6.35    3.10
   2  20   4    9.53    4.13
  -2  20  -4    7.44    3.05
  -2  20  -4    4.77    2.95
   2  20   4   11.18    4.26
   2  20   4   10.29    2.71
  -3 -20  -4   -2.11    3.29
   3  20   4    3.28    3.94
   3  20   4   -0.24    3.97
  -3  20  -4   -2.11    3.26
  -3  20  -4    1.95    2.87
   4 -20   4   -1.71    2.76
  -4 -20  -4   -0.03    3.72
  -4 -20  -4    1.53    4.08
   4  20   4    8.43    4.71
  -4  20  -4    4.92    4.06
   4 -21  -4    1.32    3.41
  -4  21   4    0.58    4.43
   4  21  -4   -7.90    4.04
  -4  21   4    0.16    4.24
  -3  21   4   -0.14    3.08
  -3  21   4    2.02    4.26
   3  21  -4   -0.62    3.88
  -3  21   4    3.90    4.28
  -2  21   4    1.71    3.70
  -2  21   4    3.25    2.82
   2  21  -4   -1.43    3.36
  -2  21   4   -1.03    4.00
   2  21  -4   -2.77    2.19
   2  21  -4   -1.66    2.42
   1  21  -4    0.26    2.44
   1  21  -4   -0.83    2.13
  -1  21   4   -4.73    3.18
   1  21  -4   -2.02    2.79
  -1  21   4    1.83    2.40
  -1  21   4    3.20    3.83
   0  21  -4   -1.29    2.18
   0  21   4   -1.99    2.33
   0  21   4   -2.63    3.61
   0  21  -4   -2.87    2.84
   0  21   4    1.01    3.51
   0  21  -4    1.40    2.59
   1  21   4   11.43    3.01
  -1  21  -4    9.81    3.20
   1  21   4    7.21    3.95
   1  21   4   12.29    4.42
  -1  21  -4   10.12    2.82
  -1  21  -4    8.89    3.03
  -2 -21  -4   -2.61    3.50
  -2  21  -4   14.83    3.23
   2  21   4    7.28    2.72
  -2  21  -4   12.44    3.66
  -2  21  -4   14.70    3.48
   2  21   4    7.69    4.38
   2  21   4   16.84    4.73
  -3 -21  -4   -4.38    3.36
  -3 -21  -4    0.27    3.20
  -3  21  -4    8.22    3.44
  -3  21  -4    2.88    4.87
   3  21   4    8.81    4.57
   3  21   4   -1.30    4.60
  -4 -21  -4   -2.60    4.21
   4  21   4   10.76    5.46
  -4  21  -4    9.01    4.52
  -4  22   4    4.87    5.37
   4  22  -4    1.00    4.82
  -4  22   4   -1.46    4.91
  -3  22   4   33.70    5.98
  -3  22   4   42.08    5.80
   3  22  -4   43.94    5.62
   2  22  -4    7.77    2.82
   2  22  -4   10.57    2.85
   2  22  -4    9.30    4.01
  -2  22   4    6.55    4.23
  -2  22   4   13.41    3.37
  -2  22   4    5.61    4.40
  -1  22   4    6.78    2.93
  -1  22   4   -0.23    3.76
   1  22  -4   10.19    2.72
   1  22  -4    3.58    3.56
  -1  22   4    8.08    4.39
   1  22  -4    2.07    2.80
   0  22  -4    0.93    2.46
   0  22   4   -2.11    2.46
   0  22   4    1.00    3.94
   0  22  -4    0.02    3.44
   0  22   4   -1.45    3.56
   0  22  -4   -3.80    2.63
  -1  22  -4   48.28    5.41
   1  22   4   41.27    5.49
   1  22   4   34.70    4.58
  -1  22  -4   39.90    4.13
  -1  22  -4   41.39    5.04
   1  22   4   41.15    5.42
  -2  22  -4    2.04    3.24
   2  22   4   11.09    3.28
   2  22   4   10.91    4.56
  -2  22  -4   13.11    3.75
  -2  22  -4   11.77    3.29
   2  22   4    4.78    4.41
  -3 -22  -4    0.58    3.87
  -3  22  -4    3.22    3.75
  -3  22  -4    3.77    3.79
   3  22   4    5.14    4.81
   3  22   4    6.29    5.08
   4  22   4   19.36    6.22
  -4  22  -4   18.50    5.13
   3  23  -4    8.15    3.18
  -3  23   4    7.36    4.96
   3  23  -4   10.24    4.92
  -3  23   4    2.78    5.21
  -2  23   4   54.63    7.36
   2  23  -4   61.34    6.84
  -2  23   4   69.70    7.42
   2  23  -4   63.77    4.88
   2  23  -4   43.04    4.80
  -1  23   4    2.78    4.23
  -1  23   4   18.50    3.50
  -1  23   4    2.58    4.73
   1  23  -4   14.57    4.23
   1  23  -4   12.01    3.29
   1  23  -4   10.06    2.95
   0  23   4   16.77    3.34
   0  23  -4   14.63    3.55
   0  23  -4   18.07    3.30
   0  23  -4   18.14    4.48
   0  23   4   19.28    4.91
   0  23   4   17.21    4.70
  -1  23  -4    7.68    3.49
  -1  23  -4   11.66    3.74
   1  23   4    5.35    4.67
  -1  23  -4    2.98    2.86
   1  23   4    7.29    4.90
  -2  23  -4   25.18    4.80
  -2  23  -4   34.54    5.39
  -2  23  -4   37.73    7.10
   2  23   4   43.35    6.11
   2  23   4   28.09    5.47
   3  23   4    4.67    5.01
  -3  23  -4    0.19    3.90
   3  23   4   10.15    5.67
  -3  23  -4    0.52    4.13
  -3  24   4   -2.55    5.14
  -3  24   4    7.51    5.20
   2  24  -4    6.64    3.13
   2  24  -4    2.42    2.97
   2  24  -4   -2.92    4.49
  -2  24   4    4.06    5.15
  -2  24   4   -2.38    4.93
   1  24  -4    2.20    4.26
   1  24  -4    1.64    3.17
  -1  24   4    2.89    4.97
   1  24  -4    4.28    2.88
  -1  24   4    0.39    4.52
   0  24  -4    1.14    3.25
   0  24  -4    0.91    2.93
   0  24  -4    1.02    3.98
   0  24   4    7.03    4.92
   0  24   4   -6.44    4.43
  -1  24  -4   16.58    5.65
   1  24   4   28.53    5.83
  -1  24  -4   19.26    4.43
  -1  24  -4   23.37    4.29
   2  24   4    3.26    5.60
   2  24   4    3.33    5.47
  -2  24  -4   13.47    4.59
  -2  24  -4   -2.70    4.17
   1  25  -4    3.84    3.65
   1  25  -4   -1.68    4.68
  -1  25   4    6.44    5.22
  -1  25   4    6.83    5.40
   0  25   4   16.20    5.56
   0  25  -4   10.21    3.80
   0  25  -4   10.77    4.84
   0  25   4    9.80    5.39
   1  25   4   14.12    5.60
   1  25   4   11.01    5.38
  -1  25  -4   12.66    5.23
  -1  25  -4   -1.02    4.41
  -8   0   5   -1.33    3.58
  -8   0   5    6.10    4.30
   8   0  -5    3.57    4.08
  -7   0   5    6.39    3.12
   7   0  -5    7.32    3.44
  -7   0   5    6.50    2.84
  -6   0   5    1.65    2.06
  -6   0   5    1.94    2.20
   6   0  -5   -2.08    2.27
  -5   0   5  100.43    4.08
   5   0  -5   99.66    4.60
  -5   0   5  100.08    4.17
   4   0  -5   -0.34    1.21
  -4   0   5    0.86    1.15
  -4   0   5    0.86    1.23
  -3   0   5  189.28    5.10
  -3   0   5  187.54    4.55
   3   0  -5  187.33    5.13
  -3   0   5  184.97    4.64
  -2   0   5   -1.18    0.82
   2   0  -5    0.63    0.68
   2   0  -5   -0.33    0.55
   1   0  -5   12.88    0.78
  -1   0   5   11.79    1.44
   1   0  -5   11.74    1.28
   1   0  -5   11.71    0.66
   0   0  -5    0.23    0.51
   0   0   5   -0.74    1.01
   0   0  -5    0.82    1.02
   1   0   5  175.55    4.42
  -1   0  -5  171.23    5.29
  -1   0  -5  168.70    4.63
  -2   0  -5    0.11    1.10
   2   0   5   -0.45    0.99
  -3   0  -5   39.18    2.95
   3   0   5   39.90    2.74
  -4   0  -5    0.00    1.89
   4   0   5   -1.26    1.77
   5   0   5  102.49    5.30
   6   0   5   -1.07    2.74
  -6   0  -5   -1.20    3.02
  -7   0  -5   54.94    6.86
   7   0   5   38.08    4.85
   8  -1  -5    3.58    4.22
  -8  -1   5    8.85    4.37
  -8  -1   5   11.28    3.71
  -8   1   5    5.07    3.87
   8   1  -5   10.59    4.48
  -8   1   5   10.65    4.46
  -7  -1   5   14.21    3.38
   7  -1  -5   14.27    3.61
  -7  -1   5   12.78    2.96
  -7   1   5   15.45    4.60
   7   1  -5   11.86    3.76
  -7   1   5   13.70    3.15
   6  -1  -5   34.37    4.07
  -6  -1   5   28.84    3.52
  -6  -1   5   27.20    3.21
  -6   1   5   34.86    3.62
  -6   1   5   25.27    3.11
   6   1  -5   28.04    3.58
  -5  -1   5   10.17    1.83
   5  -1  -5    7.10    2.07
  -5  -1   5    5.76    1.79
  -5   1   5   10.01    2.07
   5   1  -5    5.53    2.02
  -5   1   5    7.93    1.93
  -4  -1   5    9.14    1.38
  -4  -1   5    9.57    1.50
   4  -1  -5    6.91    1.63
   4   1  -5    8.02    1.62
  -4   1   5    8.31    1.50
  -4   1   5   12.40    1.77
   3  -1  -5    0.85    0.98
  -3  -1   5    1.38    0.58
  -3  -1   5    1.29    0.55
  -3   1   5    2.01    0.85
  -3   1   5    1.99    0.82
   3   1  -5    0.15    0.94
  -3   1   5    2.75    1.11
  -2  -1   5  245.46    6.05
   2  -1  -5  253.47    5.91
   2  -1  -5  246.39    6.02
   2   1  -5  245.89    5.76
  -2   1   5  241.05    5.49
  -2   1   5  255.17    6.40
   2   1  -5  246.02    5.75
  -2   1   5  254.58    5.51
   1  -1  -5    2.88    0.62
   1  -1  -5    2.59    0.48
   1  -1  -5    2.67    0.86
  -1  -1   5    0.76    0.84
   1   1  -5    2.16    0.76
   0  -1  -5  129.95    3.40
   0  -1  -5  130.98    4.05
   0   1   5  126.21    2.91
   0   1  -5  120.61    3.04
   0   1  -5  118.69    3.88
   0   1   5  126.58    3.08
   0   1   5  123.65    4.11
  -1  -1  -5    3.03    1.33
   1  -1   5    4.53    0.77
  -1  -1  -5    6.15    1.13
   1   1   5    3.88    0.90
  -1   1  -5    3.89    0.94
  -2  -1  -5   11.29    1.58
  -2  -1  -5   13.86    2.05
   2  -1   5   10.99    1.41
  -2   1  -5   11.94    1.73
   2   1   5   11.10    1.53
  -3  -1  -5   42.33    3.01
   3  -1   5   39.30    2.62
  -3   1  -5   34.51    2.87
   3   1   5   36.77    2.78
  -4  -1  -5   39.37    3.54
   4  -1   5   35.09    3.18
  -4   1  -5   38.56    3.54
   4   1   5   39.45    3.42
   5  -1   5    0.15    2.14
   5   1   5    4.13    2.30
  -6  -1  -5    5.13    3.38
   6  -1   5    0.10    2.59
  -6   1  -5   -3.59    3.04
   6   1   5    0.87    2.79
  -7  -1  -5    2.57    4.09
   7  -1   5    2.60    3.48
   7   1   5    7.18    4.20
  -7   1  -5    2.60    4.30
   8  -2  -5    1.55    4.08
  -8  -2   5    1.24    3.35
   8   2  -5    3.80    4.15
  -8   2   5    2.43    3.89
  -7  -2   5   19.30    3.31
   7  -2  -5   23.81    4.01
  -7  -2   5   21.38    3.07
   7   2  -5   17.79    4.00
  -7   2   5   23.95    3.95
  -7   2   5   23.04    3.64
  -6  -2   5   34.70    3.19
  -6  -2   5   29.62    3.42
   6  -2  -5   28.55    3.80
  -6   2   5   35.67    3.93
   6   2  -5   32.81    4.24
  -6   2   5   31.03    3.67
   5  -2  -5   -1.70    1.70
  -5  -2   5    0.83    1.41
  -5  -2   5    0.49    1.47
  -5   2   5    1.16    1.76
  -5   2   5    0.83    1.78
   5   2  -5   -0.38    1.78
   4  -2  -5    2.95    1.40
  -4  -2   5    4.20    1.10
  -4  -2   5    1.78    1.18
  -4   2   5    1.76    1.29
   4   2  -5    2.04    1.42
  -4   2   5    3.32    1.55
   3  -2  -5  168.32    4.78
  -3  -2   5  169.23    4.35
  -3   2   5  156.75    4.90
   3   2  -5  167.23    4.68
  -3   2   5  161.42    4.58
  -3   2   5  165.67    4.46
   2  -2  -5    3.40    0.80
   2  -2  -5    5.09    1.01
  -2  -2   5    1.92    0.78
  -2   2   5    3.20    0.77
  -2   2   5    2.92    0.73
  -2   2   5    4.02    1.23
   2   2  -5    2.59    0.64
   2   2  -5    3.51    0.64
  -1  -2   5   -0.22    0.76
   1  -2  -5    0.89    0.62
   1  -2  -5    0.25    0.47
   1  -2  -5    0.82    0.83
  -1   2   5   -0.31    0.47
   1   2  -5    0.89    0.69
  -1   2   5   -0.26    0.99
  -1   2   5    0.26    0.40
   0  -2  -5   21.21    1.38
   0  -2  -5   18.94    1.76
   0   2   5   20.64    1.21
   0   2  -5   18.83    0.82
   0   2  -5   18.70    1.70
   0   2   5   20.03    0.95
   0   2   5   21.12    1.88
   1  -2   5  216.69    5.07
  -1  -2  -5  213.98    5.74
  -1  -2  -5  219.35    6.33
  -1   2  -5  210.46    5.42
   1   2   5  221.34    5.67
  -2  -2  -5   17.91    2.44
  -2  -2  -5   16.38    2.04
   2  -2   5   19.81    1.69
  -2   2  -5   20.48    2.02
   2   2   5   17.53    2.03
  -3  -2  -5    2.34    1.83
  -3  -2  -5    1.92    1.38
   3  -2   5   -1.15    1.18
  -3   2  -5    1.50    1.54
   3   2   5    0.58    1.43
  -4  -2  -5   -0.72    1.67
   4  -2   5    2.05    1.78
  -4   2  -5   -0.15    2.00
   4   2   5   -0.15    1.74
   5  -2   5    5.58    2.33
   5   2   5    8.37    2.66
  -6  -2  -5    1.83    3.31
   6  -2   5    7.59    2.78
   6   2   5    4.63    3.09
  -6   2  -5   -2.08    2.94
  -7  -2  -5   15.50    4.48
   7  -2   5   10.11    3.83
  -7   2  -5    7.13    4.13
   7   2   5   10.12    3.87
  -8  -3   5    4.05    3.36
   8  -3  -5    0.62    3.90
   8   3  -5    2.44    4.64
  -8   3   5    4.38    4.18
   7  -3  -5   15.52    3.57
  -7  -3   5   14.30    3.12
  -7  -3   5   18.10    2.91
  -7   3   5   12.10    3.47
  -7   3   5   14.20    3.58
   7   3  -5   18.12    3.89
  -6  -3   5    4.60    1.91
  -6  -3   5    6.48    2.15
   6  -3  -5    5.36    4.16
   6   3  -5    2.29    2.67
  -6   3   5    1.01    2.35
  -6   3   5    1.11    2.39
   5  -3  -5    9.97    2.24
  -5  -3   5    9.87    1.63
  -5  -3   5    9.54    1.67
   5   3  -5    9.15    2.18
  -5   3   5    9.87    2.17
  -5   3   5    8.27    2.14
   4  -3  -5   11.94    1.85
  -4  -3   5    7.05    1.11
   4   3  -5    7.53    1.69
  -4   3   5    8.86    1.71
  -4   3   5    9.59    1.87
   3  -3  -5   -1.13    0.98
  -3  -3   5    0.38    0.72
  -3   3   5    0.21    1.21
  -3   3   5    0.70    1.01
   3   3  -5   -1.00    0.88
  -3   3   5    1.16    0.98
  -2  -3   5  129.13    3.54
   2  -3  -5  144.71    4.12
   2  -3  -5  148.09    3.92
   2   3  -5  138.28    3.31
  -2   3   5  145.03    3.81
  -2   3   5  146.70    3.91
  -2   3   5  140.96    4.43
   2   3  -5  137.51    3.47
   1  -3  -5   17.63    1.61
   1  -3  -5   18.45    1.32
   1  -3  -5   19.46    1.16
  -1   3   5   18.80    1.06
  -1   3   5   18.29    1.84
  -1   3   5   19.84    1.28
   1   3  -5   15.34    1.25
   0  -3  -5  770.71   16.99
   0  -3  -5  779.00   16.54
   0   3   5  730.17   15.99
   0   3   5  745.41   17.15
   0   3  -5  726.46   15.62
   0   3   5  774.98   16.39
  -1  -3  -5   92.29    3.85
  -1  -3  -5   92.88    3.39
   1  -3   5   98.31    2.56
  -1   3  -5  101.87    3.01
   1   3   5   96.71    3.31
  -2  -3  -5  363.50    9.42
   2  -3   5  368.69    8.75
  -2  -3  -5  372.09    9.94
  -2   3  -5  367.48    9.16
   2   3   5  375.65    9.45
   3  -3   5    4.31    1.35
  -3  -3  -5    6.28    2.03
  -3  -3  -5    4.08    1.65
   3   3   5    4.41    1.81
  -3   3  -5    5.26    1.79
   4  -3   5  102.08    4.52
  -4  -3  -5  103.62    5.05
  -4  -3  -5  115.00    5.52
   4   3   5  108.00    5.11
  -4   3  -5  102.43    5.04
  -5  -3  -5    0.50    2.84
   5  -3   5   -0.59    2.09
   5   3   5   -0.13    2.29
  -6  -3  -5   17.90    3.73
   6  -3   5   20.36    3.60
   6   3   5   21.34    3.65
  -7  -3  -5    5.10    4.50
   7  -3   5    0.48    3.65
  -7   3  -5   -0.10    4.31
   7   3   5   10.94    4.05
  -8  -4   5    0.43    3.14
   8  -4  -5   10.33    4.23
  -8   4   5    4.34    4.35
   8   4  -5    0.29    4.21
  -8   4   5   12.59    4.50
   7  -4  -5    5.62    3.22
  -7  -4   5   10.30    2.52
  -7  -4   5    5.97    2.83
   7   4  -5   13.71    3.73
  -7   4   5   11.67    3.71
  -7   4   5    6.67    3.35
  -6  -4   5    1.69    1.97
  -6  -4   5    3.59    1.79
   6  -4  -5    3.65    2.79
  -6   4   5    7.93    2.75
  -6   4   5    6.64    2.63
   6   4  -5    3.86    2.64
  -5  -4   5   16.77    1.86
  -5  -4   5   15.71    2.09
   5  -4  -5   21.72    2.76
   5   4  -5   20.48    2.90
  -5   4   5   19.89    2.60
  -5   4   5   15.45    2.60
  -4  -4   5    6.81    0.94
   4  -4  -5    6.05    1.68
  -4  -4   5    7.53    1.09
  -4   4   5    4.34    1.66
  -4   4   5    4.77    1.61
   4   4  -5    7.70    1.78
   3  -4  -5  177.76    5.04
  -3  -4   5  164.70    4.03
  -3   4   5  168.57    5.37
  -3   4   5  175.98    4.99
   3   4  -5  168.29    4.83
  -3   4   5  175.04    4.94
   2  -4  -5   25.89    1.90
   2  -4  -5   25.83    1.63
  -2   4   5   25.82    1.73
  -2   4   5   25.58    1.60
  -2   4   5   29.15    2.30
   2   4  -5   26.00    1.22
   1  -4  -5   96.54    2.78
   1  -4  -5   92.77    2.96
   1  -4  -5   92.93    3.21
  -1   4   5   89.80    2.95
  -1   4   5   92.92    2.66
  -1   4   5   88.96    3.45
   1   4  -5   90.55    2.74
   0  -4  -5  216.28    5.98
   0  -4  -5  217.38    5.65
   0   4   5  215.44    5.19
   0   4   5  209.25    6.23
   0   4   5  221.94    5.64
   0   4  -5  212.99    4.71
  -1  -4  -5   92.75    3.49
   1  -4   5   94.35    2.49
  -1  -4  -5   98.76    3.90
  -1   4  -5   91.13    2.90
   1   4   5   96.20    3.46
   2  -4   5  137.05    3.99
  -2  -4  -5  140.97    5.18
  -2  -4  -5  134.68    4.77
  -2   4  -5  136.94    4.43
   2   4   5  144.64    4.80
   3  -4   5    5.35    1.41
  -3  -4  -5    5.62    1.80
  -3  -4  -5    7.63    2.32
  -3   4  -5    7.78    1.76
   3   4   5    6.98    1.99
  -4  -4  -5    4.03    2.42
  -4  -4  -5    3.10    2.30
   4  -4   5   -0.94    1.68
   4   4   5    1.61    1.98
  -4   4  -5    0.91    2.04
  -5  -4  -5   65.55    5.29
   5  -4   5   61.93    4.30
  -5  -4  -5   62.73    5.03
   5   4   5   64.96    5.08
  -6  -4  -5    1.08    3.16
   6  -4   5    1.57    2.77
  -6   4  -5    6.70    3.03
   6   4   5   -0.99    2.90
  -7  -4  -5   -2.86    4.08
   7  -4   5   11.64    3.82
   7   4   5    4.89    3.73
  -7   4  -5   -6.35    4.53
   8  -5  -5    5.79    4.22
  -8  -5   5    2.73    3.00
  -8   5   5   -2.46    4.59
   8   5  -5   -0.82    4.46
  -8   5   5   -0.92    8.38
  -7  -5   5   34.21    3.53
  -7  -5   5   32.17    3.93
   7  -5  -5   32.26    4.25
   7   5  -5   28.01    4.25
  -7   5   5   37.15    4.64
  -7   5   5   30.16    4.29
  -6  -5   5   20.68    2.12
  -6  -5   5   14.50    2.21
   6  -5  -5   21.88    3.14
   6   5  -5   17.20    3.36
  -6   5   5   20.99    4.45
  -6   5   5   17.19    3.22
  -5  -5   5   14.40    1.68
   5  -5  -5   19.78    2.73
  -5   5   5   17.24    2.78
   5   5  -5   17.46    2.80
  -5   5   5   15.14    2.62
  -4  -5   5   14.07    1.03
  -4  -5   5   13.86    1.20
   4  -5  -5   12.72    1.89
   4   5  -5   17.75    2.20
  -4   5   5   11.42    1.98
  -4   5   5   17.50    2.41
   3  -5  -5   37.96    2.35
   3   5  -5   34.31    2.15
  -3   5   5   39.74    2.34
  -3   5   5   34.57    2.73
  -3   5   5   33.12    2.28
   2  -5  -5  324.93    7.85
   2  -5  -5  327.82    8.11
  -2   5   5  334.55    8.60
   2   5  -5  321.08    7.29
  -2   5   5  338.27    8.09
  -2   5   5  315.05    7.78
   1  -5  -5   80.30    3.11
   1  -5  -5   82.28    2.65
   1  -5  -5   80.44    2.83
  -1   5   5   81.83    2.93
  -1   5   5   82.38    2.57
  -1   5   5   81.22    3.38
   1   5  -5   69.21    2.43
   0  -5  -5   42.17    2.18
   0  -5  -5   42.78    2.48
   0   5   5   40.48    1.77
   0   5  -5   42.74    1.32
   0   5   5   40.09    2.19
   0   5   5   37.69    2.57
  -1  -5  -5   65.23    3.26
   1  -5   5   61.80    1.88
  -1  -5  -5   68.05    2.98
  -1   5  -5   59.98    2.29
   1   5   5   66.53    2.97
   1   5   5   60.50    3.33
  -2  -5  -5   42.74    2.86
   2  -5   5   49.27    2.13
  -2  -5  -5   45.75    3.24
   2   5   5   48.72    2.97
  -2   5  -5   49.26    2.56
  -3  -5  -5    2.61    1.92
   3  -5   5    4.81    1.46
  -3  -5  -5    5.30    1.74
  -3   5  -5    2.45    1.69
   3   5   5    2.14    1.83
  -4  -5  -5   55.71    4.33
   4  -5   5   53.53    3.47
   4   5   5   57.13    4.20
  -5  -5  -5   -0.15    2.53
  -5  -5  -5    7.44    3.23
   5  -5   5    4.35    2.25
   6  -5   5    0.86    2.68
  -6  -5  -5   -0.32    3.06
   6   5   5   -1.53    3.25
  -6   5  -5    0.07    2.77
  -7  -5  -5    6.50    4.19
   7  -5   5    2.33    3.61
   7   5   5    7.99    3.94
   8  -6  -5   -2.01    3.96
  -8  -6   5   -0.22    2.85
  -8   6   5    2.38    4.84
  -8   6   5    0.69    4.82
   8   6  -5   -0.88    4.76
  -7  -6   5    5.46    2.59
  -7  -6   5    4.25    2.15
  -7  -6   5   12.73    2.88
   7  -6  -5    5.64    3.37
   7   6  -5    7.98    3.82
  -7   6   5    3.91    3.57
   6  -6  -5    4.11    2.71
  -6  -6   5    5.21    1.97
  -6  -6   5    5.13    1.58
  -6  -6   5    5.15    1.89
  -6   6   5    1.96    2.68
   6   6  -5    1.87    2.79
  -6   6   5    6.33    2.95
  -5  -6   5   32.67    2.15
   5  -6  -5   34.44    3.38
  -5  -6   5   35.24    1.86
  -5   6   5   35.09    3.81
  -5   6   5   36.92    3.62
   5   6  -5   30.46    3.65
   4  -6  -5    1.95    1.59
  -4   6   5    2.78    1.63
   4   6  -5    2.17    1.55
  -4   6   5    0.42    1.77
   3  -6  -5   47.94    2.60
  -3   6   5   45.05    2.61
  -3   6   5   46.26    3.14
   3   6  -5   48.13    2.48
  -3   6   5   52.93    2.77
   2  -6  -5   89.60    3.33
   2  -6  -5   86.32    3.09
  -2   6   5   88.79    3.82
  -2   6   5   85.43    3.06
   2   6  -5   82.82    2.54
  -2   6   5   93.81    3.40
   1  -6  -5   70.62    2.55
   1  -6  -5   66.47    2.68
   1  -6  -5   67.60    2.90
  -1   6   5   65.20    3.33
  -1   6   5   67.14    2.44
  -1   6   5   65.36    2.81
   0  -6  -5   10.59    1.50
   0  -6  -5    7.34    1.49
   0   6   5    9.55    1.16
   0   6   5    8.45    1.81
   0   6  -5    7.96    0.82
   0   6   5    9.48    1.48
   1  -6   5  407.25    8.81
  -1  -6  -5  401.57   10.05
  -1  -6  -5  411.33   10.36
  -1   6  -5  401.27    9.25
   1   6   5  397.04   10.58
   1   6   5  402.28   10.10
  -2  -6  -5   41.44    3.05
  -2  -6  -5   42.30    2.89
   2  -6   5   42.54    2.02
   2   6   5   43.99    3.01
  -2   6  -5   42.60    2.47
  -3  -6  -5    4.37    2.01
  -3  -6  -5    7.66    2.05
   3  -6   5    1.88    1.26
   3   6   5    3.98    1.93
  -3   6  -5    4.64    1.71
  -4  -6  -5   21.52    3.05
  -4  -6  -5   26.95    3.53
   4  -6   5   20.74    2.71
  -4   6  -5   22.33    3.02
   4   6   5   21.39    3.18
  -5  -6  -5   73.39    5.55
   5  -6   5   71.25    4.47
   5   6   5   65.43    5.29
  -6  -6  -5   13.11    3.61
   6  -6   5   17.01    3.14
   6   6   5   12.61    3.56
  -6   6  -5    9.64    3.03
   7  -6   5   23.62    4.22
  -7  -6  -5   23.47    4.72
   7   6   5   33.00    5.54
  -7  -7   5   12.88    2.53
   7  -7  -5    9.43    3.79
  -7  -7   5    8.82    2.44
  -7  -7   5    9.68    1.98
  -7   7   5   10.24    3.89
   7   7  -5    8.81    3.99
   6  -7  -5    2.64    2.66
  -6  -7   5    5.41    1.72
  -6  -7   5    6.14    1.74
   6   7  -5    4.32    2.97
  -6   7   5    3.84    2.87
  -6   7   5    1.82    2.91
   5  -7  -5   10.01    2.28
  -5  -7   5   10.20    1.17
  -5  -7   5   12.34    1.67
  -5   7   5   12.66    2.69
   5   7  -5   11.88    2.71
  -5   7   5   14.39    2.54
   4  -7  -5   91.36    4.02
  -4   7   5   86.75    3.93
   4   7  -5   86.57    4.06
  -4   7   5   88.02    4.08
  -4   7   5   87.52    4.53
   3  -7  -5    3.58    1.30
  -3   7   5    4.83    1.50
  -3   7   5    3.03    1.29
  -3   7   5    2.32    1.65
   3   7  -5    0.77    1.15
   2  -7  -5    4.44    1.15
   2  -7  -5    3.22    1.32
  -2   7   5    4.93    1.48
  -2   7   5    3.41    1.10
  -2   7   5    4.85    1.64
   2   7  -5    4.65    0.89
   1  -7  -5    4.88    1.19
   1  -7  -5    7.03    1.52
   1  -7  -5    4.78    1.15
  -1   7   5    4.40    1.66
  -1   7   5    4.61    1.02
  -1   7   5    8.09    1.57
   0  -7  -5   14.59    1.75
   0  -7  -5   16.08    1.90
   0   7  -5   13.28    1.02
   0   7   5   12.62    1.42
   0   7   5   11.92    1.63
   0   7   5   10.53    1.93
   1  -7   5   10.90    0.99
  -1  -7  -5   14.49    2.08
  -1  -7  -5   12.34    1.71
   1   7   5   11.72    2.16
   1   7   5   12.53    1.81
  -1   7  -5   11.12    1.37
   2  -7   5   23.44    1.66
  -2  -7  -5   19.93    2.48
   2   7   5   23.85    2.63
   2   7   5   24.01    3.16
  -2   7  -5   20.25    2.05
  -3  -7  -5   25.65    3.32
   3  -7   5   28.86    2.27
  -3  -7  -5   31.85    3.13
   3   7   5   26.61    3.17
  -3   7  -5   25.78    2.75
   4  -7   5   51.91    3.38
  -4  -7  -5   51.38    4.12
  -4  -7  -5   54.06    4.40
  -4   7  -5   55.78    4.03
   4   7   5   55.34    4.42
  -5  -7  -5    2.38    2.95
   5  -7   5    0.78    2.14
   5   7   5    0.68    2.87
   6  -7   5   12.28    3.27
  -6  -7  -5    3.85    3.55
   6   7   5    4.17    3.71
  -6   7  -5   12.41    4.03
   7  -7   5    4.47    3.58
  -7  -7  -5    8.49    6.39
   7   7   5   13.03    4.84
  -7  -8   5    8.11    2.29
   7  -8  -5   15.14    3.86
   7   8  -5   16.07    4.38
  -7   8   5   10.42    4.23
  -7   8   5    7.85    3.58
   6  -8  -5   12.92    2.97
  -6  -8   5   14.42    1.82
   6   8  -5   17.39    3.58
  -6   8   5   14.29    3.57
  -6   8   5   14.29    3.35
  -5  -8   5    0.26    0.93
   5  -8  -5    3.63    2.18
  -5   8   5    1.47    2.48
  -5   8   5   -4.13    2.10
   5   8  -5   -2.37    2.14
   4  -8  -5    5.01    1.83
  -4   8   5    4.16    2.29
   4   8  -5    3.68    1.77
  -4   8   5    2.42    1.73
  -4   8   5    4.46    1.79
   3  -8  -5   88.25    3.58
   3   8  -5   82.87    3.37
  -3   8   5   80.76    3.60
  -3   8   5   88.88    3.81
  -3   8   5   83.92    4.25
   2  -8  -5    5.61    1.26
   2  -8  -5    4.95    1.47
  -2   8   5    6.38    1.63
  -2   8   5    2.61    1.71
  -2   8   5    5.01    1.28
   2   8  -5    5.80    1.03
   1  -8  -5   64.97    2.69
   1  -8  -5   66.64    3.10
   1  -8  -5   60.94    2.83
  -1   8   5   61.36    2.59
  -1   8   5   63.26    3.17
  -1   8   5   61.62    3.55
   0  -8  -5   13.78    1.82
   0  -8  -5   11.94    1.79
   0   8   5   14.41    1.98
   0   8   5   10.04    1.27
   0   8   5   13.51    2.25
   0   8  -5   13.68    1.14
   1  -8   5  172.74    4.18
  -1  -8  -5  173.23    5.64
  -1  -8  -5  164.03    5.41
  -1   8  -5  169.52    4.63
   1   8   5  162.74    5.56
   1   8   5  167.52    6.02
  -2  -8  -5   33.25    2.83
  -2  -8  -5   34.70    3.04
   2  -8   5   32.19    1.88
   2   8   5   30.64    2.98
   2   8   5   30.17    3.27
  -2   8  -5   34.07    2.40
  -3  -8  -5    1.45    2.04
  -3  -8  -5    3.90    2.19
   3  -8   5    3.23    1.33
   3   8   5    3.41    2.08
  -3   8  -5    5.72    1.85
  -4  -8  -5   77.05    4.84
   4  -8   5   77.29    3.88
  -4  -8  -5   70.26    4.64
   4   8   5   74.13    4.94
  -4   8  -5   76.37    4.64
   5  -8   5   43.21    5.10
  -5  -8  -5   33.93    4.83
  -5   8  -5   36.85    4.77
   5   8   5   35.55    4.52
  -6  -8  -5   -1.95    3.49
   6  -8   5    0.47    2.77
  -6   8  -5    1.73    3.63
   6   8   5    3.56    3.66
   7  -8   5    0.56    3.40
   7   8   5   -3.63    4.40
  -7  -9   5    2.18    1.83
   7  -9  -5   12.07    3.77
  -7   9   5    5.02    4.25
  -7   9   5    8.79    5.69
   7   9  -5    6.31    4.15
   6  -9  -5   32.33    3.71
  -6  -9   5   27.10    2.27
   6   9  -5   44.31    6.44
  -6   9   5   33.39    4.38
  -6   9   5   37.17    4.80
  -5   9   5   16.04    2.86
   5   9  -5   19.30    3.08
  -5   9   5   21.13    3.41
  -5   9   5   23.81    3.04
   4  -9  -5    7.04    1.94
  -4   9   5    8.21    2.61
  -4   9   5    7.91    2.16
  -4   9   5    7.86    2.07
   4   9  -5    9.22    2.10
   3  -9  -5    8.46    1.68
   3   9  -5   13.53    1.79
  -3   9   5    9.15    2.19
  -3   9   5    8.71    1.77
  -3   9   5   16.02    2.25
   2  -9  -5  163.18    4.93
   2  -9  -5  159.20    5.15
  -2   9   5  161.35    5.32
  -2   9   5  155.06    4.89
  -2   9   5  157.69    5.73
   2   9  -5  152.32    4.41
   1  -9  -5   42.39    3.06
   1  -9  -5   39.12    2.49
   1  -9  -5   46.96    2.46
  -1   9   5   49.21    2.40
  -1   9   5   46.03    2.96
  -1   9   5   44.39    3.17
   0  -9  -5   78.14    5.02
   0  -9  -5   78.49    3.40
   0   9   5   81.88    3.76
   0   9   5   79.34    4.07
   0   9  -5   77.42    2.54
   0   9   5   76.00    3.03
  -1  -9  -5    3.00    1.48
   1   9   5   -0.45    1.39
   1   9   5    0.87    1.76
  -1   9  -5    0.64    0.91
   2  -9   5  136.56    4.07
  -2  -9  -5  145.18    5.31
  -2  -9  -5  134.56    5.20
   2   9   5  130.80    5.72
  -2   9  -5  134.10    4.57
   2   9   5  140.25    5.53
  -3  -9  -5   39.10    3.57
  -3  -9  -5   36.12    3.53
   3  -9   5   37.73    2.55
  -3   9  -5   38.51    3.16
   3   9   5   39.42    3.77
   4  -9   5   19.40    2.48
  -4  -9  -5   11.70    2.78
  -4  -9  -5   13.48    2.93
  -4   9  -5   14.47    2.69
   4   9   5   11.97    2.92
  -5  -9  -5   19.08    3.82
   5  -9   5   12.34    3.11
   5   9   5   19.06    4.02
  -5   9  -5   19.01    3.36
  -6  -9  -5   -0.38    3.60
   6  -9   5    5.74    2.87
  -6   9  -5    5.00    3.64
   6   9   5   -1.19    3.48
   7  -9   5    3.01    3.39
   7   9   5   -1.11    4.80
  -7 -10   5    1.05    1.58
   7 -10  -5    3.73    3.46
  -7  10   5   -1.37    4.29
   7  10  -5    3.01    4.35
  -7  10   5   -2.93    4.21
   6 -10  -5    4.26    2.75
  -6  10   5    2.80    3.41
   6  10  -5    3.88    3.97
   5 -10  -5    1.39    2.31
  -5  10   5    1.02    2.19
   5  10  -5    1.37    2.50
  -5  10   5    1.22    2.88
  -5  10   5    3.23    2.46
   4 -10  -5   58.60    3.68
  -4  10   5   61.40    3.92
  -4  10   5   55.11    4.30
  -4  10   5   62.49    4.01
   4  10  -5   66.75    3.92
   3 -10  -5   93.21    3.99
   3  10  -5   94.34    3.86
  -3  10   5   95.26    4.89
  -3  10   5   95.05    4.10
  -3  10   5   98.00    4.34
   2 -10  -5   45.55    2.69
   2 -10  -5   41.16    2.79
  -2  10   5   39.50    2.62
  -2  10   5   38.12    3.49
  -2  10   5   43.47    3.15
   2  10  -5   39.83    2.26
   1 -10  -5   -2.45    1.31
   1 -10  -5    2.31    1.24
  -1  10   5    0.81    1.59
  -1  10   5   -1.46    1.70
  -1  10   5   -0.13    1.00
   0 -10  -5   48.81    2.89
   0 -10  -5   50.39    2.99
   0  10   5   49.78    3.28
   0  10  -5   52.94    2.17
   0  10   5   50.26    3.66
   0  10   5   48.31    2.55
  -1 -10  -5  130.26    4.84
  -1 -10  -5  130.34    4.86
   1  10   5  134.86    5.63
  -1  10  -5  131.90    4.08
   1  10   5  124.54    5.17
   2 -10   5   32.36    2.02
  -2 -10  -5   33.58    3.10
  -2 -10  -5   34.81    3.12
  -2  10  -5   33.25    2.54
   2  10   5   32.97    3.41
   2  10   5   28.92    3.56
   3 -10   5    3.41    1.45
  -3 -10  -5    3.99    2.17
   3  10   5    3.01    2.23
  -3  10  -5    2.52    1.71
  -4 -10  -5   14.83    2.99
  -4 -10  -5   18.52    3.17
   4 -10   5   12.79    2.34
  -4  10  -5   13.48    2.59
   4  10   5   18.54    3.67
  -5 -10  -5    3.62    3.18
  -5 -10  -5   -0.12    2.41
   5 -10   5    1.89    2.23
  -5  10  -5    0.23    2.51
   5  10   5    3.01    3.13
   6 -10   5    0.77    2.75
  -6 -10  -5   17.16    4.76
  -6 -10  -5   -5.66    3.64
  -6  10  -5    6.40    3.76
   6  10   5    5.32    4.01
   7 -10   5    7.52    3.72
   7  10   5   14.47    5.30
   7 -11  -5    1.88    3.52
   7  11  -5    1.35    4.55
  -7  11   5    7.02    4.64
  -7  11   5    1.54    3.59
  -7  11   5   -3.19    4.40
   6 -11  -5   10.39    3.06
   6  11  -5    6.61    3.71
  -6  11   5    9.12    2.87
  -6  11   5    7.78    3.29
  -6  11   5   11.73    3.97
   5 -11  -5   21.45    3.25
  -5  11   5   20.66    3.30
  -5  11   5   16.71    3.74
  -5  11   5   17.13    3.02
   5  11  -5   17.38    3.28
   4 -11  -5   10.01    2.27
   4  11  -5   10.80    2.37
  -4  11   5   13.49    2.58
  -4  11   5    7.83    2.68
   3 -11  -5    1.53    1.63
  -3  11   5   -0.07    2.18
  -3  11   5    2.62    2.01
   3  11  -5    1.13    1.52
  -3  11   5    1.02    1.75
   2 -11  -5   58.52    3.13
   2  11  -5   54.03    2.76
   2  11  -5   57.89    1.67
  -2  11   5   56.42    3.99
  -2  11   5   65.90    3.22
  -2  11   5   59.53    3.66
   1 -11  -5   37.03    2.94
   1  11  -5   42.57    2.08
  -1  11   5   40.62    3.22
  -1  11   5   37.60    3.59
  -1  11   5   39.02    2.49
   0 -11  -5   80.37    3.85
   0 -11  -5   74.07    3.61
   0  11   5   77.67    3.29
   0  11   5   80.43    4.45
   0  11   5   82.18    4.15
   0  11  -5   77.94    2.82
  -1 -11  -5    4.55    1.81
  -1 -11  -5    2.60    1.52
  -1  11  -5    1.36    1.13
   1  11   5    0.46    1.89
   1  11   5   -1.41    1.62
   2 -11   5   91.12    3.24
  -2 -11  -5   86.72    4.42
  -2 -11  -5   90.83    4.50
   2  11   5   88.11    4.96
   2  11   5   83.76    4.78
  -2  11  -5   86.35    3.78
  -3 -11  -5    5.17    2.33
  -3 -11  -5    3.26    2.07
   3 -11   5    8.38    1.78
   3  11   5    4.45    2.48
  -4 -11  -5   17.69    3.09
  -4 -11  -5   22.33    3.32
   4 -11   5   18.79    2.53
  -4  11  -5   18.05    3.02
   4  11   5   17.12    4.63
  -5 -11  -5    9.17    3.38
  -5 -11  -5   -3.76    2.84
   5 -11   5   -0.56    2.31
  -5  11  -5   -2.84    2.75
   5  11   5    3.65    3.25
   6 -11   5   27.15    3.85
  -6 -11  -5   14.21    4.16
  -6 -11  -5   10.16    4.30
  -6  11  -5   23.56    4.60
   6  11   5   25.53    5.00
   7 -11   5   -6.90    3.46
   7  11   5    0.19    4.91
   7 -12  -5    5.64    3.81
   7  12  -5   -5.88    4.59
  -7  12   5   10.84    4.84
  -7  12   5    0.42    4.49
  -7  12   5   -3.94    3.75
   6 -12  -5    2.68    2.88
  -6  12   5   -3.67    2.98
  -6  12   5    0.16    3.77
   6  12  -5    1.88    3.50
  -6  12   5    4.09    3.34
   5 -12  -5   45.13    4.33
  -5  12   5   38.43    4.41
  -5  12   5   44.01    4.92
   5  12  -5   40.15    4.66
  -5  12   5   47.74    5.51
   4 -12  -5   48.83    3.98
   4  12  -5   45.99    4.01
  -4  12   5   48.30    3.87
  -4  12   5   50.37    4.45
  -4  12   5   48.36    4.18
   3 -12  -5    2.33    1.81
   3  12  -5    3.16    1.75
  -3  12   5    5.87    2.35
  -3  12   5    0.89    2.38
  -3  12   5    4.66    1.91
   2 -12  -5   12.30    1.90
  -2  12   5    9.26    2.20
  -2  12   5   15.05    2.95
   2  12  -5   13.19    1.81
   2  12  -5    8.91    1.14
  -2  12   5   14.29    2.10
   1 -12  -5   11.17    1.97
  -1  12   5    9.92    1.62
   1  12  -5   11.71    1.28
  -1  12   5   16.28    2.55
   1  12  -5   11.41    1.47
  -1  12   5    8.38    2.56
   0 -12  -5  124.70    4.72
   0 -12  -5  125.95    4.73
   0  12   5  119.16    4.34
   0  12   5  122.77    5.41
   0  12   5  117.10    5.13
   0  12  -5  127.53    3.92
  -1 -12  -5  171.43    6.01
  -1 -12  -5  167.93    5.92
  -1  12  -5  173.95    5.18
   1  12   5  168.94    6.45
   1  12   5  168.25    6.55
   1  12   5  178.25    5.53
  -2 -12  -5   95.77    4.79
  -2 -12  -5  104.67    4.83
   2 -12   5   95.79    3.45
  -2  12  -5   89.43    4.01
   2  12   5   90.65    5.32
   2  12   5   93.19    5.18
  -3 -12  -5   17.13    3.01
  -3 -12  -5   20.54    2.97
   3 -12   5   18.91    2.40
  -3  12  -5   15.49    2.44
   3  12   5   15.65    3.11
   4 -12   5   17.62    2.52
  -4 -12  -5   16.85    3.29
   4  12   5   19.13    3.95
  -4  12  -5   18.36    3.10
   5 -12   5   27.62    3.30
  -5 -12  -5   23.01    4.13
  -5 -12  -5   32.17    4.50
   5  12   5   26.95    4.78
  -5  12  -5   28.57    4.25
   6 -12   5    5.91    3.30
  -6 -12  -5   -1.00    4.74
  -6  12  -5    0.80    6.15
   6  12   5   11.17    4.51
   7 -13  -5    2.64    3.74
  -7  13   5   -4.35    4.54
  -7  13   5    6.77    5.09
  -7  13   5    4.24    4.06
   7  13  -5    2.67    5.02
   6 -13  -5   -1.24    3.25
   6  13  -5    3.14    3.82
  -6  13   5    3.11    4.52
  -6  13   5    5.38    3.78
  -6  13   5    3.88    3.44
   5 -13  -5    1.39    2.82
  -5  13   5    5.27    3.58
   5  13  -5    4.20    2.95
  -5  13   5    4.48    2.96
   4 -13  -5   20.95    2.89
   4  13  -5   27.54    3.33
  -4  13   5   20.52    3.02
  -4  13   5   28.48    3.73
  -4  13   5   17.75    3.47
   3 -13  -5    1.19    1.81
  -3  13   5    1.02    2.27
   3  13  -5    2.46    1.80
  -3  13   5    2.19    2.43
  -3  13   5    2.23    1.86
   2 -13  -5    9.06    2.01
  -2  13   5    8.14    2.46
  -2  13   5   11.83    2.14
   2  13  -5    6.48    1.72
  -2  13   5    4.30    2.44
   2  13  -5    7.48    1.09
   1 -13  -5  108.42    4.49
  -1  13   5  110.26    4.25
   1  13  -5  107.69    3.43
  -1  13   5  112.53    5.39
   1  13  -5  106.00    3.82
  -1  13   5  109.09    5.14
   0 -13  -5    1.50    1.80
   0 -13  -5    3.15    1.78
   0  13   5    1.16    1.52
   0  13   5    1.80    2.06
   0  13  -5    1.86    1.16
   0  13   5    0.50    2.14
  -1 -13  -5    1.21    1.80
  -1 -13  -5    3.33    1.99
   1  13   5    3.02    1.49
  -1  13  -5    0.76    1.33
   1  13   5    2.97    2.29
   1  13   5    0.61    2.26
  -2 -13  -5    1.23    2.08
   2 -13   5    2.49    1.28
  -2 -13  -5    3.97    2.19
   2  13   5   -0.45    2.56
   2  13   5   -0.90    2.30
  -2  13  -5    1.84    1.62
  -3 -13  -5   79.13    4.91
  -3 -13  -5   80.30    4.87
   3 -13   5   80.64    3.72
   3  13   5   86.21    5.64
   3  13   5   89.89    5.65
  -3  13  -5   81.27    4.46
  -4 -13  -5    6.43    2.91
   4 -13   5    2.00    1.95
  -4  13  -5    0.34    2.29
   4  13   5    4.09    3.06
  -5 -13  -5    1.48    3.64
  -5 -13  -5    1.13    3.38
   5 -13   5    1.89    2.59
  -5  13  -5   -2.12    3.09
   5  13   5   -3.98    3.12
  -6 -13  -5    5.80    4.42
   6 -13   5    4.97    3.13
   6  13   5    4.04    4.56
   6 -14  -5    3.30    3.51
  -6  14   5    8.88    3.97
  -6  14   5    5.34    4.26
  -6  14   5    4.27    3.59
   6  14  -5    7.03    4.16
   5 -14  -5    5.51    3.02
  -5  14   5    5.24    2.95
  -5  14   5    5.72    3.38
  -5  14   5    3.25    3.64
   5  14  -5    2.60    3.06
   4 -14  -5    2.32    2.31
  -4  14   5    0.37    2.39
  -4  14   5    3.59    3.03
  -4  14   5    1.22    2.87
   4  14  -5    2.46    2.52
   3 -14  -5   75.52    4.26
  -3  14   5   64.86    4.92
  -3  14   5   79.35    5.00
  -3  14   5   71.75    4.26
   3  14  -5   70.30    4.27
   2 -14  -5    4.82    1.86
  -2  14   5    5.63    2.86
   2  14  -5    7.53    1.95
   2  14  -5    6.44    1.24
  -2  14   5   10.92    2.82
  -2  14   5    6.33    1.95
   1 -14  -5    0.28    1.95
   1  14  -5   -0.28    1.25
   1  14  -5    1.17    1.18
  -1  14   5    0.71    1.43
  -1  14   5    3.46    2.38
  -1  14   5    1.89    2.46
   1  14  -5    0.19    1.07
   0 -14  -5    3.71    1.88
   0  14   5    4.46    1.76
   0  14  -5    4.46    1.39
   0  14   5    1.53    2.10
   0  14   5    0.19    2.37
   0  14  -5    4.05    1.41
  -1 -14  -5  112.05    4.86
  -1 -14  -5   97.85    4.74
   1  14   5  100.80    5.40
   1  14   5  102.21    5.67
  -1  14  -5   98.25    4.05
   1  14   5   97.65    4.31
  -2 -14  -5   22.44    3.00
  -2 -14  -5   17.45    2.72
   2  14   5   23.22    3.87
  -2  14  -5   11.86    3.49
   2  14   5   21.33    3.63
   3 -14   5   -0.47    1.55
  -3 -14  -5    3.57    2.64
  -3 -14  -5    1.05    2.40
   3  14   5   -1.78    2.74
   3  14   5    1.10    2.84
  -3  14  -5    0.39    1.99
  -4 -14  -5    3.43    2.91
  -4 -14  -5   -2.14    2.39
   4 -14   5    1.80    2.15
   4  14   5   -0.46    3.37
  -4  14  -5    6.79    3.06
  -5 -14  -5   61.82    6.08
   5 -14   5   75.51    5.01
   5  14   5   71.66    6.83
  -5  14  -5   77.57    6.28
  -6 -14  -5   -0.73    4.76
   6 -14   5    4.89    3.31
   6  14   5    7.55    5.13
   6 -15  -5    3.58    3.54
   6  15  -5    4.91    4.30
  -6  15   5    0.15    4.13
  -6  15   5    7.54    4.10
  -6  15   5   -4.82    4.02
   5 -15  -5   12.86    3.17
   5  15  -5   13.22    5.66
  -5  15   5   13.64    3.34
  -5  15   5   16.64    5.00
  -5  15   5   12.19    3.78
   4 -15  -5    4.57    2.75
  -4  15   5    7.91    3.35
  -4  15   5    9.43    3.28
   4  15  -5    6.95    2.87
   3 -15  -5   54.31    3.96
   3  15  -5   46.48    4.04
  -3  15   5   51.42    4.71
  -3  15   5   45.66    4.98
  -3  15   5   46.64    3.91
   2  15  -5    2.51    1.88
  -2  15   5   -0.84    2.42
  -2  15   5    1.83    2.80
  -2  15   5    2.39    1.91
   1 -15  -5   41.32    3.70
  -1  15   5   46.18    3.22
  -1  15   5   42.09    4.59
   1  15  -5   48.48    2.72
   1  15  -5   42.26    3.09
  -1  15   5   45.49    4.33
   1  15  -5   44.39    2.62
   0 -15  -5   24.30    3.16
   0 -15  -5   23.53    3.05
   0  15   5   21.05    3.54
   0  15   5   19.77    2.36
   0  15  -5   21.82    2.40
   0  15   5   22.39    3.34
   0  15  -5   22.76    2.37
  -1 -15  -5    4.37    2.07
  -1 -15  -5    3.43    2.23
   1  15   5    4.76    2.53
   1  15   5    3.57    1.69
   1  15   5    4.06    2.87
  -1  15  -5    2.19    1.59
  -2 -15  -5   42.31    3.94
  -2 -15  -5   38.52    3.95
   2  15   5   39.92    4.73
  -2  15  -5   44.09    3.49
   2  15   5   38.06    4.77
   3 -15   5  116.25    4.57
  -3 -15  -5  117.93    5.73
   3  15   5  111.09    6.68
  -3  15  -5  117.50    5.60
   3  15   5  115.70    6.63
  -4 -15  -5   36.05    4.51
   4 -15   5   32.77    4.26
  -4 -15  -5   36.64    4.97
  -4  15  -5   33.22    3.89
   4  15   5   31.18    4.72
   5 -15   5   36.27    4.59
  -5 -15  -5   33.60    4.63
   5  15   5   23.36    4.82
  -5  15  -5   47.38    5.68
   6 -15   5   14.21    3.56
   6  15   5   16.47    5.54
   6 -16  -5   -0.07    3.69
  -6  16   5    3.68    4.74
   6  16  -5    5.97    4.54
  -6  16   5   -0.26    4.30
   5 -16  -5   -0.48    3.09
  -5  16   5    1.91    3.27
  -5  16   5   -2.06    3.69
  -5  16   5    0.78    3.85
   5  16  -5    2.73    3.36
   4 -16  -5    3.36    2.68
  -4  16   5    1.23    3.35
  -4  16   5   -1.26    2.12
   4  16  -5    5.16    2.95
  -4  16   5    4.17    3.43
   3 -16  -5   24.84    3.24
  -3  16   5   20.04    3.59
   3  16  -5   22.61    3.29
  -3  16   5   12.41    3.57
   2  16  -5   25.17    2.30
  -2  16   5   31.89    3.40
   2  16  -5   25.05    3.34
  -2  16   5   22.11    3.71
  -2  16   5   24.12    3.50
   1 -16  -5   37.52    3.43
   1  16  -5   37.25    2.73
  -1  16   5   39.18    4.69
  -1  16   5   43.83    4.55
   1  16  -5   35.47    3.19
  -1  16   5   46.36    3.39
   1  16  -5   36.37    2.68
   0 -16  -5   32.42    3.56
   0  16   5   31.89    3.96
   0  16   5   31.17    3.84
   0  16  -5   31.23    2.67
   0  16   5   28.83    3.07
   0  16  -5   31.62    2.80
   0  16  -5   29.13    2.90
  -1 -16  -5    6.75    2.40
  -1 -16  -5    6.45    2.28
   1  16   5    9.11    3.16
   1  16   5   -1.54    2.63
   1  16   5    5.93    2.27
  -2 -16  -5   32.62    3.82
  -2 -16  -5   36.71    3.97
   2  16   5   34.07    4.44
  -2  16  -5   29.03    3.32
   2  16   5   28.99    4.13
  -3 -16  -5   -2.80    2.70
   3 -16   5    1.95    1.86
   3  16   5    2.05    3.47
  -3  16  -5    7.01    2.62
   3  16   5   -0.82    3.23
  -4 -16  -5    3.75    3.51
   4 -16   5    5.34    2.54
  -4 -16  -5   15.38    3.55
   4  16   5    4.36    3.49
  -4  16  -5    7.60    2.85
   5 -16   5    5.24    2.89
  -5 -16  -5   -1.40    3.86
  -5 -16  -5   12.67    4.68
   5  16   5    1.80    4.19
  -5  16  -5   12.74    4.05
   6 -16   5   12.42    3.77
   6  16   5   11.24    5.71
   6 -17  -5    2.75    3.86
  -6  17   5    0.72    4.78
  -6  17   5   17.68    5.36
   6  17  -5   18.62    5.09
   5 -17  -5   14.44    3.91
  -5  17   5   13.63    4.45
  -5  17   5    5.23    3.99
   5  17  -5    9.54    3.93
  -5  17   5   18.37    4.11
   4 -17  -5    0.17    2.72
   4  17  -5    3.31    3.05
  -4  17   5    0.97    2.63
  -4  17   5    0.06    3.19
  -4  17   5   -0.01    3.66
   3 -17  -5    5.04    2.46
   3  17  -5    9.34    2.96
  -3  17   5   -1.20    3.30
  -3  17   5    0.71    1.91
  -3  17   5    9.12    3.65
   2  17  -5   84.87    4.84
   2  17  -5   86.81    3.55
  -2  17   5   81.09    5.83
  -2  17   5   84.19    5.74
   1  17  -5   56.12    3.27
  -1  17   5   47.32    5.14
   1  17  -5   61.26    3.38
   1  17  -5   55.98    3.91
  -1  17   5   64.62    3.98
   0 -17  -5   -0.05    2.25
   0  17   5    1.63    2.87
   0  17   5    0.25    1.76
   0  17  -5    3.23    1.92
   0  17  -5    0.22    1.73
  -1 -17  -5   -2.09    2.34
  -1 -17  -5    3.80    2.46
   1  17   5   -0.37    2.87
   1  17   5    2.15    2.99
  -1  17  -5   -0.02    1.67
  -1  17  -5    2.02    2.00
  -2 -17  -5   34.51    4.15
   2  17   5   36.86    5.14
   2  17   5   38.59    4.69
  -2  17  -5   30.83    3.63
   3 -17   5   41.09    3.46
  -3 -17  -5   45.25    4.77
   3  17   5   45.26    5.96
  -3  17  -5   43.96    4.41
   3  17   5   35.94    4.79
  -4 -17  -5   -0.31    3.43
   4 -17   5    4.16    2.59
   4  17   5    2.21    3.71
  -4  17  -5    5.83    3.02
  -5 -17  -5   -8.40    3.94
   5 -17   5   -0.82    2.91
   5  17   5    4.88    4.82
   5 -18  -5   -4.55    3.27
   5  18  -5    1.65    4.07
  -5  18   5    3.03    4.33
  -5  18   5    1.15    3.79
  -5  18   5   -2.83    4.15
   4 -18  -5   41.99    4.86
  -4  18   5   45.38    5.12
  -4  18   5   36.53    5.01
   4  18  -5   45.88    5.42
  -4  18   5   34.85    6.01
   3 -18  -5    4.61    2.74
  -3  18   5    3.91    2.66
  -3  18   5    2.51    3.69
   3  18  -5    2.32    2.98
  -3  18   5    3.26    3.49
  -2  18   5   11.75    3.48
   2  18  -5    8.07    2.62
   2  18  -5   13.04    1.95
  -2  18   5   11.62    3.59
  -1  18   5   -1.77    3.08
   1  18  -5    4.63    2.24
  -1  18   5    3.30    3.36
   1  18  -5    2.23    1.76
   1  18  -5    0.35    1.78
   0 -18  -5  120.62    5.92
   0  18  -5  122.74    5.26
   0  18   5  117.34    6.65
   0  18  -5  120.75    4.88
   0  18  -5  121.04    4.85
   0  18   5  116.92    6.90
  -1 -18  -5   31.67    4.04
   1  18   5   37.50    4.76
  -1  18  -5   29.15    3.39
  -1  18  -5   35.81    3.68
   1  18   5   40.77    4.80
  -2 -18  -5   42.65    4.52
   2  18   5   46.06    5.69
  -2  18  -5   50.71    4.15
   2  18   5   47.55    5.86
  -3 -18  -5    3.98    3.07
   3  18   5    3.50    3.69
   3  18   5    4.56    4.00
  -3  18  -5    6.36    2.82
  -4 -18  -5   23.36    4.34
  -4 -18  -5    5.47    5.47
   4 -18   5   22.44    3.16
   4  18   5   18.00    4.87
  -4  18  -5   23.64    3.81
   5 -18   5    7.10    3.35
  -5 -18  -5   14.13    5.08
   5  18   5   18.96    5.47
   5 -19  -5   -0.31    3.64
   5  19  -5   -2.93    4.16
  -5  19   5    0.60    4.51
  -5  19   5    0.60    4.40
   4 -19  -5    6.89    3.42
  -4  19   5    8.54    4.83
  -4  19   5   15.37    4.61
  -4  19   5   11.56    3.31
   4  19  -5    9.31    3.88
  -3  19   5   12.14    4.25
  -3  19   5   17.71    4.35
  -3  19   5   19.47    3.23
   3  19  -5   24.80    5.04
   2  19  -5    9.39    2.22
  -2  19   5    7.63    2.51
  -2  19   5    9.67    3.81
   2  19  -5    6.38    2.91
  -2  19   5   10.30    3.66
   2  19  -5   11.21    2.15
  -1  19   5   60.47    5.85
  -1  19   5   47.72    5.60
   1  19  -5   53.31    3.71
   1  19  -5   60.54    3.81
   1  19  -5   58.51    4.52
  -1  19   5   46.95    3.89
   0  19  -5   -1.94    1.90
   0  19  -5    2.55    1.89
   0  19   5    0.46    3.26
   0  19   5   -1.25    2.05
   0  19  -5    1.51    2.22
   0  19   5    2.82    3.31
  -1 -19  -5   -4.59    2.20
  -1  19  -5   -0.38    2.21
   1  19   5   -0.49    3.11
  -1  19  -5    1.38    2.30
   1  19   5    6.07    3.61
   1  19   5    5.90    3.64
  -2 -19  -5    1.78    2.93
  -2  19  -5    2.31    2.86
  -2  19  -5    2.52    2.59
   2  19   5    1.13    2.43
   2  19   5    3.89    4.01
   2  19   5   -1.85    3.84
  -3 -19  -5    7.70    3.36
   3  19   5    9.15    4.48
  -3  19  -5    4.23    3.16
   3  19   5    8.39    4.57
  -4 -19  -5   -2.76    3.79
   4 -19   5   -0.40    2.66
  -4  19  -5    5.81    3.70
   4  19   5    4.35    4.71
   5 -19   5    9.78    3.57
   5  19   5   18.30    5.81
   5 -20  -5   20.11    4.64
  -5  20   5   13.41    5.49
   5  20  -5   18.23    5.25
  -5  20   5   23.79    5.66
   4 -20  -5   35.65    4.36
  -4  20   5   31.34    5.13
   4  20  -5   50.31    6.30
  -4  20   5   46.19    5.77
  -4  20   5   36.06    5.91
  -3  20   5    2.91    2.82
  -3  20   5    3.93    4.01
   3  20  -5   -0.64    3.46
  -3  20   5    3.25    4.10
   2  20  -5    9.45    2.32
  -2  20   5   -1.26    3.60
  -2  20   5    4.77    3.61
   2  20  -5    7.93    2.33
  -2  20   5    9.22    2.82
   1  20  -5    6.50    2.32
   1  20  -5    7.47    2.35
  -1  20   5    5.10    3.48
  -1  20   5   13.97    2.86
  -1  20   5    7.58    3.73
   1  20  -5   11.04    3.36
   0  20  -5   23.85    2.93
   0  20   5   28.73    4.82
   0  20   5   20.16    4.11
   0  20   5   24.13    3.38
   0  20  -5   25.94    3.60
  -1 -20  -5    4.17    3.09
   1  20   5   14.27    4.30
  -1  20  -5    3.35    2.72
   1  20   5   13.16    2.90
  -1  20  -5    8.14    2.72
  -1  20  -5    5.64    2.54
   1  20   5   12.81    4.48
  -2 -20  -5    2.98    2.94
  -2 -20  -5   -0.72    2.93
   2  20   5    0.37    2.59
  -2  20  -5   -0.37    2.83
   2  20   5   -0.09    3.98
   2  20   5    3.87    4.02
  -2  20  -5    3.56    2.65
  -3 -20  -5   -2.85    3.43
   3  20   5   -7.26    4.08
   3  20   5   -3.07    4.26
  -3  20  -5    4.33    3.01
  -3  20  -5   -1.29    3.29
  -4 -20  -5   -6.38    3.85
  -4  20  -5    2.37    3.96
   4  20   5    7.23    4.87
  -4  21   5    1.42    4.84
   4  21  -5    1.82    4.36
  -4  21   5   -5.50    4.83
  -3  21   5   28.55    5.51
  -3  21   5   44.61    5.36
   3  21  -5   26.30    4.72
  -3  21   5   23.89    5.17
  -2  21   5    4.76    2.91
  -2  21   5   -0.25    3.72
   2  21  -5   11.02    3.57
   2  21  -5    0.68    2.27
   2  21  -5    1.36    2.20
  -1  21   5   76.92    7.00
  -1  21   5   87.86    6.98
  -1  21   5   81.13    5.38
   1  21  -5   92.68    4.91
   1  21  -5   93.13    4.84
   1  21  -5   93.94    5.98
   0  21   5    0.64    2.69
   0  21  -5   -2.71    2.86
   0  21  -5    4.68    2.41
   0  21  -5    1.97    2.26
   0  21   5   -2.56    3.63
   0  21   5   -1.83    3.73
   1  21   5   10.56    2.91
  -1  21  -5   10.35    3.30
   1  21   5   14.16    4.48
  -1  21  -5   14.33    3.11
   1  21   5    7.18    4.41
  -1  21  -5   12.44    3.60
  -2 -21  -5   14.03    3.95
   2  21   5    3.98    4.65
  -2  21  -5   15.22    3.84
  -2  21  -5   10.04    3.34
   2  21   5   16.14    3.32
   2  21   5   16.54    4.89
  -2  21  -5   13.20    3.39
  -3 -21  -5   49.42    6.12
  -3  21  -5   64.42    6.01
   3  21   5   56.19    7.62
   3  21   5   40.12    5.61
  -3  21  -5   57.10    6.21
  -4  21  -5    1.06    4.61
   4  21   5    2.78    5.52
   4  22  -5   -2.86    4.68
  -4  22   5    1.70    5.22
  -4  22   5   -2.85    4.99
   3  22  -5    1.60    2.74
   3  22  -5    6.38    4.47
  -3  22   5   -0.24    4.87
  -3  22   5   -6.03    4.68
   2  22  -5    7.30    2.66
  -2  22   5   -0.96    4.09
  -2  22   5    8.57    3.26
  -2  22   5    5.23    4.43
   2  22  -5    7.32    3.82
   2  22  -5    6.89    2.54
   1  22  -5    9.95    2.60
   1  22  -5    8.00    2.79
  -1  22   5    2.30    4.36
  -1  22   5   -1.00    2.94
   1  22  -5   12.74    3.70
   0  22   5    5.64    2.97
   0  22   5   -4.03    3.90
   0  22  -5    1.33    2.42
   0  22   5    4.77    4.30
   0  22  -5    1.49    2.70
   0  22  -5    4.53    3.52
  -1  22  -5    1.35    3.25
   1  22   5    0.33    2.96
  -1  22  -5   -0.51    2.94
   1  22   5    2.97    4.44
   1  22   5   -4.20    3.79
  -1  22  -5    5.21    2.77
  -2  22  -5   16.50    3.66
   2  22   5   20.69    5.28
   2  22   5   20.40    5.26
  -2  22  -5   20.25    3.60
  -2  22  -5   17.26    4.10
  -3 -22  -5   -0.82    4.26
  -3  22  -5    6.48    3.95
   3  22   5    0.13    4.90
   3  22   5   -3.61    5.00
   3  23  -5   -0.41    3.02
  -3  23   5    6.09    5.30
   3  23  -5   -0.29    4.70
  -3  23   5   -2.01    4.98
   2  23  -5    4.91    2.79
  -2  23   5    3.56    4.76
   2  23  -5    5.74    2.74
   2  23  -5    8.73    4.17
  -2  23   5   -3.03    4.51
   1  23  -5   41.20    4.98
  -1  23   5   44.47    6.25
  -1  23   5   39.14    6.08
   1  23  -5   36.87    4.77
   0  23   5   11.93    4.88
   0  23   5   11.65    5.92
   0  23  -5    9.87    3.03
   0  23  -5    9.19    3.16
   0  23  -5    9.38    3.98
   1  23   5   -3.79    4.52
  -1  23  -5   -0.65    3.36
  -1  23  -5    2.15    3.39
   1  23   5    2.78    7.54
  -1  23  -5    2.70    2.98
   2  23   5    7.89    5.60
  -2  23  -5   -1.28    3.69
   2  23   5    5.41    6.05
  -3  23  -5   40.34    5.40
   3  23   5   35.24    6.44
  -3  23  -5   47.54    5.69
   2  24  -5   20.19    3.40
  -2  24   5   14.17    5.64
   2  24  -5   14.45    5.01
   2  24  -5   11.20    3.27
  -2  24   5   20.73    6.00
   1  24  -5   -2.74    4.09
   1  24  -5    4.85    3.24
  -1  24   5    6.62    5.21
   1  24  -5    6.73    3.37
  -1  24   5    3.17    5.21
   0  24   5   58.26    7.16
   0  24  -5   50.40    5.22
   0  24  -5   55.77    6.94
   0  24  -5   55.24    5.54
   0  24   5   60.75    7.09
  -1  24  -5    1.39    3.54
  -1  24  -5    0.25    4.30
   1  24   5   -2.22    4.68
   1  24   5    0.56    5.29
   2  24   5   30.05    6.35
  -2  24  -5   19.90    4.90
  -2  24  -5   17.74    4.61
   2  24   5   33.29    6.47
  -1  25   5   10.73    5.72
  -1  25   5   12.57    5.93
   1  25  -5   15.13    3.72
   1  25  -5    0.43    4.60
   0  25   5    9.13    5.82
   0  25  -5    0.86    3.57
   0  25  -5    4.41    4.56
   0  25   5    6.46    5.27
  -8   0   6    7.66    3.95
   8   0  -6   18.74    5.11
   7   0  -6   -0.58    3.20
  -7   0   6   -1.77    2.78
  -7   0   6    1.83    2.74
  -6   0   6   36.47    3.46
  -6   0   6   33.02    3.64
   6   0  -6   32.64    4.10
  -5   0   6    3.09    1.70
   5   0  -6    1.54    1.83
  -5   0   6    0.57    1.43
  -4   0   6    1.10    1.36
   4   0  -6    1.81    1.32
  -4   0   6    1.53    0.91
  -4   0   6    2.00    1.00
  -3   0   6   -0.16    1.05
   3   0  -6   -0.37    0.85
   2   0  -6  155.16    3.96
  -2   0   6  157.37    4.66
   2   0  -6  162.08    4.27
  -1   0   6    0.79    1.09
   1   0  -6   -0.01    0.37
   1   0  -6   -0.61    0.49
   1   0  -6    0.08    0.89
   0   0  -6   10.97    1.60
   0   0  -6    9.04    1.09
   0   0   6    8.62    1.52
  -1   0  -6   -0.53    0.80
  -1   0  -6   -0.16    1.36
   1   0   6   -0.70    0.61
  -2   0  -6  144.52    4.83
  -2   0  -6  151.72    5.45
   2   0   6  147.99    4.55
  -3   0  -6   -0.77    1.44
   3   0   6    0.55    1.23
   4   0   6   45.73    3.55
   5   0   6   -4.65    1.98
  -6   0  -6    9.57    3.22
   6   0   6   14.77    3.35
   7   0   6   -0.37    3.54
  -8  -1   6    1.46    3.72
   8  -1  -6    0.75    4.13
  -8   1   6    5.47    4.11
   8   1  -6    6.25    4.15
  -7  -1   6   10.16    2.81
  -7  -1   6   17.17    3.13
   7  -1  -6   14.73    3.69
  -7   1   6   12.12    3.31
   7   1  -6   13.72    3.66
  -7   1   6   12.88    3.23
   6  -1  -6    5.80    2.59
  -6  -1   6    3.67    2.21
  -6  -1   6    5.59    2.13
  -6   1   6    3.67    2.46
   6   1  -6    2.84    2.65
  -6   1   6    6.54    2.32
  -5  -1   6   25.13    2.67
  -5  -1   6   25.25    2.31
   5  -1  -6   23.44    2.69
  -5   1   6   19.39    2.55
   5   1  -6   23.97    3.08
  -5   1   6   24.35    2.98
  -4  -1   6    0.31    0.75
  -4  -1   6   -0.25    0.76
   4  -1  -6    1.46    1.30
  -4  -1   6   -0.78    1.19
  -4   1   6    1.18    1.04
  -4   1   6   -0.57    1.35
   4   1  -6   -1.53    1.22
  -4   1   6   -1.10    1.01
  -3  -1   6   31.22    2.08
   3  -1  -6   30.73    1.98
  -3   1   6   31.44    1.44
   3   1  -6   31.15    1.88
  -3   1   6   30.46    1.40
  -3   1   6   29.72    2.26
  -2  -1   6    5.11    1.21
   2  -1  -6    6.44    1.14
   2  -1  -6    6.58    0.86
   2   1  -6    3.64    0.69
   2   1  -6    5.51    0.93
  -2   1   6    4.99    1.29
   1  -1  -6  259.60    6.05
   1  -1  -6  269.13    6.72
   1  -1  -6  256.33    5.82
   1   1  -6  257.71    6.53
   0  -1  -6   -0.32    1.14
   0  -1  -6    0.75    0.75
   0   1  -6    0.34    1.08
   0   1   6    0.59    0.34
   0   1   6    0.26    1.34
   0   1   6    0.45    0.48
   0   1  -6    0.53    0.60
  -1  -1  -6   18.38    2.36
  -1  -1  -6   21.54    1.85
   1  -1   6   22.37    1.26
  -1   1  -6   19.84    2.25
   1   1   6   22.76    1.57
  -1   1  -6   19.12    1.68
   2  -1   6  175.62    5.05
  -2  -1  -6  180.60    6.23
  -2  -1  -6  182.40    5.59
  -2   1  -6  171.82    5.47
   2   1   6  186.31    5.36
   3  -1   6  222.52    6.47
  -3  -1  -6  211.67    6.92
  -3  -1  -6  221.22    7.40
  -3   1  -6  218.05    6.89
   3   1   6  225.24    6.73
   4  -1   6    2.29    1.88
   4   1   6    0.65    1.80
   5  -1   6    8.62    2.67
   5   1   6    9.32    2.66
   6  -1   6   14.81    3.19
  -6  -1  -6   21.49    3.84
   6   1   6   14.85    3.40
  -6   1  -6    4.45    2.99
   7  -1   6    6.76    3.46
   7   1   6   19.17    4.39
   8  -2  -6    5.97    4.15
  -8  -2   6    1.09    3.40
  -8   2   6    1.23    4.25
   8   2  -6    5.28    4.47
  -8   2   6   13.06    4.82
  -7  -2   6    4.91    2.66
   7  -2  -6    2.78    3.28
  -7  -2   6    1.31    2.59
  -7   2   6    3.82    3.18
  -7   2   6    9.96    3.22
   7   2  -6    4.82    3.38
  -6  -2   6    1.84    1.81
   6  -2  -6    0.77    2.45
  -6  -2   6   -1.36    1.92
  -6   2   6    1.48    2.28
   6   2  -6   -2.34    2.21
  -6   2   6    1.04    2.42
   5  -2  -6   82.06    4.26
  -5  -2   6   83.51    3.08
  -5  -2   6   86.37    3.63
   5   2  -6   85.45    4.34
  -5   2   6   87.34    4.28
  -5   2   6   82.85    3.90
   4  -2  -6   40.80    2.76
  -4  -2   6   39.96    2.38
  -4   2   6   40.00    2.27
  -4   2   6   35.84    2.86
  -4   2   6   37.25    2.40
   4   2  -6   39.21    2.67
  -3  -2   6   11.84    1.54
   3  -2  -6   12.97    1.48
  -3   2   6   13.38    1.39
  -3   2   6   10.43    1.36
  -3   2   6   12.82    1.78
   3   2  -6    9.96    1.27
   2  -2  -6   26.81    1.52
  -2  -2   6   27.32    1.75
   2  -2  -6   31.01    1.91
  -2   2   6   28.34    1.20
   2   2  -6   26.33    1.20
  -2   2   6   24.74    2.13
  -2   2   6   25.05    1.14
   2   2  -6   27.63    1.46
   1  -2  -6    9.88    1.20
  -1  -2   6    6.95    1.30
   1  -2  -6    9.94    1.43
   1  -2  -6    9.04    0.93
  -1   2   6    8.48    0.74
  -1   2   6    8.41    1.52
   1   2  -6    8.17    1.20
  -1   2   6    8.87    0.64
   0  -2  -6  430.85    9.72
   0  -2  -6  422.62   10.36
   0   2  -6  413.34    9.06
   0   2   6  410.88   10.52
   0   2   6  441.64    9.38
   0   2   6  407.49    9.06
   0   2  -6  411.79   10.23
   1  -2   6   40.22    1.49
  -1  -2  -6   39.60    2.28
  -1  -2  -6   41.11    2.80
  -1   2  -6   40.37    2.06
   1   2   6   42.77    2.15
  -2  -2  -6  269.82    8.17
   2  -2   6  264.71    6.72
  -2  -2  -6  259.14    7.35
   2   2   6  270.89    7.22
  -2   2  -6  262.90    7.23
  -3  -2  -6    2.95    1.65
  -3  -2  -6    2.26    1.98
   3  -2   6    1.91    1.34
   3   2   6    3.28    1.73
  -3   2  -6    4.81    1.86
  -4  -2  -6   74.81    4.94
   4  -2   6   64.20    3.84
  -4  -2  -6   70.48    4.77
   4   2   6   74.14    4.39
   5  -2   6   23.29    3.05
  -5  -2  -6   26.15    3.87
   5   2   6   28.41    3.79
  -6  -2  -6   31.03    4.51
   6  -2   6   30.19    3.83
   6   2   6   29.82    4.05
   7  -2   6   -4.97    3.42
   7   2   6   -1.78    3.71
   8  -3  -6    5.90    4.43
  -8  -3   6    4.11    3.19
   8   3  -6    5.72    4.31
  -8   3   6    4.79    4.48
  -8   3   6    2.16    4.38
   7  -3  -6    5.15    3.39
  -7  -3   6    0.61    2.39
  -7  -3   6    4.19    2.45
  -7   3   6    2.91    4.21
   7   3  -6    5.65    3.47
  -7   3   6    5.35    3.34
  -6  -3   6    7.60    1.85
   6  -3  -6    9.39    4.47
  -6  -3   6    6.89    2.02
   6   3  -6   11.64    2.93
  -6   3   6    9.73    2.56
  -6   3   6   11.81    2.93
  -5  -3   6  175.07    4.98
  -5  -3   6  156.52    4.28
   5  -3  -6  163.49    5.86
  -5   3   6  160.89    5.96
  -5   3   6  164.33    5.63
   5   3  -6  161.03    5.96
  -4  -3   6    6.97    1.79
   4  -3  -6    5.77    1.57
  -4   3   6    8.89    1.50
  -4   3   6    6.64    1.52
  -4   3   6    9.51    2.06
   4   3  -6    4.87    1.59
  -3  -3   6   99.23    3.01
   3  -3  -6  101.05    3.48
  -3   3   6   95.49    3.97
   3   3  -6  103.20    3.31
  -3   3   6  100.08    3.26
  -3   3   6   97.95    3.27
  -2  -3   6   19.42    1.47
   2  -3  -6   19.29    1.46
   2  -3  -6   19.22    1.79
  -2   3   6   21.92    1.43
  -2   3   6   19.38    1.33
  -2   3   6   23.90    2.29
   2   3  -6   22.27    1.22
   2   3  -6   22.68    1.02
   1  -3  -6  357.36    8.15
   1  -3  -6  361.38    8.43
   1  -3  -6  368.28    8.90
  -1   3   6  351.77    9.21
  -1   3   6  358.12    7.94
  -1   3   6  379.56    8.20
   1   3  -6  349.91    8.46
   0  -3  -6    5.60    1.13
   0  -3  -6    7.31    1.53
   0   3   6    4.38    1.55
   0   3   6    7.25    1.07
   0   3  -6    6.19    0.64
   0   3   6    6.52    0.78
   0   3  -6    3.05    1.30
   1  -3   6    1.02    0.50
  -1  -3  -6   -0.60    1.41
  -1  -3  -6   -0.06    1.06
   1   3   6    1.20    0.99
   1   3   6    1.61    1.63
  -1   3  -6    0.06    0.81
  -2  -3  -6   34.99    2.66
   2  -3   6   37.09    1.99
  -2   3  -6   34.59    2.48
   2   3   6   37.53    2.60
   3  -3   6    7.26    1.60
  -3  -3  -6   12.05    2.48
  -3  -3  -6    7.19    2.02
   3   3   6    3.96    1.74
  -3   3  -6    5.16    1.85
  -4  -3  -6   13.53    2.73
  -4  -3  -6   16.02    3.11
   4  -3   6   17.15    2.46
  -4   3  -6   10.14    3.05
   4   3   6    9.64    2.45
  -5  -3  -6    0.29    3.07
   5  -3   6    6.10    2.47
   6  -3   6   -0.30    2.86
  -6  -3  -6   -3.88    3.07
   6   3   6   -0.64    2.84
  -6   3  -6    1.48    3.01
   7  -3   6    5.69    3.74
   7   3   6    1.93    4.08
   8  -4  -6   10.74    4.20
  -8  -4   6    2.20    2.98
   8   4  -6   11.09    4.75
  -8   4   6   -2.50    4.43
  -7  -4   6    0.33    2.20
   7  -4  -6    1.16    3.19
  -7  -4   6   -1.09    2.15
  -7   4   6   -0.47    3.25
   7   4  -6   -5.28    3.13
  -7   4   6   -2.30    3.42
   6  -4  -6    9.42    3.12
  -6  -4   6    9.41    1.64
  -6  -4   6    6.51    1.86
   6   4  -6    2.36    2.63
  -6   4   6    8.95    2.66
  -6   4   6    8.35    3.01
   5  -4  -6    0.50    1.89
  -5  -4   6    1.63    0.81
  -5  -4   6    1.26    1.41
   5   4  -6    0.93    2.04
  -5   4   6    3.33    1.69
  -5   4   6    0.73    1.82
  -5   4   6    1.97    2.11
  -4  -4   6  131.81    3.66
   4  -4  -6  132.54    4.70
   4   4  -6  129.84    4.66
  -4   4   6  133.32    4.45
  -4   4   6  135.95    5.18
  -4   4   6  131.26    4.59
  -3  -4   6   61.38    2.08
   3  -4  -6   65.78    2.84
  -3   4   6   64.21    3.41
  -3   4   6   62.87    2.75
  -3   4   6   65.85    2.74
   3   4  -6   67.13    2.64
   2  -4  -6   45.70    2.09
   2  -4  -6   49.64    2.51
  -2   4   6   46.91    2.88
   2   4  -6   46.09    1.61
  -2   4   6   47.87    2.17
  -2   4   6   41.96    1.95
   2   4  -6   48.01    1.54
   1  -4  -6  222.81    6.07
   1  -4  -6  218.27    5.65
   1  -4  -6  215.04    5.37
  -1   4   6  213.66    5.20
  -1   4   6  223.16    5.57
  -1   4   6  222.41    6.50
   1   4  -6  206.78    5.52
   0  -4  -6  439.23   10.64
   0  -4  -6  414.14   10.04
   0   4   6  422.56    9.46
   0   4  -6  412.36    9.02
   0   4   6  416.63   10.87
   0   4   6  440.12    9.95
   1  -4   6    4.64    0.61
  -1  -4  -6    5.06    1.66
  -1  -4  -6    4.88    1.31
   1   4   6    4.31    1.81
  -1   4  -6    3.14    0.95
   1   4   6    3.63    1.23
   2  -4   6  139.84    3.97
  -2  -4  -6  132.82    4.87
  -2  -4  -6  130.99    6.90
   2   4   6  141.34    4.85
  -2   4  -6  130.88    4.48
  -3  -4  -6   31.63    3.44
  -3  -4  -6   29.43    3.01
   3  -4   6   25.88    2.34
   3   4   6   32.10    3.08
  -3   4  -6   21.78    2.70
  -4  -4  -6  100.44    5.09
  -4  -4  -6  101.70    5.73
   4  -4   6  100.78    4.46
  -4   4  -6  107.91    5.34
   4   4   6  106.33    5.32
   5  -4   6   31.19    3.54
  -5  -4  -6   22.39    4.03
   5   4   6   21.12    3.92
  -6  -4  -6   20.22    3.98
   6  -4   6   27.84    4.07
  -6   4  -6   41.62    5.36
   6   4   6   34.53    4.69
   7  -4   6    1.95    3.71
   7   4   6    7.60    4.07
   7  -5  -6    8.21    3.57
  -7  -5   6    1.69    1.89
  -7  -5   6    2.15    2.12
   7   5  -6    2.62    3.59
  -7   5   6    3.18    3.47
  -7   5   6    2.81    3.62
   6  -5  -6   -1.91    2.28
  -6  -5   6   -0.01    1.19
  -6  -5   6   -0.59    1.50
  -6   5   6   -2.59    2.39
  -6   5   6   -2.25    2.70
   6   5  -6    0.20    2.62
   5  -5  -6   35.50    3.37
  -5  -5   6   29.08    1.94
  -5   5   6   28.36    3.01
  -5   5   6   33.94    3.65
  -5   5   6   37.28    3.48
   5   5  -6   30.26    3.46
  -4  -5   6    8.63    0.91
   4  -5  -6    8.23    1.78
  -4   5   6   11.77    1.87
   4   5  -6   11.17    1.98
  -4   5   6    7.43    2.16
  -4   5   6   10.83    1.81
   3  -5  -6    1.73    1.18
  -3   5   6    3.17    1.79
  -3   5   6    4.51    1.32
  -3   5   6    2.81    1.22
   3   5  -6    1.26    1.05
   2  -5  -6   29.20    1.84
   2  -5  -6   28.16    2.24
  -2   5   6   26.23    2.56
  -2   5   6   28.70    2.07
  -2   5   6   27.02    1.78
   2   5  -6   30.96    1.07
   2   5  -6   30.06    1.15
   1  -5  -6  377.63    9.38
   1  -5  -6  373.51    9.04
   1  -5  -6  382.65    8.81
   1   5  -6  355.93    8.75
  -1   5   6  387.47    9.09
  -1   5   6  389.99    9.96
  -1   5   6  379.88    8.62
   0  -5  -6  180.80    5.57
   0  -5  -6  173.31    5.13
   0   5  -6  178.88    4.07
   0   5   6  170.91    5.88
   0   5   6  180.73    5.11
   0   5   6  173.50    4.56
   1  -5   6  117.67    2.84
  -1  -5  -6  122.08    4.67
  -1  -5  -6  111.03    4.14
  -1   5  -6  114.30    3.49
   1   5   6  115.21    4.86
   1   5   6  118.62    4.14
  -2  -5  -6  236.86    7.47
   2  -5   6  227.94    5.82
  -2  -5  -6  228.04    6.95
   2   5   6  239.79    6.97
  -2   5  -6  228.05    6.48
  -3  -5  -6  110.68    4.86
  -3  -5  -6  110.23    5.18
   3  -5   6  106.30    3.91
   3   5   6  100.29    4.83
  -3   5  -6  104.02    4.57
   4  -5   6   97.42    4.43
  -4  -5  -6  100.82    5.15
  -4  -5  -6   98.81    5.41
   4   5   6   98.16    5.23
  -4   5  -6   86.89    4.98
   5  -5   6    0.80    2.30
  -5  -5  -6    7.34    3.43
   5   5   6    0.43    2.75
  -5   5  -6    1.25    2.41
  -6  -5  -6    6.89    3.49
   6  -5   6   10.16    3.07
   6   5   6    5.30    3.55
  -6   5  -6    1.40    3.59
   7  -5   6    6.91    3.92
   7   5   6   10.85    4.25
  -7  -6   6   18.83    2.10
  -7  -6   6   24.61    2.77
   7  -6  -6   22.96    4.12
   7   6  -6   28.17    4.56
  -7   6   6   27.36    4.26
  -7   6   6   18.09    4.13
  -6  -6   6   12.62    1.80
   6  -6  -6   14.27    2.94
  -6  -6   6   12.74    1.85
  -6   6   6   13.13    3.34
   6   6  -6    9.57    3.15
  -6   6   6   13.63    3.19
  -6   6   6   16.15    2.70
   5  -6  -6   17.81    2.71
  -5  -6   6   14.47    1.16
  -5  -6   6   10.45    1.23
  -5   6   6   13.90    2.84
  -5   6   6   10.31    2.46
  -5   6   6   17.06    2.48
   5   6  -6   11.54    2.60
   4  -6  -6   43.59    3.00
  -4   6   6   43.68    3.08
  -4   6   6   39.07    3.55
   4   6  -6   42.99    2.97
  -4   6   6   45.96    3.04
   3  -6  -6  158.44    4.95
  -3   6   6  155.73    4.89
   3   6  -6  162.08    4.66
  -3   6   6  162.93    5.79
  -3   6   6  166.12    5.12
   2  -6  -6  194.97    5.67
   2  -6  -6  193.16    5.26
  -2   6   6  192.52    6.15
  -2   6   6  191.39    5.19
  -2   6   6  191.37    5.54
   2   6  -6  189.36    4.47
   1  -6  -6    0.62    0.89
   1  -6  -6   -0.58    1.20
   1  -6  -6    0.04    0.96
   1   6  -6    0.04    0.89
  -1   6   6    0.20    0.77
  -1   6   6    2.92    1.65
  -1   6   6    0.55    1.05
   0  -6  -6   11.93    1.82
   0  -6  -6   14.65    1.77
   0   6  -6   11.35    0.91
   0   6   6   11.26    1.33
   0   6   6   10.23    2.04
   0   6   6   14.22    1.72
  -1  -6  -6   14.82    2.18
   1  -6   6   11.65    0.82
  -1  -6  -6   13.24    1.93
  -1   6  -6   10.12    1.36
   1   6   6   12.90    2.49
   1   6   6   10.40    1.75
   2  -6   6  111.69    3.38
  -2  -6  -6  104.85    4.80
  -2  -6  -6  112.66    4.53
   2   6   6  107.87    4.49
  -2   6  -6  107.46    3.98
  -3  -6  -6    3.43    1.92
  -3  -6  -6    1.38    2.24
   3  -6   6    0.40    1.26
  -3   6  -6    0.53    1.58
   3   6   6    0.63    1.87
  -4  -6  -6   13.06    3.19
  -4  -6  -6   11.49    3.02
   4  -6   6   12.72    2.18
  -4   6  -6   14.21    2.61
   4   6   6   14.04    3.08
  -5  -6  -6    7.74    3.46
   5  -6   6    5.42    2.33
  -5   6  -6   10.77    3.25
   5   6   6    8.66    3.12
   6  -6   6    2.81    2.80
  -6  -6  -6    0.49    3.28
   6   6   6    2.29    3.52
  -6   6  -6    7.29    3.49
   7  -6   6    1.32    3.52
   7   6   6    8.33    4.42
   7  -7  -6    7.58    3.35
  -7   7   6    4.61    4.13
  -7   7   6    4.62    3.14
  -7   7   6    6.04    4.72
   7   7  -6   11.09    3.98
   6  -7  -6    5.42    2.91
  -6   7   6    3.35    3.00
  -6   7   6    5.27    2.59
   6   7  -6   10.72    3.15
  -6   7   6    4.74    3.23
   5  -7  -6   17.37    2.59
  -5   7   6   20.07    2.85
  -5   7   6   15.22    3.10
  -5   7   6   22.18    2.80
   5   7  -6   19.92    2.97
   4  -7  -6   12.36    1.98
  -4   7   6   13.00    2.15
   4   7  -6   15.15    2.07
  -4   7   6   12.14    2.60
  -4   7   6   12.82    2.11
   3  -7  -6   64.83    3.09
  -3   7   6   60.21    3.02
   3   7  -6   60.57    2.72
  -3   7   6   64.53    3.30
  -3   7   6   56.89    3.78
   2  -7  -6   36.41    2.26
   2  -7  -6   33.79    2.84
  -2   7   6   37.20    3.15
  -2   7   6   36.18    2.17
   2   7  -6   39.18    1.56
  -2   7   6   36.21    2.56
   1  -7  -6  272.74    6.81
   1  -7  -6  267.21    7.28
   1  -7  -6  253.85    6.96
  -1   7   6  265.30    7.19
  -1   7   6  267.33    7.86
  -1   7   6  268.61    6.66
   0  -7  -6    1.68    1.25
   0  -7  -6    3.15    1.53
   0   7   6    2.63    1.79
   0   7  -6    2.97    0.66
   0   7   6    3.43    1.33
   0   7   6    2.80    0.96
  -1  -7  -6   -0.62    1.30
   1   7   6    2.27    1.84
   1   7   6    1.43    1.36
  -1   7  -6    1.03    0.90
  -2  -7  -6    8.23    2.18
  -2  -7  -6    6.16    1.83
   2  -7   6    6.58    1.09
   2   7   6    6.79    1.99
  -2   7  -6    7.95    1.51
   2   7   6    7.09    2.41
  -3  -7  -6  158.26    6.18
   3  -7   6  171.48    5.14
  -3  -7  -6  169.89    6.58
   3   7   6  167.27    6.40
  -3   7  -6  164.96    5.84
   4  -7   6    9.15    2.05
  -4  -7  -6    9.94    2.90
   4   7   6   11.02    3.03
  -4   7  -6   10.10    2.58
   5  -7   6    0.28    2.37
  -5  -7  -6    6.01    2.87
  -5  -7  -6    6.00    3.50
   5   7   6    2.73    2.95
  -5   7  -6    3.83    2.97
   6  -7   6   11.39    3.35
  -6  -7  -6   10.16    3.92
   6   7   6    8.70    3.74
  -6   7  -6    5.96    3.71
   7  -7   6   69.81    6.35
   7   7   6   61.61    6.83
   7  -8  -6   -5.72    3.09
   7   8  -6   -0.93    3.77
  -7   8   6    0.03    3.21
  -7   8   6    6.36    4.14
   6  -8  -6    3.15    2.84
   6   8  -6   -2.04    3.03
  -6   8   6   -1.85    2.51
  -6   8   6    0.25    3.33
  -6   8   6   -2.76    2.87
   5  -8  -6   28.36    3.51
  -5   8   6   26.13    3.50
  -5   8   6   30.75    3.52
  -5   8   6   29.53    3.79
   5   8  -6   32.39    3.78
   4  -8  -6   40.61    3.16
  -4   8   6   42.68    3.95
   4   8  -6   41.71    3.13
  -4   8   6   39.28    3.23
  -4   8   6   40.32    3.33
   3  -8  -6    8.86    1.68
  -3   8   6    8.26    1.71
  -3   8   6    7.96    2.40
  -3   8   6   10.08    1.94
   3   8  -6    9.37    1.48
   2  -8  -6   58.51    2.76
   2  -8  -6   55.73    2.96
  -2   8   6   54.50    3.13
   2   8  -6   52.11    2.02
  -2   8   6   47.22    3.39
  -2   8   6   55.81    2.69
   1  -8  -6    1.55    1.45
   1  -8  -6    4.61    1.41
   1  -8  -6    4.31    1.27
  -1   8   6    6.01    1.59
  -1   8   6    4.04    1.85
  -1   8   6    5.42    1.23
   0  -8  -6    5.07    1.91
   0  -8  -6    2.85    1.44
   0   8   6    3.69    1.09
   0   8   6    2.71    1.82
   0   8  -6    3.33    0.76
   0   8   6    5.93    1.65
  -1  -8  -6   78.14    3.86
  -1  -8  -6   73.29    3.64
   1   8   6   72.03    4.36
  -1   8  -6   73.94    2.79
   1   8   6   75.41    3.78
  -2  -8  -6   28.80    3.20
  -2  -8  -6   21.45    2.77
   2  -8   6   24.89    1.71
   2   8   6   24.76    3.02
   2   8   6   31.83    3.66
  -2   8  -6   23.83    2.31
  -3  -8  -6   33.82    4.02
   3  -8   6   34.01    2.50
  -3  -8  -6   41.43    3.82
  -3   8  -6   37.21    3.18
   3   8   6   40.55    3.80
  -4  -8  -6   10.98    2.99
   4  -8   6    9.16    2.11
  -4   8  -6   10.61    2.48
   4   8   6   10.94    3.10
  -5  -8  -6   74.27    5.96
  -5   8  -6   73.74    5.49
   5   8   6   88.35    6.18
  -6  -8  -6   16.76    4.16
   6  -8   6   13.58    3.29
  -6   8  -6    9.65    3.98
   6   8   6   11.31    4.10
   7  -8   6    7.14    3.57
   7   8   6    1.33    4.74
   7  -9  -6   -0.19    3.35
  -7   9   6    3.29    3.44
  -7   9   6    7.48    4.00
   7   9  -6   -3.22    3.96
   6  -9  -6   -0.74    2.74
  -6   9   6    4.78    3.18
   6   9  -6    3.90    3.26
  -6   9   6   -1.95    3.11
   5  -9  -6   13.51    3.88
  -5   9   6   24.89    3.29
  -5   9   6   22.41    3.71
   5   9  -6   20.68    3.23
   4  -9  -6   21.82    2.93
  -4   9   6   28.60    3.54
  -4   9   6   27.36    3.13
  -4   9   6   25.41    3.18
   4   9  -6   20.70    2.80
   3  -9  -6    6.67    1.64
  -3   9   6    8.27    2.06
   3   9  -6    6.88    1.47
  -3   9   6    5.50    2.44
  -3   9   6    4.12    1.58
   2  -9  -6    1.37    1.48
   2  -9  -6   -0.85    1.15
   2   9  -6    1.39    0.86
  -2   9   6    0.84    1.52
  -2   9   6    0.58    1.19
  -2   9   6    0.93    1.95
   1  -9  -6   57.17    2.99
   1  -9  -6   55.87    3.15
  -1   9   6   56.70    3.32
  -1   9   6   54.54    3.74
  -1   9   6   58.40    2.68
   0  -9  -6   93.04    4.11
   0  -9  -6   85.96    3.77
   0   9   6   91.80    3.37
   0   9   6   90.79    4.66
   0   9   6   92.93    4.11
   0   9  -6   92.00    2.82
  -1  -9  -6   14.74    2.27
  -1  -9  -6   13.05    2.04
   1   9   6   15.49    2.70
   1   9   6   12.85    2.16
  -1   9  -6   14.21    1.56
   2  -9   6    3.28    1.03
  -2  -9  -6    4.27    2.01
  -2  -9  -6    0.89    1.77
   2   9   6    3.20    2.32
   2   9   6    2.61    1.88
  -2   9  -6    3.49    1.42
   3  -9   6    7.88    1.58
  -3  -9  -6    8.46    2.52
  -3  -9  -6    8.59    2.57
  -3   9  -6    7.01    2.12
   3   9   6    4.01    2.39
  -4  -9  -6   50.13    4.68
   4  -9   6   50.20    3.39
   4   9   6   48.17    4.70
  -4   9  -6   52.52    4.32
   5  -9   6   12.11    2.79
  -5  -9  -6   11.76    3.39
  -5  -9  -6   17.91    4.18
   5   9   6   13.29    3.65
  -5   9  -6   12.20    3.22
  -6  -9  -6    7.10    3.99
   6  -9   6    4.09    2.78
   6   9   6    3.17    3.96
  -6   9  -6    6.08    4.27
   7  -9   6    1.61    3.55
   7   9   6   -6.91    4.45
   7 -10  -6    4.86    3.84
   7  10  -6    8.34    4.52
  -7  10   6    2.87    3.59
  -7  10   6    7.47    4.57
  -7  10   6    6.46    4.34
   6 -10  -6    4.55    3.06
  -6  10   6    1.01    3.71
   6  10  -6    7.37    6.21
  -6  10   6    4.24    3.16
  -6  10   6    2.78    3.50
   5 -10  -6   -2.21    2.07
  -5  10   6   -0.93    2.48
  -5  10   6   -2.50    2.66
   5  10  -6    2.82    2.46
  -5  10   6   -1.87    2.27
   4 -10  -6   12.46    2.43
  -4  10   6   10.55    2.83
   4  10  -6   13.71    2.35
  -4  10   6    9.76    2.50
  -4  10   6    9.97    2.21
   3 -10  -6   54.69    3.31
  -3  10   6   51.59    4.23
  -3  10   6   56.28    3.77
   3  10  -6   56.78    2.98
  -3  10   6   52.74    3.30
   2 -10  -6   16.48    2.23
   2 -10  -6   19.77    2.60
  -2  10   6   17.09    2.91
   2  10  -6   18.36    1.69
  -2  10   6   22.67    2.76
  -2  10   6   13.96    1.84
   1 -10  -6    4.44    1.55
   1 -10  -6    7.05    1.77
  -1  10   6    1.22    1.59
  -1  10   6    1.56    2.06
  -1  10   6    4.98    1.30
   0 -10  -6  291.91    8.10
   0 -10  -6  275.56    7.83
   0  10   6  276.54    8.77
   0  10   6  275.77    8.19
   0  10   6  280.39    7.36
   0  10  -6  274.36    6.74
  -1 -10  -6   51.20    3.55
  -1 -10  -6   50.80    3.34
   1  10   6   43.49    4.03
   1  10   6   48.19    3.55
  -1  10  -6   46.84    2.43
  -2 -10  -6  132.99    5.35
  -2 -10  -6  125.61    5.29
   2 -10   6  125.69    3.85
   2  10   6  133.62    5.73
   2  10   6  131.13    6.14
  -2  10  -6  124.17    4.61
  -3 -10  -6   -0.58    2.14
  -3 -10  -6   -1.61    2.38
   3 -10   6    0.38    1.34
   3  10   6   -0.55    2.28
  -3  10  -6    0.17    1.92
  -4 -10  -6   92.46    5.47
   4 -10   6   86.51    4.20
   4  10   6   71.24    6.12
  -4  10  -6   91.43    5.26
  -5 -10  -6    8.97    3.44
   5 -10   6    1.67    2.16
  -5  10  -6    4.76    3.05
   5  10   6    2.51    3.38
   6 -10   6   17.41    3.51
  -6 -10  -6    6.39    4.34
   6  10   6   11.72    4.70
  -6  10  -6   26.41    4.81
   7 -11  -6    0.80    3.51
  -7  11   6    6.34    4.33
  -7  11   6    7.74    4.61
  -7  11   6   -5.10    3.75
   7  11  -6    0.01    4.25
   6 -11  -6   11.16    3.35
  -6  11   6    5.65    3.89
  -6  11   6   11.63    3.61
   6  11  -6    5.74    3.98
   5 -11  -6    7.71    2.57
  -5  11   6   17.23    3.33
  -5  11   6   10.39    3.36
   5  11  -6   15.05    3.08
  -5  11   6    9.88    2.88
   4 -11  -6    3.84    2.11
  -4  11   6    3.06    2.32
  -4  11   6    1.76    2.72
   4  11  -6    0.46    1.90
   3 -11  -6   54.27    3.39
   3  11  -6   57.50    3.18
  -3  11   6   59.42    4.02
  -3  11   6   54.74    4.62
  -3  11   6   55.75    3.47
   2 -11  -6   77.36    3.61
   2 -11  -6   77.63    3.98
  -2  11   6   79.33    3.59
  -2  11   6   77.91    4.78
   2  11  -6   80.48    3.08
  -2  11   6   75.58    4.16
   1 -11  -6   69.66    3.69
   1 -11  -6   72.59    3.53
  -1  11   6   69.86    3.19
  -1  11   6   71.58    4.51
  -1  11   6   68.96    4.02
   0 -11  -6    2.61    1.55
   0 -11  -6    3.87    1.68
   0  11   6    2.86    1.39
   0  11   6    2.99    1.87
   0  11   6    1.14    2.33
   0  11  -6    1.03    0.96
  -1 -11  -6   -0.01    1.87
  -1 -11  -6    1.83    1.64
   1  11   6    1.20    1.27
  -1  11  -6    2.59    1.21
   1  11   6    0.42    1.91
   1  11   6   -1.27    2.17
   2 -11   6  105.82    3.47
  -2 -11  -6  108.73    5.12
  -2 -11  -6  103.26    7.62
   2  11   6  103.73    5.67
  -2  11  -6  104.91    4.23
   2  11   6  101.19    5.30
  -3 -11  -6  145.79    6.14
  -3 -11  -6  133.18    5.96
   3 -11   6  133.65    4.59
  -3  11  -6  124.65    5.43
   3  11   6  133.16    6.38
   4 -11   6   55.84    3.66
  -4 -11  -6   63.65    5.07
  -4  11  -6   63.04    4.69
   4  11   6   54.52    5.27
  -5 -11  -6   -3.04    3.14
   5 -11   6   -0.08    2.43
   5  11   6   -5.20    3.16
  -5  11  -6    3.61    3.10
  -6 -11  -6   -7.89    4.11
   6 -11   6   -4.89    2.97
   6  11   6    0.50    4.04
   7 -12  -6    7.17    3.89
  -7  12   6   24.64    5.25
   7  12  -6   18.70    5.10
  -7  12   6   15.05    4.77
   6 -12  -6    2.88    3.05
   6  12  -6    6.64    3.71
  -6  12   6    7.23    5.02
  -6  12   6    8.10    3.49
  -6  12   6    4.26    3.55
   5 -12  -6    4.77    2.65
  -5  12   6    7.94    3.44
  -5  12   6    6.48    2.80
  -5  12   6    1.85    3.26
   5  12  -6    2.77    2.79
  -4  12   6   20.77    2.87
  -4  12   6   20.35    3.26
  -4  12   6   19.12    3.71
   4  12  -6   16.04    2.74
   3 -12  -6    7.92    2.23
   3  12  -6   10.28    2.03
  -3  12   6    8.51    2.54
  -3  12   6    8.60    2.89
  -3  12   6   10.19    2.24
   2 -12  -6   22.62    2.66
   2 -12  -6   19.45    2.68
  -2  12   6   28.12    3.38
  -2  12   6   21.66    2.64
  -2  12   6   21.48    3.23
   2  12  -6   24.57    2.17
   2  12  -6   22.36    1.09
   1 -12  -6   24.72    2.74
   1 -12  -6   18.80    2.63
   1  12  -6   23.03    1.84
   1  12  -6   22.84    1.67
  -1  12   6   20.45    3.16
  -1  12   6   25.19    2.45
  -1  12   6   25.78    3.05
   0 -12  -6   24.64    3.05
   0 -12  -6   26.69    2.87
   0  12   6   25.77    3.34
   0  12   6   27.13    3.53
   0  12  -6   26.92    1.99
   0  12   6   30.94    2.53
  -1 -12  -6   25.66    3.05
  -1 -12  -6   28.12    3.26
   1  12   6   30.07    2.65
   1  12   6   24.45    3.00
  -1  12  -6   24.25    2.24
   1  12   6   23.86    3.44
  -2 -12  -6    2.21    2.17
   2 -12   6    0.57    1.08
  -2 -12  -6    4.35    2.12
  -2  12  -6    2.32    1.65
   2  12   6    2.82    2.81
   2  12   6   -0.59    2.24
  -3 -12  -6   30.59    3.91
   3 -12   6   32.15    2.66
  -3 -12  -6   34.66    3.82
  -3  12  -6   35.23    3.42
   3  12   6   36.03    4.45
  -4 -12  -6    5.31    3.99
   4 -12   6    4.76    2.07
  -4 -12  -6    0.55    2.93
  -4  12  -6    2.73    2.47
   4  12   6   -3.42    2.77
   5 -12   6   11.41    2.73
  -5 -12  -6    1.71    3.25
  -5  12  -6   10.24    3.55
   5  12   6    7.57    3.99
  -6 -12  -6   10.65    4.51
   6 -12   6    7.13    3.29
   6  12   6    5.41    4.53
   6 -13  -6    8.00    3.37
  -6  13   6   10.29    3.94
  -6  13   6    3.16    3.71
   6  13  -6   11.53    4.11
  -6  13   6    9.54    4.13
   5 -13  -6   -2.10    2.46
  -5  13   6    2.46    3.14
   5  13  -6    5.96    3.06
  -5  13   6    3.79    3.72
   4 -13  -6   13.49    2.84
  -4  13   6    6.90    3.28
   4  13  -6   10.71    2.69
  -4  13   6   10.39    3.03
  -4  13   6   14.12    2.84
   3 -13  -6   78.95    4.29
   3  13  -6   80.41    4.07
  -3  13   6   79.16    5.59
  -3  13   6   85.47    4.39
   2 -13  -6   32.45    3.03
   2  13  -6   30.18    1.48
  -2  13   6   28.38    3.80
  -2  13   6   30.69    4.27
   2  13  -6   33.22    2.62
  -2  13   6   32.08    2.99
   1 -13  -6   35.11    3.08
  -1  13   6   28.17    3.61
   1  13  -6   35.20    2.26
  -1  13   6   36.00    2.82
   1  13  -6   35.37    2.19
   1  13  -6   30.41    1.94
  -1  13   6   31.51    4.03
   0 -13  -6   49.06    3.46
   0 -13  -6   46.28    4.35
   0  13   6   50.12    3.09
   0  13   6   47.53    4.55
   0  13  -6   53.64    2.60
   0  13   6   44.03    4.10
  -1 -13  -6   53.45    3.84
  -1 -13  -6   59.10    4.11
  -1  13  -6   53.16    2.99
   1  13   6   53.97    4.42
   1  13   6   61.56    4.91
   1  13   6   47.82    4.54
  -2 -13  -6   29.82    3.65
  -2 -13  -6   30.14    3.77
   2  13   6   34.16    4.34
   2  13   6   23.48    3.51
  -2  13  -6   30.29    2.97
   3 -13   6  148.99    4.94
  -3 -13  -6  154.11    7.14
  -3 -13  -6  142.57    6.44
   3  13   6  158.06    7.33
  -3  13  -6  139.79    5.87
   3  13   6  106.41    9.71
   4 -13   6   17.21    2.65
  -4 -13  -6   18.72    3.67
   4  13   6   15.29    3.87
  -4  13  -6   17.65    3.12
   5 -13   6    1.02    2.74
  -5 -13  -6    5.01    3.63
  -5 -13  -6    7.03    3.97
  -5  13  -6    1.77    3.40
   5  13   6    3.21    3.75
   6 -13   6    0.21    3.01
   6  13   6    2.22    4.84
   6 -14  -6   21.69    4.12
  -6  14   6   20.09    4.41
   6  14  -6   27.20    4.77
  -6  14   6   13.47    4.51
  -6  14   6   23.38    4.59
   5 -14  -6   28.71    3.88
  -5  14   6   24.25    4.58
  -5  14   6   23.39    4.07
   5  14  -6   18.57    3.72
   4 -14  -6    5.48    2.57
  -4  14   6    0.72    3.14
  -4  14   6    5.97    2.46
  -4  14   6    4.87    3.49
   4  14  -6    2.41    2.37
   3  14  -6   99.60    4.70
  -3  14   6   94.12    5.56
  -3  14   6   97.29    4.86
  -3  14   6   95.69    6.06
   2 -14  -6   36.45    3.25
  -2  14   6   40.09    4.20
  -2  14   6   38.81    3.24
  -2  14   6   36.66    4.32
   2  14  -6   35.53    1.80
   2  14  -6   39.67    2.94
   1 -14  -6    0.75    1.96
   1  14  -6    1.94    1.22
  -1  14   6   -0.57    2.60
   1  14  -6    0.19    1.10
   1  14  -6    1.39    1.32
  -1  14   6   -0.31    2.32
   0 -14  -6    4.95    2.08
   0 -14  -6    6.64    2.18
   0  14   6    5.68    2.45
   0  14   6    4.98    2.53
   0  14  -6    5.07    1.42
   0  14   6    4.89    2.83
  -1 -14  -6  115.58    5.26
  -1 -14  -6  124.77    5.39
  -1  14  -6  115.87    4.43
   1  14   6  117.49    6.39
   1  14   6  113.28    5.98
   1  14   6  123.53    4.82
  -2 -14  -6   27.68    3.84
  -2 -14  -6   20.89    3.05
   2  14   6   27.75    4.29
   2  14   6   20.14    3.40
   3 -14   6    6.18    1.80
  -3 -14  -6    5.42    2.92
  -3  14  -6    3.99    2.17
   3  14   6    8.69    3.56
   3  14   6    6.34    3.44
   4 -14   6    7.97    2.25
  -4 -14  -6    5.03    3.31
  -4 -14  -6    7.55    3.89
  -4  14  -6    9.04    3.28
   4  14   6    9.02    3.80
   5 -14   6   37.86    4.49
  -5 -14  -6   25.91    4.27
  -5  14  -6   39.70    4.80
   5  14   6   31.34    5.21
   6 -14   6    8.22    3.40
   6  14   6    3.24    5.07
   6 -15  -6    1.17    3.69
   6  15  -6   -0.16    4.14
  -6  15   6    5.80    4.19
  -6  15   6    5.80    4.37
  -6  15   6   -2.97    4.24
   5 -15  -6   14.77    3.52
  -5  15   6   13.48    4.15
  -5  15   6   12.80    3.58
   5  15  -6   17.40    5.02
   4 -15  -6    9.57    2.83
  -4  15   6   15.31    3.50
   4  15  -6   15.02    3.14
  -4  15   6    8.05    3.67
   3 -15  -6    1.96    2.25
  -3  15   6    0.61    3.05
  -3  15   6    1.98    2.18
  -3  15   6    2.60    3.29
   3  15  -6   -0.53    2.08
   2  15  -6    1.45    1.86
  -2  15   6   -0.53    2.95
  -2  15   6    4.52    2.68
  -2  15   6    4.95    2.01
   2  15  -6    1.93    1.12
   1 -15  -6   36.42    3.70
   1  15  -6   36.90    2.55
  -1  15   6   40.13    4.74
   1  15  -6   36.97    2.79
  -1  15   6   41.13    4.32
   1  15  -6   38.48    2.47
  -1  15   6   46.77    3.33
   0 -15  -6  137.00    5.70
   0  15   6  135.91    6.77
   0  15   6  138.49    6.59
   0  15   6  148.46    5.34
   0  15  -6  138.26    4.70
  -1 -15  -6   13.25    2.61
   1  15   6   11.65    2.20
   1  15   6    7.07    2.94
  -1  15  -6   10.78    2.02
   1  15   6    8.90    3.06
  -2 -15  -6   11.11    3.05
  -2 -15  -6   12.87    2.93
   2  15   6   10.70    3.65
  -2  15  -6   12.11    2.41
   3 -15   6   21.71    2.44
  -3 -15  -6   22.24    3.55
   3  15   6   24.26    4.36
  -3  15  -6   19.73    3.10
   3  15   6   20.80    4.30
   4 -15   6    9.61    2.48
  -4 -15  -6    8.52    3.48
   4  15   6    8.58    3.94
  -4  15  -6    9.12    3.08
   5 -15   6   -1.48    2.67
  -5 -15  -6   -0.58    3.60
  -5  15  -6    2.58    3.77
   5  15   6   -4.08    3.81
   6 -15   6    7.25    3.53
   6  15   6    5.05    5.17
   6 -16  -6    9.78    4.08
   6  16  -6   -2.42    4.41
  -6  16   6   10.70    4.85
  -6  16   6    5.29    4.55
  -6  16   6   -5.25    4.35
   5 -16  -6    2.34    3.11
   5  16  -6    6.63    3.72
  -5  16   6    2.65    3.89
  -5  16   6    3.18    4.16
  -5  16   6    9.36    3.82
   4 -16  -6   23.39    3.56
   4  16  -6   19.99    3.54
  -4  16   6   18.59    4.38
  -4  16   6   16.23    3.70
   3 -16  -6   38.31    4.05
  -3  16   6   39.60    4.87
   3  16  -6   29.85    3.92
  -3  16   6   46.32    4.87
  -2  16   6    1.24    1.93
  -2  16   6    0.49    3.40
  -2  16   6   -0.34    3.01
   2  16  -6    0.14    2.00
   1 -16  -6   16.33    2.92
  -1  16   6   12.80    3.38
  -1  16   6   17.23    3.54
   1  16  -6   17.12    1.96
  -1  16   6   23.31    2.77
   1  16  -6   21.01    2.57
   1  16  -6   17.57    2.08
   0 -16  -6   27.30    3.64
   0  16   6   27.97    3.05
   0  16   6   29.80    4.00
   0  16  -6   25.83    2.58
   0  16   6   19.76    3.79
   0  16  -6   23.67    2.63
  -1 -16  -6   70.06    4.65
   1  16   6   64.30    5.77
   1  16   6   67.49    4.08
  -2 -16  -6   16.80    3.07
   2  16   6   13.92    3.55
   2  16   6   16.39    3.88
  -2  16  -6   11.92    2.42
   3 -16   6   13.70    2.24
  -3 -16  -6    9.29    3.07
  -3 -16  -6   14.49    3.53
   3  16   6   14.49    4.00
   3  16   6   15.39    4.24
  -3  16  -6   13.24    3.07
  -4 -16  -6   25.20    4.18
  -4  16  -6   24.63    3.66
   4  16   6   33.14    5.14
   5 -16   6   12.85    3.22
  -5 -16  -6   10.58    4.20
   5  16   6   17.54    5.17
   6 -17  -6   19.64    4.69
   5 -17  -6   17.28    3.88
  -5  17   6   24.16    4.22
   5  17  -6   21.39    4.16
  -5  17   6    4.81    4.10
  -5  17   6   12.66    4.72
   4 -17  -6    6.29    3.04
  -4  17   6    3.48    3.84
  -4  17   6    1.44    3.03
   4  17  -6    3.72    3.24
   3 -17  -6    1.23    2.41
  -3  17   6   -0.08    1.87
  -3  17   6    2.41    3.68
  -3  17   6   -2.18    3.41
   3  17  -6   -1.50    2.53
  -2  17   6   84.77    6.51
   2  17  -6   68.29    3.92
   2  17  -6   76.43    4.58
  -2  17   6   76.83    5.98
  -1  17   6    2.04    3.25
   1  17  -6    1.07    1.58
   1  17  -6    1.29    1.97
   1  17  -6   -0.08    1.52
  -1  17   6    2.86    2.95
   0 -17  -6   38.38    4.36
   0  17  -6   39.63    3.14
   0  17   6   38.60    5.26
   0  17   6   47.17    5.00
   0  17  -6   39.69    3.41
  -1 -17  -6    0.55    2.38
   1  17   6    0.45    3.43
  -1  17  -6    2.79    1.90
   1  17   6   -2.13    2.78
   2  17   6   40.97    5.66
   2  17   6   23.65    3.00
  -3 -17  -6   -1.74    2.88
  -3  17  -6    0.30    2.62
   3  17   6    2.28    3.97
   3  17   6    0.10    3.63
   4 -17   6    5.75    2.48
  -4 -17  -6    2.73    3.55
   4  17   6    9.14    4.47
  -4  17  -6    3.92    2.92
   5 -17   6   -3.92    2.74
   5  17   6   -0.24    4.85
   5 -18  -6    9.18    3.63
   5  18  -6    0.39    3.88
  -5  18   6   16.26    4.32
  -5  18   6    4.36    4.60
  -5  18   6   -1.32    4.57
   4 -18  -6   10.70    3.42
  -4  18   6    7.91    3.29
  -4  18   6    3.21    4.09
  -4  18   6    7.25    4.54
  -3  18   6   40.87    5.57
  -3  18   6   32.50    4.37
  -3  18   6   42.20    5.25
   3  18  -6   35.51    4.79
  -2  18   6    2.43    1.88
  -2  18   6    7.77    3.50
  -2  18   6    7.57    3.94
   2  18  -6    7.69    1.72
   2  18  -6    8.04    1.93
   2  18  -6    9.92    2.81
   1  18  -6    7.79    2.50
  -1  18   6   10.05    3.64
   1  18  -6    3.35    1.83
  -1  18   6    1.99    2.78
  -1  18   6    3.81    3.36
   1  18  -6    2.22    1.75
   0  18   6   -0.54    3.34
   0  18  -6    3.29    1.76
   0  18   6    2.96    1.90
   0  18  -6    1.48    1.90
   0  18   6    4.22    3.39
   0  18  -6    1.19    1.96
   1  18   6   25.12    4.85
  -1  18  -6   28.75    3.17
  -1  18  -6   24.62    3.03
   1  18   6   20.63    4.30
  -2 -18  -6    1.28    2.60
   2  18   6   -0.40    3.57
  -2  18  -6    2.20    2.27
   2  18   6    2.88    2.39
   2  18   6    4.83    4.01
  -3 -18  -6   -3.52    3.27
   3  18   6   -5.67    3.69
  -3  18  -6    0.68    2.64
   3  18   6   -8.07    3.79
  -4 -18  -6   -7.33    3.51
   4 -18   6    4.89    2.64
   4  18   6   -0.26    4.44
  -4  18  -6   -0.45    3.05
   5 -18   6    1.85    3.19
   5  18   6    7.74    5.24
   5 -19  -6    2.07    3.91
  -5  19   6   -0.82    4.89
  -5  19   6   -3.78    4.96
   5  19  -6   -2.97    4.15
   4 -19  -6    7.39    3.36
  -4  19   6    7.14    3.59
  -4  19   6   -5.24    4.29
  -4  19   6   -4.17    4.16
   4  19  -6    1.22    3.60
  -3  19   6    4.88    2.95
  -3  19   6    8.56    4.41
   3  19  -6    7.02    3.49
  -3  19   6    2.01    7.17
   2  19  -6   52.05    3.16
  -2  19   6   51.56    4.53
  -2  19   6   51.48    6.41
   2  19  -6   53.55    3.73
   2  19  -6   46.34    4.63
  -2  19   6   56.92    6.08
  -1  19   6    7.90    2.49
  -1  19   6    5.23    3.83
   1  19  -6    5.78    2.08
   1  19  -6    5.01    2.11
   1  19  -6    8.95    2.77
  -1  19   6    6.91    3.49
   0 -19  -6   -1.48    3.51
   0  19   6    0.56    3.29
   0  19   6    5.78    2.31
   0  19  -6    2.73    1.93
   0  19   6    0.62    3.48
   0  19  -6   -0.23    2.20
   0  19  -6    1.49    2.08
  -1 -19  -6    3.40    3.01
  -1 -19  -6    1.70    2.58
   1  19   6   -1.46    3.53
  -1  19  -6    1.81    2.18
  -1  19  -6    4.82    2.53
   1  19   6   -4.72    3.69
   1  19   6   -0.48    2.34
  -2 -19  -6   12.05    3.47
  -2 -19  -6    2.07    3.46
  -2  19  -6   15.29    3.14
   2  19   6   10.29    4.28
   2  19   6   12.65    2.98
   2  19   6   16.78    4.70
  -3 -19  -6   14.68    3.77
   3  19   6   10.97    4.37
   3  19   6   28.95    5.52
  -4 -19  -6   24.64    4.97
   4  19   6   35.85    6.01
   4 -20  -6    6.90    3.42
  -4  20   6   -0.88    4.41
  -4  20   6    5.56    4.69
  -4  20   6    9.06    3.74
   3  20  -6    2.46    3.67
  -3  20   6    0.67    3.01
  -3  20   6    2.23    4.15
  -3  20   6    1.41    4.60
   2  20  -6    6.09    2.28
   2  20  -6    6.05    2.01
   2  20  -6    0.76    3.64
  -2  20   6    9.05    4.31
  -2  20   6    3.80    2.64
  -2  20   6    1.79    4.73
  -1  20   6    8.00    2.86
  -1  20   6    3.81    3.87
   1  20  -6    6.29    2.19
   1  20  -6    3.70    2.92
   1  20  -6    3.79    2.23
  -1  20   6    7.09    4.22
   0  20  -6   -1.69    2.12
   0  20   6   -2.86    3.67
   0  20  -6    1.17    2.07
   0  20   6    0.39    2.37
   0  20   6   -2.82    3.77
  -1  20  -6   67.57    4.94
   1  20   6   67.01    5.03
   1  20   6   68.91    7.08
  -1  20  -6   70.98    5.02
  -1  20  -6   66.56    4.73
   1  20   6   76.61    7.00
  -2 -20  -6   -4.05    3.23
  -2  20  -6   -0.61    2.72
   2  20   6   -2.19    4.10
   2  20   6    1.95    3.85
  -2  20  -6    2.28    3.02
   2  20   6    5.70    2.94
  -3 -20  -6   -1.89    3.50
  -3  20  -6    5.68    3.14
   3  20   6   10.10    4.76
   3  20   6    6.88    4.95
   4  20   6    2.69    4.82
  -4  21   6    7.07    5.11
   4  21  -6   14.84    4.72
  -4  21   6    1.73    4.86
  -3  21   6   -3.24    4.33
  -3  21   6   -3.85    4.67
   3  21  -6   -0.28    3.83
  -3  21   6    1.52    3.41
  -2  21   6    7.82    3.16
   2  21  -6    0.94    2.23
   2  21  -6   -6.47    3.06
  -2  21   6   -0.78    4.15
  -2  21   6   -2.58    4.47
   2  21  -6    0.57    2.11
  -1  21   6   17.07    7.54
  -1  21   6   23.79    4.92
  -1  21   6   15.55    3.25
   1  21  -6   19.81    2.84
   1  21  -6   21.92    3.70
   1  21  -6   20.19    2.83
   0  21  -6   31.97    3.92
   0  21   6   26.25    3.58
   0  21  -6   26.20    3.29
   0  21  -6   28.60    3.94
   0  21   6   23.14    5.15
   0  21   6   25.12    5.14
   1  21   6   -1.16    2.55
   1  21   6   -0.62    4.28
  -1  21  -6    2.23    2.74
  -1  21  -6    1.73    2.65
  -1  21  -6   -1.42    2.90
   1  21   6    4.38    4.43
  -2 -21  -6   -3.11    3.46
   2  21   6    0.05    2.98
  -2  21  -6    7.60    3.24
   2  21   6   -2.22    4.11
  -2  21  -6    4.72    3.40
   2  21   6    0.42    4.79
  -3 -21  -6   -4.83    4.90
  -3  21  -6   -0.80    3.71
  -3  21  -6   -0.61    5.07
   3  21   6   -1.83    4.90
   3  21   6    0.18    5.16
  -3  22   6    4.12    5.08
  -3  22   6   11.01    5.59
   3  22  -6    3.93    4.35
   3  22  -6    8.04    2.98
  -2  22   6    4.83    4.86
   2  22  -6   10.30    2.84
   2  22  -6    9.69    3.92
  -2  22   6   12.59    4.97
  -2  22   6   12.71    3.66
   2  22  -6   10.46    2.51
   1  22  -6   28.39    4.02
   1  22  -6   23.67    3.26
  -1  22   6   19.86    3.60
  -1  22   6   25.91    5.72
  -1  22   6   27.21    5.10
   1  22  -6   36.01    4.20
   0  22   6   11.48    3.34
   0  22  -6    8.10    2.86
   0  22  -6   -0.92    3.32
   0  22  -6    5.04    2.64
   0  22   6    6.39    4.37
  -1  22  -6   53.11    5.14
   1  22   6   59.86    9.05
  -1  22  -6   42.35    5.56
   1  22   6   55.00    7.40
   1  22   6   49.88    5.10
  -1  22  -6   45.68    5.15
  -2 -22  -6   -5.36    3.60
  -2  22  -6    3.49    3.45
  -2  22  -6   -0.78    3.26
  -2  22  -6    0.95    3.46
   2  22   6    0.87    4.43
   3  22   6    1.53    6.29
   3  22   6    2.86    4.96
  -3  22  -6   11.64    4.33
  -3  23   6   11.47    6.10
  -3  23   6    4.85    5.29
   3  23  -6   12.82    3.44
   3  23  -6    7.49    4.96
  -2  23   6   17.77    5.53
   2  23  -6    8.05    4.38
   2  23  -6   13.64    2.71
  -2  23   6    9.44    5.17
   2  23  -6    9.50    3.04
  -1  23   6   10.55    4.95
  -1  23   6    1.46    5.03
   1  23  -6    5.00    2.96
   1  23  -6    0.34    2.76
   1  23  -6   -1.07    3.80
   0  23   6   22.57    5.70
   0  23   6   31.33    6.07
   0  23  -6   35.45    4.71
   0  23  -6   28.59    4.73
   0  23  -6   33.84    4.10
  -1  23  -6   -2.13    3.67
   1  23   6    6.96    5.10
  -1  23  -6    3.23    3.37
  -1  23  -6    0.64    3.13
   1  23   6   -1.03    4.69
  -2  23  -6   18.85    4.75
  -2  23  -6   24.82    5.56
   2  23   6   32.30    6.46
   2  23   6   27.98    5.72
  -2  24   6   14.69    5.75
  -2  24   6   28.39    6.50
   2  24  -6   19.47    3.19
   2  24  -6   13.68    4.83
   2  24  -6   15.76    3.57
  -1  24   6   17.35    5.73
   1  24  -6    2.26    3.21
   1  24  -6    5.88    3.05
   1  24  -6   -7.40    4.06
  -1  24   6  -11.06    5.09
   0  24  -6   18.83    4.73
   0  24   6   19.12    5.64
   0  24  -6   22.10    3.87
   0  24   6    8.59    5.42
   0  24  -6   16.32    3.46
  -1  24  -6   27.83    5.08
   1  24   6   45.23    7.10
   1  24   6   34.19    7.06
  -1  24  -6   25.36    4.26
   8   0  -7   -0.88    4.25
  -8   0   7    3.95    3.81
   7   0  -7    3.64    3.14
  -7   0   7    1.30    2.15
  -7   0   7    8.03    2.59
  -7   0   7    3.58    2.95
   6   0  -7   -0.20    2.44
  -6   0   7    2.08    2.22
  -6   0   7    1.78    1.63
  -6   0   7    0.51    1.66
  -5   0   7   55.58    2.45
  -5   0   7   61.59    3.63
   5   0  -7   61.95    3.76
  -5   0   7   60.82    2.47
  -4   0   7   -0.54    1.43
   4   0  -7   -0.87    1.27
  -3   0   7   90.88    3.56
   3   0  -7   91.58    3.11
  -2   0   7    1.42    1.16
   2   0  -7   -0.43    0.60
   2   0  -7   -0.86    0.90
   2   0  -7    0.05    0.61
   1   0  -7   13.26    0.85
  -1   0   7   15.16    2.06
   1   0  -7   15.52    1.69
   1   0  -7   14.58    1.15
   0   0  -7    0.70    0.78
   0   0  -7   -0.44    1.24
   1   0   7   74.62    2.45
  -1   0  -7   75.84    3.02
  -1   0  -7   72.14    3.77
  -2   0  -7   -0.53    1.27
  -2   0  -7   -0.67    1.76
   2   0   7   -0.42    0.96
   3   0   7   48.73    3.03
  -3   0  -7   50.42    3.50
  -4   0  -7    1.19    2.13
   4   0   7    1.29    1.73
   5   0   7   86.85    6.61
   6   0   7    0.03    2.97
  -6   0  -7    0.61    3.33
   7   0   7    8.22    4.07
   8  -1  -7    3.80    4.18
   8   1  -7   10.64    4.44
   7  -1  -7    2.59    3.17
  -7  -1   7    3.05    2.17
  -7  -1   7   -2.12    1.92
  -7  -1   7   -3.96    2.58
  -7   1   7    2.44    2.69
  -7   1   7    2.13    3.02
   7   1  -7    1.23    3.08
  -7   1   7    1.94    2.31
  -6  -1   7   12.64    1.75
  -6  -1   7   15.78    1.86
   6  -1  -7   14.95    2.90
  -6  -1   7   13.92    2.54
  -6   1   7   15.55    2.21
  -6   1   7   18.56    2.39
   6   1  -7   12.37    2.88
  -6   1   7   10.03    2.74
   5  -1  -7   25.53    3.13
  -5  -1   7   27.78    2.92
  -5   1   7   22.38    2.17
  -5   1   7   25.15    2.80
  -5   1   7   22.65    2.27
   5   1  -7   27.07    3.15
   4  -1  -7  113.10    4.16
  -4  -1   7  111.01    4.04
   4   1  -7  117.15    4.17
  -4   1   7  107.56    3.09
  -4   1   7  116.60    3.15
  -4   1   7  115.47    4.43
  -3  -1   7   13.52    1.70
   3  -1  -7   12.51    1.65
  -3   1   7   12.46    1.80
   3   1  -7   10.96    1.50
  -2  -1   7    0.57    1.15
   2  -1  -7    2.52    0.75
   2  -1  -7    2.31    1.14
   2  -1  -7    2.49    0.79
  -2   1   7    1.23    1.25
   2   1  -7    3.23    0.62
   2   1  -7    2.59    0.99
   2   1  -7    1.19    0.59
   1  -1  -7    7.72    1.40
   1  -1  -7    8.01    1.03
   1  -1  -7    6.88    0.87
  -1  -1   7    5.14    1.45
   1   1  -7    5.88    0.78
   1   1  -7    5.72    0.57
  -1   1   7    6.78    1.59
   1   1  -7    8.98    1.45
   0  -1  -7  441.87   10.85
   0  -1  -7  431.10    9.92
   0   1   7  424.85   10.94
   0   1   7  403.18    8.98
   0   1   7  437.04    9.12
   0   1  -7  431.54    9.60
   0   1  -7  442.66   10.82
  -1  -1  -7    0.51    1.46
   1  -1   7    1.09    0.67
  -1  -1  -7   -0.13    1.02
  -1   1  -7    1.54    1.05
  -1   1  -7    0.19    1.56
   1   1   7   -0.16    0.79
   2  -1   7   38.51    2.22
  -2  -1  -7   42.29    3.44
  -2  -1  -7   40.12    2.84
   2   1   7   39.45    2.45
  -2   1  -7   34.36    2.65
  -2   1  -7   39.95    3.14
  -3  -1  -7   76.38    4.08
   3  -1   7   74.64    3.52
  -3  -1  -7   72.04    4.41
  -3   1  -7   73.62    4.03
   3   1   7   78.11    3.76
  -4  -1  -7   70.74    5.15
   4  -1   7   65.45    3.95
  -4  -1  -7   62.57    4.42
   4   1   7   63.19    4.09
  -4   1  -7   57.04    4.38
   5  -1   7    5.46    2.43
  -5   1  -7   10.27    4.16
  -6  -1  -7   -4.50    3.48
   6  -1   7   -3.17    2.80
   6   1   7    0.42    3.04
  -6   1  -7   -0.88    3.40
   7  -1   7    7.38    3.95
   7   1   7    6.06    3.83
  -7  -2   7   13.14    1.92
   7  -2  -7   11.92    3.61
  -7  -2   7   13.38    1.97
  -7  -2   7   14.46    2.90
  -7   2   7   11.35    3.46
  -7   2   7   17.45    3.28
  -7   2   7   12.92    2.75
   7   2  -7   17.36    3.71
  -6  -2   7    0.55    2.01
   6  -2  -7    2.98    2.55
  -6  -2   7    3.83    1.12
  -6  -2   7    3.73    1.26
  -6   2   7    3.18    2.50
  -6   2   7    1.58    2.15
   6   2  -7    3.45    2.55
  -6   2   7    1.55    1.93
   5  -2  -7    3.46    1.98
  -5  -2   7    2.58    1.64
  -5   2   7   -0.64    2.00
  -5   2   7    2.88    1.51
   5   2  -7    1.32    1.85
  -5   2   7    0.07    1.47
  -4  -2   7   21.54    2.24
   4  -2  -7   25.67    2.44
  -4   2   7   24.58    1.85
  -4   2   7   26.01    2.87
  -4   2   7   24.51    1.85
   4   2  -7   18.76    2.27
   3  -2  -7  276.66    6.90
   3   2  -7  270.22    6.67
  -3   2   7  275.96    7.56
  -3   2   7  256.43    6.02
  -3   2   7  275.49    6.08
   2  -2  -7  114.38    3.74
   2  -2  -7  106.18    3.16
   2  -2  -7  106.95    3.23
   2   2  -7  111.84    3.26
   2   2  -7  110.55    2.67
  -2   2   7  107.58    4.16
   2   2  -7  107.34    2.74
   1  -2  -7    4.23    0.96
   1  -2  -7    2.81    1.25
   1  -2  -7    4.27    0.77
  -1   2   7    2.90    1.52
   1   2  -7    3.42    1.16
   0  -2  -7    4.78    1.14
   0  -2  -7    5.20    1.60
   0   2   7    2.49    1.71
   0   2   7    3.79    0.79
   0   2  -7    4.46    1.39
   0   2   7    3.69    0.59
   0   2  -7    3.18    0.76
  -1  -2  -7  628.14   15.25
  -1  -2  -7  613.42   14.34
   1  -2   7  618.38   13.20
  -1   2  -7  632.68   14.05
  -1   2  -7  601.61   15.04
   1   2   7  637.95   14.00
  -2  -2  -7    9.51    1.76
  -2  -2  -7   12.35    2.44
   2  -2   7   10.67    1.37
  -2   2  -7   12.48    1.95
   2   2   7    9.15    1.70
  -3  -2  -7   39.25    3.86
   3  -2   7   38.53    2.70
  -3  -2  -7   37.08    3.29
   3   2   7   39.27    3.09
  -3   2  -7   37.51    3.28
  -4  -2  -7   17.82    3.44
   4  -2   7   17.51    2.65
  -4  -2  -7   20.58    3.16
   4   2   7   15.59    2.66
  -4   2  -7   13.04    2.85
   5  -2   7    2.12    2.47
  -5   2  -7    2.33    2.93
   5   2   7    0.64    2.63
   6  -2   7    4.83    3.24
  -6  -2  -7    6.07    3.91
  -6   2  -7   12.62    4.02
   6   2   7   11.28    3.49
   7  -2   7   -4.43    3.46
   7   2   7    8.72    4.30
   7  -3  -7    1.30    3.30
  -7  -3   7    5.02    2.46
   7   3  -7    8.13    3.44
  -7   3   7    5.36    3.36
  -7   3   7    8.42    3.20
  -7   3   7    7.97    2.77
  -6  -3   7   13.76    2.22
  -6   3   7   14.92    3.14
   6   3  -7   10.45    2.90
  -6   3   7   16.61    2.72
  -6   3   7   16.58    2.51
  -5  -3   7    0.44    1.49
   5  -3  -7    1.32    1.95
  -5   3   7   -0.61    2.07
  -5   3   7    0.52    1.61
  -5   3   7    0.04    1.50
   5   3  -7   -0.42    1.80
   4  -3  -7    1.26    1.36
   4   3  -7    0.45    1.32
  -4   3   7    0.43    1.21
  -4   3   7    1.26    1.22
  -4   3   7   -0.12    1.73
  -3  -3   7    1.24    1.03
   3  -3  -7    0.45    1.09
   3   3  -7   -0.76    0.90
  -3   3   7    1.14    0.90
  -3   3   7    1.24    0.93
  -3   3   7    1.46    1.64
   2  -3  -7  306.92    7.52
  -2  -3   7  299.88    7.58
   2  -3  -7  314.13    7.44
   2  -3  -7  323.15    7.98
   2   3  -7  317.33    7.27
  -2   3   7  319.66    8.55
  -2   3   7  319.34    7.08
  -2   3   7  310.61    7.00
   1  -3  -7   22.41    1.41
   1  -3  -7   23.62    1.74
   1  -3  -7   22.60    2.11
  -1   3   7   21.58    1.11
  -1   3   7   22.31    2.43
   1   3  -7   25.75    1.94
  -1   3   7   24.94    1.27
   0  -3  -7   18.17    2.25
   0  -3  -7   15.97    1.75
   0   3   7   20.85    2.54
   0   3   7   15.69    1.09
   0   3  -7   17.58    2.18
   0   3  -7   17.96    1.09
   0   3   7   16.36    1.42
  -1  -3  -7   21.20    2.21
  -1  -3  -7   25.50    2.60
   1  -3   7   19.27    0.92
   1   3   7   20.05    1.90
  -1   3  -7   17.35    1.68
   1   3   7   21.10    2.67
  -2  -3  -7  100.02    4.58
   2  -3   7   96.05    3.18
  -2  -3  -7   87.28    3.96
   2   3   7   92.39    3.85
  -2   3  -7   92.00    3.84
  -3  -3  -7   23.41    3.21
   3  -3   7   18.26    2.30
  -3  -3  -7   28.25    3.17
  -3   3  -7   23.71    2.65
   3   3   7   28.25    3.02
   4  -3   7   70.65    4.01
  -4  -3  -7   81.98    5.43
  -4  -3  -7   69.78    4.69
   4   3   7   70.02    4.54
  -4   3  -7   70.31    4.66
   5  -3   7    1.06    2.35
   5   3   7    0.69    2.66
  -5   3  -7    7.15    3.06
   6  -3   7   19.16    3.77
  -6  -3  -7   19.69    4.41
  -6   3  -7   19.16    4.18
   6   3   7   21.00    4.05
   7  -3   7   -0.13    3.59
   7   3   7    4.98    4.02
  -7  -4   7   18.17    2.59
   7  -4  -7   21.26    3.76
   7   4  -7    8.76    3.71
  -7   4   7   13.66    3.46
  -7   4   7   14.52    3.11
  -7   4   7   11.74    4.16
   6  -4  -7   -0.96    2.59
  -6  -4   7    1.40    1.78
  -6   4   7   -2.18    2.34
   6   4  -7   -0.32    2.43
  -6   4   7    1.36    2.17
  -6   4   7   -1.75    2.67
   5  -4  -7    2.74    1.98
  -5   4   7    0.50    2.21
   5   4  -7   -1.18    1.87
  -5   4   7    0.96    1.68
  -5   4   7    2.26    1.76
   4  -4  -7   -0.01    1.41
  -4  -4   7   -0.53    1.02
  -4   4   7    0.32    1.36
   4   4  -7    1.51    1.42
  -4   4   7   -0.05    1.39
  -4   4   7    0.33    1.93
   3  -4  -7  209.01    5.70
  -3  -4   7  192.51    5.05
  -3   4   7  210.57    5.54
  -3   4   7  207.44    6.55
  -3   4   7  205.29    5.43
   3   4  -7  209.09    5.37
   2  -4  -7   22.05    2.15
   2  -4  -7   22.27    1.62
  -2   4   7   23.64    2.55
   2   4  -7   21.69    1.37
  -2   4   7   22.56    1.61
  -2   4   7   19.59    1.42
   1  -4  -7  194.62    5.04
   1  -4  -7  187.70    5.31
   1  -4  -7  194.40    5.79
   1   4  -7  202.86    5.44
  -1   4   7  190.95    6.22
  -1   4   7  194.56    4.75
  -1   4   7  206.36    5.10
   0  -4  -7   37.20    2.31
   0  -4  -7   37.47    2.64
   0   4   7   34.36    1.62
   0   4   7   36.05    2.90
   0   4   7   37.68    2.02
   0   4  -7   38.09    1.38
   0   4  -7   36.08    2.57
   1  -4   7  179.22    3.91
  -1  -4  -7  174.15    5.52
   1   4   7  178.31    5.27
  -1   4  -7  174.95    4.87
   1   4   7  176.65    6.34
  -2  -4  -7    6.52    1.82
   2  -4   7    6.03    1.11
  -2  -4  -7    2.69    1.91
   2   4   7    4.88    1.65
  -2   4  -7    4.26    1.53
   3  -4   7   32.37    2.50
  -3  -4  -7   36.96    3.83
  -3  -4  -7   25.79    3.19
   3   4   7   26.30    3.20
  -3   4  -7   30.08    3.20
  -4  -4  -7    1.24    2.17
   4  -4   7    3.85    1.97
  -4  -4  -7    5.25    2.86
  -4   4  -7    0.85    2.24
   4   4   7   -0.17    2.33
   5  -4   7   12.07    2.62
   5   4   7   17.02    3.49
  -5   4  -7   12.13    3.47
   6  -4   7    0.50    2.81
  -6  -4  -7    1.38    3.83
   6   4   7    1.91    3.00
  -6   4  -7    2.16    3.49
   7  -4   7   10.43    3.98
   7   4   7   15.83    4.74
   7  -5  -7    2.35    3.29
  -7  -5   7    4.07    2.02
  -7   5   7    3.83    3.04
  -7   5   7    3.56    3.56
   7   5  -7    2.45    3.38
   6  -5  -7   20.61    3.25
  -6   5   7   23.96    3.26
  -6   5   7   24.02    3.79
   6   5  -7   24.34    3.56
  -6   5   7   18.37    3.06
  -5  -5   7   42.68    2.01
   5  -5  -7   43.47    3.68
  -5   5   7   43.90    3.31
  -5   5   7   49.96    3.53
   5   5  -7   39.81    3.63
  -5   5   7   39.43    4.02
   4  -5  -7   51.98    3.11
   4   5  -7   47.00    2.96
  -4   5   7   42.56    2.83
  -4   5   7   45.49    2.94
  -4   5   7   42.41    3.76
   3  -5  -7   10.12    1.52
   3   5  -7    6.75    1.26
  -3   5   7   11.54    2.30
  -3   5   7    8.86    1.47
  -3   5   7    9.68    1.59
   2  -5  -7  143.35    4.16
   2  -5  -7  140.39    4.64
  -2   5   7  137.27    3.95
  -2   5   7  139.54    5.24
   2   5  -7  135.62    3.52
  -2   5   7  143.02    4.25
   1  -5  -7  251.80    6.62
   1  -5  -7  261.60    7.11
   1  -5  -7  247.74    6.29
  -1   5   7  244.70    6.03
  -1   5   7  257.43    6.50
  -1   5   7  246.95    7.59
   1   5  -7  248.68    6.49
   0  -5  -7   72.25    3.57
   0  -5  -7   67.87    3.11
   0   5   7   68.86    3.89
   0   5  -7   70.73    2.03
   0   5   7   71.38    2.93
   0   5   7   68.81    2.44
  -1  -5  -7    6.98    1.65
  -1  -5  -7    6.08    1.80
   1   5   7    7.63    1.62
  -1   5  -7    4.70    1.13
   1   5   7    5.40    2.18
   2  -5   7   49.47    2.14
  -2  -5  -7   53.50    3.32
  -2  -5  -7   50.49    3.81
  -2   5  -7   50.82    2.95
   2   5   7   48.33    3.10
   3  -5   7   11.12    1.68
  -3  -5  -7   12.32    2.85
  -3  -5  -7   13.73    2.39
  -3   5  -7   14.22    2.37
   3   5   7   11.92    2.34
   4  -5   7   70.87    3.86
  -4  -5  -7   67.02    5.06
  -4   5  -7   70.12    4.72
   4   5   7   63.33    4.73
   5  -5   7   15.29    2.93
  -5   5  -7   18.84    3.72
   5   5   7   15.71    3.55
  -6  -5  -7   -1.60    3.78
   6  -5   7   -1.70    2.72
   6   5   7    4.47    3.72
  -6   5  -7    2.74    3.50
   7  -5   7   34.53    4.94
   7   5   7   28.29    5.21
   7  -6  -7    7.92    3.44
  -7   6   7   18.14    4.10
  -7   6   7   14.12    3.76
  -7   6   7    7.14    3.31
   7   6  -7    5.88    3.60
   6  -6  -7    3.09    2.62
   6   6  -7    1.37    2.61
  -6   6   7    2.16    2.50
  -6   6   7   -1.69    2.57
  -6   6   7   -2.86    2.87
   5  -6  -7   22.90    2.82
  -5   6   7   24.33    3.20
  -5   6   7   21.46    3.35
   5   6  -7   26.04    3.03
  -5   6   7   23.00    2.88
   4  -6  -7   72.47    3.67
   4   6  -7   78.97    3.57
  -4   6   7   72.40    3.58
  -4   6   7   74.17    3.64
  -4   6   7   61.51    4.38
   3  -6  -7   40.48    2.57
  -3   6   7   35.99    3.38
  -3   6   7   38.12    2.45
  -3   6   7   35.83    2.61
   3   6  -7   37.01    2.07
   2  -6  -7   24.39    1.94
   2  -6  -7   21.85    2.32
   2   6  -7   20.09    1.37
   2   6  -7   22.81    1.16
  -2   6   7   24.36    2.14
  -2   6   7   21.91    1.81
  -2   6   7   21.37    2.85
   1  -6  -7  154.74    4.53
   1  -6  -7  158.64    4.83
   1   6  -7  146.67    4.53
  -1   6   7  168.29    4.89
  -1   6   7  157.76    4.34
  -1   6   7  160.77    5.83
   0  -6  -7   30.66    2.42
   0   6   7   31.22    3.28
   0   6   7   29.51    1.80
   0   6  -7   35.98    1.39
   0   6   7   37.38    2.43
  -1  -6  -7  156.89    5.42
  -1  -6  -7  163.32    5.90
   1   6   7  163.15    6.29
   1   6   7  170.65    5.41
  -1   6  -7  165.41    4.63
  -2  -6  -7    4.82    2.18
  -2  -6  -7    0.84    1.73
   2  -6   7    2.94    0.93
   2   6   7    3.46    1.65
  -2   6  -7    4.16    1.44
  -3  -6  -7    0.47    2.31
   3  -6   7    0.19    1.19
  -3  -6  -7   -0.81    1.98
  -3   6  -7    1.68    1.61
   3   6   7    0.93    2.12
   4  -6   7   41.68    3.25
  -4  -6  -7   42.66    4.43
   4   6   7   41.94    4.37
  -4   6  -7   46.41    4.17
   5  -6   7   36.43    4.53
  -5   6  -7   37.39    4.98
   5   6   7   37.61    5.04
  -6  -6  -7   15.08    4.31
   6  -6   7   12.43    3.29
   6   6   7    5.97    3.70
  -6   6  -7   11.13    4.17
   7  -6   7   10.05    3.92
   7   6   7    4.40    4.32
   7  -7  -7   12.88    3.72
  -7   7   7   12.52    4.18
  -7   7   7   13.99    4.00
   7   7  -7   25.33    4.45
   6  -7  -7    7.28    3.01
  -6   7   7    8.77    3.44
  -6   7   7   16.05    3.32
   6   7  -7   15.77    3.34
  -6   7   7    6.92    2.84
   5  -7  -7   -0.70    2.10
  -5   7   7    2.00    2.62
  -5   7   7    4.95    2.25
  -5   7   7    3.02    2.14
   5   7  -7   -0.27    2.09
   4  -7  -7   78.26    3.88
  -4   7   7   75.26    3.86
   4   7  -7   79.62    3.73
  -4   7   7   75.06    3.81
  -4   7   7   68.82    4.70
   3  -7  -7   38.77    2.63
   3   7  -7   36.76    2.16
  -3   7   7   39.56    2.58
  -3   7   7   37.81    3.54
  -3   7   7   37.46    2.87
   2  -7  -7   -0.55    1.42
   2  -7  -7    0.81    1.13
   2   7  -7    0.50    0.53
  -2   7   7   -0.41    0.97
   2   7  -7    1.22    0.54
  -2   7   7    0.58    1.77
  -2   7   7   -0.47    1.29
   1  -7  -7   12.27    1.47
   1  -7  -7   11.25    1.58
   1  -7  -7   16.96    2.10
  -1   7   7   11.76    2.33
  -1   7   7   15.09    2.04
  -1   7   7   11.45    1.54
   1   7  -7   10.97    1.51
   0  -7  -7  211.15    6.28
   0  -7  -7  221.91    6.66
   0   7  -7  205.03    5.00
   0   7   7  207.13    7.21
   0   7   7  220.51    6.36
   0   7   7  205.57    5.58
  -1  -7  -7   55.48    3.22
  -1  -7  -7   54.11    3.57
   1   7   7   52.72    3.21
  -1   7  -7   49.39    2.36
   1   7   7   51.11    4.03
   2  -7   7   14.39    1.48
  -2  -7  -7   15.03    2.32
  -2  -7  -7   13.75    2.53
   2   7   7   14.46    2.84
  -2   7  -7   16.68    2.01
   2   7   7   17.38    2.49
   3  -7   7   25.71    2.27
  -3  -7  -7   23.63    3.89
  -3  -7  -7   25.05    3.65
   3   7   7   22.73    2.95
  -3   7  -7   23.52    3.08
  -4  -7  -7   84.58    5.55
   4  -7   7   72.31    3.85
   4   7   7   73.00    5.19
  -4   7  -7   71.96    4.81
   5  -7   7    5.50    4.58
   5   7   7    5.82    2.99
  -5   7  -7    7.36    3.28
  -6  -7  -7    1.98    4.16
   6  -7   7    4.88    2.94
   6   7   7    7.78    4.06
  -6   7  -7   -1.55    3.67
   7  -7   7    6.75    3.96
   7   7   7   16.01    4.61
   7  -8  -7    2.01    3.67
  -7   8   7   -2.50    4.03
  -7   8   7   -0.06    4.23
  -7   8   7    3.42    3.59
   7   8  -7    0.95    3.70
   6  -8  -7   27.07    3.70
  -6   8   7   20.35    3.80
   6   8  -7   16.71    3.63
  -6   8   7   21.22    3.66
  -6   8   7   22.65    3.41
   5  -8  -7   -0.64    2.31
  -5   8   7    1.46    2.31
  -5   8   7    0.08    2.13
   5   8  -7    0.18    2.24
  -5   8   7   -1.92    2.60
   4  -8  -7    5.56    1.88
  -4   8   7    1.96    2.59
   4   8  -7    2.90    1.72
  -4   8   7    5.99    2.20
  -4   8   7    0.21    1.74
   3  -8  -7   28.98    2.52
   3   8  -7   24.40    2.01
  -3   8   7   20.32    2.92
  -3   8   7   26.44    2.44
  -3   8   7   25.75    2.80
   2  -8  -7   42.17    2.56
   2  -8  -7   45.00    2.95
  -2   8   7   43.42    3.00
  -2   8   7   42.44    2.47
  -2   8   7   39.78    3.71
   2   8  -7   43.08    1.66
   1  -8  -7   23.42    2.29
   1  -8  -7   21.13    2.61
   1   8  -7   22.52    1.95
  -1   8   7   23.73    1.90
  -1   8   7   21.68    2.85
  -1   8   7   21.33    2.46
   0  -8  -7    8.56    1.81
   0  -8  -7    6.37    1.83
   0   8   7    7.79    2.28
   0   8  -7    6.41    0.92
   0   8   7    5.44    1.65
   0   8   7    7.22    1.29
  -1  -8  -7  204.89    6.42
  -1  -8  -7  200.50    6.69
  -1   8  -7  182.00    5.27
   1   8   7  195.11    7.29
   1   8   7  198.99    6.43
   2  -8   7  177.16    4.62
  -2  -8  -7  180.34    6.65
  -2  -8  -7  164.77    6.17
  -2   8  -7  168.80    5.49
   2   8   7  174.16    6.35
   2   8   7  170.93    7.01
   3  -8   7   53.29    2.85
  -3  -8  -7   48.60    4.01
  -3  -8  -7   58.65    4.63
  -3   8  -7   48.79    3.65
   3   8   7   49.14    4.22
   4  -8   7   13.63    2.25
  -4  -8  -7   19.95    3.58
  -4   8  -7   11.94    2.78
   4   8   7   13.10    3.16
  -5  -8  -7   54.54    5.46
   5   8   7   61.17    5.90
  -5   8  -7   65.43    5.60
  -6  -8  -7   15.12    4.35
   6  -8   7    5.51    2.93
  -6   8  -7   12.81    3.90
   6   8   7    7.46    4.52
   7  -8   7   10.71    4.04
   7   8   7   13.17    5.16
   7  -9  -7   -2.65    3.42
  -7   9   7    4.22    3.73
  -7   9   7    4.10    7.06
   7   9  -7    2.65    4.07
   6  -9  -7    0.60    2.97
   6   9  -7    2.11    3.25
  -6   9   7    0.77    2.77
  -6   9   7   -3.52    3.04
  -6   9   7    1.49    3.41
   5  -9  -7   14.42    2.82
  -5   9   7   13.96    2.78
   5   9  -7   13.37    2.83
  -5   9   7    8.88    3.29
  -5   9   7   14.59    2.95
   4  -9  -7   -0.13    1.82
   4   9  -7    0.28    1.69
  -4   9   7    0.37    1.84
  -4   9   7   -0.33    2.56
  -4   9   7    2.56    2.14
   3  -9  -7   22.14    2.64
  -3   9   7   22.75    2.64
  -3   9   7   19.97    2.51
   3   9  -7   22.80    2.13
  -3   9   7   19.78    3.12
   2  -9  -7   30.24    2.46
   2  -9  -7   26.96    2.80
  -2   9   7   27.28    2.32
  -2   9   7   27.39    2.92
  -2   9   7   25.35    3.30
   2   9  -7   23.86    1.53
   1  -9  -7   92.01    3.86
   1  -9  -7   94.71    4.18
  -1   9   7   89.80    3.45
  -1   9   7   92.78    4.21
  -1   9   7   95.40    4.80
   0  -9  -7   70.88    3.85
   0  -9  -7   64.73    3.49
   0   9   7   70.46    3.77
   0   9  -7   71.63    2.42
   0   9   7   75.65    4.63
   0   9   7   70.37    3.01
  -1  -9  -7   -0.16    1.74
  -1  -9  -7   -0.34    1.69
   1   9   7    1.50    2.45
   1   9   7    0.24    1.75
  -1   9  -7   -0.31    0.95
   1   9   7    0.78    1.22
  -2  -9  -7   73.92    4.46
   2  -9   7   73.08    2.65
  -2  -9  -7   73.17    4.22
  -2   9  -7   73.32    3.54
   2   9   7   74.40    4.45
   2   9   7   81.19    5.15
  -3  -9  -7   33.39    3.79
  -3  -9  -7   31.11    3.96
   3  -9   7   27.25    2.36
   3   9   7   28.94    3.57
  -3   9  -7   28.90    3.28
   4  -9   7   41.49    3.25
  -4  -9  -7   53.81    5.03
   4   9   7   45.99    5.92
  -4   9  -7   40.91    4.34
  -5  -9  -7   -1.39    3.01
  -5   9  -7    5.92    3.22
   5   9   7    8.48    3.65
  -6  -9  -7   12.57    4.45
   6  -9   7   15.18    3.42
  -6   9  -7   13.60    4.27
   6   9   7   21.21    4.89
   7 -10  -7   17.64    4.03
  -7  10   7   11.28    4.37
   7  10  -7   27.30    4.79
  -7  10   7   20.61    5.25
  -7  10   7   17.38    4.13
   6 -10  -7    3.77    3.05
  -6  10   7    8.14    3.75
  -6  10   7    6.65    3.60
   6  10  -7    7.04    3.52
  -6  10   7    7.26    3.40
   5 -10  -7    8.27    2.45
  -5  10   7    6.97    3.29
   5  10  -7    7.34    2.75
  -5  10   7    9.46    2.78
  -5  10   7   12.81    3.06
   4 -10  -7   63.53    3.91
   4  10  -7   69.56    3.80
  -4  10   7   58.72    4.90
  -4  10   7   58.85    4.28
  -4  10   7   68.15    4.03
   3 -10  -7  233.03    6.85
  -3  10   7  232.90    6.86
  -3  10   7  218.00    8.02
   3  10  -7  221.89    6.24
  -3  10   7  219.51    7.32
   2 -10  -7   14.42    1.92
   2 -10  -7   12.99    2.34
   2  10  -7   11.54    1.50
  -2  10   7   11.72    2.96
  -2  10   7   13.35    2.38
  -2  10   7   14.92    1.99
   1 -10  -7   19.48    2.50
   1 -10  -7   22.71    2.60
  -1  10   7   20.12    3.02
  -1  10   7   24.97    2.93
  -1  10   7   23.56    2.21
   0 -10  -7   16.91    2.59
   0 -10  -7   11.55    1.92
   0  10   7   13.85    2.34
   0  10   7    9.68    1.54
   0  10   7   14.66    2.95
   0  10  -7   12.57    1.45
  -1 -10  -7   36.49    3.39
  -1 -10  -7   38.02    3.30
   1  10   7   37.73    2.63
  -1  10  -7   36.10    2.33
   1  10   7   40.06    3.90
   1  10   7   34.37    3.49
  -2 -10  -7   -0.40    2.15
   2 -10   7    2.29    1.01
  -2  10  -7    1.32    1.50
   2  10   7   -1.90    2.48
   2  10   7   -1.48    2.04
  -3 -10  -7    5.87    2.83
   3 -10   7    5.42    1.52
   3  10   7    8.10    2.83
  -3  10  -7    8.43    2.49
   4 -10   7   10.87    2.15
  -4 -10  -7   14.76    3.50
   4  10   7    6.65    3.17
  -4  10  -7    9.41    3.01
   5 -10   7   -1.22    2.41
  -5 -10  -7    1.88    3.51
  -5 -10  -7    1.01    3.75
   5  10   7    3.55    3.46
  -5  10  -7    4.09    3.51
  -6 -10  -7    5.04    5.14
   6 -10   7   -0.30    3.05
   6  10   7    5.20    4.32
   7 -11  -7    8.96    4.21
  -7  11   7   11.72    4.98
  -7  11   7    4.85    4.14
  -7  11   7    2.00    4.55
   7  11  -7    5.59    4.51
   6 -11  -7    9.02    2.98
  -6  11   7    7.58    4.08
  -6  11   7    4.80    3.46
   5 -11  -7   12.59    2.83
  -5  11   7    8.38    3.64
  -5  11   7   11.16    3.29
   5  11  -7   16.87    3.15
  -5  11   7   12.27    3.07
   4 -11  -7   11.62    2.45
  -4  11   7   14.88    2.62
   4  11  -7   11.85    2.37
  -4  11   7   18.82    3.12
  -4  11   7   11.25    3.55
   3 -11  -7   58.50    3.53
   3  11  -7   50.52    3.01
  -3  11   7   54.44    3.52
  -3  11   7   50.07    4.65
  -3  11   7   47.61    4.00
   2 -11  -7  108.20    4.34
   2 -11  -7  106.42    4.56
   2  11  -7  102.97    3.51
  -2  11   7  108.35    5.87
  -2  11   7  112.63    4.31
  -2  11   7  103.73    5.03
   1 -11  -7  166.96    5.71
   1 -11  -7  182.10    6.03
  -1  11   7  163.91    6.20
  -1  11   7  177.92    7.10
  -1  11   7  169.26    5.36
   0 -11  -7   41.18    3.23
   0 -11  -7   46.36    3.36
   0  11   7   46.64    4.31
   0  11   7   44.76    2.74
   0  11   7   39.60    3.66
   0  11  -7   42.71    2.14
  -1 -11  -7  178.46    6.36
  -1 -11  -7  186.82    6.59
   1  11   7  181.99    5.71
   1  11   7  163.61    6.63
   1  11   7  178.71    7.42
  -1  11  -7  177.22    5.30
  -2 -11  -7   19.87    3.10
  -2 -11  -7   17.58    2.73
   2 -11   7   18.17    1.72
   2  11   7   20.11    3.13
  -2  11  -7   20.03    2.67
   2  11   7   20.11    3.69
   3 -11   7   27.94    2.50
  -3 -11  -7   34.47    4.09
  -3  11  -7   25.18    2.94
   3  11   7   38.79    4.54
   4 -11   7   -2.62    1.79
  -4 -11  -7    2.73    3.09
   4  11   7   -1.16    2.85
  -4  11  -7   -2.21    2.27
   5 -11   7   18.79    3.00
  -5 -11  -7    9.97    4.10
   5  11   7   12.14    4.14
  -5  11  -7   20.87    4.21
   6 -11   7    0.45    3.04
   6  11   7    3.60    4.77
   7 -12  -7    5.86    3.91
  -7  12   7   -4.24    4.29
  -7  12   7   17.39    5.21
   7  12  -7    3.31    4.72
   6 -12  -7    8.42    3.27
  -6  12   7    3.57    3.60
   6  12  -7   11.13    3.79
  -6  12   7   11.01    3.43
   5 -12  -7    1.34    2.55
   5  12  -7   -0.79    2.80
  -5  12   7    2.33    2.69
  -5  12   7    3.27    3.30
   4 -12  -7    2.70    2.34
  -4  12   7    2.28    2.60
  -4  12   7    1.41    2.20
  -4  12   7    0.38    2.97
   4  12  -7    1.04    2.04
   3 -12  -7    4.12    2.01
  -3  12   7    3.72    2.01
   3  12  -7    2.65    1.72
  -3  12   7    3.55    3.11
  -3  12   7    1.97    2.32
   2 -12  -7   19.50    2.45
   2 -12  -7   16.50    2.60
  -2  12   7   16.01    3.51
  -2  12   7   19.66    2.62
   2  12  -7   18.66    2.04
  -2  12   7   22.36    3.24
   1 -12  -7   -0.86    1.68
   1 -12  -7    0.51    1.84
   1  12  -7    0.81    0.97
  -1  12   7   -0.58    2.41
  -1  12   7   -0.71    2.05
  -1  12   7   -0.81    1.37
   0 -12  -7   62.73    3.96
   0 -12  -7   64.48    4.10
   0  12   7   59.87    3.26
   0  12   7   58.72    4.25
   0  12   7   58.17    4.91
   0  12  -7   64.21    2.73
  -1 -12  -7   36.35    3.50
  -1 -12  -7   41.16    3.62
   1  12   7   39.25    2.94
   1  12   7   36.11    4.00
  -1  12  -7   37.95    2.60
   1  12   7   43.90    4.75
  -2 -12  -7   93.11    4.94
  -2  12  -7   93.74    4.25
   2  12   7   91.82    5.49
   2  12   7   86.35    5.87
   3 -12   7    1.70    1.47
  -3 -12  -7   -1.20    2.61
  -3  12  -7    0.10    1.86
  -4 -12  -7    7.16    3.15
   4 -12   7   10.63    2.24
   4  12   7    6.58    3.39
  -4  12  -7    1.67    2.74
   5 -12   7   47.65    4.44
  -5 -12  -7   45.69    5.42
  -5  12  -7   47.91    5.59
   5  12   7   50.30    5.94
   6 -12   7   34.46    4.18
   6  12   7   35.66    5.58
   6 -13  -7    1.22    3.46
  -6  13   7    6.47    4.11
  -6  13   7   11.80    3.95
  -6  13   7    1.56    3.75
   6  13  -7    5.89    3.79
   5 -13  -7   16.90    3.56
  -5  13   7   10.10    4.20
   5  13  -7   14.75    3.37
  -5  13   7   15.75    3.80
   4 -13  -7   32.88    3.86
  -4  13   7   24.79    3.53
  -4  13   7   32.64    4.80
  -4  13   7   30.68    3.46
   4  13  -7   26.58    3.61
   3 -13  -7   10.63    2.31
   3  13  -7   12.30    2.18
  -3  13   7    9.53    2.26
  -3  13   7   12.64    3.13
  -3  13   7    3.01    3.08
   2 -13  -7   11.08    2.68
   2 -13  -7   10.49    2.13
  -2  13   7    9.86    2.23
   2  13  -7    8.33    0.87
  -2  13   7   10.24    3.45
   2  13  -7   10.12    1.69
  -2  13   7   14.50    3.19
   1 -13  -7   59.51    4.03
   1 -13  -7   59.86    3.77
  -1  13   7   61.09    3.42
  -1  13   7   60.96    5.07
   1  13  -7   64.07    2.70
  -1  13   7   61.71    4.48
   0 -13  -7   67.80    4.25
   0  13   7   70.64    5.06
   0  13   7   79.11    3.71
   0  13  -7   74.41    3.09
   0  13   7   69.71    4.75
  -1 -13  -7    1.21    2.14
  -1 -13  -7    2.76    2.20
   1  13   7   -1.34    2.77
   1  13   7    0.37    2.43
   1  13   7    0.39    1.54
  -1  13  -7   -0.30    1.36
  -2 -13  -7    3.71    2.51
   2  13   7   -2.32    2.51
   2  13   7    0.34    2.91
  -2  13  -7    2.17    1.74
   3 -13   7    6.17    1.71
  -3 -13  -7   10.25    3.16
  -3  13  -7    4.73    2.25
   3  13   7    5.20    2.96
   4 -13   7   39.40    3.50
  -4 -13  -7   38.95    4.96
  -4  13  -7   41.39    4.82
   4  13   7   36.40    5.13
  -5 -13  -7    7.24    3.81
   5 -13   7    0.28    2.54
  -5  13  -7    7.82    3.71
   5  13   7    5.26    4.01
   6 -13   7    0.99    3.27
   6  13   7    6.84    5.25
   6 -14  -7   17.42    4.03
  -6  14   7   11.14    4.16
  -6  14   7    6.65    4.92
  -6  14   7   15.11    4.24
   6  14  -7   20.58    4.47
   5 -14  -7   -1.36    2.96
  -5  14   7   -2.11    4.00
  -5  14   7    1.81    2.72
  -5  14   7    1.85    3.44
   5  14  -7   -1.32    2.78
   4 -14  -7   11.67    2.76
  -4  14   7   11.70    2.77
  -4  14   7   16.46    4.27
   4  14  -7   18.16    2.98
  -4  14   7    9.66    3.77
   3 -14  -7   23.19    3.11
   3  14  -7   19.28    2.59
  -3  14   7   17.47    3.95
  -3  14   7   21.09    2.91
  -3  14   7   14.98    3.10
  -2  14   7   96.84    5.99
  -2  14   7   96.55    5.56
  -2  14   7   92.47    4.49
   2  14  -7   92.35    2.67
   2  14  -7  101.76    4.00
  -1  14   7   13.64    3.51
   1  14  -7   15.55    1.88
   1  14  -7   17.45    1.99
   1  14  -7   15.37    2.09
  -1  14   7   19.85    2.55
  -1  14   7   19.91    3.30
   0 -14  -7   36.51    3.58
   0 -14  -7   37.24    3.69
   0  14  -7   35.76    2.52
   0  14   7   39.47    4.72
   0  14   7   36.91    4.39
   0  14   7   33.37    3.02
  -1 -14  -7   31.12    3.86
   1  14   7   38.02    4.86
   1  14   7   33.08    4.39
   1  14   7   37.47    3.18
  -1  14  -7   33.50    2.83
  -2 -14  -7   44.97    4.30
   2  14   7   47.53    6.08
   2  14   7   39.81    5.30
  -2  14  -7   41.97    3.48
   3 -14   7   21.02    2.59
  -3 -14  -7   16.33    4.26
  -3  14  -7   24.28    3.38
   3  14   7   29.66    4.53
   3  14   7   25.70    4.69
  -4 -14  -7    7.76    3.39
   4 -14   7    0.93    2.03
  -4 -14  -7    3.27    3.32
  -4  14  -7    2.87    2.91
   4  14   7   -0.76    3.45
  -5 -14  -7   24.81    5.03
   5 -14   7   33.39    4.45
  -5  14  -7   23.88    4.76
   5  14   7   30.80    5.28
   6 -14   7    7.94    3.73
   6  14   7   11.71    5.43
   6 -15  -7   -1.07    3.86
  -6  15   7   -3.73    4.82
  -6  15   7    5.49    4.30
  -6  15   7    3.54    4.45
   6  15  -7   -0.74    4.08
   5 -15  -7    1.68    2.95
  -5  15   7    2.00    4.18
  -5  15   7   -2.03    3.61
   5  15  -7    3.70    3.12
  -5  15   7    7.84    3.41
   4 -15  -7   -1.55    2.63
  -4  15   7    3.05    3.33
  -4  15   7    2.39    3.67
   4  15  -7    1.51    2.47
   3 -15  -7    8.20    2.59
  -3  15   7    1.93    3.35
  -3  15   7    4.24    2.38
   3  15  -7    5.83    2.31
   2  15  -7   10.64    1.19
  -2  15   7   15.38    3.45
  -2  15   7   13.51    2.48
   2  15  -7   12.18    2.10
  -2  15   7    9.61    3.74
   1  15  -7   15.93    2.14
   1  15  -7   20.53    2.13
   1  15  -7   19.53    2.48
  -1  15   7   18.98    3.32
  -1  15   7   14.08    3.70
  -1  15   7   19.84    2.63
   0 -15  -7    2.58    2.38
   0  15   7   -0.39    3.02
   0  15   7   -0.98    1.51
   0  15  -7    0.70    1.40
   0  15   7   -1.67    2.46
  -1 -15  -7    4.52    2.45
   1  15   7   -0.17    2.76
   1  15   7    0.98    1.96
  -1  15  -7    3.59    1.73
   1  15   7    3.32    3.33
  -2 -15  -7    3.22    2.59
   2  15   7    2.42    3.56
   2  15   7    8.51    3.28
  -2  15  -7    3.23    2.13
  -3 -15  -7   52.99    5.27
   3 -15   7   56.41    3.39
   3  15   7   58.17    5.92
   3  15   7   68.05    6.32
  -3  15  -7   62.63    4.80
  -4 -15  -7    0.79    3.57
   4 -15   7   -0.39    2.03
   4  15   7   -6.31    3.58
  -4  15  -7    4.24    3.20
   5 -15   7   10.49    3.07
  -5 -15  -7   15.82    5.68
   5  15   7   10.41    4.55
   6 -16  -7   -1.10    3.83
   6  16  -7   -7.84    4.26
  -6  16   7   10.65    4.96
  -6  16   7    1.54    5.10
  -6  16   7    7.77    4.80
   5 -16  -7   18.60    3.88
  -5  16   7    7.78    3.82
  -5  16   7    0.66    4.43
  -5  16   7    7.56    4.15
   5  16  -7    9.60    4.34
   4 -16  -7    8.38    3.07
  -4  16   7   17.04    4.21
  -4  16   7    9.61    4.53
   4  16  -7   11.96    3.04
  -4  16   7   11.78    3.10
   3 -16  -7    7.83    2.64
  -3  16   7   11.56    3.69
  -3  16   7    5.93    4.04
   3  16  -7    7.95    2.61
  -2  16   7    0.66    3.52
  -2  16   7    0.97    2.11
   2  16  -7    2.85    1.16
   2  16  -7    4.63    2.08
  -1  16   7    4.87    3.58
   1  16  -7    8.84    1.69
   1  16  -7    4.94    1.59
   1  16  -7    6.03    1.81
  -1  16   7    8.92    3.28
  -1  16   7   10.65    2.38
   0 -16  -7    4.57    4.23
   0  16   7    0.21    3.28
   0  16  -7    4.63    1.67
   0  16   7    0.81    4.66
   0  16   7    1.31    1.93
  -1 -16  -7   22.82    4.59
  -1  16  -7   19.04    3.02
   1  16   7   14.23    3.57
   1  16   7   18.02    4.30
   2  16   7   49.21    5.74
  -3 -16  -7    5.75    3.80
  -3 -16  -7    8.99    3.44
  -3  16  -7   12.20    2.91
   3  16   7    3.99    3.56
   3  16   7    4.40    4.08
   4 -16   7   -2.38    2.09
  -4 -16  -7   -0.42    3.66
   4  16   7    6.82    4.45
  -4  16  -7   -2.50    3.01
   5 -16   7   -1.42    2.86
   5  16   7    4.85    4.84
   5 -17  -7   48.42    5.77
   5  17  -7   52.23    6.02
  -5  17   7   48.55    5.82
  -5  17   7   51.65    6.34
  -5  17   7   46.47    6.32
   4 -17  -7    4.84    2.95
  -4  17   7    7.54    4.12
  -4  17   7    2.79    4.43
  -4  17   7    4.17    3.32
   4  17  -7    3.45    2.90
   3 -17  -7    4.39    2.71
  -3  17   7   -0.50    3.28
  -3  17   7    4.98    3.86
   3  17  -7    4.24    2.82
  -3  17   7    3.58    2.10
   2  17  -7   15.62    2.75
  -2  17   7   13.55    3.95
  -2  17   7   12.70    4.22
   2  17  -7   13.33    2.31
   1  17  -7  114.33    4.86
  -1  17   7  113.88    6.76
  -1  17   7  108.18    7.24
   1  17  -7  113.91    4.22
   1  17  -7  117.19    4.45
   0  17   7   15.84    3.99
   0  17   7    9.78    4.01
   0  17  -7   18.81    2.36
   1  17   7    0.93    3.50
   1  17   7    4.09    3.53
  -1  17  -7    0.21    1.86
   1  17   7    0.40    1.94
  -2 -17  -7   31.73    3.93
   2  17   7   36.77    4.02
   2  17   7   45.98    5.77
   2  17   7   36.31    5.10
  -2  17  -7   32.12    3.89
  -3 -17  -7   23.38    4.41
   3  17   7   21.05    4.54
   3  17   7   41.70    5.84
  -4  17  -7   11.12    3.49
   4  17   7   15.07    5.07
   5 -17   7    6.53    3.07
   5  17   7   12.09    5.47
   5 -18  -7    0.72    3.49
  -5  18   7   14.38    5.15
  -5  18   7    6.79    4.28
   5  18  -7   10.02    4.22
  -5  18   7    1.62    5.22
   4 -18  -7   29.97    4.23
  -4  18   7   23.98    5.26
  -4  18   7   25.13    4.14
  -4  18   7   30.14    5.47
   4  18  -7   24.90    5.16
  -3  18   7    6.74    2.94
  -3  18   7    1.52    3.84
   3  18  -7    0.61    2.80
  -3  18   7   -3.32    6.06
   2  18  -7    1.21    2.55
   2  18  -7    3.42    1.84
  -2  18   7    3.55    3.68
  -2  18   7    1.87    2.23
  -2  18   7    1.81    3.82
   1  18  -7    1.41    2.20
   1  18  -7   -0.38    1.65
  -1  18   7    8.87    3.78
  -1  18   7   -2.12    3.44
  -1  18   7    2.57    1.75
   1  18  -7    1.01    1.79
   0  18  -7   48.65    3.78
   0  18  -7   50.70    3.48
   0  18   7   47.84    5.82
   0  18   7   50.28    5.85
   0  18  -7   45.62    3.53
  -1 -18  -7   -0.83    2.95
  -1 -18  -7   -0.40    2.72
   1  18   7    0.60    2.38
   1  18   7   -0.09    3.47
  -1  18  -7   -3.15    1.97
   1  18   7   -1.21    3.59
  -2 -18  -7   17.95    3.71
   2  18   7   20.13    4.93
   2  18   7   24.33    3.48
  -2  18  -7   16.07    3.23
   2  18   7   16.59    4.46
  -3 -18  -7    5.29    3.52
  -3  18  -7    9.62    3.26
   3  18   7    5.66    4.44
   3  18   7    9.03    4.43
  -4 -18  -7   16.79    6.70
  -4  18  -7   16.53    4.13
   4  18   7   29.35    5.58
   5 -19  -7    4.47    4.13
  -5  19   7   11.44    5.31
  -5  19   7    6.48    5.61
   5  19  -7    3.58    4.56
   4 -19  -7   11.87    3.58
  -4  19   7    7.98    4.93
  -4  19   7    7.41    4.86
   4  19  -7   13.73    4.03
  -4  19   7    9.93    3.73
  -3  19   7    9.50    3.27
   3  19  -7    1.05    3.07
  -3  19   7    1.65    4.23
  -3  19   7    8.46    4.77
   2  19  -7   -0.77    2.64
   2  19  -7    1.07    1.84
  -2  19   7    2.48    2.76
  -2  19   7   -1.08    3.68
  -2  19   7   -0.10    4.26
   2  19  -7    0.17    1.82
  -1  19   7   11.33    3.91
   1  19  -7    5.35    2.01
   1  19  -7    4.48    1.87
  -1  19   7    5.30    4.29
  -1  19   7    5.32    2.48
   1  19  -7    7.15    2.71
   0  19  -7   28.11    3.47
   0  19   7   29.18    3.80
   0  19  -7   31.36    3.41
   0  19  -7   24.57    3.31
   0  19   7   31.13    5.19
   0  19   7   21.51    4.84
  -1 -19  -7   37.24    4.25
  -1  19  -7   44.80    4.30
   1  19   7   49.57    6.74
  -1  19  -7   47.99    4.01
   1  19   7   41.95    5.29
   1  19   7   38.46    4.25
  -2 -19  -7    0.88    3.14
   2  19   7   -0.33    4.11
  -2  19  -7   -6.30    2.38
   2  19   7   -1.28    4.01
   2  19   7    0.70    2.64
   3  19   7   48.41    6.75
   3  19   7   43.66    6.00
  -3  19  -7   39.51    5.32
   4  19   7    4.89    4.87
   4  20  -7   15.96    4.40
  -4  20   7   13.76    4.36
  -4  20   7    5.11    4.97
  -4  20   7   10.88    5.26
  -3  20   7   10.30    5.32
  -3  20   7    7.59    3.32
  -3  20   7   11.74    4.88
   3  20  -7    1.27    3.47
  -2  20   7   62.47    5.28
  -2  20   7   65.40    7.52
   2  20  -7   66.25    3.31
   2  20  -7   60.16    4.10
  -2  20   7   71.71    7.12
   2  20  -7   67.35    5.39
  -1  20   7    6.78    2.99
   1  20  -7   -0.01    2.04
   1  20  -7    1.91    2.85
  -1  20   7    8.09    4.03
   1  20  -7    5.38    2.18
  -1  20   7   -3.39    3.98
   0  20  -7    4.93    2.32
   0  20  -7   -0.26    2.30
   0  20   7    2.28    2.61
   0  20   7    6.98    4.32
   0  20   7    1.92    4.01
  -1 -20  -7   13.30    3.37
   1  20   7   19.50    4.95
   1  20   7   13.36    2.99
  -1  20  -7   19.32    3.35
  -1  20  -7   19.63    3.29
   1  20   7   19.54    5.08
  -2 -20  -7   40.98    4.81
   2  20   7   34.00    5.34
   2  20   7   46.19    6.19
   2  20   7   45.71    4.94
  -2  20  -7   41.38    4.87
  -2  20  -7   38.17    5.02
   3  20   7    5.66    8.18
   3  20   7   12.48    5.03
  -3  20  -7    2.05    3.48
   4  20   7   -5.45    5.37
  -4  21   7   -4.99    5.21
  -4  21   7    6.92    5.34
   4  21  -7    6.95    4.46
  -3  21   7   19.37    5.93
   3  21  -7    6.18    4.00
  -3  21   7   14.46    3.75
  -3  21   7   16.77    5.36
   3  21  -7    8.60    2.68
  -2  21   7    4.62    4.35
   2  21  -7    2.09    3.37
   2  21  -7    4.64    1.90
  -2  21   7    4.98    3.12
   2  21  -7   -0.08    2.33
  -2  21   7   -2.85    4.55
  -1  21   7    5.61    4.92
   1  21  -7   15.83    2.67
  -1  21   7   13.36    3.08
   1  21  -7   16.17    3.68
   1  21  -7   14.80    2.87
  -1  21   7   20.87    4.94
   0  21   7    5.79    4.37
   0  21  -7   14.83    2.89
   0  21   7   10.61    3.04
   0  21  -7    9.88    2.66
   0  21  -7   15.21    3.25
  -1  21  -7   25.54    3.67
  -1  21  -7   19.04    3.74
   1  21   7   16.25    3.60
   1  21   7   14.16    5.13
  -1  21  -7   16.07    3.16
  -2 -21  -7    0.88    3.74
  -2  21  -7    0.48    2.98
   2  21   7   -1.65    4.41
  -2  21  -7    5.89    3.56
   3  21   7   20.41    6.14
   3  21   7   16.45    5.24
  -3  21  -7   14.11    4.39
   3  22  -7   23.51    3.56
  -3  22   7   32.54    6.59
  -3  22   7   40.10    6.47
   3  22  -7   21.80    4.90
   2  22  -7   23.44    3.27
   2  22  -7   27.24    3.15
  -2  22   7   23.02    5.32
  -2  22   7   30.25    6.14
   2  22  -7   23.84    4.35
   1  22  -7    0.73    3.50
  -1  22   7   -2.36    3.03
   1  22  -7   -3.56    2.33
  -1  22   7    9.65    4.85
   1  22  -7    4.58    2.57
  -1  22   7    6.54    5.37
   0  22  -7    7.18    3.03
   0  22   7   12.93    3.53
   0  22   7    3.01    4.80
   0  22  -7    7.51    3.37
   0  22   7    3.93    4.86
   0  22  -7    3.67    2.68
   1  22   7    6.65    4.95
   1  22   7    7.22    5.38
  -1  22  -7   11.13    3.19
  -1  22  -7    3.09    3.30
  -1  22  -7   -0.14    3.12
   2  22   7   27.96    5.97
   2  22   7   33.24    6.38
  -2  22  -7   26.12    4.77
  -2  22  -7   16.57    3.94
  -2  23   7    1.52    5.38
  -2  23   7   -3.11    5.18
   2  23  -7    4.82    2.40
   2  23  -7    1.72    2.97
   2  23  -7    6.65    4.15
   1  23  -7   32.68    4.82
   1  23  -7   38.56    4.58
  -1  23   7   33.28    6.31
  -1  23   7   30.08    5.96
   1  23  -7   32.15    4.32
   0  23  -7   -2.76    3.61
   0  23   7    6.69    5.30
   0  23  -7    2.90    2.90
   0  23   7   -1.07    5.40
   0  23  -7    2.35    3.02
   1  23   7    4.50    5.44
  -1  23  -7   -4.13    3.05
  -1  23  -7   -4.43    3.54
   1  23   7   -0.73    4.92
  -1  23  -7    3.71    3.30
  -2  23  -7   16.75    4.25
   2  23   7    3.82    5.70
   2  23   7   24.49    6.75
  -1  24   7   -0.69    5.61
   1  24  -7    7.63    3.18
   1  24  -7    0.24    4.13
  -1  24   7    0.14    5.67
   1  24  -7   -1.69    3.20
   0  24  -7   24.14    4.87
   0  24   7   17.81    6.17
   0  24   7   35.37    7.06
   0  24  -7   31.02    4.15
   0  24  -7   20.64    3.70
  -7   0   8   -0.60    3.07
   7   0  -8    3.40    3.44
   6   0  -8    1.18    2.43
  -6   0   8    3.88    2.49
  -5   0   8    0.90    2.05
   5   0  -8   -0.19    1.84
  -4   0   8   57.82    3.39
   4   0  -8   53.52    2.97
  -3   0   8    0.58    1.48
   3   0  -8    0.06    1.00
   3   0  -8   -0.01    1.05
   2   0  -8  553.60   12.30
   2   0  -8  567.90   12.96
   2   0  -8  569.67   12.27
  -2   0   8  575.04   13.57
   1   0  -8   -0.76    1.14
   1   0  -8   -0.40    0.71
   1   0  -8   -0.57    0.51
  -1   0   8   -0.78    1.38
   0   0  -8   73.16    2.72
   0   0  -8   74.92    3.71
  -1   0  -8    0.65    1.15
   1   0   8   -1.14    0.63
  -2   0  -8  294.75    8.31
   2   0   8  313.30    7.72
  -2   0  -8  290.58    9.16
   3   0   8   -1.19    1.35
  -3   0  -8    2.02    2.02
  -3   0  -8   -0.17    2.11
   4   0   8    6.31    2.16
  -4   0  -8    5.65    2.62
   5   0   8   -1.45    2.36
  -5   0  -8   -0.18    2.61
  -5   0  -8   -1.32    6.00
   6   0   8   12.97    3.34
  -6   0  -8   21.28    4.12
   7   0   8    1.15    3.68
  -7  -1   8    4.31    2.94
   7  -1  -8    2.55    3.33
  -7   1   8    3.17    1.95
   7   1  -8    2.97    3.27
  -7   1   8    1.97    3.12
  -7   1   8    1.46    1.86
  -6  -1   8    8.34    2.46
   6  -1  -8    3.93    2.57
  -6   1   8    2.35    1.43
  -6   1   8    3.54    2.62
  -6   1   8    2.67    1.29
   6   1  -8    4.43    2.55
  -5  -1   8    4.76    2.06
   5  -1  -8    5.80    2.10
  -5   1   8    2.25    2.20
   5   1  -8    5.26    2.06
  -4  -1   8    1.08    1.56
   4  -1  -8   -0.17    1.28
   4   1  -8   -1.61    1.20
  -4   1   8   -0.42    1.66
   3  -1  -8   -0.22    0.93
   3  -1  -8    0.88    1.16
  -3  -1   8    0.23    1.33
  -3   1   8   -0.47    1.47
   3   1  -8    0.04    0.90
   2  -1  -8    1.85    1.21
   2  -1  -8    1.46    0.75
   2  -1  -8    2.30    0.83
  -2  -1   8    0.23    1.24
   2   1  -8    1.15    1.04
   2   1  -8    0.53    0.61
   2   1  -8    1.02    0.63
  -2   1   8    0.66    1.51
   1  -1  -8  345.99    8.94
   1  -1  -8  351.73    7.79
  -1  -1   8  335.34    9.00
   1  -1  -8  341.18    8.10
   1   1  -8  354.66    7.73
  -1   1   8  335.94    9.27
   1   1  -8  346.82    7.48
   1   1  -8  360.58    8.88
   0  -1  -8   36.01    2.12
   0  -1  -8   38.35    2.93
   0   1  -8   37.02    2.88
   0   1   8   34.88    3.00
   0   1  -8   38.75    1.88
  -1  -1  -8   27.24    2.22
   1  -1   8   23.86    1.23
  -1  -1  -8   28.38    3.17
   1   1   8   23.87    1.62
  -1   1  -8   26.19    2.13
   2  -1   8   -0.48    0.98
  -2  -1  -8    0.48    2.00
  -2  -1  -8    0.03    1.28
  -2   1  -8    0.51    1.41
   2   1   8   -0.20    1.17
  -2   1  -8    0.31    1.91
   3  -1   8   88.71    3.82
  -3  -1  -8   83.58    4.55
  -3  -1  -8   89.65    5.03
   3   1   8   87.49    4.08
  -3   1  -8   86.26    4.50
  -3   1  -8   85.83    4.90
  -4  -1  -8   13.41    3.31
  -4  -1  -8   17.64    2.87
   4  -1   8   14.71    2.51
  -4   1  -8   17.20    3.02
   4   1   8   16.45    2.49
  -5  -1  -8   16.80    3.36
  -5   1  -8   18.70    3.54
   5   1   8   20.11    3.28
  -6  -1  -8   32.98    4.86
   6  -1   8   17.19    3.56
  -6   1  -8   19.26    4.20
   6   1   8   19.31    3.62
   7  -1   8   19.65    4.65
   7   1   8   24.39    4.88
   7  -2  -8    9.07    3.50
  -7  -2   8    6.59    2.85
   7   2  -8    4.34    3.48
  -7   2   8   12.13    2.42
  -7   2   8   13.42    3.72
  -7   2   8    8.83    2.47
  -6  -2   8    7.92    2.33
   6  -2  -8    7.00    2.77
   6   2  -8    7.28    2.80
  -6   2   8    8.06    1.85
  -6   2   8    7.90    1.91
  -6   2   8    9.62    2.95
  -5  -2   8    9.85    2.07
   5  -2  -8   10.23    2.27
   5   2  -8   11.28    2.25
  -5   2   8    9.98    1.39
  -5   2   8   10.09    1.46
  -5   2   8   15.87    2.71
  -4  -2   8   50.65    2.97
   4  -2  -8   51.48    3.04
  -4   2   8   50.44    3.66
   4   2  -8   55.33    2.91
  -3  -2   8    2.71    1.45
   3  -2  -8    3.01    1.15
   3  -2  -8    3.14    1.29
   3   2  -8    3.33    0.99
  -3   2   8    0.82    1.63
   2  -2  -8   85.22    2.76
   2  -2  -8   88.53    3.49
   2  -2  -8   88.43    2.93
  -2  -2   8   87.25    3.51
   2   2  -8   85.60    3.07
  -2   2   8   88.35    3.97
   2   2  -8   86.92    2.28
   2   2  -8   84.31    2.30
   1  -2  -8    6.73    1.62
   1  -2  -8    5.31    1.13
   1  -2  -8    7.07    0.94
   1   2  -8    6.77    0.63
   1   2  -8    6.34    1.48
  -1   2   8    6.76    1.92
   0  -2  -8   53.06    3.18
   0  -2  -8   47.72    2.46
   0   2  -8   46.88    3.04
   0   2  -8   49.29    2.00
   0   2   8   46.71    3.28
   0   2   8   48.50    1.51
   0   2   8   52.78    1.76
   1  -2   8    0.50    0.46
  -1  -2  -8    3.86    1.38
  -1  -2  -8   -1.54    1.51
  -1   2  -8    0.71    2.00
  -1   2  -8    0.15    1.14
   1   2   8    0.49    0.94
  -2  -2  -8   95.63    4.20
   2  -2   8   98.08    3.28
  -2  -2  -8   93.16    4.87
   2   2   8  101.69    3.93
  -2   2  -8   95.22    4.87
  -2   2  -8   99.66    4.15
  -3  -2  -8    3.14    1.90
  -3  -2  -8   -0.38    2.34
   3  -2   8   -0.77    1.35
   3   2   8   -0.91    1.54
  -3   2  -8    1.89    1.83
  -4  -2  -8    8.06    2.55
  -4  -2  -8    9.41    3.12
   4  -2   8    6.16    2.09
  -4   2  -8    2.06    2.41
   4   2   8    4.96    2.20
  -5  -2  -8    6.47    3.16
  -5  -2  -8    3.92    3.76
  -5   2  -8    5.35    2.97
   5   2   8   11.29    3.13
  -6  -2  -8   33.55    5.26
   6  -2   8   23.65    3.78
  -6   2  -8   39.88    5.12
   6   2   8   24.33    4.19
   7  -2   8   -1.73    3.81
   7   2   8    2.36    3.92
  -7  -3   8   16.43    2.81
   7  -3  -8    9.07    3.49
  -7   3   8    3.96    3.56
  -7   3   8   12.33    2.86
   7   3  -8   12.14    3.64
  -7   3   8   12.25    2.68
  -6  -3   8    6.29    2.22
   6   3  -8    9.32    2.69
  -6   3   8    0.91    2.77
  -6   3   8    9.63    2.16
  -6   3   8    4.35    2.00
   5  -3  -8   99.90    4.63
  -5  -3   8   99.62    3.89
   5   3  -8  104.31    4.67
  -5   3   8  103.04    3.71
  -5   3   8  104.46    3.72
  -5   3   8  100.01    5.20
   4  -3  -8   42.07    2.87
  -4   3   8   42.67    3.61
   4   3  -8   41.00    2.73
  -4   3   8   43.74    2.13
  -4   3   8   42.40    2.04
   3  -3  -8    6.39    1.28
   3  -3  -8    6.81    1.52
  -3   3   8    8.36    2.12
   3   3  -8    6.35    1.11
  -3   3   8    6.90    1.08
   2  -3  -8   18.73    1.71
  -2  -3   8   16.58    2.00
   2  -3  -8   20.02    1.55
   2  -3  -8   17.24    2.16
   2   3  -8   21.81    1.71
  -2   3   8   19.92    2.65
   1  -3  -8  421.86   10.07
   1  -3  -8  425.09    9.72
   1  -3  -8  440.00   10.81
  -1   3   8  448.20    9.17
  -1   3   8  416.11    9.05
   1   3  -8  416.61   10.36
   0  -3  -8   24.81    2.09
   0  -3  -8   28.55    2.75
   0   3   8   25.74    1.27
   0   3  -8   23.09    1.42
   0   3   8   22.27    2.95
   0   3  -8   21.61    2.44
   0   3   8   21.62    1.56
  -1  -3  -8   31.37    3.19
  -1  -3  -8   31.44    2.56
   1   3   8   30.98    2.18
  -1   3  -8   26.83    3.37
  -1   3  -8   26.52    2.10
   2  -3   8   15.74    1.58
  -2  -3  -8   15.94    2.74
  -2  -3  -8   18.95    2.45
   2   3   8   15.06    2.07
  -2   3  -8   14.43    2.03
  -3  -3  -8  111.63    5.74
   3  -3   8  107.04    4.05
  -3  -3  -8  111.22    5.11
  -3   3  -8   98.65    4.88
   3   3   8  106.83    4.78
  -4  -3  -8   -6.95    2.68
   4  -3   8   -1.93    1.69
  -4  -3  -8   -0.34    2.37
  -4   3  -8   -1.42    2.08
   4   3   8   -2.22    2.10
  -5   3  -8   42.40    5.05
   5   3   8   40.09    4.69
   6  -3   8    6.23    3.22
  -6  -3  -8    5.20    3.98
  -6   3  -8    9.29    3.86
   6   3   8    7.66    3.51
   7  -3   8   13.26    4.26
   7   3   8   15.74    4.91
  -7  -4   8    7.41    2.24
   7  -4  -8    2.02    3.38
  -7   4   8    3.02    2.72
  -7   4   8    2.99    2.89
  -7   4   8    0.35    3.65
   7   4  -8    2.49    3.44
  -6  -4   8    8.01    2.11
   6  -4  -8    3.10    2.67
  -6   4   8    6.58    2.20
  -6   4   8    6.38    2.33
   6   4  -8   10.13    2.88
  -6   4   8    6.50    3.26
  -5  -4   8    0.46    1.74
   5  -4  -8    0.41    1.98
   5   4  -8    3.31    1.91
  -5   4   8    4.06    1.76
  -5   4   8    2.58    1.66
  -5   4   8    1.15    2.47
   4  -4  -8   20.08    2.56
  -4  -4   8   19.70    1.89
   4   4  -8   16.98    2.27
  -4   4   8   19.71    2.10
  -4   4   8   18.91    2.00
  -4   4   8   15.39    2.67
   3  -4  -8   19.78    2.33
  -3  -4   8   16.76    1.82
   3  -4  -8   18.99    1.96
  -3   4   8   23.21    1.72
  -3   4   8   18.83    1.61
   3   4  -8   19.07    1.65
  -3   4   8   21.92    2.73
   2  -4  -8   23.13    2.34
   2  -4  -8   24.70    1.96
   2  -4  -8   25.25    1.75
  -2   4   8   22.67    1.37
  -2   4   8   19.19    2.56
   2   4  -8   21.86    1.62
  -2   4   8   24.26    1.51
   1  -4  -8    1.16    1.47
   1  -4  -8    4.44    1.27
   1  -4  -8    2.44    0.94
  -1   4   8    2.18    1.72
  -1   4   8    2.10    0.85
   1   4  -8   -0.43    1.16
  -1   4   8    2.45    0.71
   0  -4  -8   25.11    3.59
   0  -4  -8   25.53    2.27
   0   4   8   28.32    1.48
   0   4   8   26.29    3.14
   0   4  -8   27.62    1.42
   0   4   8   25.51    1.83
   0   4  -8   29.70    2.67
  -1  -4  -8  116.01    4.91
  -1  -4  -8  111.85    4.33
  -1   4  -8  110.59    3.74
   1   4   8  116.04    4.08
   1   4   8  102.96    5.20
  -2  -4  -8   24.49    3.45
   2  -4   8   29.05    1.73
  -2  -4  -8   29.11    2.96
   2   4   8   26.58    2.73
  -2   4  -8   25.15    2.61
  -3  -4  -8    6.34    2.65
   3  -4   8    5.27    1.48
  -3  -4  -8    4.20    2.54
  -3   4  -8    5.33    2.20
   3   4   8    5.57    2.09
  -4  -4  -8    2.34    2.89
  -4  -4  -8    3.50    2.32
   4  -4   8    3.91    2.04
   4   4   8    2.33    2.36
  -4   4  -8    4.93    2.68
  -5  -4  -8   11.67    5.24
   5   4   8    5.08    3.08
  -5   4  -8    4.09    2.96
  -6  -4  -8    8.41    4.21
   6  -4   8    8.58    3.46
  -6   4  -8   21.45    4.57
   6   4   8    6.09    3.51
   7  -4   8    7.20    3.89
   7   4   8   10.41    4.57
  -7  -5   8    3.92    2.66
   7  -5  -8    3.55    3.34
  -7   5   8   -0.53    3.72
  -7   5   8    4.50    2.98
  -7   5   8   -0.92    3.08
   7   5  -8    4.56    3.62
   6  -5  -8    0.35    2.65
  -6  -5   8    3.39    1.28
  -6   5   8    3.61    2.39
  -6   5   8    0.20    2.93
  -6   5   8    3.73    2.36
   6   5  -8    3.54    2.78
   5  -5  -8   15.11    2.53
   5   5  -8   15.23    2.50
  -5   5   8   14.99    3.09
  -5   5   8   17.52    2.24
  -5   5   8   18.84    2.36
   4  -5  -8   -0.49    1.44
  -4   5   8   -1.58    2.08
  -4   5   8   -0.27    1.45
  -4   5   8    0.99    1.40
   4   5  -8   -2.16    1.35
   3  -5  -8    0.06    1.49
   3  -5  -8   -0.57    1.14
  -3   5   8    0.06    1.16
   3   5  -8    0.61    0.98
  -3   5   8   -0.08    1.96
  -3   5   8    0.28    1.09
   2  -5  -8   17.88    1.78
   2  -5  -8   19.69    1.99
   2  -5  -8   19.86    2.33
  -2   5   8   16.99    2.57
  -2   5   8   18.96    1.74
  -2   5   8   16.95    1.51
   2   5  -8   15.09    1.44
   1  -5  -8   52.44    3.14
   1  -5  -8   48.27    2.30
   1  -5  -8   47.90    2.60
  -1   5   8   51.24    2.33
   1   5  -8   49.61    2.70
  -1   5   8   44.39    3.56
  -1   5   8   48.53    1.98
   0  -5  -8   39.81    2.92
   0  -5  -8   40.01    2.65
   0   5   8   36.23    2.29
   0   5  -8   36.57    1.54
   0   5  -8   37.88    2.89
   0   5   8   36.53    3.51
   0   5   8   36.11    1.82
  -1  -5  -8   26.36    3.11
  -1  -5  -8   21.96    2.54
   1   5   8   25.50    3.52
   1   5   8   23.13    2.30
  -1   5  -8   23.05    1.95
  -2  -5  -8   -2.62    1.88
  -2  -5  -8    0.42    1.58
   2  -5   8    1.05    0.88
  -2   5  -8   -0.28    1.39
   2   5   8    0.46    1.57
  -3  -5  -8  199.39    8.19
  -3  -5  -8  226.45    8.20
   3  -5   8  221.14    6.20
   3   5   8  214.03    7.40
  -3   5  -8  228.72    7.32
  -4  -5  -8   19.53    3.23
   4  -5   8   12.66    2.20
  -4  -5  -8   10.51    3.16
  -4   5  -8   13.29    3.02
   4   5   8   19.69    3.35
  -5   5  -8   13.72    3.47
   5   5   8    4.94    3.11
  -6  -5  -8   -1.53    3.73
   6  -5   8   -1.28    2.83
  -6   5  -8    7.93    4.09
   6   5   8    3.85    3.52
   7  -5   8    8.76    3.96
   7   5   8   10.98    4.51
   7  -6  -8   13.53    3.71
  -7   6   8   11.27    4.26
  -7   6   8   23.83    3.95
   7   6  -8   28.76    4.34
  -7   6   8   22.47    3.59
   6  -6  -8    3.53    2.80
  -6   6   8    0.64    2.46
   6   6  -8    4.34    2.86
  -6   6   8    3.59    2.55
  -6   6   8    0.65    3.19
   5  -6  -8   24.78    3.33
  -5   6   8   19.89    3.49
  -5   6   8   22.17    2.63
   5   6  -8   26.49    2.92
  -5   6   8   23.45    2.75
   4  -6  -8   11.42    2.04
  -4   6   8   10.58    1.98
   4   6  -8   13.33    1.97
  -4   6   8   14.18    2.16
  -4   6   8   10.69    2.90
   3  -6  -8   13.12    2.03
   3  -6  -8   15.20    2.06
  -3   6   8   16.62    2.22
   3   6  -8   12.32    1.58
  -3   6   8   14.38    1.66
  -3   6   8   12.80    2.75
   2  -6  -8  103.78    3.62
   2  -6  -8  103.32    3.79
   2  -6  -8  102.00    4.19
  -2   6   8  106.84    3.72
  -2   6   8  104.34    3.40
   2   6  -8  105.41    3.01
  -2   6   8  101.48    4.95
   1  -6  -8   36.84    2.50
   1  -6  -8   37.85    2.90
  -1   6   8   34.50    3.50
   1   6  -8   36.80    2.39
  -1   6   8   34.05    1.87
  -1   6   8   39.00    2.39
   0  -6  -8   11.15    1.85
   0  -6  -8    9.75    2.06
   0   6   8   10.65    1.44
   0   6  -8    7.64    0.90
   0   6  -8    7.59    1.84
   0   6   8   11.80    1.74
   0   6   8    7.52    2.33
  -1  -6  -8   43.01    3.34
  -1  -6  -8   45.78    3.17
   1   6   8   44.16    3.82
   1   6   8   47.99    3.01
  -1   6  -8   49.88    2.45
  -2  -6  -8  262.46    8.01
   2  -6   8  259.43    6.21
  -2  -6  -8  268.15    8.67
   2   6   8  247.92    7.73
  -2   6  -8  250.66    7.31
   3  -6   8   53.99    2.80
  -3  -6  -8   52.94    4.42
  -3  -6  -8   59.29    4.26
   3   6   8   53.85    4.14
  -3   6  -8   52.23    3.95
  -4  -6  -8    9.93    3.12
   4  -6   8    8.45    2.08
   4   6   8    3.88    2.76
  -4   6  -8    2.96    2.46
  -5  -6  -8    2.68    4.59
   5   6   8    2.73    3.19
  -5   6  -8    0.48    3.12
   6  -6   8   38.39    5.03
  -6  -6  -8   31.73    4.83
  -6   6  -8   27.13    4.54
   6   6   8   33.85    5.03
   7  -7  -8   -0.96    3.40
  -7   7   8   -2.76    3.23
  -7   7   8   -8.59    3.70
   7   7  -8    9.93    3.92
  -7   7   8    0.96    5.09
   6  -7  -8   33.73    3.97
  -6   7   8   22.73    3.38
  -6   7   8   24.77    4.10
   6   7  -8   31.54    3.97
  -6   7   8   29.64    3.50
   5  -7  -8    5.41    2.30
  -5   7   8    6.88    2.39
   5   7  -8    6.66    2.31
  -5   7   8    6.88    2.39
  -5   7   8    7.82    3.12
   4  -7  -8   21.49    2.81
  -4   7   8   21.72    2.79
   4   7  -8   20.36    2.49
  -4   7   8   24.38    3.04
  -4   7   8   21.01    3.31
   3  -7  -8   -1.25    1.77
   3  -7  -8   -0.82    1.32
  -3   7   8    0.61    2.20
  -3   7   8    1.30    1.57
   3   7  -8   -0.29    1.03
  -3   7   8    0.30    1.26
   2  -7  -8   34.92    2.41
   2  -7  -8   35.34    2.84
  -2   7   8   34.41    3.75
  -2   7   8   36.96    2.22
   2   7  -8   35.24    1.63
  -2   7   8   38.83    2.69
   1  -7  -8   31.55    2.88
   1  -7  -8   29.51    2.42
  -1   7   8   27.17    1.91
  -1   7   8   32.42    2.48
   1   7  -8   24.46    2.18
  -1   7   8   26.79    3.34
   0  -7  -8  160.79    5.40
   0  -7  -8  162.74    5.76
   0   7  -8  160.29    4.06
   0   7   8  157.17    4.60
   0   7   8  169.44    5.35
   0   7   8  152.74    6.37
  -1  -7  -8   14.34    2.53
  -1  -7  -8   15.89    2.30
   1   7   8   12.38    2.04
  -1   7  -8   15.74    1.87
   1   7   8   13.22    2.86
   1   7   8   15.48    1.86
  -2  -7  -8    7.47    2.36
  -2  -7  -8    4.14    1.99
   2  -7   8    8.45    1.10
   2   7   8    2.96    1.89
  -2   7  -8    7.35    1.77
  -3  -7  -8   18.96    3.01
  -3  -7  -8   15.96    3.36
   3  -7   8   16.84    1.87
   3   7   8   14.05    2.78
  -3   7  -8   15.55    2.66
  -4  -7  -8    2.25    3.10
   4  -7   8    0.25    1.61
  -4   7  -8    0.37    2.33
   4   7   8    0.11    2.77
  -5  -7  -8    0.06    2.66
  -5   7  -8    2.39    3.15
   5   7   8   -1.02    3.05
   6  -7   8    5.37    3.19
  -6  -7  -8    4.56    4.75
   6   7   8    3.39    4.02
  -6   7  -8    2.87    4.11
   7  -8  -8   10.10    3.94
  -7   8   8    9.58    4.57
  -7   8   8    3.24    4.46
   7   8  -8   15.73    4.16
  -7   8   8   26.23    4.45
   6  -8  -8   22.48    3.65
  -6   8   8   19.51    3.57
   6   8  -8   23.49    3.69
  -6   8   8   21.25    3.40
  -6   8   8   19.12    4.03
  -5   8   8   -0.16    2.90
  -5   8   8   -2.18    2.22
  -5   8   8    6.78    2.47
   5   8  -8    0.43    2.23
   4  -8  -8   37.44    3.29
  -4   8   8   32.91    3.19
  -4   8   8   31.73    4.32
  -4   8   8   33.69    3.50
   4   8  -8   38.14    3.01
   3  -8  -8    1.42    1.60
  -3   8   8    0.75    1.39
  -3   8   8    2.77    1.73
   3   8  -8    1.42    1.12
  -3   8   8    0.30    2.40
   2  -8  -8  154.76    4.96
   2  -8  -8  158.51    5.54
  -2   8   8  159.12    4.80
  -2   8   8  154.96    5.34
   2   8  -8  155.01    3.73
  -2   8   8  158.85    6.52
   2   8  -8  159.04    3.88
   1  -8  -8   10.18    1.78
   1  -8  -8    9.65    2.10
  -1   8   8    8.67    2.69
   1   8  -8    7.85    1.57
  -1   8   8    8.77    1.37
  -1   8   8    9.44    1.86
   0  -8  -8   66.27    3.54
   0  -8  -8   71.51    3.93
   0   8   8   59.24    4.49
   0   8   8   64.48    3.55
   0   8   8   62.94    2.77
   0   8  -8   56.88    2.17
  -1  -8  -8   31.64    3.08
  -1  -8  -8   29.85    3.39
  -1   8  -8   29.83    2.15
   1   8   8   29.10    2.28
   1   8   8   27.57    2.92
   1   8   8   30.21    3.70
   2  -8   8   86.13    2.72
  -2  -8  -8   87.87    4.86
  -2  -8  -8   85.06    4.65
   2   8   8   88.99    5.60
  -2   8  -8   82.69    3.84
   2   8   8   78.82    4.51
  -3  -8  -8   14.14    2.89
  -3  -8  -8   15.43    3.31
   3  -8   8   13.06    1.72
  -3   8  -8    7.61    2.80
   3   8   8   10.09    2.61
   4  -8   8   15.82    2.30
   4   8   8   24.40    4.27
  -4   8  -8   17.56    3.44
  -5  -8  -8   26.42    4.31
   5  -8   8   24.86    3.68
  -5   8  -8   30.83    4.29
   5   8   8   41.71    5.37
   6  -8   8   11.14    3.32
   6   8   8   -0.37    4.00
   7  -9  -8    4.06    3.75
  -7   9   8    1.92    4.04
  -7   9   8    0.87    3.71
   7   9  -8    4.11    4.05
  -7   9   8    2.71    4.77
   6  -9  -8   12.44    3.50
  -6   9   8   13.49    3.60
   6   9  -8   26.89    3.87
  -6   9   8   16.64    3.51
  -6   9   8    5.88    3.88
   5  -9  -8   70.06    4.59
  -5   9   8   67.00    5.67
  -5   9   8   64.60    4.57
   5   9  -8   69.34    4.50
  -5   9   8   52.97    4.49
   4  -9  -8   -0.20    1.79
  -4   9   8   -0.29    1.87
  -4   9   8   -0.62    2.14
   4   9  -8    2.71    1.69
  -4   9   8   -0.97    2.73
   3  -9  -8   24.79    2.72
   3   9  -8   26.05    2.10
  -3   9   8   25.28    3.21
  -3   9   8   26.17    2.65
  -3   9   8   22.94    3.48
   2  -9  -8    0.23    1.32
   2  -9  -8    2.46    1.81
   2   9  -8    1.62    0.70
  -2   9   8   -0.08    1.24
   2   9  -8    2.13    0.76
  -2   9   8    1.93    1.74
  -2   9   8    0.87    2.27
   1  -9  -8  346.21    9.45
   1  -9  -8  341.99    9.08
  -1   9   8  345.96    9.35
  -1   9   8  343.33    8.52
   1   9  -8  323.56    8.48
  -1   9   8  327.87   10.39
   0  -9  -8  100.03    4.63
   0  -9  -8   94.12    4.26
   0   9   8   95.90    4.42
   0   9   8   94.41    3.55
   0   9   8   89.19    5.14
   0   9  -8   95.93    2.98
  -1  -9  -8    0.94    1.84
  -1  -9  -8    1.17    2.09
   1   9   8    1.28    1.31
  -1   9  -8   -0.65    1.10
   1   9   8    3.29    1.89
   1   9   8   -1.94    2.37
  -2  -9  -8   25.16    3.16
   2  -9   8   17.62    1.50
  -2  -9  -8   15.10    2.92
   2   9   8   22.10    3.86
  -2   9  -8   22.47    2.51
   2   9   8   20.38    3.09
  -3  -9  -8   62.80    5.05
  -3  -9  -8   76.84    5.64
   3  -9   8   78.23    3.26
  -3   9  -8   71.29    4.85
   3   9   8   73.17    5.02
   4  -9   8   50.00    3.51
  -4   9  -8   49.40    4.72
   4   9   8   45.96    5.30
   5  -9   8   10.88    2.81
  -5  -9  -8    5.14    3.72
  -5   9  -8   10.00    3.64
   5   9   8    9.28    3.83
   6  -9   8   -1.09    2.81
   6   9   8   -3.73    4.01
   7 -10  -8    2.07    3.69
   7  10  -8   -3.24    4.16
  -7  10   8    0.28    3.90
  -7  10   8   -0.41    4.73
   6 -10  -8    6.81    3.17
  -6  10   8    4.64    3.52
   6  10  -8    6.42    3.33
  -6  10   8    7.83    3.46
  -6  10   8    1.56    4.23
   5 -10  -8    7.35    2.61
  -5  10   8    9.20    3.73
   5  10  -8    8.64    2.67
  -5  10   8    3.21    2.68
  -5  10   8    4.35    3.29
   4 -10  -8    1.00    1.94
   4  10  -8    1.20    1.71
  -4  10   8    0.81    2.34
  -4  10   8    0.60    2.96
  -4  10   8    4.10    2.13
   3 -10  -8   86.70    4.08
   3  10  -8   81.25    3.34
  -3  10   8   86.33    3.96
  -3  10   8   82.44    4.57
  -3  10   8   79.88    5.58
   2 -10  -8    2.45    1.97
   2 -10  -8    1.18    1.55
  -2  10   8    2.03    1.49
  -2  10   8   -0.38    2.63
  -2  10   8    0.69    1.85
   2  10  -8    1.21    0.65
   2  10  -8    2.54    0.95
   1 -10  -8    9.32    2.24
   1 -10  -8    9.30    1.81
  -1  10   8    8.80    2.19
  -1  10   8    7.77    1.58
   1  10  -8    9.24    1.20
  -1  10   8   11.02    3.08
   0 -10  -8   49.33    3.43
   0 -10  -8   45.62    3.45
   0  10   8   45.14    3.55
   0  10   8   47.29    4.59
   0  10  -8   47.68    2.18
   0  10   8   47.25    2.71
  -1 -10  -8  129.30    5.41
  -1 -10  -8  136.69    5.80
   1  10   8  133.98    5.63
   1  10   8  114.38    6.41
  -1  10  -8  129.99    4.28
   1  10   8  132.75    4.66
   2 -10   8   22.92    1.64
  -2 -10  -8   22.89    2.99
  -2 -10  -8   26.07    3.52
   2  10   8   21.61    3.09
   2  10   8   30.91    4.22
  -2  10  -8   22.55    2.73
  -3 -10  -8   10.42    2.99
   3 -10   8    5.26    1.53
  -3  10  -8   10.13    2.51
   3  10   8    9.80    2.92
   4 -10   8    0.77    1.73
  -4  10  -8   -0.15    2.56
   4  10   8    5.59    3.23
  -5 -10  -8    5.67    3.74
   5 -10   8   -2.64    2.33
  -5  10  -8   -0.50    3.36
   5  10   8    1.20    3.66
   6 -10   8    5.21    3.16
   6  10   8   13.72    4.90
   7 -11  -8   -4.06    3.84
   6 -11  -8   -1.48    2.84
   6  11  -8    3.30    4.05
  -6  11   8    5.46    3.72
  -6  11   8    1.44    3.64
  -6  11   8   -4.06    4.35
   5 -11  -8   14.98    3.03
  -5  11   8   13.38    3.98
  -5  11   8   13.44    3.29
  -5  11   8   15.03    3.23
   5  11  -8   20.57    3.22
  -4  11   8   18.94    3.80
  -4  11   8   25.74    3.16
   4  11  -8   24.37    2.68
  -4  11   8   17.63    3.15
   3 -11  -8    5.95    1.94
  -3  11   8    4.98    2.42
  -3  11   8    0.57    3.05
  -3  11   8    1.65    1.79
   3  11  -8    3.75    1.55
   2 -11  -8   43.24    3.15
   2 -11  -8   40.55    3.68
  -2  11   8   37.53    2.92
   2  11  -8   43.64    2.20
  -2  11   8   40.18    4.42
  -2  11   8   43.13    3.84
   1 -11  -8   33.83    3.37
   1 -11  -8   30.57    3.10
  -1  11   8   35.24    3.62
  -1  11   8   34.24    2.66
   1  11  -8   36.09    1.84
  -1  11   8   33.05    4.09
   0 -11  -8   17.24    2.61
   0 -11  -8   19.10    2.93
   0  11   8   18.64    2.87
   0  11  -8   14.23    1.71
   0  11   8   18.70    2.13
   0  11   8   15.22    3.38
  -1 -11  -8   27.83    3.45
  -1 -11  -8   27.73    3.37
   1  11   8   29.30    3.66
  -1  11  -8   25.06    2.34
   1  11   8   26.51    2.65
   1  11   8   32.77    4.43
  -2 -11  -8   34.27    3.94
  -2 -11  -8   33.09    3.73
  -2  11  -8   23.04    2.90
   2  11   8   32.77    4.61
   2  11   8   24.68    3.41
  -3 -11  -8    8.37    2.90
   3 -11   8    1.52    1.35
  -3  11  -8    1.00    2.00
   3  11   8    3.30    3.49
  -4 -11  -8   18.38    5.53
   4 -11   8    2.45    1.92
  -4  11  -8    0.58    2.96
   4  11   8    3.40    3.23
  -5 -11  -8   13.96    4.12
   5 -11   8   10.33    2.75
   5  11   8    2.35    3.97
  -5  11  -8   12.24    3.80
   6 -11   8   -3.71    3.11
   6  11   8   15.43    4.98
   6 -12  -8    2.65    3.45
  -6  12   8    1.56    4.46
  -6  12   8    5.59    3.77
   6  12  -8    0.82    4.39
   5 -12  -8    0.38    2.78
  -5  12   8    2.05    3.07
  -5  12   8    7.48    3.03
  -5  12   8    3.90    4.05
   5  12  -8    0.78    2.67
   4 -12  -8   18.52    2.97
   4  12  -8   20.69    2.66
  -4  12   8   20.53    2.96
  -4  12   8   18.72    4.30
  -4  12   8   18.81    3.46
   3 -12  -8   92.17    4.52
   3  12  -8   95.93    3.95
  -3  12   8   95.52    4.57
  -3  12   8   84.46    5.22
  -3  12   8   93.54    6.23
   2 -12  -8   93.78    4.64
   2 -12  -8  104.59    4.47
   2  12  -8   94.61    3.46
  -2  12   8  102.50    4.35
  -2  12   8   93.16    6.00
  -2  12   8  104.46    5.28
   1 -12  -8    2.60    2.02
   1 -12  -8    0.42    1.68
  -1  12   8    2.89    1.60
   1  12  -8    0.65    0.97
  -1  12   8    2.23    2.30
  -1  12   8   -1.27    2.77
   0 -12  -8   25.56    3.25
   0 -12  -8   28.49    3.29
   0  12   8   33.28    3.63
   0  12   8   25.02    3.75
   0  12   8   28.83    2.70
   0  12  -8   26.10    2.08
  -1 -12  -8  150.33    6.01
  -1 -12  -8  138.76    5.96
   1  12   8  144.78    6.43
  -1  12  -8  147.78    4.89
   1  12   8  153.34    7.41
  -2 -12  -8   40.97    4.41
   2  12   8   38.00    4.49
  -2  12  -8   46.14    3.37
   2  12   8   40.75    5.19
   3 -12   8   47.54    2.82
   3  12   8   47.60    5.14
  -3  12  -8   47.64    4.12
  -4 -12  -8    3.50    3.06
   4 -12   8    2.36    1.96
  -4 -12  -8   -2.99    4.10
  -4  12  -8    3.09    3.01
   4  12   8    5.12    3.51
   5 -12   8    5.43    2.61
  -5 -12  -8    1.58    3.86
  -5  12  -8    1.28    3.62
   5  12   8    4.54    4.72
   6 -12   8    3.58    3.25
   6  12   8   12.34    5.17
   6 -13  -8    7.61    3.72
  -6  13   8   13.84    4.10
  -6  13   8    0.55    4.07
   6  13  -8   10.66    3.90
  -6  13   8    3.68    4.40
   5 -13  -8    0.91    3.02
  -5  13   8   -2.60    4.03
   5  13  -8   -0.34    2.79
  -5  13   8   -2.49    3.06
  -5  13   8    3.06    3.31
   4 -13  -8   17.11    3.06
   4  13  -8   11.99    2.54
  -4  13   8    9.45    4.22
  -4  13   8   13.46    2.88
  -4  13   8   15.54    3.44
   3 -13  -8   -3.58    2.93
  -3  13   8   -0.15    2.64
  -3  13   8    1.42    2.17
   3  13  -8    0.99    1.66
  -3  13   8   -4.41    2.96
   2 -13  -8   11.33    2.70
  -2  13   8   13.17    2.90
  -2  13   8   14.61    2.27
   2  13  -8   13.65    1.73
  -2  13   8   13.03    3.60
   1 -13  -8    6.31    2.05
  -1  13   8    7.50    2.61
  -1  13   8    6.87    1.90
   1  13  -8    8.84    1.37
  -1  13   8    4.07    3.00
   0 -13  -8   47.27    3.75
   0 -13  -8   42.51    3.91
   0  13   8   37.13    4.17
   0  13  -8   45.21    2.54
   0  13   8   36.26    5.07
  -1 -13  -8    4.77    2.56
  -1 -13  -8   -0.33    2.12
   1  13   8    2.17    2.37
   1  13   8   -1.39    3.10
   1  13   8   -0.39    1.59
  -1  13  -8    1.65    1.43
  -2 -13  -8    8.74    3.16
   2  13   8    6.74    3.37
   2  13   8    3.31    2.97
   3 -13   8   25.39    2.50
   3  13   8   26.01    4.12
  -3  13  -8   26.30    3.22
   4 -13   8   12.43    2.36
  -4 -13  -8   20.83    3.80
   4  13   8   13.51    3.93
  -4  13  -8   19.74    3.58
  -5 -13  -8    6.16    4.34
   5 -13   8   15.87    3.07
  -5  13  -8    9.58    4.01
   5  13   8    4.27    4.38
   6 -14  -8   -4.36    3.70
  -6  14   8    8.82    5.30
  -6  14   8   -3.69    4.10
  -6  14   8    8.37    4.24
   6  14  -8   -6.35    3.90
   5 -14  -8   -0.70    2.88
   5  14  -8    3.89    3.02
  -5  14   8    7.79    3.87
  -5  14   8    0.64    6.98
   4 -14  -8   12.13    2.96
  -4  14   8    5.01    3.98
  -4  14   8   11.66    2.93
   4  14  -8   12.59    2.65
   3 -14  -8    8.94    2.60
  -3  14   8    8.87    3.95
   3  14  -8   12.21    2.23
  -3  14   8    4.89    2.31
  -3  14   8    8.93    3.34
  -2  14   8    2.89    3.25
   2  14  -8    3.37    1.55
  -2  14   8    5.30    2.84
  -2  14   8    6.37    2.10
   2  14  -8    3.93    0.82
   1 -14  -8   -0.92    1.87
   1  14  -8   -2.14    1.16
  -1  14   8   -1.13    1.57
  -1  14   8   -4.25    2.89
  -1  14   8   -0.32    2.59
   0 -14  -8   -1.35    1.82
   0 -14  -8   -2.60    2.45
   0  14   8   -2.21    3.09
   0  14   8   -0.95    1.57
   0  14  -8   -0.39    1.24
   0  14   8    0.07    2.72
  -1 -14  -8    1.96    2.71
   1  14   8   -0.55    2.73
   1  14   8    2.78    3.25
   1  14   8    0.03    1.76
  -1  14  -8    2.11    1.62
   2  14   8   41.49    4.89
  -2  14  -8   42.63    3.54
   2  14   8   50.30    5.84
  -3 -14  -8    1.84    5.07
   3 -14   8    2.34    1.65
  -3  14  -8    0.43    2.43
   3  14   8    3.54    3.61
   4 -14   8    6.42    2.20
  -4 -14  -8    6.24    3.55
  -4  14  -8   15.68    3.32
   4  14   8    7.94    4.14
   5 -14   8   33.04    4.39
   5  14   8   33.85    6.02
   6 -15  -8   -8.90    3.71
  -6  15   8    1.12    5.06
   6  15  -8    7.32    4.32
  -6  15   8    5.99    4.61
  -6  15   8   -1.81    4.43
   5 -15  -8   10.10    3.54
  -5  15   8    6.04    4.59
  -5  15   8    9.51    4.05
  -5  15   8    5.99    3.58
   5  15  -8    7.57    3.22
   4 -15  -8   29.90    3.74
  -4  15   8   26.15    4.33
   4  15  -8   30.18    4.05
  -4  15   8   29.77    5.38
   3 -15  -8    4.44    2.53
  -3  15   8   -1.06    2.24
  -3  15   8   -3.23    3.65
   3  15  -8    0.07    1.94
   2  15  -8    3.99    0.92
   2  15  -8    4.86    1.79
   2  15  -8    4.18    1.03
  -2  15   8    6.11    2.35
  -2  15   8    4.32    3.56
  -2  15   8    4.69    3.06
  -1  15   8    8.19    3.85
   1  15  -8    7.84    1.51
  -1  15   8    7.06    3.09
   1  15  -8    9.82    1.73
   1  15  -8    9.31    1.65
  -1  15   8    7.23    2.07
   0  15   8   98.09    4.62
   0  15   8  104.47    6.20
   0  15   8   92.98    6.81
   0  15  -8   94.69    3.91
   1  15   8   10.25    3.79
  -1  15  -8   12.86    2.21
   1  15   8   13.22    2.55
  -2  15  -8    2.58    2.18
   2  15   8    6.78    3.64
   2  15   8    0.50    3.65
  -3 -15  -8    2.57    3.10
   3  15   8    2.24    3.54
  -3  15  -8    1.92    2.50
   4 -15   8   58.26    4.01
  -4 -15  -8   63.76    6.19
  -4  15  -8   73.91    5.86
   4  15   8   66.43    7.16
   5 -15   8   -5.24    2.56
   5  15   8    4.98    4.68
   5 -16  -8    2.73    3.44
  -5  16   8    6.57    3.92
  -5  16   8    2.38    4.10
  -5  16   8   -2.02    4.93
   4 -16  -8    6.66    3.14
  -4  16   8    0.73    3.81
  -4  16   8   -0.56    7.50
   4  16  -8    2.38    2.79
  -4  16   8    0.58    2.73
   3 -16  -8    6.09    2.71
  -3  16   8    6.16    3.67
  -3  16   8   11.27    4.43
   3  16  -8    5.86    2.45
  -2  16   8    0.85    2.24
  -2  16   8   -0.54    3.84
   2  16  -8    3.01    1.88
  -2  16   8   -1.67    3.10
   2  16  -8    2.27    0.95
  -1  16   8    9.70    2.26
   1  16  -8   10.12    1.97
   1  16  -8    9.57    1.71
   1  16  -8   10.14    1.80
  -1  16   8    6.39    3.73
   0  16   8   32.59    3.75
   0  16  -8   22.52    2.71
   0  16   8   22.24    4.86
   0  16   8   22.99    3.96
   1  16   8   43.66    5.39
  -1  16  -8   47.70    3.55
   1  16   8   48.61    6.14
  -2 -16  -8   -3.82    3.41
  -2 -16  -8   -0.41    3.27
  -2  16  -8    4.27    2.30
   2  16   8    4.83    3.98
   2  16   8    7.24    3.81
   2  16   8    7.00    2.54
  -3 -16  -8    5.05    3.46
  -3  16  -8    1.44    2.79
   3  16   8    4.40    3.73
   3  16   8    7.90    4.48
   4 -16   8   56.80    4.17
  -4 -16  -8   57.68    6.31
  -4  16  -8   66.36    5.84
   4  16   8   46.02    5.96
   5 -16   8    1.28    2.85
   5  16   8    3.95    4.80
   5 -17  -8   25.02    4.35
   5  17  -8   26.08    4.39
  -5  17   8   23.60    5.97
  -5  17   8   16.51    4.61
  -5  17   8   20.84    5.03
   4 -17  -8   -2.50    2.90
  -4  17   8    1.92    4.16
   4  17  -8   -1.62    2.81
  -4  17   8   -1.95    4.35
  -4  17   8    2.79    3.10
  -3  17   8   14.77    3.08
   3  17  -8   10.65    2.89
  -3  17   8    6.86    4.70
  -3  17   8   12.44    4.36
   2  17  -8   14.02    2.07
   2  17  -8   14.06    2.64
   2  17  -8   13.03    1.60
  -2  17   8   11.32    4.50
  -2  17   8   11.42    3.85
   1  17  -8   16.64    2.19
  -1  17   8   16.58    4.28
  -1  17   8   13.19    4.24
   1  17  -8   18.74    2.47
   1  17  -8   17.15    2.14
   0  17   8    4.59    3.70
   0  17   8   -1.92    3.78
   1  17   8    2.16    1.83
   1  17   8    0.22    3.90
   1  17   8    1.49    3.11
  -1  17  -8    0.44    1.91
  -2 -17  -8   -0.29    2.94
   2  17   8   -4.56    4.21
   2  17   8   -3.57    2.28
  -2  17  -8    0.28    2.26
   2  17   8   -3.73    3.71
  -3 -17  -8   21.44    4.31
  -3  17  -8   24.03    3.82
   3  17   8   22.75    5.56
   3  17   8   17.48    4.48
   4 -17   8   10.25    2.65
  -4  17  -8   10.85    3.86
   4  17   8   11.91    4.84
   5 -18  -8   -6.67    3.83
  -5  18   8   12.32    4.69
   5  18  -8    1.65    4.12
  -5  18   8    8.85    4.98
  -5  18   8   -3.66    5.12
   4 -18  -8   -2.58    3.20
  -4  18   8   -4.67    4.18
  -4  18   8    7.12    3.58
   4  18  -8   -1.87    3.23
  -4  18   8   -7.88    4.69
   3  18  -8   86.21    5.47
  -3  18   8   80.81    7.25
  -3  18   8   78.41    8.11
  -3  18   8   85.33    5.77
   2  18  -8    4.29    1.49
  -2  18   8    3.72    4.33
   2  18  -8    6.61    2.56
  -2  18   8    5.57    4.20
  -2  18   8   -1.28    2.49
   2  18  -8    1.69    1.98
   1  18  -8   21.41    2.76
  -1  18   8   23.75    5.08
  -1  18   8   18.33    4.59
   1  18  -8   25.88    3.11
   1  18  -8   23.36    3.16
   0  18  -8    1.36    1.96
   0  18  -8    2.09    1.89
   0  18   8   -0.41    4.07
   0  18   8    1.83    2.13
   0  18   8    0.70    3.68
  -1 -18  -8   42.44    5.02
  -1  18  -8   49.60    4.06
   1  18   8   58.62    6.87
   1  18   8   58.96    6.16
   1  18   8   48.48    4.38
  -2 -18  -8    5.95    3.57
   2  18   8    7.53    4.64
  -2  18  -8    5.09    2.72
   2  18   8    8.09    4.11
   2  18   8    9.09    2.96
  -3 -18  -8    9.53    3.95
   3  18   8   12.42    5.16
  -3  18  -8   10.44    3.42
   3  18   8    8.60    4.52
   4  18   8    2.31    5.07
   4 -19  -8    8.64    3.57
  -4  19   8    5.11    3.76
   4  19  -8   15.84    4.01
  -4  19   8    1.82    4.84
  -4  19   8   -5.09    5.38
  -3  19   8    9.77    4.61
   3  19  -8    1.22    3.07
  -3  19   8   -3.04    4.57
  -3  19   8    8.78    3.42
  -2  19   8   12.82    4.52
  -2  19   8    2.64    4.83
   2  19  -8    6.35    2.12
   2  19  -8    9.45    2.93
  -2  19   8   -2.18    2.79
  -1  19   8   -0.52    4.00
   1  19  -8    1.10    2.36
  -1  19   8   -1.46    2.36
   1  19  -8    1.35    1.95
  -1  19   8    2.62    4.61
   1  19  -8   -0.34    1.80
   0  19   8   35.83    6.13
   0  19   8   31.46    5.04
   0  19  -8   36.48    3.64
   0  19  -8   34.59    4.04
   0  19   8   34.51    4.07
   0  19  -8   37.56    3.60
  -1 -19  -8   11.71    3.67
   1  19   8   10.71    2.95
  -1  19  -8   14.70    2.80
   1  19   8   14.46    5.11
   1  19   8   11.11    4.25
  -2 -19  -8   27.05    4.08
  -2  19  -8   34.88    4.75
   2  19   8   35.31    5.93
   2  19   8   48.70    6.60
   2  19   8   38.89    4.70
   3  19   8   -2.28    4.60
  -3  19  -8   -0.09    3.29
   3  19   8   -5.55    6.08
   4  19   8   12.40    5.90
  -4  20   8   -4.40    4.59
   4  20  -8   -5.16    3.91
  -4  20   8    1.43    5.18
  -4  20   8    1.06    5.28
  -3  20   8    4.03    3.39
  -3  20   8   -6.60    4.94
  -3  20   8   16.30    5.37
   2  20  -8    7.39    3.14
  -2  20   8    8.24    3.19
  -2  20   8    7.64    4.73
   2  20  -8   12.25    2.47
  -2  20   8    7.47    5.42
   1  20  -8    4.70    2.22
   1  20  -8    3.28    2.90
   1  20  -8    4.29    2.13
  -1  20   8    4.91    3.06
  -1  20   8    4.53    4.22
  -1  20   8    6.51    4.80
   0  20   8    2.95    4.37
   0  20  -8    7.67    2.47
   0  20   8   12.98    2.92
   0  20  -8    6.97    2.46
  -1 -20  -8   27.52    4.42
   1  20   8   33.21    4.00
  -1  20  -8   27.20    3.61
  -1  20  -8   29.14    3.68
   1  20   8   24.74    4.92
  -2 -20  -8    4.89    4.16
   2  20   8    7.71    3.46
   2  20   8    4.18    4.53
   2  20   8    9.54    5.59
  -2  20  -8   14.68    3.42
   3  20   8    8.88    5.35
  -3  20  -8   11.56    4.29
   3  20   8   10.84    5.81
  -3  21   8    8.49    4.40
  -3  21   8    8.05    5.27
   3  21  -8   -2.38    3.78
  -3  21   8    5.38    5.82
  -2  21   8   17.86    4.96
   2  21  -8   11.46    3.70
   2  21  -8   16.05    2.93
  -2  21   8    7.29    3.54
  -2  21   8    4.16    5.21
   1  21  -8   -0.90    3.06
   1  21  -8    3.06    2.28
  -1  21   8    9.01    4.73
   1  21  -8    2.20    2.32
  -1  21   8    1.63    3.22
  -1  21   8    4.34    5.34
   0  21  -8   77.20    5.51
   0  21   8   95.47    8.58
   0  21   8   79.47    7.87
   0  21  -8   87.38    5.04
   0  21   8  108.06    5.92
   0  21  -8   79.26    5.00
  -1  21  -8    0.61    2.83
   1  21   8    1.04    2.97
  -1  21  -8   -2.70    2.93
  -1  21  -8    1.35    2.99
   1  21   8    8.53    5.48
   1  21   8    6.10    4.60
  -2  21  -8   -0.61    3.17
   2  21   8    1.37    5.41
   2  21   8    1.70    5.11
  -2  21  -8   -3.92    3.47
   3  21   8    7.46    6.37
   3  21   8   -2.22    5.68
   3  22  -8   21.90    4.88
   3  22  -8   21.26    3.34
  -3  22   8    8.45    5.43
  -3  22   8   12.76    6.37
   2  22  -8   -0.25    3.72
   2  22  -8    0.84    2.66
  -2  22   8   -4.59    5.52
  -2  22   8    9.13    5.48
   1  22  -8    0.62    3.48
  -1  22   8    3.31    4.87
   1  22  -8    4.45    2.46
   1  22  -8   -1.64    2.55
  -1  22   8   -1.13    5.14
   0  22   8    0.36    5.10
   0  22  -8   -3.19    2.68
   0  22  -8    1.76    3.34
   0  22  -8    1.13    2.80
   0  22   8   -0.36    5.46
  -1  22  -8    4.83    3.49
   1  22   8    2.62    5.47
  -1  22  -8    9.28    3.27
  -1  22  -8    1.12    3.14
   1  22   8    4.77    5.11
  -2  22  -8    7.30    4.47
  -2  22  -8    7.56    6.49
   2  22   8    5.02    5.83
   2  22   8   13.99    6.10
  -2  23   8   12.67    6.12
   2  23  -8   20.77    4.91
   2  23  -8   15.69    3.15
  -2  23   8   18.45    6.74
   1  23  -8   10.05    2.84
  -1  23   8    2.65    5.78
  -1  23   8    0.53    5.66
   1  23  -8    4.06    3.96
   1  23  -8    3.44    2.99
   0  23  -8   10.40    3.22
   0  23   8    3.81    5.31
   0  23  -8   11.33    4.20
   0  23   8    9.39    5.72
   0  23  -8    8.12    3.27
   1  23   8    0.85    6.04
   1  23   8    3.25    5.25
  -1  23  -8    5.08    3.46
  -1  23  -8    1.44    3.61
  -1  23  -8    2.74    3.49
   7   0  -9    5.60    3.36
  -7   0   9    5.96    3.49
   6   0  -9   -1.16    2.43
  -6   0   9    5.23    2.73
  -5   0   9    8.10    2.45
   5   0  -9    4.33    2.08
   4   0  -9   -0.78    1.30
  -4   0   9   -0.28    1.79
  -3   0   9   20.77    2.46
   3   0  -9   17.77    1.77
   3   0  -9   22.80    2.06
   2   0  -9   -0.57    0.78
  -2   0   9   -0.94    1.57
   2   0  -9    0.84    1.25
   2   0  -9    0.30    0.66
  -1   0   9   20.17    2.67
   1   0  -9   23.19    1.65
   1   0  -9   20.97    1.25
   1   0  -9   19.52    2.38
   0   0  -9    1.28    1.04
   0   0  -9    0.58    1.97
  -1   0  -9   25.38    2.37
  -1   0  -9   29.56    3.34
   1   0   9   24.52    1.23
   1   0   9   24.72    1.38
   2   0   9   -0.62    1.08
  -2   0  -9   -1.75    1.92
  -2   0  -9    0.31    1.52
   3   0   9    2.65    1.59
  -3   0  -9    5.72    2.69
  -3   0  -9    2.01    2.19
   4   0   9   -1.94    1.91
  -4   0  -9   -0.89    2.38
   5   0   9   32.27    3.82
  -5   0  -9   26.34    4.18
   6   0   9    2.21    3.07
  -6   0  -9    2.50    3.95
  -7  -1   9   17.10    3.49
   7  -1  -9   18.81    3.79
  -7   1   9   12.37    3.81
   7   1  -9   12.38    3.57
   6  -1  -9   22.50    3.30
  -6  -1   9   24.89    3.23
  -6   1   9   23.45    3.52
   6   1  -9   25.20    3.36
   5  -1  -9    4.58    2.05
  -5  -1   9    0.87    2.01
  -5   1   9   -0.51    2.29
   5   1  -9    4.27    1.95
  -4  -1   9   92.04    4.21
   4  -1  -9   88.77    3.71
   4   1  -9   90.31    3.67
  -4   1   9   87.43    4.46
  -3  -1   9    7.84    1.93
   3  -1  -9   10.44    1.37
   3  -1  -9   14.13    1.76
   3   1  -9   10.27    1.44
  -3   1   9    7.59    2.04
   3   1  -9    8.48    1.26
   2  -1  -9  108.97    3.18
   2  -1  -9  114.53    4.06
   2  -1  -9  111.01    3.36
  -2  -1   9  107.45    4.41
   2   1  -9  112.71    3.05
  -2   1   9  108.16    4.67
   2   1  -9  106.83    2.93
   2   1  -9  115.62    3.91
   1  -1  -9   14.53    2.17
   1  -1  -9   10.91    1.19
   1  -1  -9   12.44    1.58
  -1  -1   9   10.45    2.08
   1   1  -9    9.98    0.91
   1   1  -9   10.75    1.87
   1   1  -9   10.81    1.15
  -1   1   9   11.55    2.19
   0  -1  -9  210.11    5.78
   0   1  -9  197.66    6.67
   0   1  -9  206.88    5.47
   1  -1   9   22.20    1.00
  -1  -1  -9   17.03    2.29
   1  -1   9   20.26    0.91
  -1  -1  -9   23.87    3.16
  -1   1  -9   20.88    2.79
  -1   1  -9   18.68    2.17
   1   1   9   20.04    1.31
   1   1   9   19.40    1.51
  -2  -1  -9   27.65    3.34
  -2  -1  -9   29.88    2.96
   2  -1   9   31.44    2.11
  -2   1  -9   26.92    3.50
  -2   1  -9   30.92    2.97
   2   1   9   30.94    2.30
  -3  -1  -9   11.70    3.33
  -3  -1  -9    9.51    2.81
   3  -1   9   11.33    1.92
   3   1   9    8.53    1.88
  -3   1  -9    7.81    2.92
  -3   1  -9   13.20    2.58
   4  -1   9  156.34    5.89
  -4  -1  -9  149.55    6.73
  -4   1  -9  149.58    6.79
   4   1   9  154.33    6.07
  -5  -1  -9    2.95    3.27
   5  -1   9    4.78    2.52
  -5   1  -9    2.69    3.26
   5   1   9    2.54    2.63
  -6  -1  -9    1.51    3.99
   6  -1   9    5.21    3.25
  -6   1  -9    3.63    4.14
   6   1   9    5.04    3.36
   7  -2  -9   25.93    3.96
  -7  -2   9   16.81    3.24
  -7   2   9   20.27    4.20
   7   2  -9   20.22    3.93
   6  -2  -9    8.49    3.44
  -6  -2   9    4.14    2.42
   6   2  -9    3.89    2.64
  -6   2   9    5.32    3.20
  -5  -2   9    5.68    2.09
   5  -2  -9    6.74    2.08
   5   2  -9    8.75    2.17
  -5   2   9    4.82    2.60
  -4  -2   9   41.01    3.01
   4  -2  -9   37.39    2.71
   4   2  -9   40.95    2.64
  -4   2   9   36.73    3.61
   3  -2  -9   65.16    2.71
   3  -2  -9   68.79    3.14
  -3  -2   9   59.78    3.26
   3   2  -9   58.54    2.56
  -3   2   9   64.97    3.91
   3   2  -9   59.01    2.40
   2  -2  -9   20.85    2.36
   2  -2  -9   20.37    1.73
   2  -2  -9   21.42    1.57
  -2  -2   9   18.66    2.50
   2   2  -9   21.69    1.16
   2   2  -9   19.35    1.11
  -2   2   9   21.92    2.92
   2   2  -9   21.65    2.02
   1  -2  -9    3.99    1.18
   1  -2  -9    4.77    0.93
   1  -2  -9    4.30    1.62
   1   2  -9    4.97    0.77
  -1   2   9    4.76    2.04
   1   2  -9    3.41    1.57
   1   2  -9    5.37    0.60
   0  -2  -9    0.64    1.18
   0  -2  -9   -2.03    1.55
   0   2  -9    0.89    0.89
   0   2   9   -0.22    2.05
   0   2   9    0.75    0.39
   0   2  -9    0.48    1.69
   0   2   9    0.46    0.59
  -1  -2  -9  321.86    9.56
  -1  -2  -9  317.74    8.52
  -1   2  -9  307.60    8.11
   1   2   9  313.74    7.35
  -1   2  -9  300.86    9.31
   1   2   9  329.23    7.72
  -2  -2  -9  102.21    4.67
  -2  -2  -9  111.66    5.34
   2  -2   9  106.91    3.46
   2   2   9  111.64    4.12
  -2   2  -9  106.77    5.30
  -2   2  -9  108.62    4.50
  -3  -2  -9   51.36    4.68
   3  -2   9   43.23    2.93
  -3   2  -9   43.27    4.48
  -3   2  -9   48.86    3.88
   3   2   9   47.31    3.42
   4  -2   9    7.29    2.20
  -4  -2  -9   14.65    2.95
   4   2   9   14.76    2.79
  -4   2  -9   13.45    3.01
   5  -2   9   42.13    4.40
  -5  -2  -9   40.00    5.44
  -5   2  -9   44.70    5.49
   5   2   9   43.29    4.74
  -6  -2  -9   11.73    4.54
   6  -2   9    9.48    3.37
  -6   2  -9    3.04    3.93
   6   2   9    6.96    3.30
   7  -3  -9    4.28    3.40
  -7  -3   9    4.45    2.65
  -7   3   9    5.05    3.94
   7   3  -9    4.97    3.46
  -6  -3   9   -0.66    2.03
   6  -3  -9    6.70    3.02
  -6   3   9    1.47    3.21
   6   3  -9    1.81    2.60
   5  -3  -9    1.03    1.96
  -5  -3   9   -0.24    1.76
  -5   3   9    1.16    2.69
   5   3  -9   -1.12    1.75
  -4  -3   9   12.94    2.01
   4  -3  -9   14.57    2.02
  -4   3   9   12.40    2.72
   4   3  -9   13.17    1.78
  -3  -3   9   19.10    2.42
   3  -3  -9   16.20    1.90
   3  -3  -9   16.89    2.02
   3   3  -9   15.89    1.53
   3   3  -9   14.81    1.62
  -3   3   9   15.44    2.54
   2  -3  -9    1.97    1.11
   2  -3  -9    1.06    0.94
   2   3  -9    0.05    1.06
  -2   3   9    3.43    1.95
   1  -3  -9   35.27    2.31
   1  -3  -9   34.84    3.32
  -1   3   9   30.46    3.21
   1   3  -9   36.16    2.61
   1   3  -9   36.59    1.21
   0  -3  -9   65.30    3.09
   0  -3  -9   59.04    3.66
   0   3   9   61.75    1.96
   0   3   9   64.04    2.29
   0   3   9   60.50    4.13
   0   3  -9   66.00    3.74
   0   3  -9   62.45    2.40
  -1  -3  -9    2.81    1.85
  -1  -3  -9    3.15    1.52
  -1   3  -9    1.39    1.94
  -1   3  -9    2.33    1.38
   1   3   9    1.16    1.20
   1   3   9    1.90    0.89
  -2  -3  -9    9.68    2.56
  -2  -3  -9    9.28    2.12
   2  -3   9    8.89    1.22
  -2   3  -9   10.94    2.12
  -2   3  -9    8.24    2.44
   2   3   9    9.50    1.87
   3  -3   9    1.93    1.43
  -3  -3  -9    2.68    2.17
  -3  -3  -9    1.39    2.71
  -3   3  -9    2.09    2.08
   3   3   9    1.53    1.84
  -4  -3  -9    5.68    2.82
   4  -3   9    3.15    1.95
   4   3   9    4.07    2.31
  -4   3  -9    6.50    2.68
   5  -3   9    2.59    2.82
  -5  -3  -9   -2.97    3.13
  -5   3  -9   -1.10    3.22
   5   3   9    1.54    2.85
  -6  -3  -9   -2.66    4.75
   6  -3   9    1.40    3.12
   6   3   9    5.42    3.53
  -6   3  -9    8.97    4.46
   7  -4  -9    5.87    3.53
  -7   4   9    2.25    4.28
   7   4  -9    1.42    3.36
  -7   4   9    1.19    2.36
  -7   4   9    1.22    2.34
   6  -4  -9    2.34    2.72
  -6   4   9    7.00    1.96
  -6   4   9    6.34    1.84
   6   4  -9    8.59    2.87
  -6   4   9   11.74    3.73
   5  -4  -9   24.73    3.30
  -5  -4   9   21.02    2.42
   5   4  -9   22.18    2.96
  -5   4   9   26.38    2.23
  -5   4   9   26.84    3.81
  -5   4   9   21.65    2.07
   4  -4  -9   10.30    1.90
  -4  -4   9    8.58    1.56
  -4   4   9    9.23    1.24
  -4   4   9    9.46    2.73
   4   4  -9   14.36    1.83
  -4   4   9   10.24    1.19
   3  -4  -9  148.63    4.60
   3  -4  -9  145.13    5.01
   3   4  -9  141.80    4.02
  -3   4   9  154.79    6.09
   2  -4  -9    1.07    1.61
   2  -4  -9    1.37    0.97
   2  -4  -9    1.09    1.12
  -2   4   9   -2.30    1.88
   2   4  -9    0.10    0.99
   1  -4  -9   72.39    3.17
   1  -4  -9   76.98    3.78
  -1   4   9   72.80    4.39
   1   4  -9   72.00    3.38
  -1   4   9   78.14    2.35
  -1   4   9   70.71    2.13
   0  -4  -9   38.38    2.74
   0  -4  -9   41.94    3.12
   0   4  -9   37.40    3.02
   0   4   9   36.80    3.71
   0   4  -9   36.26    1.84
   0   4   9   36.24    1.68
   0   4   9   38.87    2.10
  -1  -4  -9  201.60    7.04
  -1  -4  -9  194.54    6.26
   1   4   9  196.65    5.72
  -1   4  -9  186.71    6.76
  -1   4  -9  192.04    5.62
   1   4   9  191.43    5.16
   2  -4   9   11.12    1.36
  -2  -4  -9   12.51    2.97
  -2  -4  -9   16.98    2.61
   2   4   9   13.12    2.10
  -2   4  -9   14.25    2.28
  -3  -4  -9   80.84    4.92
  -3  -4  -9   80.29    5.45
   3  -4   9   83.90    3.52
   3   4   9   83.61    4.55
  -3   4  -9   91.16    4.89
  -4  -4  -9    1.99    2.59
   4  -4   9    1.05    1.75
  -4   4  -9    0.03    2.50
   4   4   9   -0.81    2.35
  -5  -4  -9   33.52    4.61
  -5   4  -9   22.39    4.03
   5   4   9   29.33    4.19
   6  -4   9    6.74    3.29
   6   4   9    8.74    3.77
  -6   4  -9    8.81    4.72
   7  -5  -9   15.60    3.87
   7   5  -9   11.26    3.76
  -7   5   9    8.07    4.31
  -7   5   9    7.29    2.86
  -7   5   9   10.13    2.96
   6  -5  -9   12.59    2.98
  -6   5   9   10.89    2.29
   6   5  -9   15.60    3.12
  -6   5   9   19.32    4.00
  -6   5   9   12.75    2.41
   5  -5  -9    7.19    2.29
  -5   5   9    9.72    3.40
  -5   5   9    8.34    1.89
   5   5  -9    8.15    2.13
  -5   5   9    6.24    1.75
   4  -5  -9   16.08    2.24
   4   5  -9   16.60    2.00
  -4   5   9   16.34    1.69
  -4   5   9   10.60    2.82
  -4   5   9   15.81    1.74
   3  -5  -9    6.44    1.49
   3  -5  -9    9.40    1.97
  -3   5   9   11.06    2.82
   3   5  -9    7.86    1.18
  -3   5   9    7.85    1.22
  -3   5   9    8.65    1.31
   2  -5  -9   10.25    1.46
   2  -5  -9   12.00    2.04
   2  -5  -9   10.47    1.57
  -2   5   9   14.18    2.79
  -2   5   9   10.03    1.23
   2   5  -9   11.21    1.41
  -2   5   9    9.52    1.13
   1  -5  -9   45.43    2.72
   1  -5  -9   44.35    3.22
  -1   5   9   45.58    1.88
  -1   5   9   40.72    3.81
   1   5  -9   45.45    2.84
  -1   5   9   44.43    2.17
   0  -5  -9  334.39    8.94
   0  -5  -9  345.09    9.66
   0   5   9  329.43   10.20
   0   5   9  336.57    7.92
   0   5  -9  345.33    9.44
   0   5   9  338.71    8.42
   0   5  -9  340.60    7.79
  -1  -5  -9   31.01    3.50
  -1  -5  -9   34.59    2.97
  -1   5  -9   28.18    2.29
   1   5   9   35.73    4.02
   1   5   9   30.38    2.59
  -1   5  -9   28.58    3.24
   1   5   9   30.71    2.04
  -2  -5  -9   27.72    3.26
   2  -5   9   27.37    1.57
  -2  -5  -9   33.94    4.00
   2   5   9   28.95    2.96
  -2   5  -9   29.82    2.91
  -3  -5  -9   54.41    4.93
   3  -5   9   45.85    2.68
  -3  -5  -9   47.06    4.11
   3   5   9   47.07    3.89
  -3   5  -9   42.10    3.84
  -4  -5  -9   44.98    4.72
   4  -5   9   34.49    3.25
   4   5   9   46.49    4.58
  -4   5  -9   41.64    4.61
  -5  -5  -9   41.47    5.57
   5   5   9   46.74    4.96
  -5   5  -9   44.15    5.42
   6  -5   9    3.99    3.15
   6   5   9   -5.54    3.44
   7  -6  -9    1.25    3.55
  -7   6   9   -0.25    3.02
   7   6  -9    6.62    3.64
  -7   6   9    8.22    4.50
  -7   6   9    1.43    3.20
   6  -6  -9    4.32    2.84
  -6   6   9    4.19    2.36
  -6   6   9    7.39    2.57
   6   6  -9    4.89    2.75
  -6   6   9   13.48    4.09
   5  -6  -9   26.94    3.19
  -5   6   9   28.00    3.04
   5   6  -9   24.20    2.84
  -5   6   9   24.97    3.08
  -5   6   9   22.96    3.88
   4  -6  -9    0.68    1.73
  -4   6   9   -0.96    1.45
   4   6  -9    2.88    1.56
  -4   6   9   -2.84    2.50
  -4   6   9   -0.19    1.59
   3  -6  -9   38.18    3.16
   3  -6  -9   38.31    2.71
  -3   6   9   37.19    2.49
  -3   6   9   35.18    3.99
  -3   6   9   39.08    2.33
   3   6  -9   39.78    2.00
   2  -6  -9   47.47    3.23
   2  -6  -9   39.02    2.66
   2  -6  -9   42.36    2.46
   2   6  -9   38.95    2.10
  -2   6   9   38.56    3.92
  -2   6   9   42.08    2.38
  -2   6   9   40.54    2.12
   1  -6  -9    7.28    1.94
   1  -6  -9    3.73    1.43
  -1   6   9    3.45    1.30
  -1   6   9    5.33    2.48
  -1   6   9    5.57    1.11
   1   6  -9    6.92    1.65
   0  -6  -9   37.47    2.85
   0  -6  -9   32.68    3.23
   0   6   9   32.71    4.02
   0   6   9   32.18    2.44
   0   6   9   28.31    1.82
   0   6  -9   26.10    1.62
   0   6  -9   26.52    2.98
  -1  -6  -9  112.33    4.77
  -1  -6  -9  107.05    5.31
  -1   6  -9  114.97    3.92
   1   6   9  114.08    4.45
   1   6   9  111.41    3.78
   1   6   9  110.14    5.87
  -2  -6  -9    6.38    2.07
  -2  -6  -9    6.14    2.57
   2  -6   9    4.98    0.92
   2   6   9    2.45    1.87
  -2   6  -9    3.13    1.70
   3  -6   9    0.78    1.31
  -3  -6  -9    4.92    2.40
  -3  -6  -9    4.97    3.12
   3   6   9    0.07    2.17
  -3   6  -9    1.60    3.15
   4  -6   9    1.87    1.82
  -4  -6  -9    0.69    2.67
  -4   6  -9    5.20    3.04
   4   6   9    3.66    2.71
  -5  -6  -9   16.42    4.05
  -5   6  -9    9.54    3.63
   5   6   9    7.99    3.40
   6  -6   9   -0.43    2.80
   6   6   9   -2.34    3.69
   7  -7  -9   -5.22    3.33
   7   7  -9    7.59    3.80
  -7   7   9    2.63    3.79
  -7   7   9   -2.18    3.28
  -7   7   9    7.28    4.58
   6  -7  -9   13.74    3.11
  -6   7   9   15.40    2.97
   6   7  -9   21.27    3.50
  -6   7   9   14.96    2.95
  -6   7   9   16.59    4.23
   5  -7  -9    1.92    2.31
  -5   7   9   -0.76    3.34
  -5   7   9    1.46    2.26
   5   7  -9   -1.12    1.96
  -5   7   9    0.82    2.13
   4  -7  -9   11.38    2.14
   4   7  -9    8.24    1.72
  -4   7   9   13.49    3.46
  -4   7   9    9.63    2.05
  -4   7   9    9.25    1.92
   3  -7  -9    6.37    1.73
   3  -7  -9    2.60    1.85
  -3   7   9    6.51    1.53
  -3   7   9    8.10    1.81
   3   7  -9    4.71    1.16
  -3   7   9    7.08    2.77
   2  -7  -9   35.74    2.48
   2  -7  -9   37.27    3.18
   2  -7  -9   33.46    2.67
  -2   7   9   31.50    2.56
  -2   7   9   33.72    2.20
   2   7  -9   32.21    1.89
  -2   7   9   30.34    3.98
   1  -7  -9    3.72    1.54
   1  -7  -9    2.88    1.89
  -1   7   9    2.91    2.31
   1   7  -9    4.07    1.53
  -1   7   9    4.63    1.18
  -1   7   9    4.45    1.51
   0  -7  -9  363.37   10.30
   0  -7  -9  360.89    9.74
   0   7  -9  374.10    9.92
   0   7   9  355.89   11.06
   0   7   9  356.27    9.42
   0   7  -9  368.77    8.30
   0   7   9  358.71    8.74
  -1  -7  -9    2.06    1.82
  -1  -7  -9    6.20    2.32
  -1   7  -9    5.38    1.36
   1   7   9    6.50    1.84
   1   7   9    1.83    2.67
   1   7   9    3.97    1.31
   2  -7   9    3.63    0.85
  -2  -7  -9    4.99    2.51
   2   7   9    3.67    2.02
  -2   7  -9    3.29    1.71
   3  -7   9   18.60    2.11
  -3  -7  -9   16.65    2.84
  -3  -7  -9   16.17    3.59
  -3   7  -9   19.32    4.14
   3   7   9   20.99    3.31
   4  -7   9  102.02    4.38
  -4  -7  -9   89.20    5.88
   4   7   9   90.25    6.34
  -4   7  -9   99.69    5.93
  -5  -7  -9    1.27    3.60
   5   7   9    2.94    3.58
  -5   7  -9    0.90    3.35
   6  -7   9    0.23    3.03
   6   7   9   -1.77    4.17
   7  -8  -9    4.06    4.11
  -7   8   9   -0.40    3.53
   7   8  -9   12.13    4.16
   6  -8  -9    1.55    2.86
  -6   8   9   -4.42    2.75
   6   8  -9    1.05    2.85
  -6   8   9   -0.65    2.85
  -6   8   9    0.09    3.73
   5  -8  -9    0.79    2.31
   5   8  -9    0.89    2.12
  -5   8   9    0.65    2.48
  -5   8   9    0.40    3.31
  -5   8   9   -4.68    2.25
   4  -8  -9    1.18    1.84
   4   8  -9    1.95    1.63
  -4   8   9   -0.89    2.01
  -4   8   9    0.75    2.91
  -4   8   9    0.56    1.74
   3  -8  -9   15.78    2.14
   3  -8  -9   10.99    2.43
  -3   8   9   17.12    2.36
   3   8  -9   14.66    1.73
  -3   8   9   15.55    1.99
  -3   8   9   17.53    3.50
   2  -8  -9   33.15    2.84
   2  -8  -9   31.98    2.60
   2  -8  -9   38.39    3.33
   2   8  -9   35.07    1.82
  -2   8   9   33.80    2.86
  -2   8   9   29.71    4.23
  -2   8   9   32.85    2.36
   1  -8  -9   19.85    2.53
   1  -8  -9   23.91    3.01
  -1   8   9   27.00    3.78
  -1   8   9   20.80    2.59
   1   8  -9   26.31    2.45
   1   8  -9   24.76    1.13
  -1   8   9   25.24    2.09
   0  -8  -9   19.74    2.79
   0  -8  -9   24.69    2.89
   0   8  -9   21.03    1.60
   0   8   9   21.71    1.99
   0   8   9   20.68    2.66
   0   8   9   27.39    3.78
  -1  -8  -9   45.80    3.98
  -1  -8  -9   48.49    3.66
   1   8   9   47.11    3.45
   1   8   9   46.10    4.74
  -1   8  -9   43.72    2.65
   1   8   9   43.63    2.70
  -2  -8  -9  212.18    8.11
   2  -8   9  223.87    5.16
  -2  -8  -9  215.10    7.59
  -2   8  -9  219.73    6.78
   2   8   9  218.27    7.46
  -3  -8  -9   39.99    4.68
   3  -8   9   30.63    2.34
  -3  -8  -9   35.35    3.95
   3   8   9   34.37    4.27
  -3   8  -9   31.35    3.48
  -4  -8  -9    7.99    3.19
   4  -8   9   -0.08    1.74
  -4  -8  -9    1.50    3.00
  -4   8  -9    0.80    2.59
   4   8   9   -0.72    2.99
  -5  -8  -9    5.21    3.51
   5  -8   9   -0.84    3.62
   5   8   9    7.54    3.73
  -5   8  -9    6.44    3.82
   6  -8   9    9.41    3.33
   6   8   9    8.39    4.43
   7  -9  -9    7.12    3.94
  -7   9   9   10.74    5.12
  -7   9   9    7.45    4.05
   7   9  -9   12.13    4.35
   6  -9  -9   -1.29    2.95
  -6   9   9    0.01    3.07
   6   9  -9    2.07    2.94
  -6   9   9    5.18    3.41
  -6   9   9    4.03    4.03
   5  -9  -9    2.29    2.43
  -5   9   9   -0.17    2.94
   5   9  -9   -1.64    2.25
  -5   9   9    1.15    2.45
  -5   9   9   -2.94    3.36
   4  -9  -9   91.72    4.67
  -4   9   9   97.05    4.51
  -4   9   9   91.40    6.38
   4   9  -9   97.57    4.19
  -4   9   9   96.27    4.96
   3  -9  -9    5.69    2.49
   3  -9  -9    9.90    2.09
   3   9  -9    8.68    1.42
  -3   9   9   10.08    1.90
  -3   9   9    6.70    3.10
  -3   9   9    7.62    2.16
   2  -9  -9   79.30    3.70
   2  -9  -9   71.42    4.21
   2   9  -9   75.40    2.21
  -2   9   9   77.13    5.44
  -2   9   9   74.00    3.92
   2   9  -9   72.48    2.49
  -2   9   9   73.54    3.36
   1  -9  -9    0.60    1.50
   1  -9  -9    0.82    1.95
  -1   9   9    0.73    1.19
   1   9  -9    0.58    1.45
  -1   9   9   -0.34    1.63
  -1   9   9   -2.43    2.45
   1   9  -9    1.25    0.70
   0  -9  -9    3.38    1.86
   0  -9  -9   -0.53    1.98
   0   9   9    3.49    1.33
   0   9   9    2.62    1.78
   0   9  -9    3.66    0.98
   0   9   9    5.21    2.95
  -1  -9  -9   14.92    2.95
  -1  -9  -9   14.79    2.86
   1   9   9   12.41    2.37
   1   9   9   16.67    2.22
  -1   9  -9   15.87    2.13
   1   9   9   17.44    3.76
  -2  -9  -9   28.56    3.63
  -2  -9  -9   38.64    4.22
   2   9   9   33.94    3.79
  -2   9  -9   23.26    2.88
   2   9   9   30.25    4.31
   3  -9   9   50.59    2.72
  -3  -9  -9   43.94    4.52
  -3  -9  -9   53.93    6.35
  -3   9  -9   54.28    4.20
   3   9   9   51.56    4.69
  -4  -9  -9   -0.39    2.65
   4  -9   9    2.54    1.79
  -4  -9  -9    8.31    5.40
   4   9   9    4.52    3.19
  -4   9  -9    3.98    2.99
  -5  -9  -9   -1.62    3.63
   5  -9   9    0.34    2.63
   5   9   9   -0.83    3.61
  -5   9  -9    1.87    3.66
   6  -9   9    8.35    3.15
   6   9   9    8.86    4.88
   6 -10  -9    1.36    3.16
  -6  10   9    6.74    3.41
   6  10  -9   10.42    3.38
  -6  10   9    3.75    4.28
  -6  10   9    4.54    3.80
   5 -10  -9   11.45    3.00
   5  10  -9    7.90    2.57
  -5  10   9    7.09    3.01
  -5  10   9   12.40    3.07
  -5  10   9    2.36    3.67
   4 -10  -9   32.11    3.68
  -4  10   9   32.14    3.55
   4  10  -9   33.93    3.10
  -4  10   9   25.64    4.55
  -4  10   9   25.91    3.35
   3 -10  -9  152.15    6.15
   3 -10  -9  166.43    5.77
  -3  10   9  166.76    5.57
  -3  10   9  157.94    6.09
  -3  10   9  160.67    7.69
   3  10  -9  155.40    4.70
   2 -10  -9   22.86    2.92
   2 -10  -9   21.82    2.76
  -2  10   9   24.39    2.54
  -2  10   9   26.58    3.93
   2  10  -9   26.42    1.56
   2  10  -9   26.10    1.54
  -2  10   9   24.02    2.89
   1 -10  -9    8.65    2.36
   1 -10  -9    8.91    2.11
   1  10  -9   12.53    1.98
  -1  10   9   12.67    1.80
  -1  10   9   10.18    2.30
  -1  10   9   10.18    3.43
   1  10  -9    8.87    1.07
   0 -10  -9   16.77    2.71
   0 -10  -9   16.90    2.69
   0  10   9   15.21    2.54
   0  10  -9   17.45    1.69
   0  10   9   16.04    3.48
   0  10   9   15.47    1.90
  -1 -10  -9   79.18    4.79
  -1 -10  -9   85.56    4.60
   1  10   9   84.43    3.72
   1  10   9   75.39    4.57
  -1  10  -9   77.54    3.43
   1  10   9   76.07    5.77
  -2 -10  -9   16.78    3.41
  -2 -10  -9    9.72    2.63
   2  10   9   14.66    3.87
  -2  10  -9   13.75    2.26
   2  10   9    5.62    2.60
  -3 -10  -9   27.48    3.84
   3 -10   9   25.70    2.24
   3  10   9   20.06    3.49
  -3  10  -9   25.47    3.22
   4 -10   9    4.01    1.82
  -4 -10  -9    1.32    2.65
   4  10   9   -4.20    3.31
  -4  10  -9    0.35    2.85
  -5 -10  -9   22.40    4.76
   5 -10   9   17.63    3.17
  -5  10  -9   17.49    4.15
   5  10   9   11.12    4.57
   6 -10   9    5.82    3.38
   6  10   9   12.79    5.39
   6 -11  -9    3.91    3.18
  -6  11   9   -2.68    5.95
  -6  11   9    3.41    3.82
  -6  11   9   -1.69    8.02
   6  11  -9    6.25    3.50
   5 -11  -9   44.16    4.56
   5  11  -9   44.73    4.36
  -5  11   9   36.72    4.99
  -5  11   9   33.40    5.25
   4 -11  -9   -1.18    2.26
  -4  11   9   -0.30    2.68
  -4  11   9    2.85    2.29
  -4  11   9    2.99    3.79
   4  11  -9   -0.18    1.89
   3 -11  -9    2.70    2.04
   3  11  -9   -1.17    1.36
  -3  11   9    0.82    1.85
  -3  11   9    2.60    3.34
  -3  11   9   -1.50    2.32
   2 -11  -9   -1.05    2.19
   2 -11  -9   -0.58    1.59
  -2  11   9   -1.33    2.11
  -2  11   9    1.89    3.03
  -2  11   9    1.02    1.57
   2  11  -9    1.24    0.85
   2  11  -9    0.10    1.00
   1 -11  -9   89.66    4.47
   1 -11  -9   92.76    4.86
  -1  11   9   80.40    5.98
   1  11  -9   91.93    2.89
   1  11  -9   86.25    3.82
  -1  11   9   88.47    3.81
  -1  11   9   97.43    4.92
   0 -11  -9    6.54    2.18
   0 -11  -9    9.00    2.87
   0  11   9    6.43    1.66
   0  11  -9    7.07    1.30
   0  11   9    4.09    3.23
   0  11   9    6.67    2.36
  -1 -11  -9    9.97    2.62
  -1 -11  -9   12.59    3.06
   1  11   9   11.97    2.17
   1  11   9    9.66    3.53
  -1  11  -9    9.16    1.72
   1  11   9    7.67    2.61
  -2 -11  -9    7.47    3.04
  -2 -11  -9   -1.88    2.13
  -2  11  -9   -2.03    1.70
   2  11   9   -3.46    3.18
   2  11   9   -1.64    2.44
   3 -11   9   39.61    2.50
  -3  11  -9   43.15    4.08
   3  11   9   37.94    4.97
  -4 -11  -9    7.94    3.38
   4 -11   9   22.44    3.01
   4  11   9   21.93    4.54
  -4  11  -9   16.20    3.32
  -5 -11  -9   22.95    4.71
   5 -11   9   24.66    3.27
   5  11   9   30.13    5.25
  -5  11  -9   27.67    4.67
   6 -11   9    7.34    3.41
   6  11   9    7.34    5.33
   6 -12  -9    9.05    3.86
  -6  12   9    0.54    3.98
  -6  12   9   12.38    5.37
  -6  12   9    3.95    5.36
   5 -12  -9   26.77    3.61
  -5  12   9   33.72    4.04
  -5  12   9   32.26    4.30
   5  12  -9   33.79    4.39
  -5  12   9   35.44    5.61
   4 -12  -9    1.48    2.27
  -4  12   9    4.32    4.13
   4  12  -9    2.62    1.96
  -4  12   9    0.76    2.87
   3 -12  -9   18.92    3.07
  -3  12   9   14.49    3.95
  -3  12   9   24.85    3.31
   3  12  -9   21.99    2.58
  -3  12   9   28.36    3.68
   2 -12  -9   11.57    2.67
  -2  12   9    7.69    2.80
   2  12  -9   11.04    1.50
   2  12  -9    9.42    1.04
   2  12  -9   11.45    1.00
  -2  12   9    7.50    3.37
  -2  12   9   11.65    2.11
   1 -12  -9    3.32    2.11
  -1  12   9    2.02    3.11
   1  12  -9    1.78    1.04
  -1  12   9    2.11    2.48
  -1  12   9    0.54    1.57
   0 -12  -9    0.47    1.89
   0  12   9   -1.36    1.52
   0  12   9   -3.39    2.92
   0  12  -9   -1.37    1.10
   0  12   9   -2.10    2.11
  -1 -12  -9   33.11    4.15
  -1 -12  -9   28.34    3.69
  -1  12  -9   23.67    2.58
   1  12   9   21.13    3.33
   1  12   9   23.37    2.83
   1  12   9   31.88    4.62
  -2 -12  -9    2.87    2.54
   2  12   9   -0.36    2.82
  -2  12  -9    1.21    2.18
   2  12   9    2.17    3.39
   3 -12   9    3.99    1.45
  -3 -12  -9    3.23    2.94
   3  12   9    1.81    3.06
  -3  12  -9    4.75    2.42
  -4 -12  -9    0.38    3.50
   4 -12   9   -1.55    1.77
  -4  12  -9    4.63    3.18
   4  12   9    0.71    3.67
   5 -12   9    9.11    2.86
  -5  12  -9    3.30    3.96
   5  12   9   11.44    4.58
   6 -13  -9    7.24    3.72
  -6  13   9    9.90    5.77
  -6  13   9    5.75    5.35
   6  13  -9    5.11    3.86
  -6  13   9    6.55    4.27
   5 -13  -9   12.95    3.53
  -5  13   9   14.96    4.59
  -5  13   9   20.32    3.62
   5  13  -9   22.50    3.49
   4 -13  -9   24.63    3.48
  -4  13   9   17.34    4.68
  -4  13   9   20.54    3.86
  -4  13   9   23.70    3.31
   4  13  -9   26.20    3.43
   3 -13  -9    2.35    2.23
  -3  13   9   -1.41    2.77
   3  13  -9    1.76    1.71
  -3  13   9    3.34    2.61
  -3  13   9    1.79    3.64
   2 -13  -9    0.49    2.55
  -2  13   9    3.22    1.96
   2  13  -9    0.49    1.33
  -2  13   9   -0.17    3.39
   2  13  -9    1.83    0.83
  -2  13   9    2.29    2.73
   1 -13  -9   68.71    4.27
   1  13  -9   63.50    2.72
  -1  13   9   65.38    4.87
  -1  13   9   65.33    6.15
  -1  13   9   63.77    3.82
   0 -13  -9   85.80    4.81
   0  13  -9   85.82    3.46
   0  13   9   99.20    6.78
   0  13   9   83.29    5.40
   0  13   9   88.20    4.65
  -1 -13  -9   28.62    5.61
  -1 -13  -9   33.14    3.82
   1  13   9   29.57    4.52
   1  13   9   26.78    3.06
   1  13   9   29.56    3.90
  -1  13  -9   20.63    2.65
   2  13   9   31.16    3.46
   2  13   9   29.16    4.91
  -2  13  -9   33.01    3.52
  -3 -13  -9   -3.94    3.25
  -3  13  -9    2.47    2.40
   3  13   9    6.08    3.36
   4 -13   9  104.02    4.58
  -4 -13  -9  101.14    6.91
   4  13   9  105.88    7.53
  -4  13  -9  104.82    6.54
   5 -13   9   35.97    4.41
   5  13   9   22.78    5.24
   6 -14  -9    1.30    4.12
  -6  14   9   -2.45    4.38
  -6  14   9    1.44    4.30
   6  14  -9   -7.29    3.93
  -6  14   9   -2.33    5.48
   5 -14  -9    9.84    3.29
  -5  14   9    2.45    3.93
  -5  14   9   -1.09    4.71
   5  14  -9    2.03    3.12
   4 -14  -9   18.11    3.38
   4  14  -9   18.44    2.97
  -4  14   9   17.65    4.84
  -4  14   9   20.88    3.34
   3 -14  -9    2.54    2.46
  -3  14   9    0.21    2.37
  -3  14   9   -2.25    3.79
  -3  14   9   -1.20    2.94
   3  14  -9   -2.63    1.71
   2 -14  -9   56.63    4.42
  -2  14   9   61.11    5.27
  -2  14   9   77.56    6.73
   2  14  -9   71.54    3.34
  -2  14   9   74.34    4.31
   1 -14  -9   44.43    3.97
  -1  14   9   43.70    3.49
   1  14  -9   44.77    2.49
  -1  14   9   40.66    4.66
  -1  14   9   45.71    5.44
   0 -14  -9    3.73    2.43
   0  14   9    6.22    2.79
   0  14  -9    2.10    1.41
   0  14   9    4.06    1.82
   0  14   9   -0.33    3.35
  -1 -14  -9    1.48    2.46
   1  14   9    4.61    2.14
  -1  14  -9   -0.24    1.60
   1  14   9    0.89    2.96
   1  14   9    7.28    3.99
  -2  14  -9  157.57    6.12
   2  14   9  147.23    7.65
   2  14   9  170.01    8.66
  -3 -14  -9    2.33    3.02
   3  14   9    2.27    3.75
  -3  14  -9    5.82    2.87
   4 -14   9   -2.96    1.93
  -4 -14  -9   -0.77    3.91
  -4  14  -9    5.41    3.42
   4  14   9   -6.37    3.75
   5 -14   9    7.00    2.89
   5  14   9    8.44    5.07
   5 -15  -9   -0.81    3.32
  -5  15   9    2.64    5.09
   5  15  -9    2.92    3.30
  -5  15   9    1.30    4.29
  -5  15   9    5.78    3.66
   4 -15  -9    5.43    2.88
   4  15  -9    5.06    2.63
  -4  15   9    0.07    3.80
   3 -15  -9    9.53    3.02
  -3  15   9    7.81    6.03
  -3  15   9   10.52    2.79
   3  15  -9    9.95    2.31
  -3  15   9    5.62    4.62
   2  15  -9   -1.20    1.60
  -2  15   9    0.48    3.16
  -2  15   9    0.98    3.83
  -2  15   9    0.03    2.07
   1 -15  -9   14.23    2.93
  -1  15   9   13.95    2.50
  -1  15   9   12.49    3.58
   1  15  -9   14.81    2.00
   1  15  -9   15.81    1.88
  -1  15   9    9.23    4.05
   0 -15  -9    8.12    2.54
   0  15   9   14.01    2.48
   0  15  -9   13.72    2.01
   0  15   9    7.67    3.30
   0  15   9   16.07    4.60
  -1 -15  -9    6.79    3.47
  -1 -15  -9    2.58    2.55
  -1  15  -9   13.38    2.79
   1  15   9   15.08    3.99
   1  15   9    9.36    4.28
  -2 -15  -9   -0.70    2.74
   2  15   9   -1.10    1.64
   2  15   9    4.05    3.48
  -2  15  -9    0.22    2.29
   2  15   9    8.61    4.29
  -3 -15  -9   11.92    3.96
  -3  15  -9    4.76    2.89
   3  15   9    0.30    3.53
  -4 -15  -9   -0.78    4.79
   4 -15   9    1.65    2.15
  -4  15  -9   15.00    3.88
   4  15   9    6.39    4.18
   5 -15   9    2.66    2.88
   5  15   9    1.46    5.31
   5 -16  -9    3.13    3.69
  -5  16   9    3.40    4.47
   5  16  -9   10.53    3.75
  -5  16   9   15.64    4.31
  -5  16   9    2.40    5.25
   4 -16  -9    1.15    3.13
  -4  16   9    2.87    4.17
  -4  16   9    5.65    4.78
   4  16  -9    7.83    2.93
  -4  16   9    4.85    2.80
  -3  16   9   28.75    4.61
   3  16  -9   47.79    3.98
  -3  16   9   40.13    5.78
   2  16  -9   50.61    3.44
  -2  16   9   45.86    5.17
  -2  16   9   41.58    5.72
   2  16  -9   50.33    2.95
  -2  16   9   45.62    4.92
  -1  16   9    1.79    4.01
  -1  16   9    3.18    2.65
  -1  16   9    4.02    3.40
   1  16  -9    4.75    1.77
   1  16  -9    6.01    1.61
   1  16  -9    2.88    1.57
   0 -16  -9    6.69    2.74
   0  16   9    6.10    4.38
   0  16   9   11.26    3.74
   0  16  -9   10.67    2.02
   1  16   9   46.71    6.02
   1  16   9   48.35    5.60
  -2 -16  -9   36.05    4.92
   2  16   9   47.10    5.56
  -2  16  -9   44.72    4.27
   2  16   9   44.92    4.28
   2  16   9   53.18    6.76
  -3 -16  -9    3.21    3.65
   3  16   9   -2.85    3.93
  -3  16  -9    2.67    2.82
   4  16   9   12.48    4.85
  -4  16  -9    2.83    3.66
   5 -17  -9    1.75    3.67
   5  17  -9   11.13    3.92
  -5  17   9   22.07    4.52
  -5  17   9    2.69    5.60
  -5  17   9   10.52    5.04
   4 -17  -9    6.46    3.59
  -4  17   9    9.93    3.53
   4  17  -9    7.43    3.21
  -4  17   9    7.62    5.61
  -4  17   9    5.45    4.47
   3  17  -9   -3.17    2.42
  -3  17   9    0.86    2.69
  -3  17   9   -7.02    3.77
  -3  17   9    6.49    4.97
  -2  17   9   -2.16    3.85
  -2  17   9   -1.89    2.39
   2  17  -9    4.22    1.70
   2  17  -9    3.67    2.19
  -2  17   9    9.96    4.60
  -1  17   9   54.80    6.14
   1  17  -9   56.71    3.68
  -1  17   9   51.43    6.95
   1  17  -9   59.61    3.47
   1  17  -9   60.72    3.18
   0 -17  -9   -5.13    2.78
   0  17   9   -0.11    4.13
   0  17   9   -0.63    1.66
   0  17   9    1.08    3.58
  -1  17  -9   65.40    4.20
   1  17   9   64.15    4.57
   1  17   9   58.31    6.50
   1  17   9   59.24    6.84
  -2 -17  -9   10.46    3.70
   2  17   9   11.34    4.30
   2  17   9   13.60    2.92
   2  17   9   17.42    5.29
  -2  17  -9   12.29    2.83
  -3 -17  -9   10.12    3.96
   3  17   9   15.57    3.34
   3  17   9   13.21    4.66
  -3  17  -9   10.93    3.51
   4  17   9    2.51    5.04
   4 -18  -9    6.57    3.66
   4  18  -9    0.05    3.10
  -4  18   9    1.87    5.23
  -4  18   9    2.78    3.77
  -4  18   9    5.60    4.83
   3  18  -9   18.76    3.42
  -3  18   9   23.96    3.79
  -3  18   9   19.44    5.58
  -3  18   9   21.60    5.03
  -2  18   9    0.36    2.70
  -2  18   9    1.30    4.08
  -2  18   9    4.98    5.83
  -1  18   9   -0.20    2.53
  -1  18   9    2.90    4.74
   1  18  -9    6.91    2.21
   1  18  -9    5.66    1.83
   1  18  -9    6.01    2.19
  -1  18   9   10.61    4.19
   0 -18  -9   -1.40    3.08
   0  18   9   -2.63    4.32
   0  18  -9   -0.91    2.00
   0  18   9    0.79    4.01
   0  18   9   -0.47    2.29
   0  18  -9    0.43    1.90
  -1 -18  -9   -0.72    2.88
  -1  18  -9    1.47    2.31
   1  18   9   -2.90    2.40
   1  18   9    1.73    4.62
   1  18   9    0.73    3.92
  -2 -18  -9    8.32    3.93
   2  18   9    5.88    2.91
  -2  18  -9    8.42    2.84
   2  18   9    9.88    4.46
   3  18   9   -0.07    2.93
  -3  18  -9    8.21    3.40
   3  18   9   -1.32    4.32
   3  18   9    1.69    5.45
   4  18   9    7.22    5.50
   4  19  -9    3.28    4.26
  -4  19   9    4.89    6.14
  -4  19   9    2.72    4.08
  -4  19   9    3.99    5.10
  -3  19   9    6.68    5.50
   3  19  -9   -4.02    3.00
  -3  19   9   12.24    3.58
  -3  19   9    5.80    4.83
  -2  19   9   -1.47    4.09
   2  19  -9    1.12    2.07
   2  19  -9   -3.18    2.60
  -2  19   9   -3.05    4.52
  -2  19   9    0.90    3.05
  -1  19   9   67.40    8.16
  -1  19   9   61.46    7.04
   1  19  -9   63.67    3.92
   1  19  -9   64.66    4.59
   1  19  -9   63.55    3.67
  -1  19   9   58.52    4.98
   0 -19  -9   27.78    4.31
   0  19  -9   22.90    3.12
   0  19   9   25.85    9.75
   0  19  -9   21.81    2.81
   0  19  -9   24.84    2.94
   0  19   9   19.78    4.84
   0  19   9   28.17    3.64
  -1 -19  -9    7.27    3.70
  -1  19  -9   10.09    2.75
   1  19   9    3.01    4.29
   1  19   9    8.48    6.09
   2  19   9    7.63    4.77
   2  19   9    0.25    3.14
   2  19   9    6.61    5.35
  -2  19  -9    7.80    3.11
   3  19   9   13.56    5.97
   3  19   9   19.59    5.45
  -3  19  -9   15.40    3.80
  -3  20   9   -0.38    3.75
  -3  20   9    2.49    5.46
   3  20  -9   -2.68    2.27
  -3  20   9    4.15    5.24
   2  20  -9   14.66    2.62
  -2  20   9   10.48    5.26
  -2  20   9   16.97    6.20
   2  20  -9   17.56    3.46
  -2  20   9   23.35    3.81
   1  20  -9   -3.46    2.69
   1  20  -9    0.88    2.29
   1  20  -9    1.30    2.03
  -1  20   9   -2.02    4.25
  -1  20   9   -0.03    4.92
  -1  20   9    1.95    2.92
   0  20   9    6.30    2.93
   0  20   9    9.01    5.48
   0  20  -9    6.78    3.83
   0  20  -9    6.16    2.51
   0  20   9    1.85    4.32
   0  20  -9   11.01    2.59
  -1  20  -9   -4.39    2.70
  -1  20  -9   -1.61    2.64
   1  20   9    3.67    4.56
   1  20   9   -4.59    2.83
   1  20   9   -3.40    5.07
  -2  20  -9   30.57    4.26
   2  20   9   32.47    6.72
   2  20   9   14.83    4.96
   3  20   9    2.76    5.47
   3  20   9    6.13    5.84
  -3  21   9    6.84    6.37
  -3  21   9    8.95    5.57
   3  21  -9    3.81    4.08
   3  21  -9    8.28    2.82
  -2  21   9    7.95    5.31
  -2  21   9    4.48    5.52
   2  21  -9    9.32    3.79
  -2  21   9   19.72    4.15
   2  21  -9    6.43    2.54
   1  21  -9   11.08    3.50
  -1  21   9    9.87    3.57
   1  21  -9   10.97    2.48
   1  21  -9   15.81    2.93
  -1  21   9    6.70    4.91
  -1  21   9   10.59    5.94
   0  21   9    3.33    3.03
   0  21  -9    1.92    2.86
   0  21   9    4.57    4.93
   0  21  -9    3.43    2.72
   0  21   9   -1.51    5.55
   0  21  -9    2.62    2.73
  -1  21  -9    6.29    3.14
   1  21   9   -4.79    5.33
  -1  21  -9    5.65    3.04
   1  21   9    2.36    4.82
  -2  21  -9    2.76    3.46
   2  21   9   10.91    5.62
   2  21   9   11.99    6.13
  -2  22   9   20.71    6.93
   2  22  -9   31.61    4.73
   2  22  -9   16.68    3.07
  -2  22   9   18.89    6.31
  -1  22   9   -2.52    5.42
  -1  22   9    0.85    5.51
   1  22  -9    3.43    2.49
   1  22  -9    8.72    2.83
   1  22  -9   -5.46    3.38
   0  22  -9   10.91    3.50
   0  22   9   16.27    5.38
   0  22   9   14.17    6.05
   0  22  -9   11.08    3.12
   0  22  -9    9.66    3.23
   1  22   9   -1.33    5.16
  -1  22  -9    6.33    3.36
  -1  22  -9    0.51    3.14
   1  22   9    1.92    5.62
  -1  22  -9   -0.31    3.45
  -7   0  10    1.19    3.58
   7   0 -10   -0.96    3.28
  -6   0  10    6.40    3.08
   6   0 -10    5.32    2.58
   5   0 -10    0.43    1.80
  -5   0  10   -0.83    2.37
   4   0 -10  110.81    4.07
  -4   0  10  105.73    4.93
   3   0 -10    0.96    1.38
   3   0 -10    1.17    1.02
  -3   0  10   -1.89    1.82
   2   0 -10   58.83    3.19
   2   0 -10   57.45    2.33
   2   0 -10   57.98    2.10
  -2   0  10   60.61    3.81
   1   0 -10   -1.48    0.95
  -1   0  10   -0.95    1.86
   0   0 -10    9.72    2.24
   0   0 -10   12.29    1.65
  -1   0 -10   -1.53    1.29
   1   0  10    0.17    0.56
   1   0  10    0.04    0.44
  -1   0 -10    0.70    2.04
  -2   0 -10  339.96   10.66
   2   0  10  332.59    8.25
  -2   0 -10  330.77    9.43
   3   0  10    1.77    1.60
  -3   0 -10    1.26    3.25
  -3   0 -10   -0.81    2.15
  -4   0 -10   13.34    3.28
   4   0  10   16.67    2.71
   5   0  10    2.58    2.67
  -5   0 -10   -0.12    3.27
   6   0  10   31.21    4.22
  -7  -1  10    5.30    3.31
   7  -1 -10   10.96    3.59
  -7   1  10    5.87    3.81
   7   1 -10    3.80    3.40
   6  -1 -10   11.68    2.97
  -6  -1  10    9.07    2.87
  -6   1  10    8.90    3.34
   6   1 -10   12.19    2.82
   5  -1 -10   10.65    2.26
  -5  -1  10   13.72    2.70
  -5   1  10   11.80    2.95
   5   1 -10   12.20    2.29
   4  -1 -10    1.26    1.47
  -4  -1  10    0.36    2.02
   4   1 -10   -0.29    1.37
  -4   1  10   -0.02    2.25
   3  -1 -10   17.09    2.42
  -3  -1  10   16.40    2.42
   3  -1 -10   14.36    1.55
   3   1 -10   16.05    2.08
   3   1 -10   14.24    1.62
  -3   1  10   16.11    2.76
   2  -1 -10    0.56    1.60
   2  -1 -10   -0.36    0.95
  -2  -1  10    0.24    1.76
   2  -1 -10    0.80    0.82
   2   1 -10    0.18    1.32
   2   1 -10    1.79    0.85
  -2   1  10   -0.61    1.93
   2   1 -10    0.80    0.71
   1  -1 -10   13.78    1.79
   1  -1 -10   15.84    2.42
  -1   1  10   12.70    2.60
   1   1 -10   12.48    1.37
   1   1 -10   11.24    2.10
   0  -1 -10    7.79    1.56
   0  -1 -10    9.11    2.10
   0   1 -10    5.64    1.33
   0   1 -10    7.49    2.13
  -1  -1 -10   53.38    3.23
  -1  -1 -10   48.47    4.12
   1   1  10   52.47    1.83
  -1   1 -10   56.83    4.04
   1   1  10   54.49    2.03
  -1   1 -10   54.07    3.15
  -2  -1 -10   10.10    2.30
   2  -1  10   11.19    1.45
  -2  -1 -10   11.32    3.00
  -2   1 -10    9.05    2.84
   2   1  10   10.12    1.63
  -2   1 -10   14.02    2.30
   3  -1  10   24.80    2.71
  -3  -1 -10   32.46    3.73
  -3   1 -10   31.29    4.26
  -3   1 -10   27.05    3.44
   3   1  10   27.73    2.80
  -4  -1 -10   34.51    4.64
   4  -1  10   29.03    3.23
   4   1  10   36.43    3.62
  -4   1 -10   36.82    4.49
  -5  -1 -10    4.66    3.76
   5  -1  10    7.38    2.88
  -5   1 -10    7.19    3.40
   5   1  10    2.19    2.85
   6  -1  10    1.05    3.36
   6   1  10    1.51    3.23
  -7  -2  10    3.02    3.04
   7  -2 -10    3.91    3.47
   7   2 -10    4.43    3.46
  -7   2  10   11.26    4.27
  -6  -2  10   15.04    2.86
   6   2 -10   17.36    2.99
  -6   2  10   14.20    3.70
  -5  -2  10   21.43    2.76
   5  -2 -10   19.38    2.65
  -5   2  10   18.66    3.35
   5   2 -10   17.27    2.45
   4  -2 -10    4.87    1.61
  -4  -2  10    3.84    2.10
  -4   2  10    4.59    2.54
   4   2 -10    4.88    1.50
   3  -2 -10    5.13    1.30
  -3  -2  10    4.73    1.93
   3  -2 -10    6.59    1.70
   3   2 -10    5.03    1.37
   3   2 -10    2.86    1.05
  -3   2  10    4.58    2.33
  -2  -2  10  141.62    5.29
   2  -2 -10  139.93    4.08
   2  -2 -10  146.35    4.35
   2  -2 -10  148.06    5.05
   2   2 -10  148.17    4.70
   2   2 -10  149.87    3.71
  -2   2  10  141.17    5.92
   2   2 -10  141.38    3.52
   1  -2 -10    0.72    1.16
   1  -2 -10    3.22    1.72
   1   2 -10    0.21    1.53
  -1   2  10    0.97    2.01
   1   2 -10    1.37    0.86
   0  -2 -10   20.99    2.20
   0  -2 -10   17.83    2.63
   0   2 -10   13.32    1.76
   0   2  10   12.32    2.69
   0   2 -10   15.54    2.64
  -1  -2 -10   24.41    2.77
  -1  -2 -10   25.91    3.61
  -1   2 -10   23.15    3.24
  -1   2 -10   23.34    2.46
   1   2  10   27.08    1.78
   1   2  10   26.38    1.54
  -2  -2 -10   85.86    5.24
   2  -2  10   80.32    2.83
  -2  -2 -10   87.24    4.49
   2   2  10   78.40    3.52
  -2   2 -10   85.20    5.32
  -2   2 -10   84.19    4.26
   3  -2  10    9.47    1.84
  -3  -2 -10   10.00    2.72
  -3   2 -10   11.59    2.70
  -3   2 -10    7.12    2.97
   3   2  10    8.84    2.18
  -4  -2 -10    7.45    3.11
   4  -2  10    1.27    1.96
  -4   2 -10   -1.66    2.67
   4   2  10    1.61    2.21
  -5  -2 -10    4.36    3.63
   5  -2  10    5.03    2.60
  -5   2 -10    8.81    3.51
   5   2  10    1.34    2.74
   6  -2  10    8.26    3.47
   6   2  10    5.57    3.57
   7  -3 -10    6.95    3.51
   7   3 -10    6.18    3.59
  -7   3  10    8.99    4.48
  -6  -3  10    5.65    2.26
   6  -3 -10    4.08    2.73
   6   3 -10    5.53    2.55
  -6   3  10    2.01    3.60
  -5  -3  10   55.76    3.53
   5  -3 -10   52.08    3.84
  -5   3  10   54.52    5.03
   5   3 -10   46.17    3.47
  -4  -3  10    2.54    1.82
   4  -3 -10    0.84    1.58
  -4   3  10    2.86    2.46
   4   3 -10    2.94    1.35
  -3  -3  10    2.56    1.72
   3  -3 -10    1.67    1.19
   3  -3 -10    1.98    1.65
  -3   3  10    2.19    2.23
   3   3 -10    2.40    1.12
   3   3 -10    1.44    0.94
   2  -3 -10   13.19    1.46
   2  -3 -10   14.55    1.70
   2  -3 -10   13.34    2.16
   2   3 -10   12.09    0.90
  -2   3  10    9.38    2.48
   2   3 -10   15.59    1.84
   2   3 -10   13.32    1.01
   1  -3 -10  225.21    7.06
   1  -3 -10  213.70    6.18
   1   3 -10  219.91    5.17
  -1   3  10  225.83    7.72
   1   3 -10  217.31    6.67
   0  -3 -10    7.85    1.74
   0  -3 -10    9.88    2.38
   0   3 -10    6.03    1.30
   0   3  10    5.77    2.50
   0   3  10    5.22    0.65
   0   3 -10    9.49    2.28
   0   3  10    6.48    0.86
  -1  -3 -10   25.51    2.77
  -1  -3 -10   28.32    3.67
  -1   3 -10   29.29    3.58
   1   3  10   24.93    2.09
  -1   3 -10   24.55    2.49
   1   3  10   25.08    1.69
   2  -3  10    9.71    1.15
  -2  -3 -10   16.08    3.25
  -2  -3 -10   13.46    2.56
  -2   3 -10    9.75    2.18
   2   3  10   10.20    1.93
  -2   3 -10   10.38    2.98
   3  -3  10  117.18    4.17
  -3  -3 -10  116.29    5.68
  -3   3 -10  108.22    6.34
   3   3  10  106.11    4.91
  -3   3 -10  114.68    5.62
  -4  -3 -10   15.83    3.40
   4  -3  10   17.37    2.60
   4   3  10   17.74    3.10
  -4   3 -10   12.67    3.20
  -5  -3 -10   12.19    4.01
   5  -3  10   21.90    3.42
   5   3  10   11.98    3.26
   6  -3  10   -1.06    3.14
   6   3  10   -1.13    3.77
   7  -4 -10    3.17    3.44
   7   4 -10    5.28    3.61
  -7   4  10   10.58    4.54
  -6  -4  10    6.99    2.36
   6  -4 -10    5.14    2.76
   6   4 -10   12.61    2.95
  -6   4  10    6.98    3.83
  -5  -4  10    8.05    3.14
   5  -4 -10   17.92    2.69
  -5   4  10   18.22    3.76
   5   4 -10   15.82    2.35
   4  -4 -10    0.91    1.65
   4   4 -10    0.03    1.38
  -4   4  10   -0.53    2.47
   3  -4 -10    6.04    1.43
   3  -4 -10    4.45    1.82
   3   4 -10    4.46    1.06
  -3   4  10    5.99    2.69
   3   4 -10    5.81    1.17
   2  -4 -10   29.38    2.07
   2  -4 -10   26.20    2.91
   2  -4 -10   29.58    2.28
   2   4 -10   26.71    2.23
  -2   4  10   27.07    3.75
   1  -4 -10    6.41    2.02
   1  -4 -10    5.06    1.51
   1   4 -10    5.13    1.65
   1   4 -10    2.93    0.67
  -1   4  10    2.82    2.26
   0  -4 -10   12.31    2.63
   0  -4 -10   10.34    1.93
   0   4 -10   11.56    1.43
   0   4  10   10.34    1.20
   0   4 -10   10.23    2.61
   0   4  10    8.48    2.73
   0   4  10   12.47    1.34
  -1  -4 -10    1.78    2.27
  -1  -4 -10    1.62    1.72
   1   4  10    3.56    1.39
  -1   4 -10    0.01    1.38
  -1   4 -10    0.36    2.34
   1   4  10    2.16    1.02
   2  -4  10   63.22    2.15
  -2  -4 -10   66.57    4.18
  -2  -4 -10   63.58    4.71
  -2   4 -10   59.16    4.73
  -2   4 -10   60.82    3.81
   2   4  10   61.37    3.61
   3  -4  10   12.73    1.79
  -3  -4 -10   12.57    2.84
  -3   4 -10   10.40    2.61
   3   4  10    9.42    2.42
  -4  -4 -10   11.59    3.22
   4  -4  10   13.13    2.33
   4   4  10   14.76    3.07
  -4   4 -10   14.69    3.21
  -5  -4 -10   15.35    4.29
   5  -4  10   18.82    3.55
  -5   4 -10   21.10    4.26
   5   4  10   14.91    3.48
   6  -4  10    1.22    3.16
   6   4  10    3.80    3.74
   7  -5 -10   -1.94    3.30
   7   5 -10   10.62    3.78
  -7   5  10    5.51    4.74
   6  -5 -10   12.14    3.00
  -6   5  10   11.89    4.20
   6   5 -10   11.51    2.85
   5  -5 -10   11.74    2.65
   5   5 -10   13.82    2.21
  -5   5  10   12.31    3.68
   4  -5 -10    2.92    1.81
   4   5 -10   -0.19    1.30
  -4   5  10    0.49    2.83
   3  -5 -10   57.85    3.55
   3  -5 -10   55.00    2.93
   3   5 -10   50.92    2.12
  -3   5  10   49.60    4.65
   3   5 -10   51.53    2.11
   2  -5 -10    5.03    1.34
   2  -5 -10    6.27    1.56
   2  -5 -10    7.41    2.09
   2   5 -10    5.25    1.41
  -2   5  10    2.81    2.47
   1  -5 -10  157.49    5.80
   1  -5 -10  156.11    5.17
  -1   5  10  159.53    4.20
   1   5 -10  154.87    5.30
  -1   5  10  148.29    6.62
  -1   5  10  156.75    3.96
   0  -5 -10    1.92    1.95
   0  -5 -10    2.73    1.60
   0   5 -10    1.06    0.99
   0   5  10    0.36    1.18
   0   5  10   -0.98    2.39
   0   5  10    1.20    0.84
  -1  -5 -10    2.99    2.40
  -1  -5 -10    5.58    2.04
   1   5  10    3.87    1.23
  -1   5 -10    3.87    2.19
   1   5  10    6.49    3.05
  -1   5 -10    6.02    1.67
   1   5  10    4.11    1.57
  -2  -5 -10    2.11    2.44
   2  -5  10   -0.64    0.69
  -2  -5 -10    1.47    2.99
  -2   5 -10   -2.36    1.64
   2   5  10    1.18    1.81
  -3  -5 -10   40.46    4.13
   3  -5  10   42.86    2.52
   3   5  10   36.23    3.90
  -3   5 -10   43.07    4.19
   4  -5  10    0.61    1.76
  -4  -5 -10    3.06    3.12
   4   5  10    0.24    2.62
  -4   5 -10    1.62    2.67
   5  -5  10   33.05    5.24
  -5  -5 -10   32.56    4.88
  -5   5 -10   32.13    4.68
   5   5  10   20.10    3.73
   6  -5  10    4.45    3.15
   6   5  10    1.63    3.90
   7  -6 -10   -8.47    3.38
   7   6 -10   -0.69    3.66
  -7   6  10    0.57    4.97
   6  -6 -10   -0.94    2.69
  -6   6  10    5.73    1.92
  -6   6  10    1.48    2.02
  -6   6  10   -5.69    3.88
   6   6 -10    8.43    2.77
   5  -6 -10   -0.10    2.16
   5   6 -10   -0.72    1.89
  -5   6  10    1.14    1.63
  -5   6  10    3.42    3.63
  -5   6  10    1.65    1.47
   4  -6 -10   16.00    2.29
  -4   6  10   12.98    3.54
   4   6 -10   13.58    1.92
  -4   6  10   16.96    2.10
  -4   6  10   15.35    1.89
   3  -6 -10    8.78    2.17
   3  -6 -10    9.52    1.85
  -3   6  10    8.34    1.25
  -3   6  10    8.36    1.35
  -3   6  10    7.46    3.11
   3   6 -10    9.18    1.18
   2  -6 -10  171.77    5.29
   2  -6 -10  181.96    5.62
   2  -6 -10  177.41    6.22
   2   6 -10  172.44    4.99
  -2   6  10  184.32    7.32
  -2   6  10  172.62    4.58
  -2   6  10  172.78    4.75
   1  -6 -10    9.03    2.18
   1  -6 -10   11.41    1.86
  -1   6  10    8.17    1.44
  -1   6  10    9.83    2.98
   1   6 -10   10.56    2.01
  -1   6  10    9.98    1.23
   0  -6 -10   26.70    3.24
   0  -6 -10   22.48    2.80
   0   6 -10   20.20    1.71
   0   6  10   24.04    1.81
   0   6  10   26.27    2.30
   0   6  10   24.97    3.86
  -1  -6 -10   89.81    5.10
  -1  -6 -10   90.18    4.56
   1   6  10   87.58    4.03
  -1   6 -10   92.66    4.98
  -1   6 -10   88.36    3.67
   1   6  10   83.45    5.75
   1   6  10   86.41    3.35
  -2  -6 -10  300.08    9.38
   2  -6  10  312.62    6.60
   2   6  10  295.44    8.87
  -2   6 -10  304.65    8.74
   3  -6  10    8.56    1.55
  -3  -6 -10   10.27    2.87
   3   6  10    8.25    2.58
  -3   6 -10    6.76    2.51
  -4  -6 -10   34.20    4.33
   4  -6  10   22.27    2.91
  -4   6 -10   19.95    3.50
   4   6  10   24.11    4.55
  -5  -6 -10    0.07    3.77
  -5   6 -10   13.40    3.89
   5   6  10    5.07    3.65
   6  -6  10   44.48    5.20
   6   6  10   33.23    4.85
   7  -7 -10    4.13    3.74
   7   7 -10    6.25    3.86
  -7   7  10    2.79    5.27
   6  -7 -10    1.44    3.00
  -6   7  10    2.05    2.32
  -6   7  10    5.00    4.36
   6   7 -10    9.73    2.87
  -6   7  10    2.72    2.42
   5   7 -10    2.60    2.07
  -5   7  10   -1.58    1.79
  -5   7  10    1.28    2.01
  -5   7  10    0.49    3.65
   4  -7 -10   12.10    2.29
   4   7 -10    9.78    1.94
  -4   7  10    8.37    3.36
  -4   7  10   10.16    1.84
  -4   7  10   10.19    1.97
   3  -7 -10   42.76    3.02
   3  -7 -10   37.89    3.52
  -3   7  10   40.48    2.51
  -3   7  10   43.27    2.76
  -3   7  10   35.02    4.56
   3   7 -10   39.16    1.99
   2  -7 -10   58.80    3.17
   2  -7 -10   61.63    3.38
   2  -7 -10   62.83    3.97
  -2   7  10   57.16    4.72
  -2   7  10   56.29    2.60
   2   7 -10   57.24    2.63
  -2   7  10   58.25    2.96
   1  -7 -10   19.94    2.75
   1  -7 -10   24.42    2.70
  -1   7  10   18.72    3.44
   1   7 -10   22.14    2.47
   1   7 -10   18.81    0.92
  -1   7  10   18.82    2.23
  -1   7  10   21.22    1.87
   0  -7 -10   83.68    4.77
   0  -7 -10   84.14    4.26
   0   7  10   89.67    5.76
   0   7  10   88.55    3.84
   0   7  10   84.40    3.16
   0   7 -10   85.17    2.92
  -1  -7 -10   39.11    3.88
  -1  -7 -10   39.79    3.60
   1   7  10   41.74    3.26
   1   7  10   45.73    5.00
   1   7  10   40.69    2.58
  -1   7 -10   44.97    2.79
  -2  -7 -10   21.19    3.23
  -2   7 -10   21.02    2.60
   2   7  10   15.67    2.76
  -3  -7 -10   11.20    2.97
   3  -7  10   13.05    1.61
   3   7  10   11.52    2.98
  -3   7 -10   16.51    2.81
   4  -7  10    6.38    2.04
  -4  -7 -10    3.86    3.06
  -4   7 -10    5.46    3.35
   4   7  10    4.56    3.12
  -5  -7 -10   -1.76    3.88
   5   7  10    0.53    3.41
  -5   7 -10    0.85    3.77
   6  -7  10   -1.45    2.96
   6   7  10    8.55    4.32
   6  -8 -10   12.40    3.45
  -6   8  10   10.58    4.89
   6   8 -10    7.82    2.99
  -6   8  10   14.73    2.89
  -6   8  10   13.33    3.08
   5  -8 -10   14.47    2.87
  -5   8  10   14.56    2.59
   5   8 -10    9.55    2.44
  -5   8  10   12.42    2.64
  -5   8  10    8.56    4.01
   4  -8 -10   29.26    3.33
  -4   8  10   23.70    4.10
  -4   8  10   25.73    2.90
  -4   8  10   27.60    3.18
   4   8 -10   26.27    2.72
   3  -8 -10    3.75    2.24
   3  -8 -10    0.73    1.73
  -3   8  10    2.38    1.52
   3   8 -10    2.25    1.10
  -3   8  10    3.46    3.06
  -3   8  10    1.46    1.69
   2  -8 -10   77.48    4.38
   2  -8 -10   73.47    3.58
   2  -8 -10   70.39    3.76
  -2   8  10   76.62    3.62
  -2   8  10   70.72    5.44
   2   8 -10   75.23    2.85
  -2   8  10   73.02    3.15
   1  -8 -10   33.58    3.04
   1  -8 -10   35.45    3.58
  -1   8  10   33.54    4.66
  -1   8  10   34.38    2.85
   1   8 -10   34.36    1.33
   1   8 -10   27.66    2.77
  -1   8  10   33.47    2.28
   0  -8 -10    9.50    2.33
   0  -8 -10   13.12    2.77
   0   8  10    9.40    1.95
   0   8  10    7.17    3.21
   0   8 -10    8.46    1.23
   0   8  10    9.74    1.53
  -1  -8 -10    6.42    2.43
   1   8  10    4.67    1.52
   1   8  10    4.08    1.99
  -1   8 -10    2.81    1.47
   1   8  10   -0.02    3.14
  -2  -8 -10    9.41    2.54
  -2   8 -10   10.74    2.27
   2   8  10    6.23    2.37
  -3  -8 -10    9.82    2.91
   3  -8  10   19.10    2.02
   3   8  10   19.39    3.43
  -3   8 -10   15.85    3.06
   4  -8  10    3.35    2.44
  -4  -8 -10    4.37    2.94
  -4   8 -10   -3.69    2.91
   4   8  10    3.48    3.14
  -5  -8 -10    3.87    3.88
   5   8  10    3.24    3.85
  -5   8 -10    1.81    3.71
   6  -8  10    9.50    3.33
   6   8  10    7.44    5.00
   6  -9 -10    1.34    3.15
   6   9 -10    4.43    3.18
  -6   9  10    9.48    5.20
  -6   9  10    6.51    3.13
  -6   9  10    7.19    3.28
   5  -9 -10   61.11    4.65
  -5   9  10   57.49    4.33
  -5   9  10   65.29    6.79
  -5   9  10   57.49    4.56
   5   9 -10   58.38    4.27
   4  -9 -10    2.06    2.15
  -4   9  10    1.90    1.91
  -4   9  10    3.74    3.59
   4   9 -10    3.84    1.73
  -4   9  10    2.91    2.28
   3  -9 -10   23.33    2.95
   3  -9 -10   19.57    2.95
   3   9 -10   13.98    1.54
  -3   9  10   15.49    2.09
  -3   9  10   14.54    3.88
  -3   9  10   15.89    2.54
   2  -9 -10    2.76    2.01
   2  -9 -10    2.57    2.29
   2  -9 -10    0.84    1.60
   2   9 -10    4.20    1.19
  -2   9  10    4.05    3.23
  -2   9  10    2.51    1.95
  -2   9  10    4.61    1.57
   1  -9 -10   39.41    3.39
   1  -9 -10   43.01    3.83
  -1   9  10   41.18    3.32
   1   9 -10   41.67    1.68
  -1   9  10   45.38    2.66
  -1   9  10   47.55    5.15
   1   9 -10   42.03    3.09
   0  -9 -10  160.31    6.65
   0  -9 -10  155.25    6.38
   0   9  10  159.93    5.82
   0   9  10  151.23    4.90
   0   9  10  152.22    7.57
   0   9 -10  157.41    4.41
  -1  -9 -10   20.87    2.92
   1   9  10   20.05    2.81
   1   9  10   26.98    4.14
  -1   9 -10   19.87    2.36
   1   9  10   23.77    2.54
  -2  -9 -10    1.21    2.32
   2   9  10   -1.21    2.10
  -2   9 -10    1.05    1.79
  -3  -9 -10   81.64    5.59
   3  -9  10   86.06    3.18
  -3   9 -10   87.91    5.05
   3   9  10   84.66    5.76
   4  -9  10   48.53    3.37
  -4  -9 -10   51.79    5.63
  -4   9 -10   49.10    5.27
   4   9  10   52.14    5.72
  -5  -9 -10   19.08    4.83
   5   9  10   23.32    4.51
  -5   9 -10   21.11    4.45
   6  -9  10    4.32    3.24
   6   9  10    3.79    4.99
   6 -10 -10   18.18    3.80
   6  10 -10   15.46    3.68
  -6  10  10   23.24    3.83
  -6  10  10   10.59    3.81
   5 -10 -10    6.14    2.85
   5  10 -10    0.83    2.49
  -5  10  10    5.14    4.38
  -5  10  10    2.67    2.98
  -5  10  10    6.06    2.76
   4 -10 -10   16.74    3.41
   4  10 -10    9.37    2.16
  -4  10  10   10.11    2.43
  -4  10  10    5.25    3.80
  -4  10  10   10.54    2.71
   3 -10 -10   13.74    2.37
   3 -10 -10   14.44    3.06
  -3  10  10   10.87    3.65
  -3  10  10   17.50    2.33
   3  10 -10   14.67    1.63
  -3  10  10   13.03    2.74
   2 -10 -10    9.79    2.68
   2  10 -10   14.12    1.29
  -2  10  10    8.57    3.52
   2  10 -10   13.52    1.66
  -2  10  10   14.71    2.63
  -2  10  10   14.05    2.04
   1 -10 -10    3.84    1.94
   1 -10 -10    4.81    2.42
   1  10 -10    3.62    0.92
  -1  10  10    4.18    2.13
  -1  10  10    2.65    1.51
   1  10 -10    6.80    1.91
  -1  10  10    0.28    3.10
   0 -10 -10    5.47    2.25
   0 -10 -10    3.71    2.69
   0  10  10    5.20    1.50
   0  10  10    3.72    3.31
   0  10 -10    7.18    1.29
   0  10  10    4.50    2.24
  -1 -10 -10   39.11    3.96
   1  10  10   38.33    5.42
   1  10  10   37.46    3.88
  -1  10 -10   36.28    2.82
   1  10  10   39.05    2.95
  -2 -10 -10   33.82    4.25
   2  10  10   45.66    5.79
  -2  10 -10   39.00    3.44
   2  10  10   27.34    3.51
  -3 -10 -10   30.85    4.11
   3 -10  10   22.07    2.03
  -3  10 -10   23.84    3.29
   3  10  10   27.03    4.94
   4 -10  10    6.77    2.02
  -4 -10 -10    1.82    3.38
   4  10  10    5.53    3.79
  -4  10 -10   13.76    3.47
   5  10  10   20.28    4.34
  -5  10 -10   10.00    4.18
   6 -11 -10   -2.93    3.40
   6  11 -10    1.46    3.57
  -6  11  10    2.51    5.57
  -6  11  10   10.11    4.86
  -6  11  10    1.48    3.73
   5 -11 -10    9.47    3.14
  -5  11  10   12.05    4.98
  -5  11  10    8.71    3.42
   5  11 -10   13.13    2.87
  -5  11  10   15.23    3.19
   4 -11 -10    1.76    2.41
  -4  11  10    0.28    3.16
  -4  11  10    2.41    3.98
   4  11 -10    4.11    2.00
  -4  11  10    9.86    2.56
   3 -11 -10   -1.33    2.02
   3 -11 -10    0.35    2.65
  -3  11  10   -1.49    3.63
  -3  11  10    2.20    2.49
   3  11 -10    1.62    1.38
  -3  11  10   -1.36    1.87
   2 -11 -10   -0.36    2.38
   2  11 -10    2.50    1.03
  -2  11  10    0.95    1.65
  -2  11  10   -2.94    3.29
   2  11 -10    1.13    1.04
  -2  11  10    4.29    2.33
   1 -11 -10   89.10    4.89
   1 -11 -10   87.46    4.52
  -1  11  10   86.87    4.80
  -1  11  10   76.24    6.36
   1  11 -10   83.21    2.79
   1  11 -10   85.45    4.00
  -1  11  10   87.63    3.91
   0 -11 -10    1.29    2.17
   0  11  10   -0.53    2.21
   0  11  10   -1.48    3.12
   0  11 -10    0.22    1.15
   0  11  10    1.21    1.42
  -1 -11 -10   86.41    5.10
   1  11  10   78.53    5.03
  -1  11 -10   88.03    3.86
   1  11  10   84.89    6.66
   1  11  10   87.11    4.18
  -2 -11 -10   12.80    2.95
   2  11  10   21.25    3.70
   2  11  10   16.97    4.23
  -2  11 -10   22.23    2.93
   2  11  10   19.50    2.59
  -3 -11 -10   10.72    3.24
   3 -11  10    8.77    1.49
   3  11  10    8.04    3.15
  -3  11 -10    9.61    2.98
  -4 -11 -10    4.32    3.40
   4 -11  10    2.27    1.89
  -4  11 -10    1.49    3.26
   4  11  10    0.89    3.80
  -5  11 -10   11.00    4.89
   5  11  10   22.95    5.07
   6 -12 -10    9.09    3.85
  -6  12  10    2.31    4.09
   6  12 -10    7.74    4.54
  -6  12  10   -2.04    5.64
   5 -12 -10   -0.40    3.04
  -5  12  10    4.53    5.49
  -5  12  10   -2.59    3.32
  -5  12  10    2.95    3.23
   5  12 -10   -2.00    2.79
   4 -12 -10   41.01    4.22
   4  12 -10   24.63    3.19
  -4  12  10   26.37    3.90
  -4  12  10   26.22    5.14
  -4  12  10   37.45    4.18
   3 -12 -10   29.77    3.36
   3 -12 -10   26.11    3.64
   3  12 -10   22.50    2.57
  -3  12  10   23.16    4.94
  -3  12  10   28.06    3.49
  -3  12  10   33.19    4.44
   2 -12 -10   31.98    4.15
   2  12 -10   32.98    2.14
  -2  12  10   42.20    3.40
  -2  12  10   39.51    4.19
  -2  12  10   32.25    4.83
   2  12 -10   36.95    1.86
   1 -12 -10    7.97    2.78
   1 -12 -10    9.58    2.55
  -1  12  10    7.57    2.62
   1  12 -10    6.51    1.29
  -1  12  10    4.40    3.68
  -1  12  10    9.85    2.04
   1  12 -10    8.17    2.00
   0 -12 -10   -1.05    2.03
   0  12  10   -3.34    3.41
   0  12  10    1.56    1.56
   0  12  10    0.84    2.53
   0  12 -10    0.24    1.27
  -1 -12 -10   19.61    3.01
   1  12  10   24.94    3.59
   1  12  10   18.91    4.62
  -1  12 -10   20.07    2.70
   1  12  10   22.48    2.63
  -2 -12 -10   39.33    4.55
  -2  12 -10   48.18    3.96
   2  12  10   49.16    3.81
   2  12  10   43.14    5.73
   2  12  10   45.55    6.23
  -3 -12 -10   18.07    3.97
   3  12  10   15.81    3.66
  -3  12 -10   26.59    3.61
  -4 -12 -10   14.48    3.95
   4 -12  10   17.64    2.36
   4  12  10   23.58    4.86
  -4  12 -10   24.32    3.99
   5  12  10    4.83    4.89
   6 -13 -10   -2.64    3.71
   6  13 -10   -1.35    4.97
  -6  13  10    0.69    5.96
  -6  13  10   -1.92    4.38
   5 -13 -10    0.61    3.21
  -5  13  10    8.51    5.16
   5  13 -10   11.56    3.08
  -5  13  10   12.83    3.60
  -5  13  10    7.50    5.24
   4 -13 -10    5.61    2.79
  -4  13  10    6.50    3.49
  -4  13  10    4.23    2.83
   4  13 -10    7.31    2.40
  -4  13  10    5.16    4.47
   3 -13 -10   52.65    4.25
  -3  13  10   58.56    5.27
   3  13 -10   55.00    3.30
  -3  13  10   50.57    5.99
   2 -13 -10    2.86    2.66
  -2  13  10   -3.51    3.81
  -2  13  10    2.31    2.12
   2  13 -10    3.87    0.82
   2  13 -10    5.32    1.40
   2  13 -10    4.79    1.04
  -2  13  10    1.59    2.75
   1 -13 -10   43.81    4.06
  -1  13  10   31.82    4.96
   1  13 -10   40.53    2.29
  -1  13  10   38.51    4.90
   1  13 -10   38.13    3.20
  -1  13  10   32.79    4.47
   0 -13 -10   58.15    4.46
   0  13  10   49.00    4.89
   0  13  10   58.44    6.55
   0  13 -10   58.46    2.95
   0  13  10   53.91    3.53
  -1 -13 -10    3.10    2.44
   1  13  10    0.71    1.86
  -1  13 -10    1.07    1.70
   1  13  10   -1.05    3.78
   1  13  10    0.63    2.93
  -2 -13 -10    1.13    2.78
   2  13  10    0.75    3.06
   2  13  10   -1.53    3.72
  -2  13 -10    0.56    2.00
  -3 -13 -10    2.09    3.40
   3  13  10    1.67    3.49
  -3  13 -10    4.50    2.85
  -4 -13 -10   33.14    4.80
   4 -13  10   36.17    3.28
   4  13  10   50.70    6.61
  -4  13 -10   45.94    6.00
   5 -13  10    4.94    3.54
   5  13  10    1.94    4.98
   5 -14 -10   11.37    3.62
   5  14 -10   10.98    3.42
  -5  14  10   14.75    5.54
  -5  14  10   14.82    4.49
   4 -14 -10   -1.91    2.66
  -4  14  10   -6.11    4.00
   4  14 -10    2.15    2.33
  -4  14  10    0.35    2.80
   3 -14 -10    4.13    2.75
  -3  14  10    9.80    3.43
  -3  14  10    6.21    2.69
   3  14 -10    7.74    2.13
  -3  14  10    2.76    4.42
  -2  14  10   71.75    7.24
   2  14 -10   72.03    3.31
  -2  14  10   77.87    4.47
   2  14 -10   69.90    2.05
  -2  14  10   66.73    5.57
   2  14 -10   65.57    2.16
   1 -14 -10   64.82    4.69
  -1  14  10   70.34    4.18
  -1  14  10   52.80    5.22
   1  14 -10   65.98    3.83
  -1  14  10   63.85    6.85
   1  14 -10   69.09    2.97
   0 -14 -10    2.51    2.65
   0  14 -10    2.87    1.49
   0  14  10    6.62    3.17
   0  14  10    3.00    1.87
   0  14  10   -0.38    3.60
  -1 -14 -10   31.10    3.99
   1  14  10   15.36    2.51
   1  14  10   18.53    4.91
  -1  14 -10   21.90    2.57
  -2 -14 -10   52.64    5.33
   2  14  10   53.57    5.84
   2  14  10   57.87    6.44
  -2  14 -10   63.31    4.48
  -3 -14 -10   28.63    4.42
  -3  14 -10   29.40    3.98
   3  14  10   24.82    4.83
   4 -14  10   -1.60    1.97
   4  14  10    1.47    3.90
  -4  14 -10    7.05    3.85
   5 -14  10    4.74    3.69
   5  14  10    2.89    5.32
   5 -15 -10    0.91    3.47
  -5  15  10    4.32    4.38
  -5  15  10   -0.58    5.56
  -5  15  10    8.22    3.73
   5  15 -10   -2.32    3.15
   4 -15 -10   22.53    3.77
   4  15 -10   20.89    3.25
  -4  15  10   15.71    4.46
  -4  15  10   20.21    5.86
  -3  15  10   -1.84    2.61
  -3  15  10    0.95    6.75
   3  15 -10    0.11    2.07
  -3  15  10   -7.19    4.43
  -2  15  10   29.49    3.78
  -2  15  10   25.07    4.35
   2  15 -10   25.29    2.81
  -2  15  10   33.52    5.79
   2  15 -10   30.62    2.42
   1 -15 -10   36.21    4.39
  -1  15  10   45.57    6.19
  -1  15  10   39.84    5.39
  -1  15  10   43.03    3.83
   1  15 -10   37.14    2.62
   0 -15 -10   44.43    4.56
   0  15  10   55.55    7.02
   0  15  10   57.46    3.94
   0  15  10   58.29    7.12
   0  15 -10   50.12    3.19
  -1 -15 -10   14.46    3.23
  -1  15 -10   18.21    4.18
   1  15  10   26.88    4.65
   1  15  10   24.10    5.18
  -2 -15 -10    2.09    3.45
   2  15  10    4.58    2.51
   2  15  10   -0.82    4.52
   2  15  10    4.81    3.93
  -2  15 -10    7.56    2.66
  -3 -15 -10   19.10    4.05
  -3  15 -10   15.82    3.52
   3  15  10   15.84    4.42
   4  15  10   41.38    6.22
  -4  15 -10   33.82    4.72
   5 -16 -10    6.98    3.94
  -5  16  10   -5.61    4.07
   5  16 -10    5.07    3.76
  -5  16  10   -2.96    4.65
  -5  16  10   -1.81    5.95
   4 -16 -10    1.30    3.24
  -4  16  10    3.40    2.93
  -4  16  10   -0.78    5.59
  -4  16  10    7.00    4.41
   4  16 -10    2.67    2.81
  -3  16  10    4.10    5.36
   3  16 -10    3.74    2.31
  -3  16  10   11.44    4.13
   2  16 -10    6.74    2.08
   2  16 -10    4.54    1.61
  -2  16  10    3.99    4.85
  -2  16  10    1.60    3.73
   1  16 -10    7.81    1.74
  -1  16  10    2.66    4.53
   1  16 -10    8.23    1.85
  -1  16  10    3.39    3.61
   0 -16 -10   -2.32    2.69
   0  16  10    0.53    4.35
   0  16 -10    0.93    1.80
   0  16  10   -2.97    3.38
  -1 -16 -10   25.14    4.08
  -1  16 -10   25.63    3.40
   1  16  10   27.02    4.79
   1  16  10   27.76    5.83
  -2 -16 -10    5.29    3.32
  -2  16 -10    9.20    2.74
   2  16  10    8.46    4.06
   2  16  10    7.81    5.59
   2  16  10    8.86    2.86
  -3 -16 -10    2.67    4.17
  -3  16 -10    2.77    3.25
   3  16  10    5.61    4.39
   3  16  10    6.42    2.89
   4  16  10   -8.58    4.81
   4 -17 -10   25.43    4.31
  -4  17  10   21.98    5.27
   4  17 -10   27.89    3.73
  -4  17  10   27.00    4.28
  -4  17  10   15.91    5.97
   3  17 -10    1.00    2.61
  -3  17  10    1.67    2.97
  -3  17  10    1.70    5.16
  -3  17  10    3.19    4.23
   2  17 -10    1.52    1.73
  -2  17  10    4.30    2.25
  -2  17  10   -0.04    5.39
   2  17 -10    4.88    2.23
  -2  17  10    2.45    4.17
   1  17 -10   10.64    2.26
   1  17 -10   10.40    2.02
   1  17 -10   10.87    1.94
  -1  17  10   12.30    6.35
  -1  17  10    9.74    4.57
   0 -17 -10   58.28    5.45
   0  17  10   61.98    7.26
   0  17  10   61.46    4.44
   0  17  10   62.17    6.70
   0  17 -10   58.43    4.04
  -1 -17 -10    2.21    3.12
   1  17  10    1.85    2.45
  -1  17 -10    3.34    2.21
   1  17  10    1.34    5.90
   1  17  10   -6.26    3.82
  -2 -17 -10    7.97    3.87
   2  17  10   -2.33    2.63
  -2  17 -10    6.51    2.90
   2  17  10    9.02    5.29
   2  17  10    3.78    4.11
   3  17  10    6.58    3.54
  -3  17 -10   17.36    3.83
   3  17  10    5.23    4.73
  -4  18  10    5.27    5.21
  -4  18  10   13.46    6.40
   4  18 -10    5.56    3.40
  -4  18  10    3.78    4.01
  -3  18  10   91.93    7.87
   3  18 -10   70.94    5.24
  -3  18  10   91.86    6.28
  -3  18  10   72.96    9.04
   2  18 -10    1.35    2.34
  -2  18  10    0.52    4.34
  -2  18  10   -1.95    4.91
  -2  18  10    0.22    2.76
  -1  18  10    5.28    2.70
  -1  18  10    2.51    5.08
   1  18 -10    1.75    1.81
   1  18 -10    2.75    2.13
   1  18 -10    2.51    2.24
  -1  18  10   -0.29    4.21
   0 -18 -10   -1.53    3.47
   0  18  10    1.33    2.77
   0  18  10    0.96    4.96
   0  18  10    1.62    4.10
   0  18 -10   -0.53    2.14
  -1 -18 -10   64.87    5.89
   1  18  10   59.17    4.99
   1  18  10   67.65    8.00
   1  18  10   51.85    6.20
  -1  18 -10   64.29    4.64
  -2  18 -10   21.21    3.68
   2  18  10   26.51    6.22
   2  18  10   23.78    5.28
   2  18  10   20.54    3.90
   3  18  10    7.73    5.05
  -3  18 -10   17.91    4.13
  -3  19  10   22.43    6.51
  -3  19  10   23.72    5.50
  -3  19  10   17.91    4.18
   3  19 -10    9.76    2.33
   3  19 -10    9.25    3.41
   2  19 -10   -1.06    1.92
  -2  19  10   -3.15    5.25
   2  19 -10    1.44    2.74
  -2  19  10    3.06    3.15
  -2  19  10    3.87    5.01
   1  19 -10    0.06    2.41
  -1  19  10    2.78    5.44
   1  19 -10    0.83    1.90
  -1  19  10   -0.12    2.88
   1  19 -10    0.03    1.99
  -1  19  10    2.12    4.37
   0 -19 -10    4.74    3.80
   0  19  10    7.33    4.50
   0  19  10    8.56    3.00
   0  19  10    7.29    5.43
   0  19 -10    8.51    2.55
   0  19 -10    9.80    2.57
   1  19  10    3.89    2.76
   1  19  10    1.65    4.86
   1  19  10   -1.67    5.23
  -1  19 -10    3.01    2.53
   2  19  10   -1.04    3.21
   2  19  10   -5.50    4.50
   2  19  10    1.15    5.77
  -2  19 -10    8.43    3.40
  -3  19 -10   10.10    6.19
   3  19  10   -4.86    4.95
  -3  20  10   -4.20    5.71
  -3  20  10    8.06    4.12
   3  20 -10    3.23    2.47
   3  20 -10   -2.07    4.40
  -3  20  10   13.86    5.49
  -2  20  10    6.23    6.16
   2  20 -10    1.54    2.31
  -2  20  10   -0.46    5.22
  -2  20  10    8.49    3.77
   2  20 -10    7.60    3.38
  -1  20  10    4.25    4.89
   1  20 -10   21.28    2.93
   1  20 -10   19.87    2.62
   1  20 -10   15.59    3.42
  -1  20  10   23.21    6.48
  -1  20  10   26.53    3.95
   0  20 -10    7.52    2.74
   0  20  10   16.68    3.19
   0  20 -10    6.81    2.80
   0  20  10    1.96    5.35
   0  20 -10    7.57    3.14
   0  20  10   16.57    5.29
   1  20  10    0.03    4.69
   1  20  10    8.59    3.37
   1  20  10    9.38    5.70
  -1  20 -10   -1.21    3.03
  -2  20 -10   15.23    3.78
   2  20  10    4.18    5.19
   2  20  10   12.54    6.53
   2  21 -10    8.18    3.76
  -2  21  10    9.21    6.11
   2  21 -10    5.51    2.78
  -2  21  10   13.88    3.98
  -2  21  10    7.62    5.67
  -1  21  10   10.55    5.40
   1  21 -10   -2.37    3.26
   1  21 -10    0.93    2.25
  -1  21  10    0.20    3.54
   1  21 -10    3.59    2.72
  -1  21  10   -7.02    5.68
   0  21 -10   70.64    5.22
   0  21 -10   69.24    5.61
   0  21 -10   70.63    5.01
   0  21  10   83.69    8.75
   0  21  10   79.65    9.32
   0  21  10   76.26    9.71
  -1  21 -10    3.10    3.31
   1  21  10  -12.61    5.57
  -1  21 -10    2.51    3.20
   1  21  10   -2.77    5.54
   0  22 -10   16.63    3.36
   0  22 -10    7.82    3.37
   0  22  10   33.67    7.59
   0  22 -10   13.39    3.70
   0  22  10   25.81    6.71
   7   0 -11   -1.75    3.31
  -7   0  11    6.28    4.05
   6   0 -11    1.27    2.52
  -6   0  11    4.62    3.32
   5   0 -11   28.00    3.24
  -5   0  11   33.40    3.78
   4   0 -11   -1.16    1.33
  -4   0  11   -2.28    2.34
  -3   0  11   24.29    3.16
   3   0 -11   18.72    1.80
   2   0 -11    0.98    1.60
   2   0 -11    0.80    0.83
  -2   0  11    1.22    2.09
   2   0 -11   -0.78    0.97
   1   0 -11  369.42    9.00
   1   0 -11  368.57   10.15
   0   0 -11    1.81    2.11
   0   0 -11   -0.85    1.32
  -1   0 -11   89.79    4.11
  -1   0 -11   89.25    5.42
  -2   0 -11   -0.25    2.83
   2   0  11    0.45    1.07
  -2   0 -11    1.46    1.84
  -3   0 -11   92.26    6.25
  -3   0 -11   93.58    5.41
   3   0  11  100.47    4.22
   4   0  11   -1.28    2.02
  -4   0 -11    3.39    3.09
   5   0  11    4.07    2.87
  -5   0 -11    1.42    3.56
   6   0  11    9.22    3.82
   7  -1 -11    1.12    3.34
  -7  -1  11    3.28    3.51
   7   1 -11    2.93    3.52
  -7   1  11    8.84    4.25
  -6  -1  11    3.56    2.98
   6  -1 -11    1.00    4.02
  -6   1  11    3.86    3.37
   6   1 -11    2.55    2.44
  -5  -1  11    7.38    2.69
   5  -1 -11    4.16    2.02
  -5   1  11    3.92    2.95
   5   1 -11    3.66    1.97
  -4  -1  11    3.37    2.37
   4  -1 -11    3.74    1.61
   4   1 -11    3.45    1.46
  -4   1  11   -0.68    2.45
   3  -1 -11   18.92    2.61
  -3  -1  11   15.92    2.74
   3  -1 -11   17.92    1.87
   3   1 -11   17.36    1.72
  -3   1  11   16.46    3.01
   3   1 -11   20.54    2.45
   2  -1 -11   16.34    1.71
   2  -1 -11   15.22    2.24
   2  -1 -11   12.61    1.54
  -2  -1  11   15.10    2.79
   2   1 -11   14.58    1.55
   2   1 -11   15.88    1.34
  -2   1  11   18.35    3.11
   2   1 -11   17.19    2.48
   1  -1 -11    1.73    1.81
   1  -1 -11    4.11    1.40
   1   1 -11    1.82    1.84
   1   1 -11    2.46    1.15
  -1   1  11    3.68    2.44
   0  -1 -11  143.87    6.05
   0  -1 -11  137.80    4.87
   0   1 -11  137.33    5.85
   0   1 -11  138.45    4.59
  -1  -1 -11    4.52    1.76
  -1  -1 -11    2.50    2.41
   1   1  11    2.29    0.67
  -1   1 -11    3.86    2.52
  -1   1 -11    3.32    1.68
   1   1  11    2.54    0.54
  -2  -1 -11    1.33    1.98
  -2  -1 -11    3.31    2.53
   2  -1  11    1.93    1.03
  -2   1 -11    1.27    1.81
  -2   1 -11   -2.44    2.50
   2   1  11    1.44    1.35
  -3  -1 -11    4.72    2.66
   3  -1  11    3.27    1.64
  -3   1 -11    3.64    2.31
  -3   1 -11    2.63    3.43
   3   1  11    6.94    1.91
   4  -1  11   65.26    4.24
  -4  -1 -11   61.40    5.73
  -4   1 -11   63.61    5.57
   4   1  11   66.69    4.52
  -5  -1 -11    2.64    3.90
   5  -1  11   -1.58    2.68
  -5   1 -11    2.49    3.57
   5   1  11    1.35    2.81
   6  -1  11   -3.64    3.27
   6   1  11    4.60    3.72
   7  -2 -11    8.26    3.59
  -7  -2  11   10.70    3.35
   7   2 -11   14.93    3.71
  -7   2  11   13.44    4.69
   6  -2 -11    4.09    3.44
  -6  -2  11    6.15    2.75
  -6   2  11    9.32    3.79
   6   2 -11    6.96    2.66
  -5  -2  11   -0.31    2.42
   5  -2 -11    2.01    2.09
  -5   2  11   -0.55    2.95
   5   2 -11    0.39    1.82
   4  -2 -11   -0.17    1.47
  -4  -2  11   -3.47    2.03
   4   2 -11    0.79    1.33
  -4   2  11   -1.10    2.60
   3  -2 -11   52.46    3.38
   3  -2 -11   52.49    2.66
  -3  -2  11   57.17    3.90
  -3   2  11   59.91    4.57
   3   2 -11   58.73    2.98
   3   2 -11   55.97    2.30
   2  -2 -11   17.58    1.74
   2  -2 -11   17.78    1.83
   2  -2 -11   18.27    2.46
  -2   2  11   14.26    2.96
   2   2 -11   18.82    2.24
   2   2 -11   16.41    1.20
   2   2 -11   18.18    1.50
   1  -2 -11    8.81    2.18
   1  -2 -11    7.97    1.58
   1   2 -11    6.72    1.95
   1   2 -11    6.22    1.24
  -1   2  11    8.93    2.71
   0  -2 -11   -0.85    1.97
   0  -2 -11   -1.51    1.42
   0   2 -11    1.45    2.21
   0   2 -11    2.22    1.33
  -1  -2 -11   35.52    4.24
  -1  -2 -11   30.20    3.11
  -1   2 -11   34.17    2.92
  -1   2 -11   36.23    3.87
   1   2  11   36.08    1.61
   1   2  11   34.07    1.82
  -2  -2 -11   38.63    4.71
   2  -2  11   33.18    1.71
  -2  -2 -11   29.33    3.55
   2   2  11   33.22    2.59
  -2   2 -11   38.30    3.51
  -2   2 -11   36.56    4.68
  -3  -2 -11   21.83    3.23
   3  -2  11   22.32    2.44
  -3   2 -11   37.56    4.62
  -3   2 -11   26.67    3.52
   3   2  11   22.07    2.66
   4  -2  11   19.97    2.72
  -4  -2 -11   16.30    3.61
  -4   2 -11   20.49    3.96
   4   2  11   24.19    3.32
  -5  -2 -11   10.41    3.81
   5  -2  11   13.30    3.21
  -5   2 -11   13.24    4.00
   5   2  11   14.77    3.34
   6  -2  11   12.58    3.84
   6   2  11   11.59    3.98
   7  -3 -11   -1.27    3.47
   7   3 -11   -3.82    3.54
  -7   3  11   13.14    4.95
   6  -3 -11    4.12    2.79
  -6  -3  11    3.48    2.37
   6   3 -11    4.17    2.48
  -6   3  11   -3.54    3.66
  -5  -3  11   -0.23    2.07
   5  -3 -11    0.53    2.00
  -5   3  11    3.01    3.24
   5   3 -11    0.84    1.86
  -4  -3  11   46.45    3.50
   4  -3 -11   44.53    3.07
  -4   3  11   40.54    4.73
   4   3 -11   39.45    2.65
   3  -3 -11   20.98    2.60
   3  -3 -11   19.57    2.13
  -3   3  11   19.85    3.27
   3   3 -11   17.64    1.63
   3   3 -11   19.54    2.13
   2  -3 -11    2.32    1.38
   2  -3 -11    3.02    1.20
   2  -3 -11    4.55    1.90
   2   3 -11    2.34    0.78
   2   3 -11    2.51    1.44
   2   3 -11    1.98    0.63
  -2   3  11    4.97    2.64
   1  -3 -11    2.92    2.05
   1  -3 -11    1.86    1.48
  -1   3  11    0.68    2.47
   1   3 -11    0.36    0.94
   0  -3 -11  144.50    5.18
   0  -3 -11  145.01    6.19
   0   3  11  137.57    6.60
   0   3 -11  145.06    4.47
   0   3 -11  145.55    6.02
  -1  -3 -11   55.94    3.75
  -1  -3 -11   59.63    4.64
  -1   3 -11   59.07    4.55
   1   3  11   53.92    2.20
  -1   3 -11   58.81    3.33
   1   3  11   55.10    2.55
   2  -3  11    3.53    0.82
  -2  -3 -11    0.26    2.73
  -2  -3 -11    5.08    3.13
  -2   3 -11    6.33    2.92
   2   3  11    3.33    1.70
  -2   3 -11    4.65    2.08
  -3  -3 -11    7.02    2.74
   3  -3  11    8.01    1.64
  -3   3 -11    9.23    2.76
   3   3  11    8.04    2.19
  -3   3 -11    5.33    3.18
  -4  -3 -11   36.27    4.63
   4  -3  11   36.15    3.34
   4   3  11   29.81    3.54
  -4   3 -11   34.76    4.56
  -5  -3 -11   -0.14    3.61
   5  -3  11    1.34    2.54
   5   3  11   -2.30    2.95
  -5   3 -11    2.17    3.97
   6  -3  11   12.06    3.62
   6   3  11   12.91    3.96
   7  -4 -11    7.26    3.65
   7   4 -11    0.48    3.62
  -7   4  11   12.92    5.17
   6  -4 -11    8.26    2.96
  -6   4  11    6.47    4.08
   6   4 -11    5.50    2.70
   5  -4 -11    1.65    2.19
   5   4 -11    6.89    2.04
  -5   4  11    0.98    3.29
   4  -4 -11    4.79    1.83
   4   4 -11    3.24    1.48
  -4   4  11    0.74    2.97
   3  -4 -11   41.00    3.45
   3  -4 -11   43.57    2.72
   3   4 -11   42.79    1.94
   3   4 -11   43.25    2.38
  -3   4  11   39.86    4.54
   2  -4 -11    6.17    1.39
   2  -4 -11    4.47    2.13
   2  -4 -11    8.08    1.60
   2   4 -11    8.43    1.73
  -2   4  11    6.23    2.87
   1  -4 -11   22.50    2.54
   1  -4 -11   21.76    3.09
  -1   4  11   20.91    3.55
   1   4 -11   16.02    1.43
   1   4 -11   17.66    2.42
   0  -4 -11    7.76    1.89
   0  -4 -11    3.21    2.29
   0   4 -11    6.55    1.50
   0   4  11    8.94    3.05
   0   4  11    6.71    0.83
   0   4 -11    7.51    2.52
   0   4  11    6.48    1.05
  -1  -4 -11   23.91    3.32
  -1  -4 -11   25.76    2.99
  -1   4 -11   22.90    3.37
  -1   4 -11   24.49    2.50
   1   4  11   20.07    2.26
   1   4  11   21.16    1.77
  -2  -4 -11    1.71    2.09
  -2  -4 -11   -1.36    2.71
  -2   4 -11    2.04    1.95
  -2   4 -11    4.01    2.92
   2   4  11    2.22    1.73
   3  -4  11   18.92    2.15
  -3  -4 -11   29.22    3.90
  -3   4 -11   27.31    3.31
   3   4  11   25.98    3.13
  -3   4 -11   22.56    3.96
   4  -4  11    4.11    2.02
  -4  -4 -11    3.59    3.38
   4   4  11    4.43    2.71
  -4   4 -11   -0.72    3.11
   5  -4  11   16.76    3.53
  -5  -4 -11   25.19    4.72
  -5   4 -11   31.20    4.57
   5   4  11   22.15    3.91
   6  -4  11    5.35    3.36
   6   4  11   -0.38    3.95
   6  -5 -11   -0.70    2.74
   6   5 -11    3.37    2.71
  -6   5  11    2.94    5.16
   5  -5 -11   18.83    2.85
  -5   5  11   13.79    4.17
   5   5 -11   22.41    3.00
   4  -5 -11   73.53    3.90
   4   5 -11   68.70    3.10
  -4   5  11   75.38    5.77
   3  -5 -11   17.66    2.08
   3  -5 -11   18.18    2.69
  -3   5  11   18.34    3.45
   3   5 -11   17.46    1.46
   3   5 -11   17.94    1.79
   2  -5 -11   19.97    2.38
   2  -5 -11   15.48    2.11
   2  -5 -11   15.72    2.63
  -2   5  11   15.94    3.55
   2   5 -11   17.03    2.27
   1  -5 -11    0.28    2.11
   1  -5 -11    0.46    1.45
  -1   5  11   -1.62    2.72
   1   5 -11    2.49    1.79
   1   5 -11    0.14    0.71
   0  -5 -11   57.46    4.42
   0  -5 -11   56.67    3.60
   0   5 -11   50.87    3.86
   0   5  11   53.91    5.12
   0   5 -11   51.21    2.58
   0   5  11   56.43    2.58
   0   5  11   55.00    2.17
  -1  -5 -11   25.30    3.00
  -1  -5 -11   27.72    3.82
   1   5  11   18.55    1.90
   1   5  11   21.77    2.31
  -1   5 -11   23.30    2.43
  -1   5 -11   23.65    3.55
  -2  -5 -11    1.18    2.18
  -2   5 -11    2.20    2.05
  -2   5 -11    3.20    2.95
   2   5  11    2.48    1.92
  -3  -5 -11    1.74    2.55
   3  -5  11    0.45    1.25
  -3   5 -11   -0.04    3.27
   3   5  11   -1.95    2.12
  -3   5 -11    0.06    2.42
   4  -5  11   31.63    3.12
  -4  -5 -11   36.31    4.57
  -4   5 -11   37.12    5.05
   4   5  11   25.93    5.81
  -5  -5 -11   -7.94    3.71
  -5   5 -11    7.62    4.27
   5   5  11   -1.90    3.04
   6  -5  11   -0.15    3.22
   6   5  11    0.18    3.96
   6  -6 -11   -0.52    2.84
   6   6 -11    0.11    2.67
  -6   6  11    3.55    4.52
   5  -6 -11   62.13    5.78
  -5   6  11   59.79    6.39
   5   6 -11   66.58    3.82
   4  -6 -11    1.41    1.83
   4   6 -11    0.78    1.47
  -4   6  11    2.21    3.36
   3  -6 -11   96.16    4.73
   3  -6 -11   94.70    4.01
  -3   6  11  100.19    6.11
   3   6 -11   91.65    2.82
   3   6 -11   88.71    2.89
   2  -6 -11   25.64    2.74
   2  -6 -11   25.60    2.46
   2  -6 -11   26.96    3.52
   2   6 -11   21.66    2.27
  -2   6  11   21.26    3.82
   1  -6 -11   90.16    4.08
   1  -6 -11   90.11    4.83
  -1   6  11   87.30    3.08
  -1   6  11   86.82    5.80
   1   6 -11   87.30    2.43
  -1   6  11   86.30    2.77
   1   6 -11   90.88    4.22
   0  -6 -11    7.61    2.50
   0  -6 -11    5.78    2.02
   0   6 -11    7.32    2.40
   0   6 -11    5.49    1.31
   0   6  11    5.59    1.57
   0   6  11    7.33    3.24
   0   6  11    5.85    1.21
  -1  -6 -11   80.61    5.25
  -1  -6 -11   91.39    4.82
   1   6  11   90.20    3.41
  -1   6 -11   92.59    5.36
   1   6  11   73.12    6.02
  -1   6 -11   92.00    3.95
   1   6  11   86.78    4.02
  -2  -6 -11    2.67    2.35
  -2   6 -11    4.26    2.02
  -2   6 -11    8.23    3.21
   2   6  11    2.16    1.93
  -3  -6 -11    0.98    2.76
   3  -6  11    0.69    1.19
   3   6  11    3.86    2.50
  -3   6 -11    0.93    2.53
   4  -6  11    4.95    1.89
  -4  -6 -11   -1.73    3.35
  -4   6 -11    1.28    3.11
   4   6  11    0.02    2.90
  -5  -6 -11   -1.14    4.27
  -5   6 -11   -0.91    3.70
   5   6  11    1.24    3.31
   6  -7 -11    2.28    2.99
  -6   7  11   -6.13    4.55
   6   7 -11    5.08    2.73
   5  -7 -11    5.76    2.48
  -5   7  11   -2.16    3.91
   5   7 -11    1.28    2.17
   4  -7 -11    7.30    2.23
  -4   7  11    7.45    1.16
  -4   7  11    7.61    1.37
   4   7 -11    7.39    1.76
  -4   7  11    5.92    3.81
   3  -7 -11   37.13    3.11
   3  -7 -11   36.56    3.73
  -3   7  11   36.41    2.16
  -3   7  11   34.76    4.51
  -3   7  11   31.45    1.95
   3   7 -11   35.98    1.83
   2  -7 -11   22.16    2.43
   2  -7 -11   22.20    2.94
   2  -7 -11   20.55    2.55
  -2   7  11   20.91    1.81
  -2   7  11   23.19    2.01
   2   7 -11   20.48    2.21
  -2   7  11   21.45    3.90
   1  -7 -11   14.94    2.21
   1  -7 -11   22.09    3.20
  -1   7  11   13.67    1.73
   1   7 -11   15.46    1.10
  -1   7  11   16.90    2.17
  -1   7  11   20.47    3.96
   1   7 -11   12.60    2.30
   0  -7 -11   82.98    5.10
   0  -7 -11   81.92    4.40
   0   7  11   77.38    3.63
   0   7  11   77.82    3.06
   0   7 -11   75.28    2.98
   0   7  11   73.04    5.95
   0   7 -11   76.96    4.55
  -1  -7 -11   51.21    4.86
  -1  -7 -11   51.94    4.20
   1   7  11   53.86    5.72
   1   7  11   53.37    2.86
  -1   7 -11   42.34    4.42
  -1   7 -11   48.37    3.17
   1   7  11   51.16    3.61
  -2  -7 -11    7.45    2.73
  -2   7 -11   12.43    2.54
   2   7  11   13.37    2.65
  -3  -7 -11    3.51    2.88
   3  -7  11    0.14    1.14
   3   7  11    2.17    2.63
  -3   7 -11   -2.09    2.43
   4  -7  11   46.70    3.33
  -4  -7 -11   51.16    5.99
  -4   7 -11   50.85    5.74
   4   7  11   49.21    5.47
   5  -7  11    4.19    3.41
   5   7  11    1.07    3.92
  -5   7 -11    0.26    4.21
   6  -8 -11   -0.78    2.91
  -6   8  11   -0.63    5.15
  -6   8  11    1.21    2.33
   6   8 -11    1.76    2.93
  -6   8  11    4.50    2.01
   5  -8 -11   -1.08    2.55
   5   8 -11    2.04    2.35
  -5   8  11    0.88    1.75
  -5   8  11   -2.74    3.95
  -5   8  11    0.83    1.98
   4  -8 -11    1.71    2.19
  -4   8  11    1.68    1.63
   4   8 -11    1.99    1.67
  -4   8  11    3.25    1.86
  -4   8  11    4.72    3.73
   3  -8 -11    2.82    1.86
   3  -8 -11    3.85    2.37
   3   8 -11    1.20    0.99
  -3   8  11    0.11    1.37
  -3   8  11   -1.51    3.30
  -3   8  11   -0.84    1.53
   2  -8 -11    0.90    1.71
   2  -8 -11    2.15    2.47
   2  -8 -11    4.62    1.98
  -2   8  11    3.33    1.37
   2   8 -11    2.81    1.38
  -2   8  11    2.79    3.13
  -2   8  11    4.16    1.68
   1  -8 -11   41.61    4.17
   1  -8 -11   40.31    3.37
   1   8 -11   39.59    3.34
  -1   8  11   39.86    2.42
  -1   8  11   31.95    2.81
   1   8 -11   40.65    1.57
  -1   8  11   36.62    4.69
   0  -8 -11   44.46    6.18
   0  -8 -11   49.61    4.53
   0   8  11   40.14    3.22
   0   8 -11   45.36    2.41
   0   8  11   43.87    2.56
   0   8 -11   41.31    3.89
   0   8  11   39.17    4.91
  -1  -8 -11   35.67    3.99
   1   8  11   32.25    2.66
   1   8  11   36.59    4.88
   1   8  11   29.45    3.35
  -1   8 -11   34.98    2.85
  -1   8 -11   31.82    3.93
  -2  -8 -11   14.97    3.05
  -2   8 -11   16.20    2.54
   2   8  11   14.41    2.21
   2   8  11   14.20    2.81
  -3  -8 -11   99.01    6.36
   3  -8  11  113.60    3.41
   3   8  11  106.71    6.07
  -3   8 -11  109.97    5.85
  -4  -8 -11    3.62    3.33
   4  -8  11    1.25    1.75
  -4   8 -11    5.18    3.63
   4   8  11    1.60    3.28
   5  -8  11   17.90    3.23
   5   8  11   18.48    4.34
  -5   8 -11   25.72    4.96
   6  -9 -11    4.56    3.26
  -6   9  11    9.38    6.42
   6   9 -11    9.62    3.21
  -6   9  11   11.38    3.24
  -6   9  11   11.31    3.05
   5  -9 -11   11.53    3.14
  -5   9  11   13.80    2.73
  -5   9  11   18.87    2.69
  -5   9  11    9.84    4.96
   5   9 -11   15.72    2.80
  -4   9  11   35.85    5.01
  -4   9  11   37.98    3.56
  -4   9  11   46.20    3.30
   4   9 -11   36.12    2.89
   3  -9 -11   12.86    2.32
   3  -9 -11   11.61    2.77
  -3   9  11   13.15    2.31
  -3   9  11   13.82    2.06
  -3   9  11   15.17    4.16
   3   9 -11   15.01    1.72
   2  -9 -11   24.47    3.16
   2  -9 -11   19.92    2.97
  -2   9  11   25.48    4.26
  -2   9  11   26.00    2.51
  -2   9  11   24.97    2.92
   2   9 -11   29.07    2.24
   1  -9 -11   42.99    3.89
   1  -9 -11   54.85    4.47
   1   9 -11   46.89    3.50
  -1   9  11   52.57    3.48
   1   9 -11   49.26    1.87
  -1   9  11   47.02    2.76
  -1   9  11   44.79    5.60
   0  -9 -11   98.98    5.37
   0  -9 -11   99.91    4.97
   0   9  11   99.74    6.90
   0   9  11   97.63    3.80
   0   9 -11   99.25    3.50
   0   9  11   93.73    4.60
   0   9 -11   98.92    5.08
  -1  -9 -11    2.30    2.26
   1   9  11    7.04    1.73
   1   9  11    3.71    2.20
  -1   9 -11    3.63    1.70
   1   9  11    9.31    4.04
  -2  -9 -11    5.36    2.60
  -2   9 -11   12.73    2.65
   2   9  11    9.02    2.72
  -3  -9 -11    4.78    3.00
   3  -9  11    3.73    1.15
  -3   9 -11    2.34    2.67
   4  -9  11   23.96    2.79
  -4  -9 -11   18.77    4.23
  -4   9 -11   15.44    3.99
   4   9  11   19.69    4.13
   5  -9  11   -1.41    2.58
   5   9  11    8.47    4.29
  -5   9 -11    7.13    5.35
   6 -10 -11   -5.32    3.47
  -6  10  11    1.31    3.39
   6  10 -11    4.74    3.27
  -6  10  11   -0.45    5.58
   5 -10 -11    6.45    2.87
  -5  10  11    1.97    4.74
  -5  10  11    5.44    2.93
  -5  10  11    4.65    2.70
   5  10 -11    2.32    2.55
   4 -10 -11    3.85    2.52
  -4  10  11   -2.73    4.04
   4  10 -11    3.90    1.87
  -4  10  11    5.87    2.27
  -4  10  11    5.63    2.53
   3 -10 -11   53.51    3.98
   3 -10 -11   55.91    4.53
  -3  10  11   51.75    3.98
  -3  10  11   48.87    6.24
  -3  10  11   55.17    3.49
   3  10 -11   53.82    2.53
   2 -10 -11   59.26    4.64
   2 -10 -11   63.78    4.11
   2  10 -11   65.70    2.78
  -2  10  11   67.82    3.49
  -2  10  11   67.57    4.13
  -2  10  11   56.66    5.78
   1 -10 -11   -0.05    2.00
   1 -10 -11    4.97    2.68
  -1  10  11    1.87    3.51
  -1  10  11    0.87    1.54
   1  10 -11    3.78    1.86
   1  10 -11    1.66    0.89
  -1  10  11   -0.17    1.99
   0 -10 -11    4.19    2.75
   0 -10 -11    2.54    2.15
   0  10  11    0.69    1.44
   0  10  11   -1.42    1.99
   0  10 -11   -0.02    1.19
   0  10  11    2.31    3.55
   0  10 -11    6.44    2.36
  -1 -10 -11   36.20    4.15
   1  10  11   39.03    3.10
   1  10  11   41.13    5.30
   1  10  11   35.12    3.88
  -1  10 -11   38.38    3.06
  -2 -10 -11   82.01    5.61
  -2  10 -11   84.45    5.98
   2  10  11   88.42    5.48
   2  10  11   85.68    4.36
  -3 -10 -11    8.60    3.18
  -3  10 -11   14.23    3.23
   3  10  11    5.97    3.31
  -4 -10 -11    6.87    3.88
   4 -10  11    0.82    1.73
  -4  10 -11    1.45    3.42
   4  10  11    2.79    3.85
   5 -10  11   22.64    3.17
   5  10  11   24.95    5.22
   6 -11 -11    4.89    3.76
  -6  11  11    0.02    6.04
  -6  11  11   -2.31    3.79
   6  11 -11   -0.23    3.50
   5 -11 -11    1.59    3.03
  -5  11  11    3.11    2.87
  -5  11  11    2.27    3.19
   5  11 -11    1.32    2.67
  -5  11  11    1.10    4.92
   4 -11 -11   14.76    2.98
  -4  11  11   16.19    2.79
  -4  11  11    6.75    4.56
  -4  11  11   12.78    3.21
   4  11 -11   10.69    2.20
   3 -11 -11    8.84    2.81
   3 -11 -11    5.41    2.96
  -3  11  11    8.16    2.68
   3  11 -11    5.75    1.49
  -3  11  11    7.47    2.17
  -3  11  11    6.72    4.47
   2 -11 -11    3.17    2.71
   2  11 -11    5.61    1.07
   2  11 -11    5.85    1.33
  -2  11  11    6.92    4.07
  -2  11  11    6.89    1.99
  -2  11  11    7.70    2.52
   1 -11 -11    5.04    2.20
   1 -11 -11    1.59    2.70
  -1  11  11   -0.72    1.63
   1  11 -11    1.23    2.00
  -1  11  11    1.18    3.69
  -1  11  11    2.25    2.31
   1  11 -11    2.32    1.00
   0 -11 -11   89.66    5.20
   0  11  11   94.81    4.12
   0  11  11   87.63    6.70
   0  11 -11  104.48    5.21
   0  11  11   90.98    5.09
   0  11 -11   93.00    3.54
  -1 -11 -11   28.94    3.51
   1  11  11   31.82    5.36
   1  11  11   27.81    3.52
  -1  11 -11   29.21    2.88
  -2 -11 -11    1.53    2.83
   2  11  11    4.34    4.18
   2  11  11    3.76    2.99
   2  11  11    7.23    2.21
  -2  11 -11    5.23    2.37
  -3 -11 -11   14.85    3.60
   3  11  11    8.92    3.86
  -3  11 -11    4.25    2.89
  -4 -11 -11    9.63    4.23
   4 -11  11   10.51    2.03
  -4  11 -11   22.57    4.07
   4  11  11   10.96    4.23
   5 -11  11   16.39    3.03
   5  11  11   15.02    4.98
   5 -12 -11   10.28    3.47
  -5  12  11   14.99    5.82
  -5  12  11    6.91    3.62
   5  12 -11    9.47    2.99
  -5  12  11   12.15    3.51
   4 -12 -11    0.93    2.62
  -4  12  11   -0.29    2.70
  -4  12  11   -3.68    4.33
  -4  12  11   -2.71    3.02
   4  12 -11   -2.10    2.01
   3 -12 -11   11.21    2.62
  -3  12  11   11.31    2.47
  -3  12  11    3.08    4.47
  -3  12  11    7.84    4.44
   3  12 -11    8.80    1.74
   2 -12 -11    4.74    3.29
   2  12 -11    2.38    1.16
   2  12 -11    4.28    1.26
  -2  12  11    2.94    4.18
  -2  12  11    5.26    2.81
  -2  12  11    5.16    2.07
   1 -12 -11   31.36    4.31
   1 -12 -11   30.02    3.90
   1  12 -11   30.15    2.01
  -1  12  11   27.00    3.47
   1  12 -11   35.61    3.30
  -1  12  11   22.73    4.68
  -1  12  11   30.55    3.10
   0 -12 -11   53.93    4.54
   0  12  11   54.64    3.53
   0  12  11   47.98    4.58
   0  12 -11   52.86    4.24
   0  12  11   53.39    6.43
   0  12 -11   49.31    2.84
  -1 -12 -11   57.38    5.01
  -1  12 -11   63.30    3.72
   1  12  11   62.42    3.87
   1  12  11   49.55    4.91
   1  12  11   53.92    6.80
  -2 -12 -11   10.00    3.14
   2  12  11   13.68    3.75
  -2  12 -11   14.75    2.73
   2  12  11   13.16    2.61
   2  12  11   21.43    5.28
  -3 -12 -11   22.25    4.11
   3  12  11   31.01    4.83
  -3  12 -11   29.96    3.86
   4 -12  11   10.37    2.03
  -4  12 -11    8.25    3.99
   4  12  11    5.53    4.26
   5 -12  11    2.12    2.64
   5  12  11    4.59    4.79
   5 -13 -11   12.45    3.50
  -5  13  11    1.57    3.88
  -5  13  11   10.44    5.89
  -5  13  11   12.53    3.59
   5  13 -11   14.74    3.26
   4 -13 -11    7.55    3.12
  -4  13  11   -4.01    7.28
   4  13 -11    8.54    2.25
  -4  13  11    4.53    3.59
   3 -13 -11   15.49    2.93
  -3  13  11   18.84    3.02
  -3  13  11   17.75    3.74
  -3  13  11   17.52    5.14
   3  13 -11   14.39    2.10
   2  13 -11   18.43    1.78
  -2  13  11   23.88    3.74
   2  13 -11   20.43    2.14
   2  13 -11   16.78    1.81
  -2  13  11   13.55    4.66
  -2  13  11   18.40    2.70
   1 -13 -11   22.98    3.53
  -1  13  11   26.88    4.29
   1  13 -11   27.92    2.15
  -1  13  11   28.06    5.54
   1  13 -11   30.11    3.38
  -1  13  11   26.78    3.86
   0 -13 -11   26.51    3.62
   0  13  11   39.55    5.89
   0  13  11   31.61    3.26
   0  13  11   22.12    3.78
   0  13 -11   33.60    2.69
  -1 -13 -11   26.71    3.94
   1  13  11   26.67    4.02
   1  13  11   17.09    4.96
   1  13  11   18.80    2.60
  -1  13 -11   27.48    3.20
  -2 -13 -11    5.54    3.23
  -2  13 -11    8.04    2.56
   2  13  11    6.12    4.89
   2  13  11    8.09    3.66
  -3 -13 -11   20.84    4.08
  -3  13 -11   29.22    3.90
   3  13  11   21.51    4.61
   4 -13  11   38.22    3.06
  -4  13 -11   38.32    4.88
   4  13  11   36.77    5.99
   5 -14 -11    4.25    3.64
  -5  14  11    7.15    5.86
  -5  14  11   15.46    4.00
  -5  14  11    0.18    6.04
   5  14 -11    9.73    3.31
   4 -14 -11   17.52    3.66
  -4  14  11    8.43    4.16
  -4  14  11   16.88    3.44
   4  14 -11   14.63    2.75
  -4  14  11    9.48    5.44
  -3  14  11   23.85    3.27
  -3  14  11   20.47    4.03
  -3  14  11   20.03    5.43
   3  14 -11   20.76    2.49
   2  14 -11   25.09    1.67
  -2  14  11   20.58    5.22
   2  14 -11   23.00    1.44
  -2  14  11   32.15    3.38
   2  14 -11   28.18    2.22
   2  14 -11   23.34    2.52
  -2  14  11   21.96    3.99
   1 -14 -11   -0.09    2.71
  -1  14  11    3.29    4.28
  -1  14  11   -2.49    2.08
   1  14 -11    1.45    1.34
  -1  14  11   -3.57    2.99
   1  14 -11    5.18    2.28
   0 -14 -11   20.49    3.51
   0  14  11   31.96    4.44
   0  14  11   15.94    5.19
   0  14 -11   26.33    2.70
   0  14  11   20.09    2.66
  -1 -14 -11   17.32    3.62
   1  14  11   27.58    5.58
   1  14  11   28.38    3.68
  -1  14 -11   30.27    3.69
   1  14  11   21.41    3.88
  -2 -14 -11   52.95    5.68
  -2  14 -11   59.38    4.49
   2  14  11   54.09    5.84
   2  14  11   50.30    6.73
  -3 -14 -11   10.18    4.01
   3  14  11   -0.10    2.83
   3  14  11    7.03    4.11
  -3  14 -11    5.84    3.31
   4  14  11    1.62    4.51
  -4  14 -11   -1.09    4.00
   5 -15 -11   16.99    4.17
  -5  15  11   13.71    6.30
  -5  15  11   18.83    5.08
   5  15 -11   15.49    3.62
   4 -15 -11   28.95    4.15
  -4  15  11   15.07    5.84
  -4  15  11   30.81    5.10
   4  15 -11   25.05    3.35
  -4  15  11   24.58    3.99
   3  15 -11   26.94    2.84
  -3  15  11   30.81    3.75
  -3  15  11   22.67    5.85
   2  15 -11    1.35    1.44
   2  15 -11    1.41    1.72
  -2  15  11   -2.44    4.57
  -2  15  11    0.20    2.47
  -2  15  11    5.58    3.85
   1 -15 -11    4.39    2.96
   1  15 -11    5.63    1.57
  -1  15  11    6.24    2.45
  -1  15  11    3.58    5.99
   1  15 -11    8.70    2.49
  -1  15  11    4.24    4.63
   0 -15 -11   30.47    4.12
   0  15  11   33.56    4.57
   0  15  11   32.83    6.12
   0  15 -11   37.39    3.10
   0  15  11   40.79    3.75
  -1 -15 -11   39.63    4.64
   1  15  11   40.20    6.87
   1  15  11   38.89    5.03
  -1  15 -11   42.04    3.74
  -2 -15 -11   -1.59    3.37
   2  15  11    1.55    2.52
   2  15  11   -3.77    3.47
   2  15  11    5.40    5.79
  -2  15 -11    2.13    2.65
   3  15  11    1.42    2.93
   3  15  11    2.98    4.33
  -3  15 -11    2.71    3.31
   4  15  11   12.40    5.39
   4 -16 -11    4.22    3.54
  -4  16  11    5.36    6.07
  -4  16  11   12.16    4.57
   4  16 -11   -2.26    2.74
   3  16 -11    3.07    2.33
  -3  16  11    9.02    4.40
  -3  16  11   -0.85    5.14
  -2  16  11   47.98    7.16
  -2  16  11   48.16    6.43
   2  16 -11   42.61    3.53
   2  16 -11   41.37    2.85
   1 -16 -11   -3.37    2.84
   1  16 -11   -0.85    1.67
   1  16 -11    2.28    2.37
  -1  16  11   -0.87    3.66
   0 -16 -11   -3.53    3.09
   0  16 -11    4.99    2.03
   0  16  11   -5.05    3.56
  -1 -16 -11   16.59    3.70
   1  16  11   20.84    3.18
   1  16  11   20.13    4.71
  -1  16 -11   21.30    2.92
   1  16  11   17.71    6.21
  -2 -16 -11   13.30    4.00
   2  16  11   10.89    5.82
   2  16  11   11.71    4.30
  -2  16 -11   19.40    3.39
   2  16  11   13.01    3.23
   3  16  11    9.14    4.53
  -3  16 -11    5.04    3.61
   3  16  11    9.18    3.49
  -4  17  11   24.56    4.32
  -4  17  11   21.34    7.28
  -4  17  11   16.88    5.35
   4  17 -11   13.50    3.48
   3  17 -11   -2.06    2.51
  -3  17  11   -3.32    5.41
  -3  17  11    3.67    4.62
  -3  17  11    7.54    3.26
  -2  17  11    1.77    2.49
  -2  17  11    5.81    4.44
   2  17 -11   11.70    2.44
   2  17 -11    7.43    1.87
  -2  17  11    1.32    5.18
   1  17 -11   37.81    3.26
   1  17 -11   34.20    3.42
  -1  17  11   45.63    7.10
   1  17 -11   31.45    2.97
   1  17 -11   44.86    4.28
  -1  17  11   37.92    5.29
   0 -17 -11    2.42    3.42
   0  17 -11   10.29    2.38
   0  17  11    8.59    5.52
   0  17  11    2.31    4.18
   0  17  11    5.07    2.61
  -1 -17 -11    0.58    3.85
   1  17  11    4.21    4.36
   1  17  11    7.36    2.76
  -1  17 -11    0.40    2.46
   1  17  11   -8.46    5.03
   2  17  11    2.68    5.45
   2  17  11    5.34    3.18
   2  17  11   11.47    4.65
  -2  17 -11    0.73    3.07
  -3  17 -11    4.22    3.82
   3  17  11   13.84    4.99
   3  18 -11    5.44    2.13
   3  18 -11    4.57    3.00
  -3  18  11    5.15    5.06
  -3  18  11    6.93    3.79
  -3  18  11   -1.57    6.04
  -2  18  11   37.42    6.87
  -2  18  11   44.41    5.43
   2  18 -11   38.62    4.06
  -2  18  11   35.63    5.59
   1  18 -11    7.33    1.98
  -1  18  11   13.09    3.19
   1  18 -11    6.57    2.38
  -1  18  11    3.07    4.54
   1  18 -11   12.17    2.33
  -1  18  11    8.87    5.82
   0 -18 -11    7.85    3.84
   0  18  11   10.94    2.99
   0  18  11   10.98    6.19
   0  18  11    4.47    4.58
   0  18 -11   10.45    2.51
   1  18  11   15.90    5.32
  -1  18 -11   16.37    3.21
   1  18  11   11.71    6.11
   1  18  11   19.48    3.36
  -2  18 -11   26.36    4.27
   2  18  11   16.43    5.29
   2  18  11   31.65    4.09
   2  18  11   29.56    6.97
  -3  18 -11   -1.58    4.08
   3  18  11    2.35    5.04
  -3  19  11   11.80    5.83
   3  19 -11    7.70    3.42
   3  19 -11   12.51    2.56
  -3  19  11   19.46    4.35
  -3  19  11   14.65    6.66
  -2  19  11    8.65    5.06
  -2  19  11   -0.62    5.80
   2  19 -11    0.30    2.16
  -2  19  11    3.14    3.45
   2  19 -11    1.77    2.85
  -1  19  11   27.41    5.80
  -1  19  11   23.08    6.79
  -1  19  11   21.82    3.87
   1  19 -11   21.97    3.11
   1  19 -11   26.63    3.56
   1  19 -11   17.80    2.92
   0  19  11    9.19    6.25
   0  19 -11    2.05    2.60
   0  19  11    5.39    4.55
   0  19  11    4.46    3.11
   1  19  11   12.01    6.41
   1  19  11   14.55    3.40
   1  19  11   -1.05    4.84
  -1  19 -11   13.82    3.31
   2  19  11   11.02    6.78
   2  19  11    7.09    4.93
  -2  19 -11   16.73    3.97
   2  20 -11   28.21    4.05
  -2  20  11   33.80    4.65
  -2  20  11   29.45    7.28
   2  20 -11   27.46    3.15
  -2  20  11   32.44    6.32
  -1  20  11    5.94    6.51
   1  20 -11    8.98    2.73
   1  20 -11    8.62    2.33
  -1  20  11   10.13    3.91
  -1  20  11    0.70    5.19
   1  20 -11    6.98    3.15
   0  20  11    1.72    6.07
   0  20 -11   -4.77    2.50
   0  20 -11   -4.75    2.83
   0  20  11    2.88    3.36
   0  20  11   -2.97    5.25
   0  20 -11    4.23    2.88
   1  20  11   -3.34    6.03
   1  20  11    1.48    5.53
  -1  20 -11    1.95    3.29
   1  21 -11   39.14    4.63
   1  21 -11   33.62    4.34
  -1  21  11   36.58    7.49
   1  21 -11   48.58    3.77
   0  21 -11   16.63    3.45
   0  21  11   13.33    6.00
   0  21  11    8.82    6.68
   0  21 -11   11.43    2.98
   0  21 -11    1.75    3.32
  -6   0  12   17.99    3.86
   6   0 -12    8.59    2.81
   5   0 -12   -1.83    1.97
  -5   0  12   -0.70    3.01
   4   0 -12    3.33    1.47
  -4   0  12    5.55    2.84
   3   0 -12    0.77    1.78
  -3   0  12    0.65    2.53
   3   0 -12    0.56    1.05
   2   0 -12   26.38    2.15
  -2   0  12   33.31    4.05
   2   0 -12   29.00    1.84
   2   0 -12   27.41    3.03
   1   0 -12   -0.34    2.02
   1   0 -12    0.74    1.39
   0   0 -12   35.89    4.04
   0   0 -12   29.37    2.83
  -1   0 -12    1.20    1.83
  -1   0 -12    3.05    3.06
  -2   0 -12   49.86    4.91
   2   0  12   42.40    2.05
   2   0  12   46.81    2.19
  -2   0 -12   44.08    5.75
  -3   0 -12    1.04    2.47
   3   0  12   -3.53    1.46
  -4   0 -12   28.00    4.40
   4   0  12   22.23    2.96
  -5   0 -12    8.83    4.40
   5   0  12    2.10    2.92
  -6  -1  12   -0.39    3.20
  -6   1  12    0.47    3.60
   6   1 -12    5.13    2.63
   5  -1 -12   24.97    3.20
  -5  -1  12   25.09    3.55
   5   1 -12   27.70    3.11
  -5   1  12   28.66    3.96
  -4  -1  12    4.65    2.62
   4  -1 -12    1.74    1.54
   4   1 -12    5.00    1.54
  -4   1  12    5.29    2.99
   3  -1 -12  115.55    3.91
   3  -1 -12  119.62    4.81
  -3  -1  12  132.52    5.84
   3   1 -12  120.68    4.59
  -3   1  12  125.17    6.05
   3   1 -12  112.20    3.63
   2  -1 -12    1.23    1.09
   2  -1 -12    1.83    1.28
   2  -1 -12    6.24    2.06
  -2   1  12    2.54    2.69
   2   1 -12    1.24    1.65
   2   1 -12    1.56    0.93
   2   1 -12    1.75    1.14
   1  -1 -12   50.42    2.89
   1  -1 -12   48.75    3.91
   1   1 -12   47.74    3.71
   1   1 -12   51.30    2.73
  -1   1  12   41.87    4.47
   0  -1 -12    5.48    1.82
   0  -1 -12    4.68    2.51
   0   1 -12    6.23    1.65
   0   1 -12    7.70    2.58
  -1  -1 -12  128.11    5.21
  -1  -1 -12  120.55    6.29
  -1   1 -12  122.65    4.96
  -1   1 -12  118.91    6.35
  -2  -1 -12   20.43    3.86
  -2  -1 -12   11.66    3.24
   2  -1  12   10.67    1.05
   2  -1  12   11.02    1.33
   2   1  12   10.52    1.52
   2   1  12   13.39    1.49
  -2   1 -12   13.95    3.48
  -2   1 -12   12.60    2.67
   3  -1  12   18.37    2.12
  -3  -1 -12   21.99    3.61
  -3   1 -12   20.13    3.53
   3   1  12   20.57    2.46
   4  -1  12    1.28    2.13
  -4  -1 -12    2.28    3.31
  -4   1 -12    4.15    3.34
   4   1  12    6.65    2.50
  -5  -1 -12   11.17    4.28
   5  -1  12   10.14    3.20
   5   1  12   11.16    3.38
  -5   1 -12    5.34    4.20
  -6  -2  12    8.73    2.99
   6  -2 -12   14.08    3.05
  -6   2  12    5.36    4.03
   6   2 -12    6.18    2.73
  -5  -2  12    5.11    2.68
   5  -2 -12    6.53    2.19
   5   2 -12    2.08    2.00
  -5   2  12    3.94    3.44
  -4  -2  12   -2.76    2.41
   4  -2 -12    2.53    1.50
  -4   2  12    3.34    3.08
   4   2 -12   -1.57    1.28
   3  -2 -12   12.61    1.67
  -3  -2  12   11.48    2.74
   3  -2 -12   13.72    2.44
  -3   2  12   13.30    3.33
   3   2 -12   14.49    2.06
   3   2 -12   11.64    1.33
   2  -2 -12   86.50    3.28
   2  -2 -12   86.95    3.60
   2  -2 -12   98.99    4.63
   2   2 -12   94.47    4.15
   2   2 -12   84.82    2.68
  -2   2  12  100.92    5.70
   2   2 -12   90.15    2.99
   1  -2 -12   67.66    3.51
   1  -2 -12   71.76    4.46
  -1   2  12   72.22    5.28
   1   2 -12   78.40    4.37
   1   2 -12   77.34    3.06
   0  -2 -12   31.47    3.05
   0  -2 -12   39.68    4.21
   0   2 -12   32.66    3.97
   0   2 -12   35.35    2.69
  -1  -2 -12   31.62    4.16
  -1  -2 -12   31.52    3.24
  -1   2 -12   23.98    3.01
  -1   2 -12   23.51    3.56
  -2  -2 -12   60.68    4.59
  -2  -2 -12   66.19    5.74
   2   2  12   67.26    3.15
  -2   2 -12   76.46    5.82
   2   2  12   66.21    2.87
  -2   2 -12   69.21    4.49
   3  -2  12    4.58    1.55
  -3  -2 -12    7.72    2.92
   3   2  12    6.03    2.02
  -3   2 -12    4.49    2.51
   4  -2  12   -1.91    1.89
  -4  -2 -12    2.53    3.26
   4   2  12    1.70    2.38
  -4   2 -12    3.94    3.31
  -5  -2 -12   46.25    7.95
   5  -2  12   26.81    3.55
  -5   2 -12   21.75    4.73
   5   2  12   21.46    3.74
   6  -3 -12    9.49    2.87
  -6  -3  12   10.57    2.64
   6   3 -12   10.66    2.82
  -6   3  12   12.78    4.42
   5  -3 -12   -0.11    2.15
  -5  -3  12    2.19    2.40
   5   3 -12    2.12    1.91
  -5   3  12    5.15    3.66
   4  -3 -12    1.21    1.62
  -4   3  12    4.44    3.23
   4   3 -12    1.75    1.35
   3  -3 -12    4.37    2.10
   3  -3 -12    2.50    1.40
  -3   3  12    3.28    3.14
   3   3 -12    2.57    1.02
   3   3 -12    1.71    1.56
   2  -3 -12    1.33    1.40
   2  -3 -12    1.25    1.19
   2  -3 -12   -0.41    2.01
   2   3 -12    0.57    2.59
  -2   3  12    1.04    2.86
   2   3 -12    2.08    0.69
   2   3 -12    2.45    0.96
   1  -3 -12   51.58    4.12
   1  -3 -12   53.81    3.27
   1   3 -12   42.08    3.64
   1   3 -12   47.50    2.41
  -1   3  12   56.59    5.09
   0  -3 -12   50.18    3.51
   0  -3 -12   49.76    4.59
   0   3 -12   50.58    4.26
   0   3 -12   48.98    2.90
  -1  -3 -12   19.54    2.83
  -1  -3 -12   14.12    3.29
   1   3  12   14.50    1.37
   1   3  12   14.14    1.59
  -1   3 -12   16.71    2.38
  -1   3 -12   21.82    3.59
  -2  -3 -12    8.38    2.58
  -2  -3 -12   11.17    3.35
   2   3  12   10.91    1.66
  -2   3 -12    9.66    2.45
   2   3  12    9.76    1.87
  -2   3 -12   10.94    3.64
   3  -3  12   15.95    2.10
  -3  -3 -12   15.65    3.58
  -3   3 -12   25.80    3.65
   3   3  12   12.57    2.49
   4  -3  12    2.39    1.95
  -4  -3 -12   -3.09    3.17
  -4   3 -12    0.20    3.30
   4   3  12   -2.94    2.34
   5  -3  12   25.32    3.61
   5   3  12   28.74    4.11
  -5   3 -12   26.73    5.22
   6  -4 -12   25.79    3.46
   6   4 -12   27.57    3.31
  -6   4  12   38.69    5.54
   5  -4 -12    8.31    2.44
   5   4 -12    9.05    2.22
  -5   4  12    7.07    4.00
   4  -4 -12    0.28    1.70
  -4   4  12   -2.99    3.24
   4   4 -12   -0.32    1.29
   3  -4 -12    0.80    2.25
   3  -4 -12   -0.55    1.38
   3   4 -12    1.77    1.43
   3   4 -12    0.88    0.91
  -3   4  12    0.82    3.13
   2  -4 -12   73.93    4.44
   2  -4 -12   81.24    3.43
   2  -4 -12   78.60    3.60
  -2   4  12   85.46    5.84
   2   4 -12   82.34    2.41
   2   4 -12   75.82    2.13
   2   4 -12   78.66    3.74
   1  -4 -12    0.20    2.34
   1  -4 -12    2.11    1.69
  -1   4  12    0.94    2.86
   1   4 -12    0.76    1.05
   1   4 -12    0.28    1.85
   0  -4 -12    0.19    2.38
   0  -4 -12    1.40    1.79
   0   4  12   -0.58    2.99
   0   4 -12    0.69    1.31
   0   4 -12    0.35    2.37
  -1  -4 -12    3.53    2.98
  -1  -4 -12    4.48    2.07
  -1   4 -12    3.80    1.78
   1   4  12    4.08    1.34
  -1   4 -12    2.39    2.83
   1   4  12    3.28    1.09
  -2  -4 -12  117.61    6.86
  -2  -4 -12  104.95    5.56
  -2   4 -12  105.13    5.18
  -2   4 -12   95.40    6.37
   2   4  12   99.28    4.28
   2   4  12  101.03    3.85
   3  -4  12    5.12    1.38
  -3  -4 -12    3.13    2.72
   3   4  12    5.93    2.26
  -3   4 -12    4.71    2.75
   4  -4  12   35.90    3.21
  -4  -4 -12   32.78    4.42
  -4   4 -12   41.80    5.68
  -5   4 -12    0.64    3.92
   5   4  12    5.68    3.42
   6  -5 -12   13.87    3.42
   6   5 -12    8.99    2.85
  -6   5  12   17.04    4.95
   5  -5 -12   13.37    2.72
   5   5 -12    9.98    2.23
  -5   5  12    6.40    4.12
   4  -5 -12    1.93    1.87
   4   5 -12   -1.18    1.28
  -4   5  12   -1.60    3.33
   3  -5 -12    6.78    2.45
   3  -5 -12    5.23    1.76
   3   5 -12    4.70    1.44
   3   5 -12    5.32    0.97
  -3   5  12   10.37    3.67
   2  -5 -12   26.35    3.22
   2  -5 -12   17.60    2.42
   2  -5 -12   21.34    2.59
  -2   5  12   22.96    4.16
   2   5 -12   21.83    2.34
   1  -5 -12   25.84    3.35
   1  -5 -12   25.26    2.86
   1   5 -12   23.34    3.13
   1   5 -12   20.64    1.69
  -1   5  12   19.98    4.00
   0  -5 -12    3.16    2.68
   0  -5 -12    4.23    2.08
   0   5  12    0.87    1.02
   0   5  12    2.12    0.84
   0   5  12    5.97    3.25
   0   5 -12    4.61    2.49
   0   5 -12    2.24    1.46
  -1  -5 -12   83.82    5.80
  -1   5 -12   91.84    5.67
   1   5  12   85.79    3.20
  -1   5 -12   88.49    4.24
   1   5  12   89.80    3.72
  -2  -5 -12   71.78    6.57
  -2  -5 -12   71.46    5.00
  -2   5 -12   78.31    5.89
   2   5  12   67.96    3.38
  -2   5 -12   66.61    4.48
   2   5  12   70.25    4.03
  -3  -5 -12   -2.57    2.84
   3  -5  12    1.07    1.15
   3   5  12    3.09    2.33
  -3   5 -12    6.85    2.67
   4  -5  12    2.80    1.85
  -4  -5 -12    2.22    3.26
   4   5  12    0.45    2.79
  -4   5 -12    2.18    3.30
   5   5  12   26.58    4.19
  -5   5 -12   24.46    5.59
   6  -6 -12    2.95    2.96
   6   6 -12    3.74    2.74
  -6   6  12    6.84    4.89
   5  -6 -12    3.21    2.52
  -5   6  12    6.87    4.60
   5   6 -12    2.96    2.08
   4  -6 -12    4.42    2.10
   4   6 -12    0.95    1.35
  -4   6  12    0.27    3.72
   3  -6 -12    1.86    2.50
   3  -6 -12    1.11    1.76
  -3   6  12   -2.37    3.28
   3   6 -12    2.27    0.88
   3   6 -12    2.61    1.23
   2  -6 -12   28.92    2.96
   2  -6 -12   25.83    3.67
  -2   6  12   28.81    4.36
   2   6 -12   24.91    2.65
   1  -6 -12    4.53    2.61
   1  -6 -12    3.82    1.84
   1   6 -12    3.59    1.01
   1   6 -12    8.55    2.17
  -1   6  12    3.39    3.18
   0  -6 -12    5.08    2.78
   0  -6 -12   -0.82    1.80
   0   6 -12    3.96    1.40
   0   6  12    0.28    3.10
   0   6  12    2.40    1.09
   0   6  12    3.32    1.40
   0   6 -12    3.26    2.38
  -1  -6 -12   20.91    3.60
  -1  -6 -12   24.73    3.30
  -1   6 -12   23.37    3.62
   1   6  12   22.42    2.41
   1   6  12   21.19    2.12
  -1   6 -12   21.34    2.92
  -2  -6 -12   26.97    3.58
  -2   6 -12   37.17    5.02
   2   6  12   33.96    3.63
   2   6  12   29.97    2.80
  -2   6 -12   32.31    3.90
  -3  -6 -12   16.52    3.82
   3  -6  12   16.43    1.66
   3   6  12   17.94    3.12
  -3   6 -12   18.83    3.47
   4  -6  12    3.06    1.76
  -4  -6 -12   -0.47    3.53
   4   6  12    0.97    2.99
  -4   6 -12    4.58    3.65
   5  -6  12    2.45    2.62
   5   6  12   -1.28    3.38
   6  -7 -12    3.34    3.15
  -6   7  12    4.49    5.16
   6   7 -12    7.90    2.95
   5  -7 -12   28.52    3.45
  -5   7  12   27.27    5.40
   5   7 -12   34.05    3.30
   4  -7 -12   14.47    2.57
   4   7 -12   16.73    1.88
  -4   7  12   17.05    4.73
   3  -7 -12   48.11    4.26
   3  -7 -12   50.26    3.47
   3   7 -12   45.95    1.93
  -3   7  12   45.54    5.85
   3   7 -12   46.18    2.10
   2  -7 -12    8.24    2.77
   2  -7 -12    2.43    1.90
   2   7 -12    5.87    1.70
  -2   7  12    5.31    3.69
   1  -7 -12  107.96    4.85
   1  -7 -12  107.65    5.67
   1   7 -12  101.53    3.02
  -1   7  12  106.64    3.28
   1   7 -12   99.09    6.96
  -1   7  12  111.39    3.66
   0  -7 -12   -0.14    2.84
   0   7 -12    2.70    2.44
   0   7 -12   -0.24    1.30
   0   7  12    1.57    1.64
   0   7  12   -0.15    3.45
   0   7  12    0.20    1.18
  -1  -7 -12   98.72    5.31
  -1  -7 -12   94.26    6.13
   1   7  12   93.42    4.47
   1   7  12   93.49    3.70
  -1   7 -12   95.18    5.96
  -1   7 -12  102.53    4.42
   1   7  12  100.90    7.11
  -2  -7 -12    0.66    2.72
   2   7  12    4.42    2.34
  -2   7 -12    3.31    3.38
  -2   7 -12    0.73    2.32
   2   7  12    3.84    1.78
   3  -7  12    2.48    0.89
  -3  -7 -12   -1.15    3.10
   3   7  12    1.46    2.52
  -3   7 -12    5.74    3.05
  -4  -7 -12   13.37    3.80
   4  -7  12    8.21    1.96
   4   7  12    7.53    3.46
  -4   7 -12    9.04    3.75
   5  -7  12   12.26    2.83
   5   7  12    5.87    4.02
   6  -8 -12    1.62    3.38
  -6   8  12   -0.87    5.62
   6   8 -12    8.43    3.01
   5  -8 -12    1.47    2.69
  -5   8  12   12.95    5.11
   5   8 -12    5.18    2.16
   4  -8 -12    4.84    2.90
   4   8 -12    5.65    1.70
  -4   8  12    4.80    4.35
   3  -8 -12   24.43    3.23
   3  -8 -12   23.20    2.81
  -3   8  12   27.52    1.67
  -3   8  12   27.65    4.66
   3   8 -12   24.87    1.68
  -3   8  12   26.62    1.83
   2  -8 -12   77.00    5.05
   2  -8 -12   79.70    4.31
  -2   8  12   80.36    3.20
   2   8 -12   77.45    3.49
  -2   8  12   85.65    2.99
   1  -8 -12   70.75    4.34
   1  -8 -12   83.01    5.27
  -1   8  12   68.94    6.44
  -1   8  12   74.33    3.05
  -1   8  12   76.12    3.46
   1   8 -12   78.86    2.50
   0  -8 -12   15.99    3.33
   0  -8 -12   16.39    2.88
   0   8 -12   15.10    3.08
   0   8 -12   14.12    1.80
   0   8  12   14.12    2.26
   0   8  12   14.21    1.80
   0   8  12   16.24    4.36
  -1  -8 -12   17.98    3.54
  -1  -8 -12   17.97    3.05
   1   8  12   15.25    1.97
   1   8  12   12.76    2.56
   1   8  12   14.98    4.30
  -1   8 -12   18.81    3.50
  -1   8 -12   15.40    2.30
  -2  -8 -12   77.17    5.45
  -2   8 -12   92.35    6.30
   2   8  12   77.69    4.04
   2   8  12   77.54    5.03
  -2   8 -12   91.24    6.08
  -3  -8 -12   -1.55    3.09
  -3   8 -12    5.72    3.10
   3   8  12    4.97    2.97
  -4  -8 -12    6.39    3.99
   4  -8  12    2.31    1.72
   4   8  12    4.66    3.50
  -4   8 -12    7.37    3.87
   5  -8  12    1.65    2.48
   5   8  12    4.35    4.17
   6  -9 -12   -2.74    3.35
  -6   9  12   -1.39    6.06
   6   9 -12    9.86    3.16
   5  -9 -12    4.43    2.85
   5   9 -12    0.23    2.18
  -5   9  12    4.85    4.94
   4  -9 -12    6.24    2.63
  -4   9  12    4.24    1.78
   4   9 -12    2.32    1.73
  -4   9  12    1.86    1.57
  -4   9  12    3.00    4.53
   3  -9 -12   21.25    2.86
   3  -9 -12   16.38    3.11
   3   9 -12   18.60    1.66
  -3   9  12   23.22    2.46
  -3   9  12   22.57    4.75
  -3   9  12   21.96    2.65
   2  -9 -12    3.20    2.57
   2  -9 -12    7.85    2.38
  -2   9  12    1.16    3.81
   2   9 -12    5.65    1.57
  -2   9  12    3.47    1.78
  -2   9  12    6.06    1.55
   1  -9 -12   29.29    3.21
   1  -9 -12   38.65    4.33
  -1   9  12   36.81    5.09
  -1   9  12   27.62    2.52
  -1   9  12   23.38    2.88
   1   9 -12   29.69    1.72
   0  -9 -12    7.78    2.64
   0  -9 -12    4.43    2.84
   0   9 -12    1.62    2.52
   0   9 -12    4.29    1.43
   0   9  12    3.93    1.60
   0   9  12    3.75    3.99
   0   9  12    4.21    2.06
  -1  -9 -12   32.91    3.91
   1   9  12   37.59    5.68
  -1   9 -12   30.04    3.07
   1   9  12   26.83    2.76
   1   9  12   24.90    3.18
  -1   9 -12   33.07    4.68
  -2  -9 -12    4.93    3.09
   2   9  12    1.22    2.65
  -2   9 -12    1.89    3.03
   2   9  12    1.65    2.44
  -3  -9 -12   46.94    5.06
   3   9  12   48.46    5.40
  -3   9 -12   51.45    5.13
  -4  -9 -12    8.77    4.49
  -4   9 -12   12.21    4.10
   4   9  12    7.28    3.68
   5  -9  12   16.79    2.87
   5   9  12   14.63    4.68
   6 -10 -12   15.43    3.93
   5 -10 -12    6.76    3.10
  -5  10  12   10.56    2.23
  -5  10  12    4.94    5.65
  -5  10  12    5.37    2.49
   5  10 -12    8.92    2.69
   4 -10 -12    3.95    2.74
  -4  10  12    2.08    2.02
  -4  10  12    2.71    2.17
  -4  10  12   -3.83    4.32
   4  10 -12    0.85    1.71
   3 -10 -12    7.77    4.91
  -3  10  12    7.56    2.02
  -3  10  12    7.57    4.64
   3  10 -12   10.47    1.38
  -3  10  12    6.55    2.18
   2 -10 -12   35.35    4.55
   2 -10 -12   37.84    3.89
  -2  10  12   38.01    2.96
  -2  10  12   42.75    3.52
   2  10 -12   36.04    2.58
  -2  10  12   44.05    5.78
   1 -10 -12   13.03    2.65
   1 -10 -12   13.81    3.14
  -1  10  12   13.52    2.03
  -1  10  12   15.90    4.48
   1  10 -12   14.85    3.23
  -1  10  12   16.23    2.60
   1  10 -12   16.51    1.61
   0 -10 -12   20.60    3.02
   0 -10 -12   25.83    3.72
   0  10  12   26.52    4.90
   0  10 -12   23.14    3.46
   0  10 -12   21.32    2.42
   0  10  12   22.53    2.64
   0  10  12   21.93    2.95
  -1 -10 -12    0.72    2.65
   1  10  12    8.65    4.28
  -1  10 -12    4.41    1.91
   1  10  12    4.77    1.82
  -1  10 -12    7.05    3.27
   1  10  12    3.77    2.58
  -2 -10 -12   86.10    6.00
  -2  10 -12   87.88    4.99
   2  10  12   86.16    5.77
   2  10  12   86.03    4.48
  -3 -10 -12   20.76    4.09
  -3  10 -12   25.76    3.73
   3  10  12   21.49    4.25
   4 -10  12   20.73    2.50
  -4  10 -12   14.33    4.34
   4  10  12   17.26    4.36
   5 -10  12    4.44    2.63
   5  10  12    4.26    4.74
   5 -11 -12    7.37    3.44
  -5  11  12   -0.43    2.93
  -5  11  12    5.79    2.79
  -5  11  12    0.25    5.45
   5  11 -12    7.22    2.70
   4 -11 -12   31.93    3.79
  -4  11  12   31.41    4.10
  -4  11  12   30.12    3.67
  -4  11  12   21.35    5.83
   4  11 -12   25.45    3.00
   3 -11 -12    2.09    2.28
  -3  11  12    1.43    1.92
  -3  11  12   -1.12    2.39
  -3  11  12   -1.70    4.41
   3  11 -12   -0.36    1.31
   2 -11 -12    8.29    2.68
   2  11 -12    6.91    1.05
  -2  11  12    4.92    2.05
  -2  11  12    6.03    4.23
  -2  11  12    7.24    2.54
   2  11 -12    5.93    1.61
   1 -11 -12    6.82    2.56
   1 -11 -12   11.20    5.59
  -1  11  12    8.48    2.55
  -1  11  12   10.33    2.09
   1  11 -12    6.50    2.89
  -1  11  12    5.77    4.18
   1  11 -12   10.42    1.36
   0 -11 -12   77.75    5.12
   0  11 -12   61.34    4.93
   0  11  12   63.31    7.03
   0  11 -12   72.79    3.36
   0  11  12   71.12    3.79
   0  11  12   73.05    4.77
  -1 -11 -12   -2.94    2.75
  -1  11 -12    1.49    1.84
  -1  11 -12    2.78    3.10
   1  11  12   -0.20    2.60
   1  11  12    1.29    4.20
  -2 -11 -12   11.57    3.62
  -2  11 -12    9.03    2.74
   2  11  12    3.73    2.25
   2  11  12   14.66    3.96
  -3 -11 -12   18.17    4.23
  -3  11 -12   19.20    3.64
   3  11  12   22.08    4.28
   4 -11  12   12.34    1.83
  -4  11 -12   19.81    4.27
   4  11  12   11.37    4.55
   5 -12 -12    7.87    3.59
  -5  12  12    0.40    3.23
  -5  12  12   -0.50    5.60
   5  12 -12   -0.05    2.86
  -5  12  12   -6.70    3.33
   4 -12 -12    1.56    2.88
  -4  12  12   -1.49    2.91
   4  12 -12    4.58    2.14
  -4  12  12    5.73    2.72
  -3  12  12    2.69    2.35
   3  12 -12    0.01    1.48
  -3  12  12    6.45    4.82
  -3  12  12    0.30    2.71
  -2  12  12   51.28    5.06
   2  12 -12   39.89    2.14
  -2  12  12   39.76    6.19
   2  12 -12   40.97    2.50
  -2  12  12   45.64    3.76
   2  12 -12   40.18    2.03
   1 -12 -12   12.71    2.74
   1  12 -12   11.65    1.57
  -1  12  12    9.19    2.23
  -1  12  12   16.57    5.01
  -1  12  12    8.93    2.86
   1  12 -12    8.42    3.05
   0 -12 -12    2.07    2.72
   0  12  12    1.69    2.55
   0  12 -12    0.57    1.49
   0  12  12    1.75    1.91
   0  12 -12    1.99    2.74
   0  12  12   -3.14    4.08
  -1 -12 -12   24.71    3.70
   1  12  12   27.41    3.40
   1  12  12   28.34    4.01
   1  12  12   31.08    5.73
  -1  12 -12   29.40    3.30
  -2 -12 -12   29.44    4.42
  -2  12 -12   31.65    3.52
   2  12  12   20.62    4.20
  -3 -12 -12   -2.48    4.00
   3  12  12   -0.53    3.73
  -3  12 -12    8.26    3.61
   3  12  12    1.46    2.55
   4  12  12    5.45    4.64
  -4  12 -12   15.72    4.33
   5 -13 -12   32.28    4.78
  -5  13  12   34.31    4.57
  -5  13  12   30.11    7.13
  -5  13  12   43.94    6.27
   5  13 -12   38.54    4.72
   4 -13 -12    2.54    3.04
  -4  13  12   13.84    3.79
  -4  13  12    6.68    5.62
  -4  13  12   13.75    3.22
   4  13 -12    6.71    2.27
  -3  13  12   46.96    4.26
   3  13 -12   42.62    2.97
  -3  13  12   40.39    5.16
  -3  13  12   41.42    7.21
  -2  13  12    3.99    2.34
   2  13 -12    0.03    1.30
  -2  13  12   -0.01    2.84
  -2  13  12   -3.46    4.56
   2  13 -12   -0.50    1.13
   2  13 -12    0.10    1.27
   1 -13 -12    6.81    2.82
   1  13 -12    8.50    3.40
  -1  13  12    6.39    2.91
   1  13 -12    7.49    1.52
  -1  13  12   10.55    3.20
  -1  13  12    9.22    4.92
   0 -13 -12   36.10    4.88
   0  13  12   41.24    6.25
   0  13  12   56.78    5.15
   0  13 -12   44.46    3.07
   0  13  12   47.37    3.74
   0  13 -12   46.95    4.88
  -1 -13 -12   20.05    3.80
   1  13  12   17.15    2.67
   1  13  12   23.37    6.51
   1  13  12   22.88    5.63
  -1  13 -12   22.66    2.84
  -2 -13 -12    8.93    3.47
   2  13  12    8.35    5.85
   2  13  12    9.11    3.92
  -2  13 -12    3.21    2.55
  -3 -13 -12    7.67    4.47
   3  13  12    8.44    4.27
   3  13  12   14.47    3.37
   4  13  12    8.15    4.82
  -4  13 -12   24.18    4.73
   5 -14 -12   -0.46    3.80
  -5  14  12   -2.22    6.66
  -5  14  12    6.56    4.52
   5  14 -12    4.64    3.31
   4 -14 -12   -1.17    3.20
  -4  14  12   -4.94    5.80
  -4  14  12    0.89    3.77
   4  14 -12    5.32    2.43
  -4  14  12    7.60    4.27
  -3  14  12   26.74    4.60
  -3  14  12   17.12    6.21
   3  14 -12   20.09    2.36
  -3  14  12   18.53    3.95
   2  14 -12    8.02    1.17
   2  14 -12    9.22    1.32
  -2  14  12    6.24    3.46
   2  14 -12    6.40    1.75
  -2  14  12   10.32    2.76
   2  14 -12    8.03    1.46
   1 -14 -12   43.09    4.98
  -1  14  12   46.46    6.68
  -1  14  12   56.34    4.24
  -1  14  12   54.12    5.54
   1  14 -12   50.24    2.91
   1  14 -12   51.68    5.99
   0 -14 -12   19.22    3.59
   0  14 -12   19.13    3.53
   0  14  12   18.39    5.97
   0  14  12   14.41    3.78
   0  14  12   13.65    2.57
   0  14 -12   14.43    2.16
  -1 -14 -12   11.97    3.52
  -1  14 -12   15.60    3.01
   1  14  12   11.28    3.98
  -2 -14 -12   11.98    4.20
  -2  14 -12   18.28    3.24
   2  14  12   19.39    3.07
   2  14  12   21.40    4.75
   2  14  12   27.44    6.50
  -3  14 -12   35.38    4.59
   3  14  12   24.20    3.80
   3  14  12   37.88    5.50
   4  14  12    2.55    4.87
   4 -15 -12    4.65    3.58
  -4  15  12   -5.70    6.17
   4  15 -12   -0.33    2.55
  -4  15  12    3.27    3.47
  -3  15  12    3.92    3.01
   3  15 -12   -1.37    2.09
  -3  15  12   -7.27    5.80
  -3  15  12   -3.53    4.28
  -2  15  12    6.19    2.69
   2  15 -12    4.76    1.54
  -2  15  12   -1.27    5.20
  -2  15  12    6.13    3.87
   2  15 -12    4.15    1.87
   1 -15 -12    6.23    3.41
  -1  15  12    2.71    5.50
  -1  15  12    6.58    2.63
   1  15 -12    8.68    1.75
   0 -15 -12   10.85    3.28
   0  15 -12   15.27    3.50
   0  15  12   19.09    4.18
   0  15  12    5.64    5.32
   0  15 -12   19.77    2.64
  -1 -15 -12   -0.81    3.54
   1  15  12    3.75    2.23
   1  15  12    4.25    5.19
  -1  15 -12    0.06    2.43
   1  15  12    0.31    3.74
  -2 -15 -12   -0.53    3.77
  -2  15 -12   -2.16    2.83
   2  15  12    5.70    2.86
   2  15  12   -0.48    5.18
   2  15  12    5.00    4.13
  -3  15 -12    8.37    3.92
   3  15  12    6.78    4.58
   4  16 -12    1.95    3.06
  -4  16  12    2.81    6.57
  -4  16  12    6.33    4.68
  -3  16  12   11.08    6.59
  -3  16  12   10.64    4.68
   3  16 -12   13.57    2.74
   2  16 -12   22.06    2.60
   2  16 -12   22.76    3.10
  -2  16  12   22.11    4.88
  -2  16  12   25.22    6.43
   1 -16 -12   17.40    3.96
  -1  16  12   10.47    4.29
  -1  16  12   23.31    6.77
   1  16 -12   23.09    2.78
   0 -16 -12    4.55    3.31
   0  16  12    0.80    5.47
   0  16  12    0.20    2.13
   0  16  12    1.99    3.97
  -1 -16 -12    2.72    3.66
   1  16  12   -0.11    2.61
   1  16  12    3.20    4.11
  -1  16 -12    7.63    2.67
   1  16  12   -1.94    5.53
   2  16  12    4.24    3.05
   2  16  12   20.20    6.53
  -2  16 -12   14.22    3.53
   2  16  12   16.40    4.89
   3  16  12   34.78    6.27
   3  16  12   35.62    4.47
  -3  16 -12   48.44    5.29
   3  17 -12   -0.21    2.69
  -3  17  12   -0.17    4.76
   3  17 -12    3.86    1.98
  -3  17  12    1.46    3.21
  -3  17  12    6.98    6.51
  -2  17  12   -1.81    4.35
   2  17 -12   -2.07    1.79
  -2  17  12    1.37    2.80
  -2  17  12    1.97    5.62
   2  17 -12    0.74    2.19
   1  17 -12   14.71    2.62
   1  17 -12   19.04    2.45
  -1  17  12   12.42    4.61
  -1  17  12   21.27    6.76
  -1  17  12   13.05    3.22
   0 -17 -12   64.37    6.53
   0  17 -12   74.77    4.33
   0  17  12   61.10    7.25
   0  17  12   68.66    9.54
   0  17  12   75.50    5.24
  -1  17 -12    3.41    2.75
   1  17  12    6.59    4.64
   1  17  12    3.02    2.90
   1  17  12   10.56    6.14
  -2  17 -12   15.44    3.73
   2  17  12    1.79    6.00
   2  17  12    4.11    3.33
   2  17  12    9.79    5.11
  -3  18  12   11.97    4.20
   3  18 -12    6.60    3.25
  -3  18  12    4.23    5.36
  -3  18  12   15.94    7.02
   3  18 -12    2.91    2.57
  -2  18  12   15.41    6.37
  -2  18  12    7.19    5.07
   2  18 -12   14.05    2.81
  -2  18  12   13.30    3.59
  -1  18  12   -2.84    4.54
   1  18 -12   -0.54    2.08
  -1  18  12   -8.84    5.84
   1  18 -12   -0.95    1.82
  -1  18  12    2.16    3.17
   1  18 -12   -1.27    2.39
   0  18  12    5.32    4.59
   0  18  12    0.60    3.00
   0  18  12    2.67    5.89
   0  18 -12    8.51    2.53
   1  18  12   12.68    3.49
   1  18  12   17.14    6.86
   1  18  12   11.89    5.15
  -1  18 -12   13.35    3.31
   2  18  12   14.59    5.64
  -2  18 -12   27.66    4.16
   2  18  12   25.45    4.65
   2  18  12   34.15    8.04
  -2  19  12    2.58    3.82
   2  19 -12    0.54    2.28
  -2  19  12   -2.98    5.18
   2  19 -12    4.83    2.98
  -2  19  12    0.84    6.42
   1  19 -12   16.09    2.78
  -1  19  12   16.59    4.11
   1  19 -12   12.26    2.36
  -1  19  12    8.40    6.80
  -1  19  12   24.04    5.78
   1  19 -12   13.30    2.90
   0  19 -12   33.13    4.44
   0  19  12   30.23    5.83
   0  19  12   21.23    6.81
   0  19  12   28.74    4.04
   1  19  12   -1.10    3.40
   1  19  12    4.13    5.13
  -1  19 -12    3.45    3.30
   1  19  12    1.11    6.63
  -6   0  13    3.71    3.80
   5   0 -13   16.89    2.49
  -5   0  13   15.75    3.70
   4   0 -13    0.97    1.47
  -4   0  13    0.52    2.97
   3   0 -13   86.59    3.27
  -3   0  13   90.16    5.79
   3   0 -13   79.57    4.24
  -2   0  13    0.53    2.81
   2   0 -13    1.57    2.17
   2   0 -13   -0.42    1.24
   1   0 -13  103.72    4.16
   1   0 -13  115.33    5.48
   0   0 -13   -1.32    2.63
   0   0 -13   -2.70    1.64
  -1   0 -13  106.66    4.98
  -1   0 -13  104.68    6.29
  -2   0 -13    2.11    3.76
  -2   0 -13    2.78    2.46
   3   0  13   45.36    3.02
  -3   0 -13   53.75    5.18
  -4   0 -13    5.72    3.48
   4   0  13   -1.32    2.23
   5   0  13    5.41    3.20
   6  -1 -13    2.33    2.77
  -6  -1  13    7.41    3.61
  -6   1  13    5.23    4.04
   6   1 -13    3.88    2.77
  -5  -1  13   10.58    3.40
   5  -1 -13   10.15    2.29
   5   1 -13    6.88    2.21
  -5   1  13   10.24    3.81
   4  -1 -13   29.59    2.70
  -4  -1  13   41.45    4.74
   4   1 -13   32.01    2.56
  -4   1  13   31.46    4.17
   3  -1 -13   -0.25    1.26
  -3  -1  13    1.29    2.78
   3  -1 -13   -0.46    2.09
   3   1 -13   -2.04    1.84
   3   1 -13   -0.17    1.10
  -3   1  13    2.43    3.06
   2  -1 -13    2.12    2.14
   2  -1 -13    0.61    1.42
   2   1 -13    1.63    1.19
   2   1 -13   -0.29    1.87
  -2   1  13   -0.48    2.94
   1  -1 -13    1.19    1.58
   1  -1 -13    2.69    2.53
   1   1 -13    1.86    1.46
   1   1 -13   -1.17    2.16
   0  -1 -13   77.38    4.03
   0  -1 -13   82.01    5.40
   0   1 -13   66.81    5.10
   0   1 -13   72.20    3.87
  -1  -1 -13   43.56    4.98
  -1  -1 -13   30.89    3.59
  -1   1 -13   26.46    3.33
  -1   1 -13   31.01    4.34
  -2  -1 -13   -2.99    2.45
  -2  -1 -13   -1.51    3.53
   2   1  13   -0.18    0.87
  -2   1 -13    4.48    3.76
   2   1  13   -1.05    1.00
   3  -1  13    7.70    1.63
  -3  -1 -13    7.93    3.18
   3   1  13    7.74    1.95
  -3   1 -13   13.56    3.22
   4  -1  13    0.16    2.09
  -4  -1 -13    0.82    3.64
   4   1  13    7.57    2.57
  -4   1 -13    2.70    3.43
   5  -1  13    4.01    2.96
   5   1  13    0.40    3.14
   6  -2 -13    5.87    2.88
  -6  -2  13    5.94    3.21
   6   2 -13    5.95    2.66
  -6   2  13    4.65    4.44
  -5  -2  13    8.36    3.06
   5  -2 -13    5.99    2.19
   5   2 -13    8.38    2.24
  -5   2  13   10.60    4.06
   4  -2 -13    2.02    1.56
  -4  -2  13    2.49    2.78
   4   2 -13   -0.13    1.34
  -4   2  13    1.76    3.42
   3  -2 -13    9.83    1.72
   3  -2 -13    8.25    2.55
   3   2 -13   10.53    1.29
   3   2 -13    8.18    2.09
  -3   2  13   13.20    3.69
   2  -2 -13    1.74    2.28
   2  -2 -13    1.83    1.45
   2   2 -13    1.77    1.18
  -2   2  13    1.53    3.16
   2   2 -13    0.93    1.86
   1  -2 -13   73.20    3.76
   1  -2 -13   76.95    4.87
  -1   2  13   75.19    5.78
   1   2 -13   68.60    3.24
   1   2 -13   69.49    4.64
   0  -2 -13   42.98    3.56
   0  -2 -13   40.28    4.69
   0   2 -13   45.45    3.21
   0   2 -13   50.98    4.73
  -1  -2 -13   14.06    2.72
  -1  -2 -13   17.69    3.75
  -1   2 -13   12.39    2.44
  -1   2 -13   14.77    3.67
  -2  -2 -13   17.45    3.09
  -2  -2 -13   18.99    4.07
  -2   2 -13   18.23    3.08
   2   2  13   20.03    1.84
   2   2  13   15.31    2.07
  -2   2 -13   24.85    4.29
   3  -2  13   62.92    2.82
  -3  -2 -13   56.19    5.67
   3   2  13   60.89    3.73
  -3   2 -13   63.13    5.45
   4  -2  13    3.99    2.07
  -4  -2 -13    7.41    3.99
  -4   2 -13    5.86    3.60
   4   2  13    3.69    2.62
   5  -2  13    4.90    2.91
   5   2  13    2.53    3.34
   6  -3 -13   10.44    3.17
   6   3 -13   14.89    2.96
  -6   3  13   15.99    5.00
   5  -3 -13    4.09    2.17
  -5   3  13    3.95    4.05
   5   3 -13    1.63    1.91
   4  -3 -13   44.78    3.29
   4   3 -13   46.66    2.66
  -4   3  13   45.13    5.83
   3  -3 -13    0.36    2.26
   3  -3 -13    7.08    1.63
   3   3 -13    3.55    1.07
  -3   3  13    5.39    3.41
   2  -3 -13   33.60    2.85
   2  -3 -13   35.49    3.84
   2   3 -13   31.75    2.00
  -2   3  13   36.53    4.53
   2   3 -13   32.38    3.18
   1  -3 -13   10.72    2.91
   1  -3 -13   13.03    2.20
   1   3 -13   10.55    2.55
  -1   3  13    5.66    3.39
   1   3 -13   13.00    1.78
   0  -3 -13  121.42    5.16
   0  -3 -13  124.82    6.30
   0   3 -13  116.32    4.46
   0   3 -13  116.12    6.10
  -1  -3 -13    7.32    3.31
  -1   3 -13    0.65    3.27
  -1   3 -13    1.70    1.92
  -2  -3 -13   69.54    5.07
  -2  -3 -13   83.26   10.26
   2   3  13   71.74    3.00
   2   3  13   67.72    3.29
  -2   3 -13   76.15    6.23
  -2   3 -13   68.09    4.87
   3  -3  13    2.85    1.24
  -3  -3 -13    2.07    3.12
  -3   3 -13   -0.73    2.82
   3   3  13    3.36    2.05
   4  -3  13   42.82    3.36
  -4  -3 -13   47.87    5.52
   4   3  13   50.31    4.61
  -4   3 -13   49.24    6.20
   5   3  13   -0.71    3.28
   6  -4 -13    7.62    3.09
  -6   4  13   10.08    5.11
   6   4 -13    5.91    2.83
   5  -4 -13   -0.07    2.22
  -5   4  13    5.82    4.42
   5   4 -13    3.64    1.96
   4  -4 -13    5.62    2.06
   4   4 -13    5.52    1.46
  -4   4  13    4.20    3.90
   3  -4 -13    6.66    1.77
   3  -4 -13    8.31    2.65
  -3   4  13    6.49    3.72
   3   4 -13    5.97    1.04
   3   4 -13    5.29    1.78
   2  -4 -13   19.89    3.11
   2  -4 -13   19.87    2.40
   2   4 -13   19.16    2.53
  -2   4  13   19.44    4.08
   2   4 -13   16.54    1.59
   1  -4 -13   12.21    2.86
   1  -4 -13   15.94    2.43
   1   4 -13   12.82    2.55
  -1   4  13   10.75    3.71
   1   4 -13   13.36    1.65
   0  -4 -13   20.19    2.75
   0  -4 -13   19.85    3.43
   0   4 -13   21.46    2.32
   0   4 -13   17.55    3.25
  -1  -4 -13   16.85    3.66
  -1  -4 -13   14.09    2.86
   1   4  13   12.96    1.67
  -1   4 -13   15.01    2.47
   1   4  13   10.51    1.39
  -1   4 -13   16.07    3.68
  -2  -4 -13   16.15    3.30
   2   4  13   17.20    2.15
  -2   4 -13   15.40    3.16
  -2   4 -13   19.04    4.28
   2   4  13   12.92    1.83
  -3  -4 -13   35.44    4.63
   3  -4  13   30.03    1.69
  -3   4 -13   33.60    4.06
   3   4  13   29.87    3.58
  -4  -4 -13    6.22    4.08
   4  -4  13   -0.59    1.78
  -4   4 -13   -0.89    3.66
   5  -4  13    5.76    3.42
   5   4  13   10.99    3.59
   6  -5 -13    6.97    3.09
  -6   5  13   -2.16    5.18
   6   5 -13    4.48    2.78
   5  -5 -13    0.51    3.97
   5   5 -13    4.73    1.92
  -5   5  13    1.35    4.49
   4  -5 -13   42.94    3.56
   4   5 -13   50.44    2.67
  -4   5  13   55.47    6.60
   3  -5 -13    1.47    1.72
   3  -5 -13    3.00    2.65
  -3   5  13    1.42    3.71
   3   5 -13   -0.71    1.54
   3   5 -13    0.57    0.85
   2  -5 -13   11.72    2.87
   2  -5 -13    9.12    1.97
  -2   5  13   13.64    4.23
   2   5 -13    9.52    1.07
   1  -5 -13    2.00    1.80
   1  -5 -13    3.83    2.61
  -1   5  13    3.35    3.32
   1   5 -13   -1.92    2.05
   1   5 -13   -0.60    1.14
   0  -5 -13   78.65    5.44
   0  -5 -13   64.20    4.37
   0   5 -13   67.95    5.17
   0   5 -13   63.83    3.36
   0   5  13   59.31    6.24
  -1  -5 -13    4.85    2.49
  -1  -5 -13    8.32    3.31
   1   5  13    3.76    1.17
  -1   5 -13    6.93    3.30
   1   5  13    0.22    1.37
  -1   5 -13    2.25    1.91
  -2  -5 -13    1.75    2.63
  -2   5 -13    5.41    2.75
   2   5  13    2.85    1.97
   2   5  13    1.02    1.53
  -2   5 -13    2.27    3.80
  -3  -5 -13   -0.29    3.19
  -3   5 -13    0.12    2.86
   3   5  13    1.81    2.38
  -4  -5 -13   32.66    5.22
   4  -5  13   31.99    2.93
   4   5  13   22.52    3.70
  -4   5 -13   48.53    6.37
   5  -5  13    1.46    2.62
   5   5  13    3.19    3.63
   6  -6 -13    5.30    3.19
  -6   6  13   18.66    5.94
   6   6 -13   11.31    2.92
   5  -6 -13   14.90    2.97
  -5   6  13   23.00    5.46
   5   6 -13   16.67    2.37
   4  -6 -13    3.10    2.09
  -4   6  13    3.50    4.29
   4   6 -13    0.83    1.35
   3  -6 -13   38.37    4.29
   3  -6 -13   29.39    3.16
   3   6 -13   30.08    1.51
   3   6 -13   26.79    2.41
  -3   6  13   34.42    5.10
   2  -6 -13    8.08    2.15
   2  -6 -13    8.35    2.99
  -2   6  13   11.91    4.18
   2   6 -13    9.00    2.03
   1  -6 -13   99.88    5.79
   1  -6 -13  101.47    4.90
   1   6 -13  109.23    3.48
  -1   6  13  121.98    7.32
   1   6 -13  111.16    5.17
   0  -6 -13   69.57    4.61
   0  -6 -13   68.93    5.42
   0   6 -13   64.46    3.41
   0   6 -13   66.36    5.21
   0   6  13   69.70    2.34
   0   6  13   71.80    6.75
   0   6  13   71.68    2.60
  -1  -6 -13   14.21    3.76
  -1  -6 -13   16.06    2.94
  -1   6 -13   15.83    2.53
   1   6  13   12.45    2.02
   1   6  13   16.42    1.79
  -1   6 -13   17.80    3.75
  -2  -6 -13    2.80    2.80
  -2   6 -13   -5.06    3.69
   2   6  13    5.50    2.20
  -2   6 -13    2.09    2.54
   2   6  13    3.10    1.68
  -3  -6 -13   89.16    6.46
  -3   6 -13  100.83    6.21
   3   6  13   83.37    5.14
   4  -6  13   13.80    2.03
  -4  -6 -13   11.83    4.43
  -4   6 -13   17.19    4.33
   4   6  13   14.30    3.56
   5  -6  13    5.75    2.68
   5   6  13    3.02    3.71
   6  -7 -13    5.39    3.47
  -6   7  13    8.58    6.18
   6   7 -13    4.06    2.83
   5  -7 -13    4.44    2.82
   5   7 -13    3.00    1.98
  -5   7  13    5.33    5.20
   4  -7 -13    2.41    2.38
   4   7 -13    2.04    1.32
  -4   7  13    2.31    4.37
   3  -7 -13    3.33    2.82
   3  -7 -13   11.11    2.31
  -3   7  13    3.91    4.20
   3   7 -13    8.60    1.50
   2  -7 -13   18.01    3.16
   2  -7 -13   11.63    2.39
  -2   7  13   18.58    4.44
   2   7 -13   17.85    2.23
   1  -7 -13   12.53    3.24
   1  -7 -13    5.94    2.22
   1   7 -13   14.10    2.54
  -1   7  13    7.21    3.93
   1   7 -13    9.67    1.35
   0  -7 -13   22.89    3.88
   0  -7 -13   14.80    2.72
   0   7 -13   23.12    3.48
   0   7 -13   13.72    2.05
   0   7  13   22.33    4.69
   0   7  13   15.30    1.89
   0   7  13   17.47    1.97
  -1  -7 -13   72.08    5.24
  -1   7 -13   83.29    5.85
   1   7  13   77.23    3.34
   1   7  13   80.19    4.11
  -1   7 -13   75.89    4.23
  -2  -7 -13    3.07    3.13
   2   7  13    2.16    3.96
  -2   7 -13    7.73    3.71
  -2   7 -13    1.92    2.51
   2   7  13    2.48    1.88
  -3  -7 -13    0.93    3.16
  -3   7 -13   -0.78    2.97
   3   7  13   -1.90    2.71
  -4  -7 -13   10.41    4.54
   4  -7  13   11.31    1.84
   4   7  13    9.12    3.60
  -4   7 -13   12.85    4.17
   5  -8 -13   11.38    3.14
   5   8 -13   12.96    2.35
  -5   8  13   14.50    5.58
   4  -8 -13    1.70    2.32
  -4   8  13    2.48    4.60
   4   8 -13    0.12    1.43
   3  -8 -13   19.61    3.33
   3  -8 -13   24.41    2.86
   3   8 -13   19.09    1.73
  -3   8  13   30.86    5.38
   2  -8 -13   -0.81    2.10
   2  -8 -13    4.77    3.05
   2   8 -13    2.24    1.76
  -2   8  13   -6.80    3.94
   1  -8 -13   18.69    3.73
   1  -8 -13   16.59    2.75
   1   8 -13   19.94    2.93
  -1   8  13   16.23    1.84
  -1   8  13   16.00    1.83
  -1   8  13   22.11    5.00
   1   8 -13   15.42    1.70
   0  -8 -13    0.50    2.23
   0  -8 -13    4.55    3.21
   0   8  13    1.23    1.79
   0   8 -13    4.53    2.79
   0   8  13    6.74    4.30
   0   8  13    1.22    1.38
   0   8 -13    0.26    1.50
  -1  -8 -13   22.16    3.42
  -1   8 -13   22.24    4.15
   1   8  13   21.46    2.55
  -1   8 -13   28.46    2.98
   1   8  13   29.64    3.56
  -2  -8 -13    4.00    3.25
  -2   8 -13    5.97    3.96
   2   8  13   -0.45    1.89
   2   8  13   -0.12    2.32
  -2   8 -13   -4.88    2.39
  -3  -8 -13    9.63    3.75
  -3   8 -13   15.20    3.79
   3   8  13   16.96    5.17
   4  -8  13    1.42    1.42
   4   8  13    3.21    3.57
  -4   8 -13   -2.11    3.79
   5  -9 -13   12.38    3.36
  -5   9  13   12.14    6.85
   5   9 -13   19.80    2.62
   4  -9 -13   23.89    3.20
   4   9 -13   23.24    2.40
  -4   9  13   20.25    5.46
  -3   9  13    9.83    4.63
   2  -9 -13    6.52    3.60
   2  -9 -13    3.94    2.43
  -2   9  13    4.85    1.50
   2   9 -13    7.06    1.82
  -2   9  13    3.71    1.30
  -2   9  13    2.39    4.51
   1  -9 -13   10.25    3.60
   1  -9 -13   13.28    2.94
  -1   9  13   14.16    1.78
  -1   9  13   12.83    2.08
   1   9 -13   21.53    2.92
  -1   9  13   13.69    4.94
   1   9 -13   14.27    1.73
   0  -9 -13  108.04    5.76
   0   9  13  111.08    4.89
   0   9  13  112.88    4.18
   0   9 -13  110.77    5.95
   0   9 -13  109.70    4.15
   0   9  13  111.37    7.73
  -1  -9 -13   40.37    4.95
  -1   9 -13   48.65    5.22
   1   9  13   44.89    4.18
   1   9  13   56.08    6.72
  -1   9 -13   44.75    3.67
   1   9  13   42.15    3.17
  -2  -9 -13   18.44    4.06
  -2   9 -13   27.33    4.94
   2   9  13   18.95    3.45
  -2   9 -13   18.02    3.05
   2   9  13   12.84    3.94
  -3  -9 -13    0.55    3.69
  -3   9 -13    1.57    3.34
   3   9  13    5.96    3.25
   3   9  13    7.78    2.73
  -4   9 -13   49.68    6.78
   4   9  13   56.68    6.55
   5 -10 -13    0.43    3.18
  -5  10  13   -4.63    5.93
   5  10 -13    1.74    2.32
   4 -10 -13    3.28    2.67
  -4  10  13    1.96    5.02
   4  10 -13   -0.17    1.75
   3 -10 -13    5.42    2.70
  -3  10  13    2.80    4.82
  -3  10  13    5.98    1.61
  -3  10  13    7.52    1.82
   2 -10 -13   35.73    4.08
  -2  10  13   39.40    2.81
   2  10 -13   40.65    2.88
  -2  10  13   36.87    3.16
  -2  10  13   39.62    6.25
   1 -10 -13   12.37    2.88
   1  10 -13   11.46    1.51
  -1  10  13   13.20    2.41
  -1  10  13   13.36    1.97
  -1  10  13   12.40    4.80
   1  10 -13   15.93    2.77
   0 -10 -13    3.34    2.57
   0  10 -13    6.29    3.02
   0  10  13    0.34    2.17
   0  10  13    0.95    1.71
   0  10 -13    1.87    1.61
   0  10  13    4.04    4.53
  -1 -10 -13   11.49    3.23
   1  10  13    7.53    2.13
   1  10  13   14.69    5.38
  -1  10 -13   12.74    3.80
   1  10  13   10.16    2.93
  -1  10 -13   13.56    2.52
  -2 -10 -13   37.55    4.80
  -2  10 -13   40.83    4.49
   2  10  13   30.97    4.06
   2  10  13   33.12    3.75
  -3 -10 -13    7.43    4.04
  -3  10 -13    2.11    3.39
   3  10  13    2.52    3.46
   4  10  13   11.74    4.29
  -4  10 -13   13.15    4.50
   5 -11 -13   -1.00    3.35
  -5  11  13   -1.17    6.37
   5  11 -13    5.08    2.55
   4 -11 -13   13.80    3.33
  -4  11  13   23.17    3.02
   4  11 -13   18.99    2.21
  -4  11  13   25.68    3.32
  -3  11  13    5.64    2.28
  -3  11  13    2.36    5.11
  -3  11  13    2.39    1.89
   3  11 -13    3.62    1.34
   2 -11 -13   -0.10    2.59
  -2  11  13   10.42    5.15
  -2  11  13    5.85    2.26
   2  11 -13    5.51    1.67
  -2  11  13   -0.51    1.83
   1 -11 -13   -2.74    2.52
  -1  11  13   -0.21    1.79
   1  11 -13    4.21    2.43
  -1  11  13    5.88    4.82
  -1  11  13    0.91    2.34
   1  11 -13    1.73    1.26
   0 -11 -13   40.17    4.81
   0  11  13   57.71    7.70
   0  11 -13   45.77    3.12
   0  11 -13   47.75    4.95
   0  11  13   49.21    3.57
   0  11  13   45.88    4.46
  -1 -11 -13    0.21    3.25
  -1  11 -13    4.75    2.27
  -1  11 -13   13.52    3.74
   1  11  13    2.61    5.08
   1  11  13    7.90    3.00
  -2 -11 -13   -2.99    3.34
   2  11  13    1.80    2.35
  -2  11 -13    4.96    2.71
  -3 -11 -13   -7.13    3.84
   3  11  13    2.34    2.61
   3  11  13   -0.49    3.69
  -3  11 -13    2.28    3.45
   4  11  13    4.70    4.38
  -4  11 -13   14.49    4.65
   5 -12 -13   -6.05    3.33
   5  12 -13    3.47    2.87
  -5  12  13   -1.34    6.16
   4 -12 -13    5.07    3.23
  -4  12  13    3.63    2.48
   4  12 -13    4.72    2.05
  -4  12  13   -2.06    2.68
  -4  12  13    3.21    5.77
   3  12 -13    5.16    1.55
  -3  12  13    6.16    2.45
  -3  12  13   10.49    2.84
  -2  12  13   55.87    4.42
   2  12 -13   50.31    2.23
  -2  12  13   50.35    7.12
   2  12 -13   58.62    2.91
  -2  12  13   52.27    3.79
   2  12 -13   49.69    2.31
   1 -12 -13   50.68    4.76
  -1  12  13   54.90    7.28
   1  12 -13   44.18    2.57
   1  12 -13   58.15    4.29
  -1  12  13   41.85    4.41
  -1  12  13   47.75    3.75
   0 -12 -13   20.56    3.60
   0  12  13   22.61    5.94
   0  12 -13   27.66    3.93
   0  12  13   19.32    3.36
   0  12  13   16.95    2.63
   0  12 -13   19.09    2.34
  -1 -12 -13   28.50    4.11
  -1  12 -13   16.53    4.15
  -1  12 -13   25.63    3.10
   1  12  13   30.33    4.05
   1  12  13   28.99    3.59
  -2 -12 -13    2.46    3.51
  -2  12 -13   12.80    3.25
   2  12  13    6.39    3.72
   3  12  13   38.01    4.09
   3  12  13   43.94    5.34
  -3  12 -13   52.59    6.02
   4  12  13   24.52    5.11
   4 -13 -13   -1.94    3.32
   4  13 -13   -2.24    2.13
  -4  13  13    2.33    2.88
  -4  13  13    4.23    3.33
  -4  13  13    3.42    6.30
  -3  13  13   11.44    3.21
  -3  13  13    9.72    6.34
  -3  13  13    8.40    2.78
   3  13 -13   10.30    1.83
   2  13 -13    0.61    1.27
   2  13 -13    4.08    1.54
   2  13 -13    1.65    1.22
  -2  13  13    1.49    2.43
  -2  13  13   -0.20    2.90
  -2  13  13    0.09    8.92
   1 -13 -13   12.59    3.41
  -1  13  13   13.39    3.24
  -1  13  13    9.92    2.52
   1  13 -13   17.26    2.83
   1  13 -13   11.82    1.74
   0 -13 -13   24.25    4.15
   0  13  13   17.37    3.78
   0  13 -13   25.07    3.88
   0  13 -13   26.97    3.07
   0  13  13   30.31    3.24
  -1 -13 -13   19.80    4.01
  -1  13 -13   28.01    4.35
   1  13  13   15.32    5.00
   1  13  13   27.58    3.75
  -1  13 -13   19.50    3.81
   1  13  13   30.24    6.84
  -2 -13 -13   -0.76    3.94
   2  13  13    0.65    2.25
  -2  13 -13    4.36    2.92
   2  13  13    2.70    3.81
   3  13  13    8.41    4.42
  -3  13 -13   13.54    4.01
   3  13  13    6.97    3.12
   4 -14 -13   -2.20    3.50
  -4  14  13    8.56    3.89
   4  14 -13    9.92    2.61
  -4  14  13   12.67    3.97
  -4  14  13    4.34    6.69
  -3  14  13   16.20    6.30
  -3  14  13   12.42    3.73
   3  14 -13   18.32    2.32
  -3  14  13   22.58    3.39
   2  14 -13    6.11    1.39
   2  14 -13    1.72    1.62
  -2  14  13    8.95    3.55
   2  14 -13    5.13    1.41
  -2  14  13    3.17    5.56
   1 -14 -13   12.10    3.67
  -1  14  13    8.00    3.32
  -1  14  13    6.59    2.64
   1  14 -13   14.09    2.86
   1  14 -13    9.11    1.77
  -1  14  13    1.98    5.45
   0 -14 -13    2.42    3.28
   0  14  13    1.22    4.30
   0  14 -13    5.95    3.54
   0  14 -13    3.59    2.04
   0  14  13    3.77    5.52
   0  14  13    2.04    2.44
  -1 -14 -13   -5.94    3.43
  -1  14 -13    8.84    4.19
   1  14  13   -0.09    3.54
   1  14  13    2.64    5.71
  -1  14 -13    1.62    2.34
   2  14  13   19.73    4.59
  -2  14 -13   18.01    3.67
   2  14  13   14.48    3.06
   3  14  13    0.15    4.69
  -3  14 -13   17.49    4.29
   3  14  13    8.57    3.35
  -4  15  13    2.91    4.41
  -4  15  13   -5.01    6.80
   4  15 -13   -1.00    2.80
  -3  15  13   31.75    4.66
  -3  15  13   37.09    7.26
   3  15 -13   37.17    3.52
   3  15 -13   37.30    2.72
  -2  15  13    5.37    3.03
  -2  15  13    6.00    4.00
   2  15 -13    1.37    1.53
  -2  15  13    8.61    6.58
   1 -15 -13   22.45    4.08
   1  15 -13   23.61    2.84
  -1  15  13   27.56    7.00
   1  15 -13   30.40    4.26
  -1  15  13   21.96    3.24
   0 -15 -13   17.76    3.98
   0  15 -13   23.64    2.76
   0  15  13   14.29    4.27
   0  15  13   23.38    6.50
   0  15 -13   16.94    3.98
  -1 -15 -13   51.39    6.42
   1  15  13   51.58    6.70
  -1  15 -13   58.78    4.71
   1  15  13   52.59    7.71
   2  15  13   10.44    4.42
  -2  15 -13    1.53    3.33
   2  15  13    0.25    5.99
   2  15  13    1.19    2.88
   3  15  13   11.30    5.32
   3  15  13    8.06    3.61
  -3  15 -13    7.22    4.39
   3  16 -13    2.34    1.73
  -3  16  13    2.87    4.42
  -3  16  13    4.36    6.30
  -2  16  13   14.15    6.79
  -2  16  13   10.83    3.53
   2  16 -13   13.99    1.95
   2  16 -13    9.23    2.23
  -2  16  13   13.32    4.46
   1 -16 -13   -5.47    3.49
  -1  16  13    6.86    6.23
   1  16 -13    9.80    3.04
  -1  16  13    3.23    4.14
   1  16 -13    0.83    1.88
   0  16 -13    3.70    2.65
   0  16  13    0.08    2.48
   0  16  13   -6.41    5.85
   0  16  13    1.85    3.96
   0  16 -13    3.47    3.97
   1  16  13   16.67    6.68
  -1  16 -13    3.66    2.90
   1  16  13   11.12    4.59
   2  16  13   33.45    7.67
   2  16  13   29.34    5.60
   2  16  13   15.93    3.57
  -2  16 -13   28.39    4.34
   2  17 -13    2.32    2.32
   2  17 -13    1.21    1.94
  -2  17  13    2.00    6.46
  -2  17  13   -1.01    3.52
  -2  17  13   -3.21    4.39
   1  17 -13   -1.96    2.17
  -1  17  13    0.02    6.22
  -1  17  13    0.57    4.43
  -1  17  13    4.04    3.16
   1  17 -13   -1.36    2.08
   0  17  13    9.94    3.44
   0  17  13   15.93    4.92
   0  17  13   17.90    6.52
   0  17 -13    7.06    2.74
   1  17  13   -3.47    4.47
   1  17  13    5.37    6.48
   1  17  13    8.32    3.19
  -1  17 -13    3.59    3.15
   2  18 -13   23.97    3.13
  -2  18  13    6.49    6.99
  -2  18  13   14.63    5.29
  -2  18  13   31.40    4.26
   1  18 -13    3.48    2.45
   1  18 -13   -1.15    2.53
  -1  18  13   -0.68    4.81
  -1  18  13   -2.11    6.17
  -1  18  13    8.90    3.78
   1  18 -13   -0.18    2.01
   0  18 -13    6.39    2.92
   0  18  13    1.95    4.77
   0  18  13    7.35    6.59
   0  18  13    9.16    3.55
   1  18  13   16.34    3.75
   1  18  13    8.96    5.31
   1  18  13   10.63    6.88
  -1  18 -13   16.04    3.76
  -6   0  14    8.89    4.41
   6   0 -14   15.02    3.37
  -5   0  14    2.90    3.75
   5   0 -14    0.55    2.17
   4   0 -14    0.43    1.59
  -4   0  14    0.82    3.42
   3   0 -14   -0.52    1.29
  -3   0  14   -2.32    3.21
   3   0 -14   -3.38    2.18
   2   0 -14    3.54    1.59
   2   0 -14    6.61    2.47
   1   0 -14    2.40    1.73
   1   0 -14    2.53    2.70
   0   0 -14   -2.35    2.83
   0   0 -14    2.11    1.98
  -1   0 -14   -1.33    2.23
  -1   0 -14    2.05    3.75
  -2   0 -14    6.06    2.76
  -3   0 -14    1.57    3.19
   3   0  14    0.30    1.36
   3   0  14    1.47    1.46
  -4   0 -14   59.76    6.94
   4   0  14   57.76    4.09
   6  -1 -14    4.99    2.96
  -6  -1  14   11.96    4.09
  -6   1  14    2.90    4.57
   5  -1 -14   17.92    2.66
  -5  -1  14   15.42    3.88
   5   1 -14   14.46    2.36
  -5   1  14   17.11    4.42
   4  -1 -14    3.76    1.74
  -4  -1  14    6.12    3.45
  -4   1  14    3.48    3.66
   4   1 -14    4.36    1.63
   3  -1 -14   18.96    1.98
   3  -1 -14   11.98    2.73
   3   1 -14   20.09    2.79
  -3   1  14   16.57    4.11
   3   1 -14   15.09    1.97
   2  -1 -14   15.40    2.91
   2  -1 -14   17.23    2.06
   2   1 -14   15.99    1.85
   2   1 -14   17.61    2.90
  -2   1  14   16.58    3.92
   1  -1 -14   44.05    4.52
   1  -1 -14   37.14    3.28
   1   1 -14   44.33    3.14
   1   1 -14   36.19    4.40
   0  -1 -14    6.70    3.16
   0  -1 -14   -0.30    1.88
   0   1 -14    2.54    3.24
   0   1 -14   -0.29    1.85
  -1  -1 -14   69.97    5.90
  -1   1 -14   64.97    5.88
  -1   1 -14   51.15    4.18
  -2  -1 -14    0.15    2.70
  -2   1 -14    5.14    2.80
   3  -1  14    3.14    1.19
  -3  -1 -14    9.75    3.56
   3  -1  14    4.09    1.27
  -3   1 -14    5.86    3.41
   3   1  14    2.45    1.55
   3   1  14    2.84    1.73
   4  -1  14   16.25    2.57
  -4  -1 -14   11.72    4.23
   4   1  14   16.11    2.84
  -4   1 -14    8.93    4.33
   6  -2 -14    8.19    3.15
   6   2 -14    4.87    2.85
   5  -2 -14   -0.03    2.25
  -5   2  14    5.96    4.27
   5   2 -14   -0.53    1.89
   4  -2 -14    2.46    1.80
  -4   2  14    2.13    3.77
   4   2 -14    4.74    1.58
   3  -2 -14   12.03    1.90
   3  -2 -14    6.08    2.76
   3   2 -14   13.55    2.52
   3   2 -14   13.31    1.77
  -3   2  14   12.99    4.14
   2  -2 -14  156.68    5.34
   2  -2 -14  149.35    6.41
   2   2 -14  164.23    4.75
   2   2 -14  162.81    6.08
  -2   2  14  171.74    8.20
   1  -2 -14   -1.07    1.81
   1  -2 -14    4.11    2.77
   1   2 -14   -2.31    1.53
   1   2 -14    0.75    2.45
   0  -2 -14   54.15    4.06
   0  -2 -14   58.47    5.34
   0   2 -14   60.29    5.19
   0   2 -14   51.95    3.62
  -1  -2 -14   -1.20    2.17
  -1  -2 -14    4.82    3.43
  -1   2 -14    0.24    2.13
  -1   2 -14    3.56    3.33
  -2  -2 -14  109.57    6.21
  -2   2 -14  113.55    5.81
   2   2  14  113.11    3.13
   2   2  14  104.00    2.95
  -3  -2 -14    2.52    3.59
   3   2  14    4.28    1.95
   3   2  14    4.67    1.77
  -3   2 -14    4.74    3.29
  -4  -2 -14    6.88    4.59
   4  -2  14    5.47    2.09
  -4   2 -14    4.24    4.08
   4   2  14    9.52    2.85
   5  -3 -14    0.00    2.36
   5   3 -14    5.71    2.07
  -5   3  14   -0.91    4.38
   4  -3 -14    2.71    1.93
  -4   3  14    8.67    4.18
   4   3 -14    4.81    1.54
   3  -3 -14   49.97    3.10
   3  -3 -14   38.26    4.33
   3   3 -14   43.63    2.15
  -3   3  14   56.62    6.17
   3   3 -14   43.50    3.51
   2  -3 -14    7.30    2.79
   2  -3 -14   -0.61    1.65
  -2   3  14   -4.26    3.59
   2   3 -14    1.69    2.10
   2   3 -14    1.86    1.30
   1  -3 -14   -0.03    1.82
   1  -3 -14    3.22    2.80
  -1   3  14   -1.55    3.41
   1   3 -14    4.58    2.62
   1   3 -14    2.73    1.58
   0  -3 -14    6.77    2.38
   0  -3 -14    7.85    3.26
   0   3 -14    5.40    1.99
   0   3 -14   15.59    3.50
  -1  -3 -14   72.46    4.96
  -1   3 -14   84.50    6.42
  -1   3 -14   75.55    4.48
  -2  -3 -14   -0.66    2.70
  -2   3 -14    0.26    2.52
   2   3  14    1.15    1.34
   2   3  14    0.11    1.17
  -3  -3 -14   -4.02    3.33
   3   3  14   -0.02    1.79
  -3   3 -14    6.38    3.35
   3   3  14    1.76    1.99
   4  -3  14    6.88    1.97
  -4  -3 -14    8.21    4.44
   4   3  14    4.33    2.77
  -4   3 -14    1.98    3.70
  -5   4  14   -0.69    4.74
   5   4 -14   -1.07    1.90
   4  -4 -14    8.12    2.20
  -4   4  14    6.08    4.49
   4   4 -14    5.73    1.43
   3  -4 -14    4.41    2.80
   3  -4 -14    2.63    1.80
   3   4 -14    0.18    0.95
  -3   4  14    2.18    3.86
   3   4 -14    1.97    2.01
   2  -4 -14   51.61    3.55
   2  -4 -14   66.91    4.82
   2   4 -14   57.25    3.79
  -2   4  14   57.69    6.47
   2   4 -14   50.52    2.40
   1  -4 -14    7.88    3.11
   1  -4 -14   13.55    2.41
   1   4 -14    7.82    1.74
  -1   4  14    5.90    3.83
   1   4 -14   12.48    2.70
   0  -4 -14    3.04    3.24
   0   4 -14    2.46    2.95
   0   4 -14   -0.50    1.74
  -1  -4 -14    9.03    2.86
  -1   4 -14    9.52    3.86
  -1   4 -14    8.51    2.38
  -2  -4 -14   54.23    5.45
   2   4  14   57.86    2.81
   2   4  14   59.65    3.19
  -2   4 -14   57.92    4.97
  -3  -4 -14   -2.72    3.57
  -3   4 -14    1.08    3.17
   3   4  14    1.00    1.98
   3   4  14    4.15    2.23
  -4  -4 -14    9.77    5.02
   4  -4  14   16.64    2.02
  -4   4 -14   24.59    4.58
   5  -5 -14   14.94    3.00
  -5   5  14   16.89    5.38
   5   5 -14   17.39    2.30
   4  -5 -14    9.82    2.45
   4   5 -14    8.61    1.52
  -4   5  14   14.55    5.08
   3  -5 -14   19.40    3.30
   3  -5 -14   23.97    3.08
   3   5 -14   18.75    1.42
   3   5 -14   19.83    2.71
  -3   5  14   25.59    4.88
   2  -5 -14    7.22    2.91
   2   5 -14    6.01    2.12
  -2   5  14    5.74    3.81
   1  -5 -14   19.76    3.42
  -1   5  14   11.28    4.32
   1   5 -14    8.85    1.66
   1   5 -14    7.37    2.64
   0  -5 -14   50.74    5.45
   0  -5 -14   54.32    4.51
   0   5 -14   62.78    5.31
   0   5 -14   59.98    3.52
  -1  -5 -14  105.00    5.82
   1   5  14   95.58    2.93
  -1   5 -14  108.70    6.64
   1   5  14  105.71    3.22
  -1   5 -14  105.80    5.04
  -2  -5 -14   24.71    3.94
  -2   5 -14   19.50    3.29
   2   5  14   17.63    2.42
   2   5  14   20.03    2.36
  -3  -5 -14   11.18    4.13
   3   5  14    8.08    2.28
  -3   5 -14    9.84    3.85
   3   5  14   10.04    2.69
   4  -5  14   17.52    2.20
  -4   5 -14   16.77    4.70
   4   5  14   22.42    3.68
   5  -6 -14   12.31    3.10
   5   6 -14   13.81    2.26
  -5   6  14   19.51    5.68
   4  -6 -14   17.22    2.74
  -4   6  14   12.97    5.23
   4   6 -14   17.32    2.06
   3  -6 -14    9.84    3.25
   3  -6 -14    2.24    2.05
   3   6 -14    2.82    1.62
  -3   6  14    5.24    4.16
   2  -6 -14   54.07    5.10
   2  -6 -14   47.89    3.73
  -2   6  14   54.59    6.45
   2   6 -14   48.76    3.61
   1  -6 -14    9.66    3.12
   1  -6 -14   13.61    2.68
  -1   6  14   15.31    4.60
   1   6 -14   18.34    2.18
   1   6 -14   17.80    2.93
   0  -6 -14   41.88    4.34
   0   6 -14   53.09    5.33
   0   6 -14   39.77    3.18
   0   6  14   50.47    6.64
  -1  -6 -14   14.20    3.06
   1   6  14   10.70    1.76
  -1   6 -14   13.41    2.48
   1   6  14   10.16    1.53
  -1   6 -14   14.20    3.55
  -2  -6 -14   15.46    3.94
   2   6  14   19.42    2.23
  -2   6 -14   27.70    3.58
   2   6  14   20.31    2.58
  -3  -6 -14   21.14    4.49
  -3   6 -14   23.63    4.09
   3   6  14   14.87    3.03
  -4   6 -14    3.40    4.17
   4   6  14   -0.17    3.22
   5  -7 -14   40.59    4.64
  -5   7  14   47.69    7.09
   5   7 -14   44.43    3.38
   4  -7 -14   10.79    2.68
  -4   7  14   17.01    5.66
   4   7 -14   15.40    1.99
   3  -7 -14   20.73    2.86
  -3   7  14   24.11    5.55
   3   7 -14   16.85    2.25
   2  -7 -14    6.77    2.30
   2  -7 -14    3.89    3.36
   2   7 -14    6.30    2.21
  -2   7  14    4.92    4.57
   1  -7 -14   32.05    7.03
   1  -7 -14   21.33    3.10
  -1   7  14   20.23    5.03
   1   7 -14   24.46    2.27
   1   7 -14   24.17    3.28
   0  -7 -14    8.86    2.69
   0   7 -14   13.07    3.43
   0   7 -14    3.67    1.97
   0   7  14    6.24    4.66
   0   7  14    6.53    1.04
   0   7  14    6.01    1.21
  -1  -7 -14   19.67    3.60
  -1   7 -14   26.30    3.11
   1   7  14   18.27    1.96
   1   7  14   19.07    2.35
  -1   7 -14   25.14    4.24
  -2  -7 -14   10.94    3.65
  -2   7 -14   16.07    3.21
   2   7  14    9.08    2.49
   2   7  14    9.06    2.14
  -3  -7 -14   11.97    4.18
   3   7  14    9.45    2.51
   3   7  14    9.50    3.06
  -3   7 -14   17.53    3.97
  -4   7 -14   11.45    4.60
   4   7  14   -3.30    3.24
   5  -8 -14   -4.54    2.87
  -5   8  14   -6.08    8.84
   5   8 -14    2.74    2.07
   4  -8 -14    4.93    2.66
  -4   8  14    3.68    5.29
   4   8 -14    5.07    1.40
  -3   8  14   39.54    6.04
   3   8 -14   36.74    2.22
   2  -8 -14   17.41    2.92
   2   8 -14   18.32    3.57
  -2   8  14   14.38    4.96
   1  -8 -14   22.61    3.29
   1   8 -14   21.55    2.20
   1   8 -14   20.83    3.24
  -1   8  14   19.39    5.06
   0  -8 -14    8.34    2.92
   0   8 -14    3.93    1.92
   0   8 -14    8.36    3.30
   0   8  14    4.75    1.41
   0   8  14   10.89    4.65
   0   8  14    5.35    1.73
  -1  -8 -14    2.37    3.06
  -1   8 -14   11.01    2.48
   1   8  14    9.86    1.81
  -1   8 -14   14.77    4.08
   1   8  14   12.21    2.34
  -2  -8 -14   12.89    3.80
   2   8  14   14.21    2.35
   2   8  14   13.38    2.93
  -2   8 -14   24.83    3.54
  -3  -8 -14   18.08    4.55
  -3   8 -14   23.70    4.09
   3   8  14   15.99    2.86
  -4   8 -14    8.58    4.69
   4   8  14    2.85    3.70
   5  -9 -14    3.69    3.30
  -5   9  14    1.06    6.37
   5   9 -14    6.22    2.20
   4  -9 -14    6.45    2.97
   4   9 -14    5.30    1.44
  -4   9  14   10.13    5.78
  -3   9  14   33.70    6.04
   2  -9 -14    5.28    2.77
   2   9 -14    6.10    2.01
  -2   9  14    4.33    4.73
   1  -9 -14    6.86    2.73
  -1   9  14    8.16    1.65
   1   9 -14    8.29    1.54
  -1   9  14   11.07    5.16
   1   9 -14    3.11    2.55
  -1   9  14    7.14    1.33
   0  -9 -14    9.88    3.12
   0   9  14    9.67    2.24
   0   9 -14   16.85    3.68
   0   9 -14   14.64    2.24
   0   9  14   14.41    5.40
   0   9  14   11.95    1.85
  -1  -9 -14   23.59    3.95
   1   9  14   29.28    3.77
  -1   9 -14   28.96    3.26
  -1   9 -14   45.94    5.91
   1   9  14   25.52    2.89
  -2  -9 -14   13.96    4.30
  -2   9 -14   11.48    3.15
   2   9  14   15.29    3.23
  -3  -9 -14    5.50    4.11
  -3   9 -14   -3.83    3.43
   3   9  14    4.80    3.44
   3   9  14    0.49    3.15
   4   9  14   -0.48    3.90
  -4   9 -14    5.65    5.42
   5 -10 -14   -0.69    3.51
   4 -10 -14   -0.35    2.77
  -4  10  14   -4.82    5.49
   4  10 -14    5.85    1.62
  -3  10  14   14.82    5.53
   2 -10 -14   18.25    3.15
   2  10 -14   28.20    2.97
  -2  10  14   23.97    1.84
  -2  10  14   24.98    2.16
  -2  10  14   21.64    5.79
   1 -10 -14    0.80    2.85
  -1  10  14    8.35    5.28
  -1  10  14    4.78    1.67
  -1  10  14    5.45    2.11
   1  10 -14    3.09    1.41
   1  10 -14    8.29    2.80
   0 -10 -14    0.26    2.84
   0  10 -14    9.69    3.67
   0  10  14   -0.80    2.27
   0  10 -14   -3.04    1.81
   0  10  14   -2.45    5.04
   0  10  14    2.80    1.80
  -1 -10 -14   -0.08    3.21
   1  10  14   -4.85    5.10
   1  10  14   -0.19    2.67
  -1  10 -14    1.67    2.43
   1  10  14    0.09    1.89
  -2 -10 -14   75.55    6.55
   2  10  14   79.93    4.62
   2  10  14   83.77    5.81
  -2  10 -14   72.53    5.66
  -3  10 -14   54.25    6.63
   3  10  14   32.72    4.57
   4 -11 -14    9.71    3.19
  -4  11  14    8.40    6.63
   4  11 -14   13.40    2.02
  -3  11  14    0.72    6.29
   2 -11 -14    5.89    3.19
  -2  11  14    0.44    1.99
   2  11 -14    3.15    1.01
  -2  11  14    5.18    1.83
   2  11 -14    5.86    1.89
   1 -11 -14   10.29    3.18
   1  11 -14    7.57    1.55
  -1  11  14    6.68    2.37
  -1  11  14   10.23    2.04
   1  11 -14   14.83    2.95
   0 -11 -14   31.80    4.20
   0  11  14   45.45    3.51
   0  11  14   47.01   11.01
   0  11  14   39.81    4.33
   0  11 -14   47.88    3.35
   0  11 -14   57.93    5.56
  -1 -11 -14   14.36    3.79
   1  11  14   11.32    3.15
  -1  11 -14   21.56    4.69
   1  11  14   21.24    6.27
   1  11  14   16.42    3.37
  -1  11 -14   17.06    3.70
  -2 -11 -14   10.68    3.92
   2  11  14   12.98    2.81
  -2  11 -14   18.31    3.51
   2  11  14    0.92    6.12
   3  11  14    2.50    2.86
  -3  11 -14    2.48    4.22
   3  11  14    1.11    3.74
   4 -12 -14    5.94    3.46
   4  12 -14    8.18    2.11
  -4  12  14    1.90    6.53
  -3  12  14    6.42    2.31
  -3  12  14    4.78    2.16
   3  12 -14    2.27    1.49
  -3  12  14    5.47    6.17
  -2  12  14   20.72    6.45
  -2  12  14   18.76    2.54
   2  12 -14   17.59    1.73
  -2  12  14   21.07    2.86
   2  12 -14   19.51    2.72
   1 -12 -14   18.00    3.65
  -1  12  14   19.32    6.40
  -1  12  14   19.04    2.62
   1  12 -14   22.59    3.15
   1  12 -14   19.62    2.02
  -1  12  14   14.01    2.96
   0 -12 -14   10.80    3.64
   0  12  14    7.93    3.01
   0  12  14    6.62    5.78
   0  12 -14   10.35    3.81
   0  12 -14    4.57    2.01
   0  12  14    6.85    2.38
  -1 -12 -14    1.03    3.45
  -1  12 -14    2.11    2.47
   1  12  14    3.39    2.27
  -1  12 -14   10.01    4.43
   1  12  14    0.09    5.81
   1  12  14    1.72    3.40
  -2 -12 -14    6.97    5.18
  -2  12 -14    1.62    3.23
   2  12  14   -0.75    3.69
   3  12  14    2.81    4.26
  -3  12 -14   -1.04    4.08
   3  12  14    5.53    3.28
  -4  13  14    0.77    7.04
  -3  13  14   12.10    2.75
   3  13 -14   14.00    1.84
   3  13 -14   11.89    1.47
  -3  13  14    7.38    3.02
  -3  13  14    9.92    6.38
   2  13 -14   12.39    1.53
  -2  13  14   12.74    3.09
  -2  13  14   13.12    2.61
  -2  13  14   15.40    6.63
   2  13 -14   11.00    1.55
   1 -13 -14   33.43    4.53
  -1  13  14   33.42    4.05
  -1  13  14   31.30    3.97
   1  13 -14   28.11    2.71
   1  13 -14   39.25    4.46
  -1  13  14   33.51    7.18
   0 -13 -14   31.73    4.52
   0  13  14   29.34    4.02
   0  13 -14   39.25    3.51
   0  13 -14   32.78    4.36
   0  13  14   30.60    4.25
   0  13  14   28.73    7.06
  -1 -13 -14   44.14    5.07
  -1  13 -14   55.99    6.71
   1  13  14   49.76    7.84
   1  13  14   39.25    4.22
  -1  13 -14   51.39    4.37
   1  13  14   36.86    6.32
  -2  13 -14   15.51    3.72
   2  13  14    9.67    4.24
   3  14 -14   18.31    2.31
  -3  14  14   22.84    3.86
  -3  14  14   27.26    4.57
  -3  14  14   28.41    7.89
   3  14 -14   24.15    2.97
  -2  14  14    1.20    5.99
   2  14 -14    4.15    1.75
  -2  14  14   -1.67    3.19
   2  14 -14   -1.63    1.57
  -2  14  14    2.96    2.83
   2  14 -14    2.30    1.51
   1 -14 -14   29.07    4.44
   1  14 -14   22.12    2.82
  -1  14  14   29.76    7.01
  -1  14  14   23.79    3.92
   0 -14 -14    1.19    3.70
   0  14 -14    1.47    2.17
   0  14 -14   11.73    4.02
   0  14  14   -1.74    5.16
   0  14  14    6.35    2.80
   0  14  14   -0.95    5.57
  -1  14 -14   17.04    3.14
   1  14  14   16.11    4.26
   1  14  14   15.89    6.33
   2  14  14   25.75    5.04
  -2  14 -14   36.81    4.62
   2  14  14   28.44    3.77
  -3  15  14   10.11    4.04
  -3  15  14   16.47    7.44
   2  15 -14    1.50    1.75
   2  15 -14    2.46    1.91
  -2  15  14    7.77    3.43
  -2  15  14    1.15    3.70
  -2  15  14    5.09    7.06
  -1  15  14   -7.43    5.95
   1  15 -14   -1.80    1.97
  -1  15  14   -1.99    2.95
  -1  15  14    1.74    4.80
   0  15 -14    6.75    4.34
   0  15  14    3.82    3.98
   0  15  14   -6.21    6.31
   1  15  14   -5.63    6.45
  -1  15 -14    7.49    3.01
   1  15  14    4.25    2.79
   1  15  14    9.98    4.43
  -2  15 -14   12.10    3.99
   2  15  14    9.19    4.81
   2  15  14    9.23    3.41
  -2  16  14    0.10    3.45
  -2  16  14   -0.09    7.15
  -2  16  14    6.31    5.58
   2  16 -14    0.45    2.15
   1  16 -14   36.25    3.63
  -1  16  14   35.27    7.90
  -1  16  14   29.19    4.99
   0  16 -14   12.33    2.88
   0  16  14    1.13    6.38
   0  16  14    6.86    4.32
   0  16  14    8.06    3.01
   1  16  14    8.27    6.84
  -1  16 -14    9.82    3.46
   1  16  14    4.14    4.52
   1  16  14   10.73    3.28
  -1  17  14   10.75    3.30
  -1  17  14    8.78    6.98
  -1  17  14    2.26    4.53
   1  17 -14   -3.04    2.35
   0  17  14   47.39    8.57
   0  17  14   30.01    5.31
   0  17 -14   51.76    4.86
   0  17  14   47.51    5.62
  -5   0  15    1.76    4.13
   5   0 -15    6.99    2.25
  -4   0  15   -0.44    3.80
   4   0 -15    0.46    1.78
   3   0 -15   21.56    2.41
   3   0 -15   28.07    3.45
   2   0 -15    1.95    2.74
   2   0 -15    0.25    1.57
   1   0 -15   40.68    3.45
   1   0 -15   36.19    4.90
   0   0 -15    0.44    2.15
   0   0 -15    3.87    3.42
  -1   0 -15    0.66    2.47
  -2   0 -15    0.27    2.98
  -3   0 -15   85.28    6.86
   4   0  15    5.50    2.26
   5  -1 -15    7.61    2.45
   5   1 -15   10.33    2.35
  -5   1  15    6.77    4.78
   4  -1 -15   29.48    3.09
   4   1 -15   31.08    2.83
  -4   1  15   39.57    5.42
   3  -1 -15   12.64    1.99
   3  -1 -15   11.97    3.06
  -3   1  15   19.05    4.46
   3   1 -15   16.73    2.17
   3   1 -15   12.15    2.76
   2  -1 -15   27.50    2.89
   2  -1 -15   33.71    4.51
   2   1 -15   26.76    3.31
   2   1 -15   25.97    2.63
   1  -1 -15   30.05    4.13
   1  -1 -15   27.21    3.31
   1   1 -15   34.58    3.17
   1   1 -15   42.00    4.68
   0  -1 -15   54.85    4.43
   0  -1 -15   67.06    5.98
   0   1 -15   70.47    5.78
   0   1 -15   60.18    4.14
  -1  -1 -15    5.86    2.72
  -1   1 -15    3.55    2.66
  -2  -1 -15   42.46    5.25
  -2   1 -15   42.10    5.05
  -3  -1 -15   -0.89    3.77
   3   1  15    3.97    1.38
  -3   1 -15    7.77    3.89
   3   1  15    1.63    1.22
   4  -1  15    6.53    2.98
   4   1  15    2.22    2.49
   5  -2 -15   22.22    3.03
   5   2 -15   34.52    3.41
  -5   2  15   30.91    5.36
   4  -2 -15    6.32    2.17
  -4   2  15    7.33    4.46
   4   2 -15    3.85    1.60
   3  -2 -15    8.34    1.90
   3  -2 -15    0.20    2.99
   3   2 -15    9.35    1.53
   3   2 -15    4.82    2.46
  -3   2  15   15.95    4.62
   2  -2 -15    4.72    2.97
   2  -2 -15    1.66    1.81
   2   2 -15    0.77    2.50
   2   2 -15   -1.34    1.39
  -2   2  15    3.53    3.96
   1  -2 -15   63.59    5.31
   1  -2 -15   64.82    4.12
   1   2 -15   61.33    3.72
   1   2 -15   77.12    5.32
   0  -2 -15   14.57    3.75
   0  -2 -15    5.95    4.02
   0   2 -15    2.83    2.17
   0   2 -15   13.66    3.61
  -1  -2 -15    4.66    2.84
  -2  -2 -15    5.29    3.18
  -2   2 -15    7.48    3.23
  -3  -2 -15   19.64    4.41
   3   2  15   12.47    1.77
   3   2  15   17.03    2.06
  -3   2 -15   23.07    4.31
   4   2  15    8.41    2.78
   5   3 -15    7.97    2.24
  -5   3  15   13.89    5.30
   4  -3 -15   18.86    2.65
   4   3 -15   17.26    2.23
  -4   3  15   21.93    5.19
   3  -3 -15    0.94    2.93
   3  -3 -15    3.31    1.83
   3   3 -15    1.57    1.20
  -3   3  15    3.62    4.23
   3   3 -15    0.58    2.21
   2  -3 -15   -0.82    1.88
   2  -3 -15    8.61    3.02
  -2   3  15    1.01    3.93
   2   3 -15    3.02    2.52
   2   3 -15    3.59    1.44
   1  -3 -15    0.17    2.12
   1  -3 -15    3.00    3.17
   1   3 -15   -0.42    2.85
   1   3 -15    1.05    1.76
   0  -3 -15   64.23    4.54
   0   3 -15   58.36    5.65
   0   3 -15   51.81    3.87
  -1  -3 -15   27.50    3.62
  -1   3 -15   26.34    4.26
  -2  -3 -15    7.67    3.50
  -2   3 -15   14.97    3.27
  -3  -3 -15   -4.73    3.75
   3   3  15   -2.35    1.63
  -3   3 -15    0.98    3.58
   3   3  15    0.93    2.00
   4   3  15   44.24    4.59
   5  -4 -15   13.24    2.99
   5   4 -15   11.80    2.19
  -5   4  15   25.14    6.04
   4  -4 -15    4.45    2.26
  -4   4  15    5.49    4.85
   4   4 -15    1.75    1.40
   3  -4 -15    3.98    3.31
  -3   4  15    1.53    4.75
   3   4 -15    3.75    2.11
   3   4 -15    2.38    1.10
   2  -4 -15   11.94    3.17
   2   4 -15   11.32    2.53
   2   4 -15   11.69    1.57
  -2   4  15    9.11    4.58
   1  -4 -15   82.87    5.81
   1  -4 -15   58.45    5.90
   1   4 -15   85.28    5.49
   1   4 -15   78.95    3.73
  -1   4  15   81.06    7.26
   0  -4 -15    1.77    2.61
   0   4 -15    5.68    3.45
   0   4 -15    2.44    1.99
  -1  -4 -15   -1.85    2.80
  -1   4 -15    2.96    5.52
  -1   4 -15    0.38    2.42
  -2  -4 -15   29.81    4.47
  -2   4 -15   38.63    4.22
   2   4  15   31.50    1.88
   2   4  15   34.03    2.26
  -3  -4 -15   46.63    6.35
   3   4  15   35.40    3.75
  -3   4 -15   48.36    6.07
   3   4  15   28.93    3.10
   4   4  15   19.19    3.91
   5  -5 -15    1.04    2.71
  -5   5  15    2.35    5.64
   5   5 -15    0.34    1.94
   4  -5 -15   22.84    3.04
   4   5 -15   21.29    2.09
  -4   5  15   22.89    5.70
   3  -5 -15   22.84    4.31
  -3   5  15   37.07    5.84
   3   5 -15   23.89    3.07
   3   5 -15   23.02    1.64
   2  -5 -15   -1.16    3.73
   2  -5 -15    0.52    2.04
  -2   5  15    2.46    4.43
   2   5 -15    3.48    2.36
   2   5 -15    1.81    1.24
   1  -5 -15    4.40    2.34
  -1   5  15    3.66    4.37
   1   5 -15    0.44    1.70
   1   5 -15    8.34    3.04
   0  -5 -15  132.42    6.29
   0   5 -15  131.13    5.25
   0   5 -15  143.43    7.12
  -1  -5 -15   -3.16    2.70
  -1   5 -15   10.63    5.01
  -1   5 -15    4.97    2.51
  -2  -5 -15   16.80    4.02
  -2   5 -15    6.70    3.18
   2   5  15   11.96    1.92
   2   5  15   10.65    1.66
  -3  -5 -15   -5.12    3.87
  -3   5 -15    1.38    3.77
   3   5  15   -1.06    2.42
   3   5  15    0.62    1.96
   4   5  15    9.00    3.66
   5  -6 -15    0.95    2.95
   5   6 -15    1.42    1.99
  -5   6  15    0.22    6.13
   4  -6 -15   -2.73    2.47
   4   6 -15    2.88    1.26
  -4   6  15    5.93    5.40
  -3   6  15   46.45    6.44
   3   6 -15   41.58    4.57
   2  -6 -15   10.69    2.52
   2   6 -15   13.88    1.65
  -2   6  15   15.38    5.30
   2   6 -15   19.93    2.77
   1  -6 -15   14.89    2.90
   1   6 -15   17.89    3.32
  -1   6  15   15.37    5.09
   1   6 -15   15.13    2.01
   0  -6 -15   -0.34    2.61
   0   6 -15    0.75    2.02
   0   6 -15   11.70    3.65
  -1  -6 -15   31.37    4.35
  -1   6 -15   34.46    3.66
  -1   6 -15   26.80    5.89
  -2  -6 -15   21.11    4.42
  -2   6 -15   19.43    3.60
   2   6  15   16.44    2.29
   2   6  15   11.75    1.89
  -3  -6 -15   54.74    6.93
  -3   6 -15   72.30    6.66
   3   6  15   47.44    3.97
   3   6  15   44.33    4.50
   4  -7 -15    5.03    2.76
   4   7 -15    3.57    1.29
  -4   7  15    7.08    5.81
  -3   7  15   -2.73    5.18
   3   7 -15   -0.68    1.75
   2  -7 -15   13.30    2.77
  -2   7  15   16.20    5.30
   2   7 -15   12.51    2.37
   1  -7 -15    1.10    2.61
   1   7 -15    5.79    1.65
  -1   7  15    6.72    5.00
   1   7 -15    8.14    2.88
   0  -7 -15   17.32    3.35
   0   7 -15   18.22    4.09
   0   7 -15   20.12    2.56
  -1  -7 -15   14.55    3.78
   1   7  15   10.27    1.48
   1   7  15    8.92    1.70
  -1   7 -15    9.19    2.83
  -1   7 -15   12.90    5.17
  -2  -7 -15   22.96    4.22
   2   7  15   16.57    2.24
  -2   7 -15   23.42    3.80
   2   7  15   16.15    2.63
  -3   7 -15    1.35    3.93
   3   7  15   -0.24    2.92
   3   7  15    1.92    2.83
   4  -8 -15    4.67    2.77
   4   8 -15    4.29    1.31
  -3   8  15    3.99    5.35
   3   8 -15    1.28    1.61
   2  -8 -15   19.71    3.14
  -2   8  15   24.11    6.11
   2   8 -15   20.62    2.69
   1  -8 -15   21.43    3.37
  -1   8  15   34.29    6.51
   1   8 -15   27.53    3.59
   1   8 -15   17.95    2.46
   0  -8 -15   12.41    3.43
   0   8  15   14.59    9.15
   0   8 -15   16.52    2.48
  -1  -8 -15    9.76    3.72
   1   8  15    9.60    2.07
   1   8  15   12.90    1.92
  -1   8 -15   11.92    3.03
  -2  -8 -15   -7.21    3.55
   2   8  15    0.19    2.11
   2   8  15   -2.63    2.32
  -2   8 -15   -1.75    3.15
  -3   8 -15   49.32    6.73
   3   8  15   46.45    4.47
   3   8  15   56.10    6.87
   4  -9 -15    6.38    3.10
   4   9 -15   10.40    1.47
  -4   9  15   11.02    6.62
   3   9 -15    7.22    1.45
   2  -9 -15    1.87    2.74
  -2   9  15    3.86    7.21
   2   9 -15    1.72    2.40
   1  -9 -15   14.78    3.15
   1   9 -15   20.72    2.49
   1   9 -15   17.39    3.26
   0  -9 -15   18.22    3.67
   0   9  15   26.35    6.44
   0   9 -15   29.02    4.32
   0   9 -15   35.69    3.40
   0   9  15   30.04    2.71
   0   9  15   24.72    2.21
  -1  -9 -15   14.10    3.80
   1   9  15   21.90    2.96
   1   9  15   17.57    2.73
  -2  -9 -15   10.55    4.47
   2   9  15   28.65    3.60
  -2   9 -15   23.15    3.91
   2   9  15   24.59    3.07
  -3   9 -15    2.15    4.18
   3   9  15    1.81    3.07
   3   9  15    8.76    3.65
   4 -10 -15    1.07    3.17
  -4  10  15   -2.47    6.39
  -3  10  15    1.80    6.22
   2 -10 -15    5.04    3.06
  -2  10  15   14.81    6.34
   1 -10 -15   40.80    5.09
   1  10 -15   50.78    4.69
   1  10 -15   46.81    2.87
  -1  10  15   66.07    8.11
   0 -10 -15   26.20    4.44
   0  10  15   26.71    2.85
   0  10 -15   29.00    4.41
   0  10  15   29.74    6.31
   0  10  15   21.45    2.65
   0  10 -15   27.98    3.31
  -1 -10 -15    8.44    3.94
   1  10  15   -1.88    2.53
  -1  10 -15    5.50    3.32
   1  10  15    3.22    2.13
  -2 -10 -15    4.09    4.52
   2  10  15    9.03    2.62
   2  10  15   10.84    3.41
  -2  10 -15   15.25    3.96
   3  10  15    8.40    3.96
  -3  10 -15    9.90    4.52
  -4  11  15   21.47    7.45
  -3  11  15   48.60    7.95
   2 -11 -15   -7.70    3.12
  -2  11  15    3.06    6.04
   2  11 -15    9.21    2.25
   1 -11 -15    0.34    2.97
  -1  11  15   10.68    6.20
   1  11 -15   11.47    1.85
  -1  11  15   13.34    1.90
  -1  11  15    8.74    2.29
   1  11 -15    7.59    3.06
   0 -11 -15   14.34    4.00
   0  11 -15   19.40    2.59
   0  11  15   17.56    2.45
   0  11  15   18.89    3.03
   0  11  15   23.14    6.74
  -1 -11 -15   20.90    4.27
   1  11  15   37.71    3.78
   1  11  15   32.04    3.80
   2  11  15    9.31    2.89
  -2  11 -15    8.13    3.85
  -3  12  15   18.39    6.73
  -2  12  15   28.80    2.63
  -2  12  15   33.47    3.13
   2  12 -15   28.60    2.12
  -2  12  15   25.73    7.66
   1 -12 -15    7.54    3.33
  -1  12  15    3.39    2.10
  -1  12  15    3.44    2.72
  -1  12  15   10.09    6.58
   1  12 -15    1.26    3.01
   1  12 -15    4.93    1.83
   0 -12 -15    5.00    3.54
   0  12  15    5.33    5.76
   0  12  15   -1.18    2.20
   0  12  15    5.08    3.10
   0  12 -15    6.97    2.43
   0  12 -15    8.69    4.27
  -1 -12 -15   -8.09    4.12
   1  12  15    3.23    2.81
   1  12  15   -0.78    3.26
   1  12  15    6.77    6.10
  -1  12 -15    3.26    2.94
   2  12  15   22.74    4.30
  -2  12 -15   18.52    4.08
  -3  13  15    9.37    7.57
   2  13 -15    5.52    1.48
  -2  13  15   10.15    2.83
   2  13 -15    9.10    1.53
  -2  13  15   16.03    6.89
   1 -13 -15   -4.48    3.58
  -1  13  15   -1.86    2.88
   1  13 -15    1.05    1.94
  -1  13  15    2.76    2.44
  -1  13  15    4.82    6.78
   0 -13 -15   -5.61    3.78
   0  13  15    1.64    3.21
   0  13  15    1.20    3.44
   0  13 -15    4.75    2.45
   0  13  15   -4.36    6.01
   1  13  15    3.15    2.76
  -1  13 -15    6.48    3.21
   1  13  15   -3.66    5.85
  -2  14  15   22.18    3.82
   2  14 -15   18.49    2.72
  -2  14  15   22.91    7.43
  -1  14  15    7.48    3.01
   1  14 -15    2.69    2.14
  -1  14  15    8.71    3.55
  -1  14  15   -1.00    6.11
   0  14  15    4.34    3.08
   0  14 -15    6.33    2.74
   0  14  15    8.75    3.83
   0  14  15    0.03    6.75
   1  14  15    6.34    4.20
  -1  14 -15    6.17    3.48
   1  14  15    5.50    6.65
  -1  15  15   52.24    8.98
  -1  15  15   53.02    6.31
   0  15 -15    8.89    2.92
   0  15  15   10.37    4.37
   0  15  15    6.28    3.63
   0  15  15    5.10    6.99
   4   0 -16   12.16    2.28
   3   0 -16    4.71    3.09
   2   0 -16   20.10    3.50
   2   0 -16   29.34    2.98
   1   0 -16    0.02    2.21
   1   0 -16   -5.33    3.31
  -1   0 -16   -4.15    2.69
  -2   0 -16   28.90    4.36
  -3   0 -16   -1.39    4.17
   4  -1 -16   -1.96    2.03
  -4   1  16    1.48    4.75
   4   1 -16    1.96    1.78
   3  -1 -16   19.00    3.42
   3   1 -16   11.60    3.09
   2  -1 -16   -0.31    1.84
   2  -1 -16    3.37    3.16
   2   1 -16   -1.64    1.71
   2   1 -16    8.35    3.05
   1  -1 -16   11.58    3.63
   1  -1 -16   19.35    2.93
   1   1 -16   16.83    2.53
   1   1 -16   24.83    3.87
   0  -1 -16    1.33    2.60
   0   1 -16   -2.67    2.37
  -1  -1 -16   64.26    5.22
  -1   1 -16   46.73    4.93
  -2  -1 -16   -1.24    3.33
  -2   1 -16    0.91    3.39
  -3  -1 -16    3.52    4.32
  -3   1 -16   -0.36    4.10
   4  -2 -16    0.14    3.42
  -4   2  16   -2.04    4.67
   4   2 -16    1.26    1.70
   3  -2 -16   -3.65    3.30
  -3   2  16    8.44    4.71
   3   2 -16    3.63    2.79
   2  -2 -16   43.12    5.22
   2  -2 -16   41.29    3.60
   2   2 -16   50.79    4.75
   2   2 -16   40.07    2.95
   1  -2 -16    1.37    2.83
   1   2 -16    4.12    3.34
   1   2 -16    2.29    2.08
   0  -2 -16   13.44    3.05
   0   2 -16   12.88    7.49
   0   2 -16    9.82    2.66
  -1  -2 -16    7.58    3.17
  -1   2 -16    7.00    3.09
  -2  -2 -16   51.49    5.97
  -2   2 -16   39.33    4.65
  -3  -2 -16    6.27    4.36
  -3   2 -16    9.17    4.18
   4  -3 -16    2.55    3.63
   4  -3 -16    4.49    2.42
   4   3 -16    6.26    1.72
  -4   3  16    5.13    5.30
   3  -3 -16   47.46    5.48
   3   3 -16   43.85    4.33
  -3   3  16   70.32    7.63
   2  -3 -16    5.46    3.90
   2   3 -16    5.33    2.81
   2   3 -16    3.26    1.55
   1  -3 -16    2.64    2.44
   1   3 -16   -0.61    1.95
   1   3 -16    3.91    3.36
   0  -3 -16    2.80    2.83
   0   3 -16   16.28    4.21
   0   3 -16   -2.34    2.29
  -1  -3 -16   70.98    5.83
  -1   3 -16   82.99    5.47
  -2  -3 -16    6.70    3.77
  -2   3 -16    8.59    3.45
  -3  -3 -16    8.27    4.44
  -3   3 -16    2.39    4.19
   4  -4 -16   -0.08    2.48
  -4   4  16    4.51    5.55
   4   4 -16   -1.45    1.57
   3   4 -16    2.52    2.60
  -3   4  16    0.27    5.08
   2  -4 -16   26.92    3.65
   2   4 -16   26.61    2.40
  -2   4  16   39.23    6.45
   2   4 -16   31.28    3.62
   1  -4 -16   14.50    2.91
   1   4 -16   15.08    2.31
   0  -4 -16    0.56    2.77
   0   4 -16    2.70    2.30
   0   4 -16    4.23    3.94
  -1  -4 -16   16.45    3.60
  -1   4 -16    9.28    2.79
  -2  -4 -16   62.63    5.94
  -2   4 -16   43.73    5.77
  -3   4 -16   -0.44    3.94
   4  -5 -16   -1.10    2.51
   4   5 -16   -0.44    1.43
  -4   5  16   10.36    5.69
   3   5 -16   13.31    2.68
  -3   5  16   28.44    6.04
   2  -5 -16   11.06    2.70
  -2   5  16   19.54    5.76
   2   5 -16   19.73    3.07
   2   5 -16   16.44    1.76
   1  -5 -16   -4.22    2.30
   1   5 -16    0.73    3.18
   1   5 -16    6.34    1.91
   0  -5 -16   18.95    3.57
   0   5 -16   28.73    3.65
   0   5 -16   28.84    4.53
  -1  -5 -16   37.19    4.70
  -1   5 -16   31.43    3.67
  -2  -5 -16    6.08    3.87
  -2   5 -16    6.27    3.48
   3   5  16    5.40    3.26
  -3   5 -16    8.56    4.08
   4  -6 -16    1.93    2.86
   4   6 -16    4.27    1.70
  -4   6  16    9.34    6.38
   3   6 -16    1.27    2.32
  -3   6  16    5.62    5.93
   2  -6 -16   11.42    2.84
  -2   6  16   17.59    5.72
   2   6 -16   10.97    2.78
   2   6 -16    7.68    1.44
   1  -6 -16    5.40    2.79
   1   6 -16   10.30    3.44
   1   6 -16    4.70    1.98
  -1   6  16   13.32    5.66
   0  -6 -16   37.37    4.96
   0   6 -16   33.83    4.60
   0   6 -16   42.43    3.84
  -1  -6 -16    7.50    3.68
  -1   6 -16   10.07    2.79
  -2  -6 -16    5.62    3.89
   2   6  16    3.23    1.63
  -2   6 -16    4.23    3.54
   2   6  16    7.52    1.70
  -3   6 -16    9.02    4.33
   3   6  16   10.01    3.58
   4  -7 -16    2.22    2.94
  -4   7  16    0.36    6.40
   2  -7 -16    6.44    2.77
   2   7 -16   13.16    2.80
   1  -7 -16    4.02    2.96
  -1   7  16    1.43    7.68
   1   7 -16   12.01    3.57
   1   7 -16    6.25    1.94
   0  -7 -16   11.23    3.51
   0   7 -16   21.37    4.48
   0   7 -16   21.30    2.86
  -1  -7 -16   15.10    4.04
  -1   7 -16   25.01    3.37
  -2  -7 -16   10.65    4.22
   2   7  16    7.86    2.31
  -2   7 -16   13.14    3.79
  -3   8  16   35.44    7.48
   2  -8 -16   35.82    4.75
   2   8 -16   32.96    4.11
  -2   8  16   54.58    7.56
   1  -8 -16    0.88    2.99
   1   8 -16    3.87    1.86
  -1   8  16    8.06    5.99
   1   8 -16    4.51    3.33
   0  -8 -16    2.63    3.23
   0   8 -16   10.87    2.49
  -1  -8 -16   -2.71    3.82
  -1   8 -16    9.71    3.00
  -2  -8 -16   26.48    6.02
   2   8  16   22.91    2.93
  -2   8 -16   26.16    4.32
  -3   9  16   22.08    7.25
   2  -9 -16   -3.32    3.02
  -2   9  16   11.03    6.81
   1  -9 -16   -0.77    3.16
   1   9 -16    1.61    1.87
   1   9 -16    3.65    3.24
  -1   9  16    1.55    5.88
   0  -9 -16    1.92    3.37
   0   9  16   11.77    6.54
   0   9 -16   -0.08    2.41
  -1  -9 -16   55.30    6.51
  -1   9 -16   69.99    5.24
   1   9  16   70.50    3.71
   1   9  16   67.95    3.54
   2   9  16   14.91    3.19
  -2   9 -16   21.04    4.16
  -3  10  16    2.49    6.75
   2 -10 -16   17.79    3.96
  -2  10  16   31.22    7.34
   1 -10 -16   29.29    4.26
  -1  10  16   35.88    7.50
   1  10 -16   39.95    3.23
   1  10 -16   41.71    5.15
   0 -10 -16    1.05    3.71
   0  10  16    7.05    6.42
   0  10 -16   11.25    4.58
   0  10 -16    4.99    2.65
  -1 -10 -16    4.70    4.31
   1  10  16   -0.02    2.45
  -1  10 -16    6.86    3.21
  -2  10 -16   22.86    4.56
   2  10  16   26.81    3.93
   2 -11 -16    2.72    3.63
  -2  11  16    8.51    7.09
   1  11 -16    9.96    2.10
  -1  11  16   -3.09    6.34
   0 -11 -16   23.98    4.79
   0  11  16   31.27    3.60
   0  11 -16   37.86    5.55
   0  11  16   36.63    8.33
   0  11 -16   44.60    4.25
  -1  11 -16   14.68    3.53
   1  11  16    4.73    3.15
  -2  12  16   14.48    7.48
   1 -12 -16   32.33    4.82
  -1  12  16   40.91    8.27
   1  12 -16   39.95    5.05
   0  12 -16   30.74    4.14
   0  12  16   28.16    7.97
   1  12  16    1.91    3.57
  -1  12 -16    3.74    3.51
  -1  13  16    6.48    7.14
   0  13  16   27.00    7.89
   3   0 -17    5.19    3.77
   2   0 -17    1.24    3.94
   2   0 -17   -0.18    2.00
   1   0 -17   26.25    3.18
   0   0 -17   -3.13    2.66
  -1   0 -17    3.59    3.42
  -2   0 -17    2.36    3.80
   3  -1 -17   15.67    4.03
   3   1 -17   18.03    3.97
   2  -1 -17   10.98    2.45
   2   1 -17    3.83    2.08
   2   1 -17    4.14    3.64
   1  -1 -17    3.77    2.81
   1   1 -17    2.72    2.45
   0  -1 -17   38.71    4.17
   0   1 -17   33.41    4.42
  -1  -1 -17    7.93    3.66
  -1   1 -17   14.79    3.62
  -2  -1 -17   33.70    4.87
  -2   1 -17   32.49    4.88
   2  -2 -17    3.12    2.23
   2   2 -17   -0.06    1.84
   2   2 -17    7.75    3.55
   1  -2 -17   18.69    3.21
   1   2 -17   29.83    3.58
   0  -2 -17   17.22    3.42
   0   2 -17   13.74    3.47
  -1  -2 -17   -3.67    3.59
  -1   2 -17    1.64    3.30
  -2  -2 -17    6.29    4.10
  -2   2 -17    0.20    3.89
  -3   3  17   -4.29    5.17
   2  -3 -17   -0.98    2.28
   2   3 -17    3.59    3.34
   2   3 -17   -1.33    1.80
   1  -3 -17   -3.05    2.54
   1   3 -17   16.54    4.13
   1   3 -17   -3.96    2.19
   0  -3 -17   12.01    3.43
   0   3 -17   14.95    4.45
  -1  -3 -17    7.20    3.86
  -1   3 -17    3.97    3.25
  -2  -3 -17    4.27    4.11
  -2   3 -17   -5.97    3.78
  -3   4  17   12.58    6.05
   2  -4 -17   -4.13    2.39
   2   4 -17   -4.10    1.67
   2   4 -17    3.42    3.35
   1  -4 -17  108.97    5.94
   1   4 -17  131.10    7.17
   1   4 -17  104.57    4.87
   0  -4 -17   10.64    3.44
   0   4 -17   -0.61    2.68
  -1  -4 -17    9.02    3.79
  -1   4 -17    3.00    3.26
  -2  -4 -17   -2.57    4.24
  -2   4 -17   -1.60    3.82
   2  -5 -17   29.31    3.31
   2   5 -17   14.35    3.48
   2   5 -17   19.39    2.03
   1  -5 -17   -0.13    2.93
   1   5 -17    0.30    2.16
   0  -5 -17   22.68    4.21
   0   5 -17   19.20    3.20
  -1  -5 -17   24.06    4.72
  -1   5 -17   23.90    3.75
  -2  -5 -17   35.54    5.24
  -2   5 -17   33.53    4.71
  -3   6  17    7.46    6.21
   2  -6 -17   -1.75    2.89
  -2   6  17    9.50    6.11
   2   6 -17   -2.01    1.46
   1  -6 -17   15.88    3.65
   1   6 -17   18.54    2.58
   0  -6 -17   -0.20    3.62
   0   6 -17    4.36    2.76
  -1  -6 -17    4.78    3.85
  -1   6 -17   -5.92    2.94
  -3   7  17    2.70    6.61
   2  -7 -17   13.39    3.57
   2   7 -17   13.67    2.08
  -2   7  17    6.80    6.64
   1  -7 -17   -1.89    3.26
   1   7 -17    7.58    4.03
   1   7 -17   -1.08    2.25
   0  -7 -17   33.07    4.50
   0   7 -17   36.08    4.21
  -1  -7 -17   -1.01    4.07
  -1   7 -17    0.63    3.16
   2  -8 -17   -0.41    3.29
  -2   8  17    6.44    6.28
   1  -8 -17   15.71    4.05
  -1   8  17   25.65    7.47
   1   8 -17   17.69    2.44
   0  -8 -17    4.19    3.70
   0   8 -17   11.65    2.96
  -1  -8 -17    7.52    4.32
  -1   8 -17    8.36    3.61
   2  -9 -17   -3.95    3.45
  -2   9  17    6.96    7.22
   1  -9 -17    5.00    3.71
  -1   9  17   12.91    6.82
   0  -9 -17   11.67    4.20
   0   9 -17   25.87    3.25
   1 -10 -17   21.74    4.45
  -1  10  17   24.96    7.42
   0 -10 -17    0.70    5.76
   1   0 -18   -4.92    2.82
   0   0 -18    6.83    3.38
  -1   0 -18    0.63    3.76
   2  -1 -18    1.85    2.58
   2   1 -18   -4.04    2.25
   1  -1 -18    1.12    2.92
   1   1 -18   -1.90    3.44
   0  -1 -18    5.64    3.36
   0   1 -18    4.87    3.32
  -1  -1 -18   20.99    4.53
  -1   1 -18   11.85    4.12
   2  -2 -18    2.06    2.57
   2   2 -18    7.36    3.31
   1  -2 -18    2.36    2.94
   1   2 -18    8.78    2.87
   0  -2 -18   41.03    4.58
   0   2 -18   50.40    5.30
  -1  -2 -18    4.71    4.03
  -1   2 -18    7.88    3.79
   2  -3 -18   -1.65    2.74
   1  -3 -18    4.32    3.09
   1   3 -18   12.68    2.89
   0  -3 -18    4.13    3.79
   0   3 -18    5.57    3.15
   2  -4 -18    1.59    2.94
   1  -4 -18    0.86    3.13
   1   4 -18   -3.57    2.81
   0  -4 -18    1.55    3.77
   0   4 -18    1.02    3.15
   1  -5 -18   -3.63    3.23
   0  -5 -18    3.78    3.86
   0   5 -18   -0.10    3.17
   0   0   0    0.00    0.00
;
_shelx_hkl_checksum              80272
loop_
_space_group_symop_operation_xyz
'x, y, z'
'-x+1/2, y+1/2, -z+1/2'
'-x, -y, -z'
'x-1/2, -y-1/2, z-1/2'
loop_
_atom_site_label
_atom_site_type_symbol
_atom_site_fract_x
_atom_site_fract_y
_atom_site_fract_z
_atom_site_U_iso_or_equiv
_atom_site_adp_type
_atom_site_occupancy
_atom_site_site_symmetry_order
_atom_site_calc_flag
_atom_site_refinement_flags_posn
_atom_site_refinement_flags_adp
Br1 Br 0.63435(7) 0.51042(2) 0.27170(3) 0.03233(12) Uani 1 1 d . .
S1 S 0.15694(13) 0.65362(4) 0.15860(6) 0.01743(18) Uani 1 1 d . .
O2 O 0.5858(4) 0.61398(11) 0.01662(15) 0.0196(5) Uani 1 1 d . .
H2 H 0.5457 0.6537 0.0019 0.029 Uiso 1 1 calc R U
O4 O 1.0400(4) 0.66735(12) 0.40095(15) 0.0190(5) Uani 1 1 d . .
O3 O 0.9145(4) 0.75773(11) 0.47972(15) 0.0208(5) Uani 1 1 d . .
O1 O 0.1978(4) 0.53595(12) 0.06750(17) 0.0237(5) Uani 1 1 d . .
N1 N 0.5789(4) 0.65567(12) 0.17491(18) 0.0124(5) Uani 1 1 d . .
N2 N 0.7809(4) 0.72738(13) 0.32662(18) 0.0156(6) Uani 1 1 d . .
H2A H 0.8081 0.7022 0.2767 0.019 Uiso 1 1 calc R U
C4 C 0.4205(5) 0.75041(15) 0.2562(2) 0.0116(6) Uani 1 1 d . .
C1 C 0.2857(5) 0.58428(15) 0.1055(2) 0.0136(6) Uani 1 1 d . .
C10 C 0.9140(5) 0.72078(16) 0.4095(2) 0.0145(6) Uani 1 1 d . .
C2 C 0.5305(5) 0.59834(15) 0.1105(2) 0.0120(6) Uani 1 1 d . .
C3 C 0.4136(5) 0.68706(15) 0.1990(2) 0.0107(6) Uani 1 1 d . .
C15 C 0.6587(5) 0.53496(16) 0.1380(2) 0.0157(6) Uani 1 1 d . .
H15A H 0.8108 0.5430 0.1281 0.019 Uiso 1 1 calc R U
H15B H 0.6067 0.4969 0.0955 0.019 Uiso 1 1 calc R U
C9 C 0.6043(5) 0.77118(16) 0.3149(2) 0.0137(6) Uani 1 1 d . .
C5 C 0.2405(5) 0.79228(16) 0.2500(2) 0.0173(7) Uani 1 1 d . .
H5 H 0.1159 0.7784 0.2112 0.021 Uiso 1 1 calc R U
C8 C 0.6034(6) 0.83429(16) 0.3611(2) 0.0200(7) Uani 1 1 d . .
H8 H 0.7286 0.8496 0.3982 0.024 Uiso 1 1 calc R U
C11 C 1.1647(6) 0.63862(18) 0.4878(2) 0.0243(8) Uani 1 1 d . .
C7 C 0.4229(6) 0.87464(17) 0.3535(2) 0.0223(8) Uani 1 1 d . .
H7 H 0.4246 0.9172 0.3860 0.027 Uiso 1 1 calc R U
C6 C 0.2390(6) 0.85350(17) 0.2989(2) 0.0224(7) Uani 1 1 d . .
H6 H 0.1137 0.8807 0.2951 0.027 Uiso 1 1 calc R U
C14 C 1.0075(8) 0.6149(2) 0.5567(3) 0.0449(12) Uani 1 1 d . .
H14A H 0.9280 0.6540 0.5785 0.067 Uiso 1 1 calc R U
H14B H 1.0847 0.5929 0.6128 0.067 Uiso 1 1 calc R U
H14C H 0.9077 0.5824 0.5237 0.067 Uiso 1 1 calc R U
C13 C 1.3241(7) 0.6897(2) 0.5319(3) 0.0458(12) Uani 1 1 d . .
H13A H 1.2485 0.7257 0.5639 0.069 Uiso 1 1 calc R U
H13B H 1.4027 0.7097 0.4809 0.069 Uiso 1 1 calc R U
H13C H 1.4245 0.6670 0.5796 0.069 Uiso 1 1 calc R U
C12 C 1.2768(8) 0.5795(2) 0.4446(3) 0.0494(13) Uani 1 1 d . .
H12A H 1.3605 0.5546 0.4962 0.074 Uiso 1 1 calc R U
H12B H 1.3722 0.5965 0.3978 0.074 Uiso 1 1 calc R U
H12C H 1.1705 0.5490 0.4117 0.074 Uiso 1 1 calc R U
loop_
_atom_site_aniso_label
_atom_site_aniso_U_11
_atom_site_aniso_U_22
_atom_site_aniso_U_33
_atom_site_aniso_U_23
_atom_site_aniso_U_13
_atom_site_aniso_U_12
Br1 0.0549(3) 0.02338(18) 0.01761(17) 0.00495(15) -0.00288(16) 0.00868(19)
S1 0.0096(4) 0.0197(4) 0.0228(4) -0.0072(3) 0.0001(3) -0.0005(3)
O2 0.0404(16) 0.0114(11) 0.0081(10) 0.0005(8) 0.0079(10) 0.0021(11)
O4 0.0181(12) 0.0241(12) 0.0137(11) -0.0066(9) -0.0041(9) 0.0091(10)
O3 0.0301(14) 0.0178(12) 0.0134(11) -0.0067(9) -0.0037(10) 0.0019(10)
O1 0.0204(13) 0.0208(12) 0.0290(13) -0.0102(10) -0.0038(10) -0.0032(10)
N1 0.0138(13) 0.0109(12) 0.0119(12) -0.0003(10) -0.0020(10) 0.0001(11)
N2 0.0142(14) 0.0187(14) 0.0130(13) -0.0068(10) -0.0035(11) 0.0021(11)
C4 0.0140(16) 0.0110(14) 0.0101(14) 0.0002(11) 0.0029(12) 0.0011(12)
C1 0.0135(16) 0.0153(15) 0.0114(14) 0.0004(12) -0.0020(12) 0.0019(13)
C10 0.0158(17) 0.0147(15) 0.0132(15) -0.0012(12) 0.0012(12) -0.0035(13)
C2 0.0132(16) 0.0117(14) 0.0108(14) -0.0021(11) -0.0006(12) 0.0012(12)
C3 0.0115(15) 0.0127(14) 0.0076(13) 0.0005(11) -0.0017(11) -0.0036(12)
C15 0.0191(17) 0.0150(15) 0.0127(15) 0.0005(12) 0.0007(13) 0.0041(13)
C9 0.0136(16) 0.0155(15) 0.0122(14) -0.0019(12) 0.0017(12) 0.0006(13)
C5 0.0162(17) 0.0177(16) 0.0176(15) 0.0012(13) -0.0007(13) 0.0024(13)
C8 0.0264(19) 0.0130(15) 0.0197(16) -0.0043(13) -0.0025(14) -0.0008(14)
C11 0.029(2) 0.0287(19) 0.0140(16) 0.0001(14) -0.0055(14) 0.0146(16)
C7 0.033(2) 0.0115(16) 0.0230(17) -0.0053(13) 0.0036(15) 0.0028(15)
C6 0.0257(19) 0.0165(17) 0.0257(18) -0.0012(14) 0.0052(15) 0.0098(15)
C14 0.058(3) 0.038(2) 0.040(2) 0.019(2) 0.011(2) 0.015(2)
C13 0.029(2) 0.064(3) 0.040(2) -0.009(2) -0.0217(19) 0.006(2)
C12 0.057(3) 0.056(3) 0.033(2) -0.007(2) -0.011(2) 0.038(3)
loop_
_atom_type_symbol
_atom_type_description
_atom_type_scat_dispersion_real
_atom_type_scat_dispersion_imag
_atom_type_scat_source
C C 0.0033 0.0016 'International Tables Vol C Tables 4.2.6.8 and 6.1.1.4'
H H 0.0000 0.0000 'International Tables Vol C Tables 4.2.6.8 and 6.1.1.4'
N N 0.0061 0.0033 'International Tables Vol C Tables 4.2.6.8 and 6.1.1.4'
O O 0.0106 0.0060 'International Tables Vol C Tables 4.2.6.8 and 6.1.1.4'
S S 0.1246 0.1234 'International Tables Vol C Tables 4.2.6.8 and 6.1.1.4'
Br Br -0.2901 2.4595 'International Tables Vol C Tables 4.2.6.8 and 6.1.1.4'
loop_
_geom_angle_atom_site_label_1
_geom_angle_atom_site_label_2
_geom_angle_atom_site_label_3
_geom_angle
C1 S1 C3 88.91(15)
C2 O2 H2 109.5
C10 O4 C11 120.2(2)
C3 N1 C2 113.9(3)
C10 N2 C9 125.1(3)
C10 N2 H2A 117.5
C9 N2 H2A 117.5
C5 C4 C9 118.8(3)
C5 C4 C3 118.7(3)
C9 C4 C3 122.5(3)
O1 C1 C2 125.1(3)
O1 C1 S1 125.6(3)
C2 C1 S1 109.2(2)
O3 C10 O4 125.9(3)
O3 C10 N2 125.1(3)
O4 C10 N2 109.0(3)
O2 C2 N1 110.0(2)
O2 C2 C15 104.0(2)
N1 C2 C15 114.0(3)
O2 C2 C1 108.7(2)
N1 C2 C1 108.5(2)
C15 C2 C1 111.5(3)
N1 C3 C4 124.2(3)
N1 C3 S1 118.2(2)
C4 C3 S1 117.6(2)
C2 C15 Br1 111.1(2)
C2 C15 H15A 109.4
Br1 C15 H15A 109.4
C2 C15 H15B 109.4
Br1 C15 H15B 109.4
H15A C15 H15B 108.0
C8 C9 N2 121.8(3)
C8 C9 C4 119.0(3)
N2 C9 C4 119.2(3)
C6 C5 C4 121.7(3)
C6 C5 H5 119.2
C4 C5 H5 119.2
C7 C8 C9 120.8(3)
C7 C8 H8 119.6
C9 C8 H8 119.6
O4 C11 C13 110.9(3)
O4 C11 C14 107.6(3)
C13 C11 C14 113.4(3)
O4 C11 C12 101.6(3)
C13 C11 C12 110.9(4)
C14 C11 C12 111.6(4)
C8 C7 C6 120.5(3)
C8 C7 H7 119.7
C6 C7 H7 119.7
C7 C6 C5 119.1(3)
C7 C6 H6 120.4
C5 C6 H6 120.4
C11 C14 H14A 109.5
C11 C14 H14B 109.5
H14A C14 H14B 109.5
C11 C14 H14C 109.5
H14A C14 H14C 109.5
H14B C14 H14C 109.5
C11 C13 H13A 109.5
C11 C13 H13B 109.5
H13A C13 H13B 109.5
C11 C13 H13C 109.5
H13A C13 H13C 109.5
H13B C13 H13C 109.5
C11 C12 H12A 109.5
C11 C12 H12B 109.5
H12A C12 H12B 109.5
C11 C12 H12C 109.5
H12A C12 H12C 109.5
H12B C12 H12C 109.5
loop_
_geom_bond_atom_site_label_1
_geom_bond_atom_site_label_2
_geom_bond_distance
Br1 C15 1.934(3)
S1 C1 1.778(3)
S1 C3 1.785(3)
O2 C2 1.411(3)
O2 H2 0.8400
O4 C10 1.328(4)
O4 C11 1.489(4)
O3 C10 1.214(4)
O1 C1 1.198(4)
N1 C3 1.278(4)
N1 C2 1.453(4)
N2 C10 1.366(4)
N2 C9 1.403(4)
N2 H2A 0.8800
C4 C5 1.396(4)
C4 C9 1.413(4)
C4 C3 1.475(4)
C1 C2 1.558(4)
C2 C15 1.515(4)
C15 H15A 0.9900
C15 H15B 0.9900
C9 C8 1.398(4)
C5 C6 1.382(4)
C5 H5 0.9500
C8 C7 1.381(5)
C8 H8 0.9500
C11 C13 1.509(6)
C11 C14 1.507(5)
C11 C12 1.511(5)
C7 C6 1.389(5)
C7 H7 0.9500
C6 H6 0.9500
C14 H14A 0.9800
C14 H14B 0.9800
C14 H14C 0.9800
C13 H13A 0.9800
C13 H13B 0.9800
C13 H13C 0.9800
C12 H12A 0.9800
C12 H12B 0.9800
C12 H12C 0.9800
