#------------------------------------------------------------------------------
#$Date: 2016-06-18 04:40:24 +0300 (Sat, 18 Jun 2016) $
#$Revision: 183688 $
#$URL: file:///home/coder/svn-repositories/cod/cif/1/54/34/1543476.cif $
#------------------------------------------------------------------------------
#
# This file is available in the Crystallography Open Database (COD),
# http://www.crystallography.net/. The original data for this entry
# were provided by IUCr Journals, http://journals.iucr.org/.
#
# The file may be used within the scientific community so long as
# proper attribution is given to the journal article from which the
# data were obtained.
#
data_1543476
loop_
_publ_author_name
'Mague, Joel T.'
'Mohamed, Shaaban K.'
'Akkurt, Mehmet'
'Abdel-Raheem, Eman M. M.'
'Albayati, Mustafa R.'
_publ_section_title
;
 1-((<i>E</i>)-{2-[4-(2-{(1<i>E</i>)-[(carbamothioylamino)imino]methyl}phenoxy)butoxy]benzylidene}amino)thiourea
 dimethyl sulfoxide disolvate
;
_journal_coeditor_code           HG4009
_journal_issue                   6
_journal_name_full               IUCrData
_journal_page_first              x160946
_journal_paper_doi               10.1107/S2414314616009469
_journal_volume                  1
_journal_year                    2016
_chemical_formula_iupac          'C20 H24 N6 O2 S2, 2C2 H6 O S'
_chemical_formula_moiety         'C20 H24 N6 O2 S2, 2(C2 H6 O S)'
_chemical_formula_sum            'C24 H36 N6 O4 S4'
_chemical_formula_weight         600.83
_chemical_name_systematic
;1-((<i>E</i>)-{2-[4-(2-{(1<i>E</i>)-[(Carbamothioylamino)imino]methyl}phenoxy)butoxy]benzylidene}amino)thiourea
dimethyl sulfoxide disolvate
;
_space_group_crystal_system      triclinic
_space_group_IT_number           2
_space_group_name_Hall           '-P 1'
_space_group_name_H-M_alt        'P -1'
_symmetry_space_group_name_Hall  '-P 1'
_symmetry_space_group_name_H-M   'P -1'
_atom_sites_solution_hydrogens   mixed
_atom_sites_solution_primary     direct
_atom_sites_solution_secondary   difmap
_audit_creation_method           SHELXL-2014/7
_cell_angle_alpha                112.9840(10)
_cell_angle_beta                 98.1630(10)
_cell_angle_gamma                96.9090(10)
_cell_formula_units_Z            1
_cell_length_a                   7.2571(2)
_cell_length_b                   9.7909(2)
_cell_length_c                   12.0060(2)
_cell_measurement_reflns_used    6799
_cell_measurement_temperature    150.(2)
_cell_measurement_theta_max      72.1432
_cell_measurement_theta_min      4.0880
_cell_volume                     762.80(3)
_computing_cell_refinement
;
<i>SAINT</i> (Bruker, 2015)
;
_computing_data_collection
;
<i>APEX2</i> (Bruker, 2015)
;
_computing_data_reduction
;
<i>SAINT</i>  (Bruker, 2015)
;
_computing_molecular_graphics
;
<i>DIAMOND</i> (Brandenburg & Putz, 2012)
;
_computing_publication_material
;
<i>SHELXTL</i> (Sheldrick, 2008)
;
_computing_structure_refinement
;
<i>SHELXL2014</i> (Sheldrick, 2015b)
;
_computing_structure_solution
;
<i>SHELXT</i> (Sheldrick, 2015a)
;
_diffrn_ambient_temperature      150(2)
_diffrn_detector_area_resol_mean 10.4167
_diffrn_measured_fraction_theta_full 0.986
_diffrn_measured_fraction_theta_max 0.978
_diffrn_measurement_device_type  'Bruker D8 VENTURE PHOTON 100 CMOS'
_diffrn_measurement_method       '\w scans'
_diffrn_radiation_monochromator  mirror
_diffrn_radiation_type           CuK\a
_diffrn_radiation_wavelength     1.54178
_diffrn_reflns_av_R_equivalents  0.0233
_diffrn_reflns_limit_h_max       8
_diffrn_reflns_limit_h_min       -8
_diffrn_reflns_limit_k_max       11
_diffrn_reflns_limit_k_min       -12
_diffrn_reflns_limit_l_max       14
_diffrn_reflns_limit_l_min       -14
_diffrn_reflns_number            8374
_diffrn_reflns_theta_full        67.000
_diffrn_reflns_theta_max         72.138
_diffrn_reflns_theta_min         4.976
_exptl_absorpt_coefficient_mu    3.188
_exptl_absorpt_correction_T_max  0.76
_exptl_absorpt_correction_T_min  0.65
_exptl_absorpt_correction_type   multi-scan
_exptl_absorpt_process_details
;
(<i>SADABS</i>; Bruker, 2015)
;
_exptl_crystal_colour            colourless
_exptl_crystal_density_diffrn    1.308
_exptl_crystal_density_method    'not measured'
_exptl_crystal_description       'thick plate'
_exptl_crystal_F_000             318
_exptl_crystal_size_max          0.241
_exptl_crystal_size_mid          0.153
_exptl_crystal_size_min          0.092
_refine_diff_density_max         0.884
_refine_diff_density_min         -0.678
_refine_ls_extinction_coef       0.0061(13)
_refine_ls_extinction_expression Fc^*^=kFc[1+0.001xFc^2^\l^3^/sin(2\q)]^-1/4^
_refine_ls_extinction_method
;
SHELXL2014 (Sheldrick, 2015b)
;
_refine_ls_goodness_of_fit_ref   1.082
_refine_ls_hydrogen_treatment    constr
_refine_ls_matrix_type           full
_refine_ls_number_parameters     183
_refine_ls_number_reflns         2932
_refine_ls_number_restraints     27
_refine_ls_restrained_S_all      1.100
_refine_ls_R_factor_all          0.0596
_refine_ls_R_factor_gt           0.0560
_refine_ls_shift/su_max          0.002
_refine_ls_shift/su_mean         0.000
_refine_ls_structure_factor_coef Fsqd
_refine_ls_weighting_details
'w=1/[\s^2^(Fo^2^)+(0.0905P)^2^+0.7660P] where P=(Fo^2^+2Fc^2^)/3'
_refine_ls_weighting_scheme      calc
_refine_ls_wR_factor_gt          0.1582
_refine_ls_wR_factor_ref         0.1622
_reflns_number_gt                2679
_reflns_number_total             2932
_reflns_threshold_expression     'I > 2\s(I)'
_cod_data_source_file            hg4009sup1.cif
_cod_data_source_block           I
_cod_database_code               1543476
_shelx_space_group_comment
;
The symmetry employed for this shelxl refinement is uniquely defined
by the following loop, which should always be used as a source of
symmetry information in preference to the above space-group names.
They are only intended as comments.
;
_shelx_estimated_absorpt_t_min   0.514
_shelx_estimated_absorpt_t_max   0.758
_shelx_hkl_file
;
  -1   0   0  132.49    4.50
  -1   0   0  129.19    4.40
   1   0   0  137.19    4.50
   1   0   0  137.29    4.40
   2   0   0 9999.00  295.67
   3   0   0  479.25   14.50
   4   0   0  193.08    6.30
   4   0   0  198.38    6.40
   5   0   0    8.00    1.80
   5   0   0    3.80    1.30
   5   0   0    6.10    1.50
   5   0   0    5.10    1.30
   6   0   0   43.50    2.40
   6   0   0   39.90    2.40
   6   0   0   39.50    2.20
   7   0   0    2.90    1.00
   7   0   0    2.10    0.80
  -8   0   0   61.59    2.30
   8   0   0   59.49    2.60
   8   0   0   61.09    2.40
   8  -1   0   82.39    3.00
   8  -1   0   78.69    3.10
  -8   1   0   81.89    3.00
   7  -1   0    1.40    0.90
   7  -1   0   -0.70    0.80
   6  -1   0 1205.18   36.20
   6  -1   0 1212.38   36.20
   6  -1   0 1206.08   36.40
   5  -1   0   49.10    2.60
   5  -1   0   43.70    3.10
   5  -1   0   45.10    2.40
   4  -1   0 3870.51  116.69
   4  -1   0 4030.60  116.59
   3  -1   0  334.87   10.20
   3  -1   0  327.57   10.30
  -3   1   0  347.37   10.20
   2  -1   0 7944.10  235.28
   2  -1   0 7774.72  235.48
  -2   1   0 7988.20  235.38
  -2   1   0 8154.08  235.28
   1  -1   0 1932.71   61.09
  -1   1   0 2063.59   61.19
  -1   1   0 2168.28   60.99
   0  -1   0  318.67    9.90
   0   1   0  338.47    9.90
   0   1   0  330.07    9.90
  -1  -1   0  128.29    4.10
   1   1   0  140.69    4.00
   1   1   0  133.59    4.10
   1   1   0  131.39    4.00
   2   1   0 2052.29   60.99
   3   1   0  339.07   10.40
   4   1   0  338.57   10.40
   4   1   0  325.17   10.30
   5   1   0  349.57   10.90
   5   1   0  347.57   10.90
   5   1   0  339.27   11.10
   5   1   0  345.47   10.90
   6   1   0  149.19    5.20
   6   1   0  142.09    5.20
   7   1   0   -0.20    0.90
   7   1   0   -0.10    0.80
  -8  -1   0    1.10    0.60
   8   1   0    1.00    0.70
   8   1   0    0.20    0.80
   8  -2   0   57.39    2.50
   8  -2   0   59.39    2.40
   7  -2   0    9.80    1.50
   7  -2   0   12.20    1.70
   6  -2   0  470.85   16.20
   6  -2   0  504.35   15.40
   6  -2   0  512.35   15.50
   5  -2   0  184.88    7.50
   5  -2   0  201.88    6.60
   5  -2   0  202.18    6.60
   4  -2   0   14.00    1.30
   4  -2   0   14.50    1.40
   3  -2   0   16.10    1.00
  -3   2   0   15.30    1.10
   2  -2   0 1320.87   39.30
  -2   2   0 1328.77   39.30
   1  -2   0  660.33   20.40
  -1   2   0  699.43   20.30
  -1   2   0  693.83   20.40
   0  -2   0 2135.29   65.59
   0   2   0 2200.68   65.39
   0   2   0 2261.27   65.49
   2   2   0  142.49    4.70
   2   2   0  150.88    4.50
   2   2   0  149.39    4.50
   3   2   0  351.16   10.90
   3   2   0  354.06   10.90
   4   2   0   13.40    1.40
   4   2   0   14.20    1.30
   4   2   0   15.20    2.20
  -5  -2   0   79.49    4.20
   5   2   0   81.09    3.60
   5   2   0   85.89    3.40
   5   2   0   82.19    3.20
   5   2   0   77.79    3.90
   6   2   0   75.79    3.40
   6   2   0   77.79    3.20
   7   2   0  136.79    4.70
   7   2   0  131.19    4.70
  -8  -2   0   18.70    1.10
   8   2   0   16.90    1.50
   8  -3   0  101.59    3.60
   8  -3   0  101.09    3.80
   7  -3   0   -2.00    3.10
   7  -3   0    1.00    1.10
   7  -3   0    0.10    1.00
   6  -3   0   65.09    3.00
   6  -3   0   61.89    2.90
   6  -3   0   60.79    3.90
   5  -3   0   22.20    2.40
   5  -3   0   19.50    1.70
   5  -3   0   21.80    3.50
   4  -3   0   51.09    2.30
   4  -3   0   47.80    2.60
   3  -3   0  372.96   11.50
  -3   3   0  369.16   11.40
  -3   3   0  368.76   11.60
   2  -3   0  181.38    6.00
  -2   3   0  189.08    6.00
  -2   3   0  186.18    5.80
   1  -3   0   12.50    0.80
  -1   3   0   14.20    0.90
  -1   3   0   13.70    0.80
   0  -3   0 2625.14   80.39
   0   3   0 2645.04   80.59
   0   3   0 2843.42   80.39
   1   3   0  449.26   14.00
   1   3   0  478.55   14.00
   2   3   0    9.70    0.90
   2   3   0    9.60    0.80
   2   3   0    9.50    0.80
   3   3   0  178.18    5.80
   3   3   0  176.48    5.80
  -4  -3   0   59.49    3.40
   4   3   0   60.99    2.90
   4   3   0   51.29    3.70
   4   3   0   62.89    2.50
   4   3   0   56.29    2.90
  -5  -3   0    3.70    1.60
   5   3   0    4.00    0.90
  -6  -3   0   40.30    2.80
   6   3   0   43.30    2.80
   6   3   0   40.50    2.10
   7   3   0   21.10    1.50
   7   3   0   20.00    2.10
   8  -4   0    1.60    0.80
   7  -4   0   92.49    3.60
   7  -4   0   92.49    4.50
   7  -4   0   85.49    3.60
   6  -4   0  180.48    6.20
   6  -4   0  172.78    6.60
   6  -4   0  170.18    6.10
   5  -4   0  114.29    4.70
   5  -4   0  115.29    5.00
   5  -4   0  114.89    4.30
  -5   4   0  112.39    4.80
   4  -4   0   24.50    1.80
   4  -4   0   23.20    2.90
   4  -4   0   22.60    2.20
  -4   4   0   25.20    1.70
   3  -4   0   17.80    1.70
   3  -4   0   17.60    1.60
   3  -4   0   14.20    1.60
  -3   4   0   14.90    1.20
   2  -4   0  120.29    4.30
  -2   4   0  116.99    4.00
   1  -4   0  273.67    8.70
  -1   4   0  266.37    8.70
  -1   4   0  276.77    8.50
   0  -4   0  623.64   19.10
   0   4   0  594.14   18.90
   0   4   0  667.23   19.20
   1   4   0  466.75   14.00
   1   4   0  450.25   14.10
   2   4   0  969.10   29.60
   2   4   0  978.80   29.60
   2   4   0 1016.50   29.60
  -3  -4   0   74.19    3.60
   3   4   0   72.39    3.00
  -4  -4   0   46.50    2.90
   4   4   0   53.39    3.50
   4   4   0   47.40    2.30
  -5  -4   0   20.10    2.20
   5   4   0   22.00    1.70
  -6  -4   0    7.40    1.70
   6   4   0    9.20    1.20
  -7  -4   0    0.60    0.50
   7   4   0    0.60    0.70
   8  -5   0    0.00    0.70
   7  -5   0   11.30    2.40
   7  -5   0   11.00    1.40
   6  -5   0    1.30    1.00
   6  -5   0    1.50    1.40
   6  -5   0    0.60    1.90
   5  -5   0    9.00    2.30
   5  -5   0    8.40    2.30
   5  -5   0    7.10    1.50
   4  -5   0  508.85   15.80
   4  -5   0  527.85   15.80
   4  -5   0  491.15   16.20
  -4   5   0  504.35   16.00
   3  -5   0   69.29    2.90
   3  -5   0   66.39    3.70
   3  -5   0   71.39    2.90
  -3   5   0   66.39    2.90
   2  -5   0  646.44   19.60
   2  -5   0  657.63   20.00
   2  -5   0  644.54   19.60
  -2   5   0  628.14   19.60
   1  -5   0  684.33   20.90
   1  -5   0  721.63   21.30
   1  -5   0  686.03   21.00
  -1   5   0  675.73   21.00
   0  -5   0   10.70    1.40
   0  -5   0   10.70    1.60
   0   5   0   10.90    1.00
  -1  -5   0   34.70    2.30
   1   5   0   35.70    1.90
   1   5   0   35.90    2.30
  -2  -5   0  477.55   15.10
   2   5   0  484.75   15.00
  -3  -5   0  607.44   18.70
   3   5   0  591.94   18.80
   3   5   0  613.74   18.50
  -4  -5   0  316.77   10.40
   4   5   0  321.17   10.20
  -5  -5   0   87.59    3.60
   5   5   0   83.59    3.40
  -6  -5   0   23.90    1.50
  -6  -5   0   20.40    1.70
   6   5   0   21.20    1.50
  -7  -5   0   46.90    1.80
   8  -6   0    8.50    1.30
   7  -6   0    1.60    1.10
   7  -6   0   -1.00    0.80
   6  -6   0   -0.90    0.80
   6  -6   0    1.30    1.30
   5  -6   0   18.50    2.10
   5  -6   0   12.70    2.60
   5  -6   0   14.00    1.60
   4  -6   0   32.30    2.20
   4  -6   0   29.60    3.00
   4  -6   0   31.50    2.00
   3  -6   0  140.79    4.80
   3  -6   0  129.29    4.70
   3  -6   0  125.09    5.40
   3  -6   0  122.39    5.20
  -3   6   0  128.09    5.00
   2  -6   0  501.65   16.60
   2  -6   0  539.35   16.50
   2  -6   0  535.75   16.50
   2  -6   0  520.45   16.20
  -2   6   0  530.05   16.40
   1  -6   0  596.24   17.70
   1  -6   0  562.64   17.70
   1  -6   0  541.55   18.20
   1  -6   0  601.64   17.80
  -1   6   0  584.94   17.90
   0  -6   0    3.50    1.00
   0  -6   0    1.70    1.20
   0  -6   0    0.90    1.80
   0   6   0    1.20    0.70
  -1  -6   0  909.01   27.10
  -1  -6   0  903.31   27.10
  -1  -6   0  905.21   27.40
  -1  -6   0  841.72   27.80
   1   6   0  937.01   27.40
  -2  -6   0   32.00    2.50
  -2  -6   0   31.10    2.30
   2   6   0   28.50    2.90
   2   6   0   33.50    1.90
  -3  -6   0   47.40    2.80
  -3  -6   0   44.10    3.10
  -3  -6   0   41.30    2.90
   3   6   0   48.30    2.30
  -4  -6   0    8.70    1.40
  -4  -6   0    7.20    1.80
   4   6   0    6.00    1.30
  -5  -6   0   34.30    1.90
  -5  -6   0   35.40    2.00
   5   6   0   31.60    1.80
  -6  -6   0   -0.80    0.80
   6   6   0    0.60    0.80
   7  -7   0   15.10    2.00
   7  -7   0   16.20    1.40
   6  -7   0    0.70    1.10
   6  -7   0    0.00    0.80
   5  -7   0   85.59    4.10
   5  -7   0   88.59    3.70
   4  -7   0    7.90    2.30
   4  -7   0    7.30    1.70
   4  -7   0    7.50    1.50
   3  -7   0   49.20    3.60
   3  -7   0   51.69    2.50
   3  -7   0   48.40    2.50
   3  -7   0   48.50    3.00
   2  -7   0    5.10    1.40
   2  -7   0    3.70    0.90
   2  -7   0    5.20    1.30
   2  -7   0    8.00    1.60
  -2   7   0    3.20    1.50
   1  -7   0  336.97   10.90
   1  -7   0  332.17   11.50
   1  -7   0  348.77   11.00
   1  -7   0  355.16   11.00
  -1   7   0  338.87   11.50
   0  -7   0   83.29    4.10
   0  -7   0   87.79    4.80
   0  -7   0   89.39    3.60
   0  -7   0   90.89    3.60
   0   7   0   83.39    4.40
  -1  -7   0  411.16   13.10
  -1  -7   0  414.46   12.90
  -1  -7   0  407.36   12.80
  -1  -7   0  393.46   13.60
   1   7   0  419.86   13.00
  -2  -7   0   53.39    2.70
  -2  -7   0   53.19    2.90
   2   7   0   51.59    2.50
  -3  -7   0  178.28    6.00
  -3  -7   0  179.98    6.30
   3   7   0  174.88    6.10
   4   7   0   36.20    2.00
  -5  -7   0    0.50    0.70
   5   7   0    0.70    0.80
   7  -8   0   36.10    1.80
   7  -8   0   38.40    2.10
   6  -8   0    0.80    2.30
   6  -8   0    1.50    0.70
   6  -8   0    1.10    1.00
   5  -8   0   48.40    2.50
   5  -8   0   48.80    2.40
   5  -8   0   56.69    3.10
   4  -8   0   44.10    2.30
   4  -8   0   38.30    3.00
   4  -8   0   40.90    2.30
   3  -8   0  189.88    6.40
   3  -8   0  185.38    6.40
   3  -8   0  182.98    6.40
   3  -8   0  177.58    6.90
   2  -8   0  112.99    5.00
   2  -8   0  106.99    4.20
   2  -8   0  112.69    4.30
   2  -8   0  110.19    4.30
   1  -8   0   19.90    2.70
   1  -8   0   19.90    1.90
   1  -8   0   19.00    1.90
   0  -8   0   63.69    4.00
   0  -8   0   68.79    3.60
   0  -8   0   70.89    3.00
   0  -8   0   73.39    3.20
  -1  -8   0    2.00    1.00
  -1  -8   0    1.00    2.10
  -1  -8   0    0.10    1.20
   1   8   0    2.10    0.90
  -2  -8   0   -0.40    1.00
  -2  -8   0    0.20    1.00
   2   8   0    1.90    0.80
  -3  -8   0    0.80    1.20
  -3  -8   0    1.90    0.90
   3   8   0    0.80    0.70
  -4  -8   0   62.99    2.50
   4   8   0   56.99    3.00
   6  -9   0    2.80    0.80
   6  -9   0    3.10    0.80
   5  -9   0    6.60    1.40
   5  -9   0    5.10    1.20
   5  -9   0    4.10    1.00
   4  -9   0    3.60    1.70
   4  -9   0    1.50    0.90
   4  -9   0    2.00    0.80
   3  -9   0    9.00    2.00
   3  -9   0    8.80    1.60
   3  -9   0    6.40    1.30
   3  -9   0    5.30    1.30
   2  -9   0   34.30    2.10
   2  -9   0   36.00    2.70
   2  -9   0   35.60    2.20
   1  -9   0   16.60    2.70
   1  -9   0   13.30    1.70
   1  -9   0   13.40    1.70
   0  -9   0   -0.80    1.10
   0  -9   0    2.30    0.90
   0  -9   0    0.50    1.40
   0   9   0    0.70    0.80
  -1  -9   0    3.50    1.10
   1   9   0    4.50    1.10
  -2  -9   0    0.10    0.80
  -2  -9   0    0.30    0.80
   2   9   0   -0.90    0.70
  -3  -9   0    1.10    0.60
   3   9   0    0.10    0.70
   5 -10   0    0.00    1.00
   5 -10   0    0.60    0.70
   4 -10   0    2.80    0.90
   4 -10   0    2.00    0.80
   3 -10   0    0.90    0.80
   3 -10   0    1.00    0.80
   3 -10   0   -0.40    0.90
   2 -10   0   10.00    1.30
   2 -10   0   10.70    1.20
   2 -10   0    8.10    1.70
   1 -10   0  125.09    4.30
   1 -10   0  128.39    4.50
   1 -10   0  124.29    4.70
  -1  10   0  123.59    4.40
   0 -10   0   14.30    1.20
   0  10   0   15.00    1.30
  -1 -10   0  136.19    4.40
   1  10   0  134.49    4.60
  -2 -10   0   16.70    1.30
  -2 -10   0   15.00    1.30
   2  10   0   16.50    1.30
   3 -11   0   41.70    2.00
   2 -11   0   50.19    2.50
   2 -11   0   48.70    1.80
  -2  11   0   49.60    2.00
   1 -11   0    5.80    0.90
  -1  11   0    4.50    1.10
   0  11  -1   -0.30    0.70
   0 -11   1    0.60    0.50
  -1  11  -1   16.70    1.30
   1 -11   1   16.80    1.80
   1 -11   1   15.10    1.80
   1 -11   1   18.10    1.10
  -2  11  -1    2.40    0.80
   2 -11   1    2.70    0.90
   2 -11   1    2.20    0.60
   2 -11   1    1.60    0.80
  -3  11  -1    4.40    1.10
   3 -11   1    7.80    1.10
   3 -11   1    6.50    1.30
   3 -11   1    5.00    1.10
   2  10  -1   27.20    1.50
  -2 -10   1   29.10    2.00
  -2 -10   1   26.70    1.50
   1  10  -1    5.40    1.10
  -1 -10   1    7.40    1.10
  -1 -10   1   10.30    1.40
   0  10  -1    1.40    0.80
   0 -10   1    1.40    1.20
   0 -10   1    0.90    1.20
   0 -10   1    0.50    0.70
   0 -10   1    2.20    1.10
  -1  10  -1   12.50    1.40
   1 -10   1   13.00    1.60
   1 -10   1    9.50    1.20
   1 -10   1   12.80    2.00
   2 -10   1   78.09    2.90
   2 -10   1   76.89    3.60
   2 -10   1   73.79    3.10
   3 -10   1   -0.30    0.70
   3 -10   1    1.30    0.80
   3 -10   1    0.70    1.00
   4 -10   1   42.90    2.10
   4 -10   1   45.90    2.40
   5 -10   1    5.80    1.40
   5 -10   1    4.80    1.10
   4   9  -1   10.30    1.20
  -4  -9   1   11.90    1.00
   3   9  -1   51.59    2.20
  -3  -9   1   49.80    2.20
   2   9  -1   48.50    2.30
  -2  -9   1   49.40    2.20
  -2  -9   1   50.29    2.50
   1   9  -1   24.30    1.70
  -1  -9   1   27.20    2.20
  -1  -9   1   27.00    1.90
  -1  -9   1   28.90    2.90
   0   9  -1  107.69    4.30
   0  -9   1  113.79    4.30
   0  -9   1  113.09    5.00
   0  -9   1  119.09    4.20
   0  -9   1  118.19    4.50
   1  -9   1  192.68    6.40
   1  -9   1  191.38    7.10
   1  -9   1  178.28    6.40
   2  -9   1   10.30    1.50
   2  -9   1   15.90    1.70
   2  -9   1   13.30    2.30
   3  -9   1   33.10    2.10
   3  -9   1   35.10    2.10
   3  -9   1   35.80    2.10
   3  -9   1   36.50    2.70
   4  -9   1   31.60    2.70
   4  -9   1   24.10    1.80
   4  -9   1   27.50    2.50
   4  -9   1   23.10    1.80
   5  -9   1    1.70    0.80
   5  -9   1    4.00    1.00
   5  -9   1    1.60    1.00
   6  -9   1   49.90    2.30
   6  -9   1   52.59    2.60
   5   8  -1   30.80    1.60
   4   8  -1   27.00    1.60
  -4  -8   1   24.30    1.60
   3   8  -1   65.69    2.90
  -3  -8   1   74.59    3.20
  -3  -8   1   74.19    3.10
   2   8  -1  145.99    5.30
  -2  -8   1  145.19    6.10
  -2  -8   1  135.59    5.30
  -2  -8   1  153.18    5.10
   1   8  -1   20.30    1.80
  -1  -8   1   16.20    2.20
  -1  -8   1   19.40    1.80
  -1  -8   1   18.40    2.30
  -1  -8   1   18.70    3.10
   0  -8   1  339.17   10.80
   0  -8   1  348.77   10.90
   0  -8   1  337.07   11.00
   0  -8   1  333.47   11.50
   1  -8   1  184.68    6.80
   1  -8   1  189.78    6.40
   1  -8   1  185.18    6.30
   1  -8   1  180.58    7.00
   2  -8   1  591.24   17.80
   2  -8   1  562.64   17.60
   2  -8   1  592.04   17.80
   2  -8   1  548.85   18.30
   3  -8   1  103.89    4.10
   3  -8   1  106.69    4.10
   3  -8   1   99.69    4.80
   3  -8   1  104.69    4.10
   4  -8   1  181.88    6.90
   5  -8   1   47.70    3.10
   5  -8   1   45.30    2.50
   5  -8   1   46.90    2.40
   6  -8   1   -0.70    0.70
   6  -8   1    0.50    1.10
   7  -8   1   -1.40    1.10
   7  -8   1    1.10    0.80
   5   7  -1   10.10    1.20
  -5  -7   1    8.60    1.30
  -5  -7   1    8.60    1.50
   4   7  -1  139.99    5.10
  -4  -7   1  142.89    5.40
  -4  -7   1  158.78    5.30
   3   7  -1  227.68    7.30
  -3  -7   1  217.38    7.30
  -3  -7   1  212.78    7.50
   2   7  -1   26.20    1.80
  -2  -7   1   26.70    2.20
  -2  -7   1   24.40    3.60
  -2  -7   1   26.10    2.40
   1   7  -1  274.57    9.70
  -1  -7   1  278.67    9.40
  -1  -7   1  287.37    9.90
  -1  -7   1  290.87    9.10
  -1  -7   1  280.27    9.00
   0   7  -1   17.00    2.60
   0  -7   1   11.80    2.80
   0  -7   1   11.40    1.70
   0  -7   1   14.30    1.60
   0  -7   1   10.80    3.00
  -1   7  -1   61.89    3.40
   1  -7   1   62.69    2.70
   1  -7   1   59.49    4.30
   1  -7   1   60.89    2.90
   1  -7   1   54.69    3.70
   1  -7   1   62.99    2.80
  -2   7  -1   17.00    2.50
   2  -7   1    9.20    2.60
   2  -7   1   13.30    1.60
   2  -7   1   13.00    1.50
   2  -7   1   14.20    2.00
   3  -7   1  265.57    8.90
   3  -7   1  289.77    8.90
   3  -7   1  262.07    8.80
   3  -7   1  260.67    9.30
   4  -7   1   90.39    3.70
   4  -7   1   91.09    3.70
   5  -7   1  243.18    7.90
   5  -7   1  221.58    8.20
   6  -7   1   31.10    1.90
   6  -7   1   38.30    2.70
   7  -7   1   97.69    3.70
   7  -7   1  108.89    4.30
   6   6  -1    1.70    1.00
  -6  -6   1    1.30    0.80
  -6  -6   1   -0.60    0.70
   5   6  -1    3.50    0.90
  -5  -6   1    3.70    1.00
   4   6  -1    0.30    0.70
  -4  -6   1   -0.10    1.00
  -4  -6   1    0.10    1.10
   3   6  -1  489.05   15.00
  -3  -6   1  475.75   15.10
   2   6  -1    2.70    0.80
   2   6  -1    3.00    1.20
  -2  -6   1    2.60    2.30
  -2  -6   1    1.40    1.30
  -2  -6   1    1.50    1.20
   1   6  -1  568.84   18.30
   1   6  -1  571.84   17.70
  -1  -6   1  568.44   17.90
  -1  -6   1  577.74   17.60
  -1  -6   1  591.04   17.60
  -1  -6   1  588.34   18.70
   0   6  -1    1.60    0.70
   0  -6   1    1.40    0.70
   0  -6   1    2.60    0.90
  -1   6  -1  183.78    6.30
   1  -6   1  191.08    6.30
   1  -6   1  188.98    6.20
  -2   6  -1   66.79    2.90
   2  -6   1   57.59    3.60
   2  -6   1   67.09    2.80
   2  -6   1   63.79    2.70
  -3   6  -1  179.98    6.30
   3  -6   1  158.08    6.40
   3  -6   1  179.28    6.60
   3  -6   1  182.88    6.00
   3  -6   1  177.88    6.10
  -4   6  -1   88.29    4.40
   4  -6   1   91.69    3.70
   4  -6   1   96.19    4.40
   4  -6   1   96.79    3.80
   5  -6   1    1.40    1.50
   5  -6   1    3.30    1.40
   5  -6   1    2.20    1.00
   6  -6   1   26.50    1.90
   6  -6   1   30.90    2.90
   7  -6   1    2.80    1.50
   7  -6   1    1.90    0.90
   8  -6   1   74.29    2.90
   7   5  -1   23.70    1.50
  -7  -5   1   24.90    1.30
   6   5  -1   21.30    1.50
  -6  -5   1   20.90    1.50
  -6  -5   1   20.80    1.90
  -5  -5   1   25.10    2.20
   4   5  -1  141.59    5.00
   3   5  -1   33.10    1.80
   3   5  -1   31.20    2.30
  -3  -5   1   34.40    2.50
   2   5  -1  231.88    7.40
   2   5  -1  224.38    7.40
  -2  -5   1  229.68    8.30
   1   5  -1   34.70    2.10
   1   5  -1   37.90    1.70
  -1  -5   1   33.20    2.20
   0   5  -1 1043.00   31.00
   0  -5   1 1064.69   31.10
   0  -5   1 1006.20   31.00
  -1   5  -1  126.79    4.30
   1  -5   1  123.09    4.30
   1  -5   1  123.49    4.40
  -2   5  -1 1005.20   30.40
   2  -5   1 1012.40   30.30
   2  -5   1 1013.90   30.40
   3  -5   1    3.50    0.90
   3  -5   1    5.70    1.50
  -4   5  -1  270.87    9.00
   4  -5   1  259.37    9.30
   4  -5   1  265.67    8.70
   4  -5   1  273.47    8.70
   5  -5   1    4.20    1.70
   5  -5   1    5.30    1.50
   6  -5   1    4.10    1.10
   6  -5   1    2.60    1.70
   6  -5   1    1.10    1.60
   7  -5   1    7.50    1.40
   7  -5   1    9.00    2.10
   7  -5   1    9.90    2.70
   8  -5   1   23.10    1.60
   7   4  -1   14.10    1.30
  -7  -4   1   16.50    1.20
   6   4  -1  113.69    4.30
  -6  -4   1  123.89    4.60
   5   4  -1   46.00    2.20
  -5  -4   1   40.60    2.70
   4   4  -1  611.14   18.90
   4   4  -1  628.94   19.20
  -4  -4   1  614.64   19.00
   3   4  -1   21.10    1.60
   3   4  -1   19.70    1.50
   2   4  -1  545.35   16.80
   2   4  -1  554.74   16.90
   2   4  -1  566.14   17.00
   2   4  -1  559.94   16.90
   1   4  -1  522.15   15.80
   1   4  -1  519.85   16.00
   1   4  -1  530.75   16.00
   0   4  -1  324.97   10.10
   0   4  -1  339.57   10.40
  -1   4  -1  463.55   14.00
  -2   4  -1  146.79    4.80
  -3   4  -1  285.97    8.90
   3  -4   1  286.37    9.00
   3  -4   1  271.07    8.90
  -4   4  -1   52.19    2.50
   4  -4   1   52.79    3.00
   4  -4   1   54.99    2.50
  -5   4  -1   61.69    3.50
   5  -4   1   65.49    3.40
   5  -4   1   66.89    4.20
   5  -4   1   68.99    3.00
   6  -4   1  111.89    5.40
   6  -4   1  123.19    4.50
   6  -4   1  114.69    4.40
   7  -4   1    8.00    1.70
   7  -4   1    3.90    1.00
   8  -4   1   33.50    1.80
   8   3  -1   35.10    1.80
   7   3  -1   12.40    1.30
  -7  -3   1   15.10    1.20
   6   3  -1    0.00    0.90
   6   3  -1    3.60    1.40
   5   3  -1   83.39    4.00
   5   3  -1   93.69    3.40
  -5  -3   1   82.69    4.10
   4   3  -1   16.10    1.40
   4   3  -1   13.70    1.60
  -4  -3   1   11.20    2.90
   3   3  -1  154.78    5.00
   3   3  -1  151.98    5.10
   2   3  -1  221.88    6.80
   2   3  -1  207.68    6.80
   2   3  -1  226.58    6.80
   1   3  -1  393.86   11.70
   1   3  -1  375.86   11.60
   1   3  -1  382.26   11.60
   0   3  -1    3.10    0.40
   0  -3   1    2.50    0.60
  -1   3  -1   18.00    0.90
  -1   3  -1   17.60    0.80
   1  -3   1   17.00    0.90
  -2   3  -1   30.90    1.30
  -2   3  -1   32.80    1.50
   2  -3   1   32.50    1.40
  -3   3  -1   86.39    3.20
   4  -3   1  125.59    4.40
   5  -3   1  688.43   20.80
   5  -3   1  656.23   21.20
   5  -3   1  695.13   20.70
   6  -3   1   41.10    2.30
   6  -3   1   41.40    2.40
   7  -3   1  215.08    7.00
   7  -3   1  205.18    7.10
   8  -3   1  143.69    5.00
   8  -3   1  146.79    4.80
   8   2  -1   25.90    1.60
  -8  -2   1   26.00    1.30
   7   2  -1    2.30    0.80
   7   2  -1    4.80    1.10
   6   2  -1   18.10    1.60
   6   2  -1   15.10    2.10
   5   2  -1   42.90    2.10
   5   2  -1   42.70    2.80
   5   2  -1   40.40    2.80
   4   2  -1  292.27    9.10
   4   2  -1  283.47    9.10
   3   2  -1   49.80    2.40
   3   2  -1   44.30    1.80
   2   2  -1    0.50    0.20
   2   2  -1    1.00    0.20
   2   2  -1    0.60    0.20
   1   2  -1 2239.38   67.79
   1   2  -1 2297.07   67.79
   1   2  -1 2367.06   67.69
  -1  -2   1 2224.48   67.49
   0   2  -1 2524.25   73.19
   0   2  -1 2459.95   72.69
   0  -2   1 2367.66   72.69
  -1   2  -1 2834.02   86.19
  -1   2  -1 3054.49   86.39
   1  -2   1 2833.22   86.49
   2  -2   1 5632.54  166.88
  -3   2  -1 1558.24   45.10
   3  -2   1 1481.05   45.10
   4  -2   1 2097.29   60.79
   4  -2   1 2000.90   60.79
   5  -2   1  133.69    4.60
   5  -2   1  122.89    5.00
   6  -2   1  225.88    7.70
   6  -2   1  232.68    7.60
   6  -2   1  231.58    7.70
   7  -2   1  128.69    4.50
   7  -2   1  120.59    4.60
   8  -2   1   10.20    1.40
   8  -2   1    9.70    1.20
   8   1  -1   -0.20    0.70
  -8  -1   1    0.60    0.60
   7   1  -1  189.28    6.20
   7   1  -1  178.38    6.30
   6   1  -1    1.90    0.90
   6   1  -1    2.30    1.10
   5   1  -1  832.92   24.60
   5   1  -1  798.62   24.50
   5   1  -1  807.22   24.70
   5   1  -1  804.52   24.50
   4   1  -1  318.37   10.10
   4   1  -1  328.57   10.10
   3   1  -1  539.45   16.30
   3   1  -1  543.95   16.10
   2   1  -1 2635.14   78.09
  -2  -1   1 2768.32   77.99
  -2  -1   1 2514.85   77.79
   1   1  -1   58.79    1.80
   1   1  -1   55.09    1.80
  -1  -1   1   53.29    1.80
  -1  -1   1   55.49    1.80
   0   1  -1  299.87    8.40
   0   1  -1  268.77    8.60
  -1   1  -1  912.51   27.50
  -1   1  -1  948.81   27.80
   1  -1   1  931.31   27.80
  -2   1  -1 3167.58   89.59
   2  -1   1 2882.71   89.59
   3  -1   1  433.16   13.10
   4  -1   1   31.00    1.60
   4  -1   1   32.80    1.80
   5  -1   1  260.07    8.70
   5  -1   1  259.37    8.50
   5  -1   1  269.37    8.50
   5  -1   1  259.87    8.50
   6  -1   1  156.98    5.50
   6  -1   1  154.08    5.40
   6  -1   1  148.59    5.40
   7  -1   1    3.70    1.00
   7  -1   1    6.00    1.50
   8  -1   1   12.40    1.50
   8  -1   1   10.50    1.20
   8   0  -1    9.20    1.20
   8   0  -1    9.10    1.30
  -8   0   1   12.30    1.30
   7   0  -1    0.20    0.80
   7   0  -1    0.90    0.90
   6   0  -1    1.70    1.10
   6   0  -1    1.30    0.80
   5   0  -1  214.08    7.40
   5   0  -1  221.58    7.20
   5   0  -1  225.48    7.40
   4   0  -1    6.50    1.20
   4   0  -1    6.00    0.80
   3   0  -1   21.30    1.00
   3   0  -1   22.10    1.00
  -3   0   1   23.40    1.00
   2   0  -1  223.88    6.40
   2   0  -1  201.58    6.40
  -2   0   1  203.18    6.40
  -2   0   1  208.28    6.40
   1   0  -1   30.60    1.00
   1   0  -1   28.90    1.10
  -1   0   1   29.70    1.00
  -1   0   1   28.60    1.10
   0   0  -1    2.60    0.20
   0   0   1    2.50    0.20
   0   0   1    2.30    0.20
  -1   0  -1 1806.82   54.39
   1   0   1 1862.11   54.39
   2   0   1  629.94   18.80
   3   0   1   54.09    2.00
   4   0   1    6.90    1.20
   4   0   1    7.60    1.00
   5   0   1   17.20    1.90
   5   0   1   19.00    2.10
   5   0   1   18.40    1.60
   5   0   1   17.10    2.00
   6   0   1   83.89    3.50
   6   0   1   90.79    3.60
   6   0   1   83.59    3.50
   7   0   1    1.20    0.80
   7   0   1    0.40    0.80
   8   0   1    1.30    0.70
   8   0   1    2.80    0.90
   8  -1  -1   12.70    1.40
   8  -1  -1   10.40    1.30
  -8   1   1   10.70    1.90
   7  -1  -1   12.00    1.70
   7  -1  -1   10.90    1.50
   6  -1  -1    8.40    1.40
   6  -1  -1    6.10    2.00
   6  -1  -1    5.50    1.20
   5  -1  -1   40.70    2.50
   5  -1  -1   36.30    3.80
   4  -1  -1 1853.61   54.99
   4  -1  -1 1859.41   55.09
  -4   1   1 1850.51   54.99
   3  -1  -1  118.89    4.00
  -3   1   1  129.19    4.10
   2  -1  -1 6454.35  199.58
  -2   1   1 7062.19  199.88
  -2   1   1 6704.93  198.98
   1  -1  -1  600.34   19.30
  -1   1   1  659.73   19.30
  -1   1   1  690.83   19.30
   0  -1  -1 2715.13   78.79
   0  -1  -1 2493.55   78.89
   0   1   1 2626.54   78.89
   0   1   1 2789.92   78.79
  -1  -1  -1  102.19    3.20
  -1  -1  -1   98.29    3.30
   1   1   1  104.39    3.20
   1   1   1  106.19    3.20
   2   1   1   88.89    2.90
   3   1   1    1.60    0.40
   4   1   1   33.50    1.80
   4   1   1   35.10    1.90
   5   1   1    8.10    1.30
   5   1   1    9.40    2.00
   5   1   1    8.10    1.90
   5   1   1    4.30    1.10
   6   1   1    1.50    0.90
   6   1   1   -0.40    0.90
   6   1   1    1.90    1.00
   7   1   1   89.29    3.60
   7   1   1  101.09    3.90
  -8  -1  -1    2.80    0.60
   8   1   1    2.80    0.70
   8   1   1    5.50    1.40
   8  -2  -1  144.49    5.10
   8  -2  -1  150.18    5.00
   7  -2  -1   26.00    1.90
   7  -2  -1   30.80    2.10
   7  -2  -1   29.00    3.30
   6  -2  -1  926.11   27.80
   6  -2  -1  907.41   27.70
   5  -2  -1  301.67   10.30
   5  -2  -1  311.07    9.80
   5  -2  -1  310.27    9.90
   4  -2  -1 1367.26   40.60
   4  -2  -1 1409.96   40.50
  -4   2   1 1293.07   40.60
   3  -2  -1   17.80    1.20
  -3   2   1   21.60    1.50
   2  -2  -1   16.70    0.90
  -2   2   1   14.00    0.80
   1  -2  -1  333.07   10.50
  -1   2   1  368.56   10.50
  -1   2   1  332.37   10.40
   0  -2  -1   57.19    2.10
   0  -2  -1   54.59    2.10
   0   2   1   61.59    2.10
  -1  -2  -1 2526.15   74.49
   1   2   1 2433.76   74.49
   1   2   1 2579.14   74.69
   2   2   1  497.95   15.10
   3   2   1  698.23   21.40
   3   2   1  722.23   21.40
   4   2   1    4.70    1.30
   4   2   1    2.50    0.80
   4   2   1    4.60    2.20
  -5  -2  -1   95.19    4.40
   5   2   1  100.99    3.80
   5   2   1   99.39    4.00
  -6  -2  -1   93.89    4.30
   6   2   1   97.09    3.90
   7   2   1    1.50    0.80
   7   2   1    2.80    1.00
  -8  -2  -1    1.20    0.50
   8  -3  -1   22.90    1.70
   7  -3  -1   19.90    1.70
   7  -3  -1   22.70    1.90
   7  -3  -1   25.20    2.80
   6  -3  -1    0.00    1.20
   6  -3  -1    0.70    1.50
   6  -3  -1   -0.70    0.90
   5  -3  -1  434.86   14.20
   5  -3  -1  453.35   13.90
   5  -3  -1  432.96   13.80
  -5   3   1  459.15   14.30
   4  -3  -1  411.26   13.20
   4  -3  -1  432.56   13.20
   4  -3  -1  427.76   13.50
  -4   3   1  427.86   13.30
   3  -3  -1  825.22   24.80
   3  -3  -1  821.62   24.60
  -3   3   1  809.62   24.60
   2  -3  -1  104.49    3.70
  -2   3   1  106.89    3.80
  -2   3   1  103.49    3.50
   1  -3  -1  226.68    7.30
  -1   3   1  239.28    7.40
  -1   3   1  228.88    7.20
   0  -3  -1  338.17   10.40
   0   3   1  326.97   10.30
   0   3   1  349.47   10.40
  -1  -3  -1  548.75   16.70
   1   3   1  541.85   16.70
   1   3   1  565.84   16.70
   2   3   1   23.50    1.50
   2   3   1   24.00    1.30
   2   3   1   25.40    1.20
   2   3   1   24.40    1.50
   3   3   1  135.29    4.70
   3   3   1  132.19    4.60
   4   3   1   20.10    1.50
   4   3   1   27.30    3.40
   4   3   1   18.90    2.20
   4   3   1   21.30    2.20
  -5  -3  -1  118.89    4.70
   5   3   1  124.09    4.40
   5   3   1  117.99    4.80
   5   3   1  121.19    4.50
  -6  -3  -1  193.18    6.40
   6   3   1  191.38    6.50
   6   3   1  177.08    6.30
   7   3   1   11.70    1.50
   8  -4  -1    0.20    0.80
   8  -4  -1   -0.60    1.60
   7  -4  -1   68.79    3.50
   7  -4  -1   61.59    3.10
   7  -4  -1   62.19    2.80
   6  -4  -1    1.60    0.90
   6  -4  -1    4.10    1.50
   6  -4  -1    0.40    1.30
   5  -4  -1   43.80    2.80
   5  -4  -1   41.80    3.50
   5  -4  -1   37.70    3.10
   5  -4  -1   45.30    2.30
  -5   4   1   38.50    3.10
   4  -4  -1  374.16   11.80
   4  -4  -1  375.56   12.70
   4  -4  -1  380.66   11.80
   4  -4  -1  359.26   12.20
  -4   4   1  389.36   12.00
   3  -4  -1  261.47    8.20
   3  -4  -1  250.17    8.60
   3  -4  -1  259.97    8.20
  -3   4   1  254.07    8.30
   2  -4  -1  366.36   11.60
   2  -4  -1  384.76   11.90
   2  -4  -1  375.56   11.60
  -2   4   1  369.66   11.60
   1  -4  -1    8.30    1.10
  -1   4   1   10.20    0.90
   0  -4  -1   73.29    3.90
   0   4   1   65.99    2.60
   1   4   1  111.79    3.80
   1   4   1  106.69    4.20
   2   4   1   15.00    1.30
   2   4   1   17.90    1.40
   3   4   1    6.70    1.60
   3   4   1    6.30    1.60
   3   4   1    8.30    1.30
  -4  -4  -1    1.90    1.20
   4   4   1    0.10    0.70
  -5  -4  -1  181.38    6.40
  -6  -4  -1    0.20    0.90
   6   4   1    0.80    0.80
  -7  -4  -1    1.60    0.60
   7   4   1    1.90    0.90
   8  -5  -1   22.00    1.50
   8  -5  -1   22.60    2.20
   7  -5  -1   17.10    1.50
   7  -5  -1   21.50    2.40
   6  -5  -1   68.39    3.00
   6  -5  -1   68.09    3.60
   5  -5  -1   10.20    2.40
   5  -5  -1    7.00    1.50
   5  -5  -1    8.40    1.50
   4  -5  -1   23.30    2.70
   4  -5  -1   27.00    1.80
   4  -5  -1   26.20    2.10
  -4   5   1   25.50    2.30
   3  -5  -1   -0.20    1.50
   3  -5  -1    0.10    0.80
   3  -5  -1   -0.50    0.80
  -3   5   1    0.60    0.70
   2  -5  -1  536.95   16.40
   2  -5  -1  548.05   16.40
   2  -5  -1  521.85   17.00
  -2   5   1  529.15   16.60
   1  -5  -1   35.20    2.00
   1  -5  -1   30.90    2.30
   1  -5  -1   32.90    2.00
  -1   5   1   34.00    1.80
   0  -5  -1  428.86   13.20
   0  -5  -1  425.66   13.20
   0   5   1  423.16   13.30
  -1  -5  -1  289.27    9.70
   1   5   1  322.97    9.90
  -2  -5  -1  468.05   14.70
  -2  -5  -1  465.45   15.00
   2   5   1  481.65   14.90
   2   5   1  481.15   14.70
  -3  -5  -1   22.70    2.60
   3   5   1   24.20    1.70
  -4  -5  -1   55.09    3.00
   4   5   1   60.69    2.70
  -5  -5  -1    9.80    1.60
   5   5   1   10.90    1.30
  -6  -5  -1   45.90    2.10
  -6  -5  -1   47.90    2.00
   8  -6  -1    9.60    2.20
   7  -6  -1    4.70    1.10
   7  -6  -1    3.10    1.00
   6  -6  -1  198.08    6.80
   6  -6  -1  171.18    6.50
   6  -6  -1  183.68    6.30
   5  -6  -1  139.39    5.60
   5  -6  -1  139.09    5.20
   5  -6  -1  138.29    5.10
   4  -6  -1  731.23   24.10
   4  -6  -1  736.63   22.50
   4  -6  -1  735.83   22.50
   3  -6  -1  486.05   15.10
   3  -6  -1  489.85   15.10
   3  -6  -1  464.45   15.00
   3  -6  -1  492.15   15.50
  -3   6   1  482.45   15.50
   2  -6  -1  118.09    4.40
   2  -6  -1  123.19    4.40
   2  -6  -1  116.59    4.50
   1  -6  -1   37.90    2.10
   1  -6  -1   37.60    2.10
   1  -6  -1   39.50    2.60
   1  -6  -1   32.60    3.70
  -1   6   1   37.20    2.40
   0  -6  -1  451.15   14.70
   0  -6  -1  477.85   14.60
   0  -6  -1  435.16   15.40
   0  -6  -1  490.75   14.60
   0   6   1  482.75   14.80
  -1  -6  -1    1.50    1.40
  -1  -6  -1    2.10    1.50
  -1  -6  -1    1.10    1.20
   1   6   1    2.00    1.30
  -2  -6  -1  338.07   11.40
  -2  -6  -1  352.96   11.70
   2   6   1  362.96   11.20
  -3  -6  -1   75.59    3.50
  -3  -6  -1   67.89    3.30
   3   6   1   74.69    3.10
  -4  -6  -1  339.37   10.40
  -4  -6  -1  334.87   10.60
   4   6   1  314.77   10.50
  -5  -6  -1   91.09    3.40
  -5  -6  -1   93.39    3.50
   5   6   1   89.09    3.40
  -6  -6  -1   25.00    1.50
   7  -7  -1   29.70    2.00
   6  -7  -1    3.80    1.40
   6  -7  -1    1.90    0.80
   6  -7  -1    2.10    1.30
   5  -7  -1    9.40    1.40
   5  -7  -1   16.80    2.10
   5  -7  -1   11.00    1.70
   4  -7  -1   86.69    3.50
   4  -7  -1   83.19    4.10
   4  -7  -1   82.59    3.60
   3  -7  -1  443.66   14.40
   3  -7  -1  445.36   14.00
   3  -7  -1  439.96   13.90
   3  -7  -1  438.16   13.80
   2  -7  -1  422.66   13.90
   2  -7  -1  434.86   13.50
   2  -7  -1  417.96   13.40
   1  -7  -1  704.53   21.80
   1  -7  -1  727.63   21.80
   1  -7  -1  699.33   22.30
   0  -7  -1  419.76   13.40
   0  -7  -1  417.06   14.10
   0  -7  -1  442.96   13.40
  -1  -7  -1  290.47    9.80
  -1  -7  -1  297.47    9.60
   1   7   1  309.17    9.80
  -2  -7  -1  109.69    4.30
  -2  -7  -1  110.39    4.10
   2   7   1  108.19    4.10
  -3  -7  -1   62.79    2.80
  -3  -7  -1   57.39    2.90
   3   7   1   56.19    2.60
  -4  -7  -1   16.70    1.50
   4   7   1   17.70    1.40
  -5  -7  -1   14.70    1.20
   5   7   1   15.40    1.40
   7  -8  -1   63.79    2.60
   7  -8  -1   69.39    2.70
   6  -8  -1   62.39    2.80
   6  -8  -1   58.49    2.50
   6  -8  -1   58.79    2.90
   5  -8  -1  100.49    3.80
   5  -8  -1   98.49    3.80
   4  -8  -1   51.69    2.50
   4  -8  -1   49.30    2.60
   4  -8  -1   54.69    3.10
   3  -8  -1   48.70    2.70
   3  -8  -1   48.90    3.30
   2  -8  -1  148.89    5.30
   2  -8  -1  149.69    5.40
   2  -8  -1  150.28    6.00
   2  -8  -1  150.88    5.40
   1  -8  -1    8.60    1.80
   1  -8  -1    9.50    1.70
   1  -8  -1    7.30    1.60
   0  -8  -1   64.29    3.40
   0  -8  -1   59.49    4.10
   0  -8  -1   61.99    2.80
  -1  -8  -1   -1.00    0.90
  -1  -8  -1   -0.40    1.10
   1   8   1    0.60    0.80
  -2  -8  -1   91.49    3.60
   2   8   1   82.29    3.40
  -3  -8  -1   -1.20    1.20
  -3  -8  -1   -0.30    0.80
   3   8   1    0.00    0.70
  -4  -8  -1   20.90    1.30
   4   8   1   19.90    1.40
   6  -9  -1   97.89    3.50
   6  -9  -1   99.29    3.60
   5  -9  -1    2.00    0.90
   5  -9  -1    4.40    1.10
   5  -9  -1    3.30    1.00
   4  -9  -1  171.28    6.00
   4  -9  -1  162.38    5.70
   4  -9  -1  171.38    5.70
   3  -9  -1   -1.60    1.20
   3  -9  -1    1.20    0.90
   3  -9  -1    1.40    0.90
   2  -9  -1   48.40    3.30
   2  -9  -1   53.29    2.40
   2  -9  -1   48.90    2.40
   1  -9  -1   -0.20    0.80
   1  -9  -1   -0.70    1.00
   1  -9  -1    0.90    1.30
   0  -9  -1   56.49    3.00
   0  -9  -1   59.29    2.90
   0   9   1   58.99    2.60
  -1  -9  -1   16.60    1.40
  -1  -9  -1   17.20    1.70
   1   9   1   16.40    1.40
  -2  -9  -1   87.49    3.20
  -2  -9  -1   86.89    3.10
  -3  -9  -1    1.60    0.60
   3   9   1    3.30    0.90
   4 -10  -1   11.90    1.20
   4 -10  -1   12.90    1.50
   3 -10  -1   11.30    1.70
   3 -10  -1    9.80    1.20
   3 -10  -1    8.50    1.10
   2 -10  -1   60.89    2.90
   2 -10  -1   59.69    2.60
   2 -10  -1   60.39    2.30
  -2  10   1   60.89    2.50
   1 -10  -1   41.70    1.80
   1 -10  -1   41.60    2.40
   0 -10  -1   74.69    2.60
   0  10   1   72.89    2.80
   1  10   1    5.90    1.10
   1  11  -2   79.59    2.90
  -1 -11   2   74.99    2.80
  -1 -11   2   77.29    3.10
   0  11  -2    2.50    0.80
   0 -11   2    1.70    0.60
  -1  11  -2   31.90    1.70
   1 -11   2   32.60    1.50
   1 -11   2   31.50    1.80
   1 -11   2   30.80    2.00
  -2  11  -2    7.70    1.30
   2 -11   2    6.70    1.20
   2 -11   2    7.20    1.40
   2 -11   2    6.30    1.00
   3 -11   2   15.00    1.50
   3 -11   2   14.10    1.30
   4 -11   2    0.00    0.80
   4 -11   2    1.00    0.70
   3  10  -2    0.50    0.80
  -3 -10   2   -0.20    0.60
   2  10  -2   12.60    1.30
  -2 -10   2   13.80    1.20
  -2 -10   2   15.00    1.30
   1  10  -2   23.50    1.60
  -1 -10   2   24.20    1.70
  -1 -10   2   24.30    1.50
  -1 -10   2   23.10    2.30
   0  10  -2   31.60    1.90
   0 -10   2   33.70    2.20
   0 -10   2   36.00    2.00
   0 -10   2   38.00    2.60
   0 -10   2   32.80    2.10
   1 -10   2  153.78    5.20
   1 -10   2  143.09    5.20
   2 -10   2  119.39    4.90
   2 -10   2  136.99    4.70
   3 -10   2  198.28    6.20
   3 -10   2  189.38    6.50
   3 -10   2  191.28    6.90
   4 -10   2  117.69    4.60
   4 -10   2  121.09    4.30
   5 -10   2   26.90    1.70
   5 -10   2   26.00    1.90
   5 -10   2   23.10    1.90
   4   9  -2   76.29    2.80
  -4  -9   2   72.99    2.70
   3   9  -2  114.69    4.10
  -3  -9   2  118.79    4.20
   2   9  -2   61.89    2.70
  -2  -9   2   63.29    3.50
  -2  -9   2   67.59    3.00
   1   9  -2   10.40    1.40
  -1  -9   2    9.80    1.40
  -1  -9   2    7.40    1.60
  -1  -9   2    9.60    1.90
  -1  -9   2   12.30    1.90
   0  -9   2  118.19    4.60
   0  -9   2  115.79    5.00
   0  -9   2  113.19    4.20
   1  -9   2    1.50    1.00
   1  -9   2   -0.60    1.60
   1  -9   2    0.30    1.30
   1  -9   2    2.00    0.90
   2  -9   2    2.00    1.30
   2  -9   2    3.30    1.00
   3  -9   2   20.40    1.80
   3  -9   2   19.30    2.50
   3  -9   2   18.10    1.70
   3  -9   2   21.60    1.90
   4  -9   2   74.99    3.20
   4  -9   2   79.09    3.30
   4  -9   2   78.29    3.30
   4  -9   2   76.29    3.80
   5  -9   2   -0.90    1.00
   5  -9   2    0.10    0.80
   5  -9   2    1.10    1.10
   6  -9   2   55.19    2.40
   6  -9   2   53.99    2.60
   5   8  -2    1.00    0.70
  -5  -8   2    0.60    0.70
   4   8  -2    6.10    1.20
  -4  -8   2    3.70    0.90
   3   8  -2   11.10    1.30
  -3  -8   2   11.00    1.80
  -3  -8   2   10.40    1.70
   2   8  -2  122.69    4.50
  -2  -8   2  122.49    4.40
  -2  -8   2  123.69    4.70
  -2  -8   2  118.39    5.30
   1   8  -2   62.09    2.80
  -1  -8   2   64.69    3.00
  -1  -8   2   60.69    3.70
  -1  -8   2   60.19    2.80
  -1  -8   2   58.09    3.10
   0  -8   2  224.58    8.30
   0  -8   2  225.48    7.80
   0  -8   2  228.28    7.50
   0  -8   2  229.98    7.50
   1  -8   2  114.09    4.30
   1  -8   2  110.09    4.20
   1  -8   2  112.79    5.00
   2  -8   2  332.77   10.40
   2  -8   2  327.27   10.60
   2  -8   2  325.17   11.10
   2  -8   2  320.57   10.50
   3  -8   2   -0.40    0.90
   3  -8   2    2.20    1.50
   3  -8   2   -1.50    1.10
   3  -8   2    1.30    1.00
   4  -8   2    5.20    1.20
   4  -8   2    2.50    1.50
   4  -8   2    2.30    1.00
   5  -8   2    1.00    0.90
   5  -8   2    2.40    1.40
   5  -8   2    1.10    1.10
   6  -8   2    7.10    1.40
   6  -8   2    4.10    1.30
   7  -8   2   18.60    1.70
   6   7  -2   18.00    1.40
  -6  -7   2   19.30    1.30
  -6  -7   2   17.50    1.40
   5   7  -2  109.29    4.00
  -5  -7   2  108.59    3.90
  -5  -7   2  116.69    4.00
   4   7  -2    1.70    0.80
  -4  -7   2    1.80    1.20
  -4  -7   2   -0.10    1.00
   3   7  -2    5.60    1.30
  -3  -7   2    8.60    1.60
  -3  -7   2    4.90    1.20
  -3  -7   2    5.60    1.40
   2   7  -2   74.09    3.00
  -2  -7   2   71.09    3.40
  -2  -7   2   66.29    3.20
  -2  -7   2   73.89    4.20
   1   7  -2    1.90    1.40
  -1  -7   2    2.50    1.30
  -1  -7   2    3.20    1.00
  -1  -7   2    0.70    1.50
  -1  -7   2    0.00    1.00
   0   7  -2   77.19    3.80
   0  -7   2   76.99    3.90
   0  -7   2   80.39    4.30
   0  -7   2   84.19    3.40
   0  -7   2   84.49    3.30
  -1   7  -2   67.29    3.30
   1  -7   2   60.69    4.10
   1  -7   2   65.79    3.80
   1  -7   2   66.49    3.00
   1  -7   2   72.19    2.90
   1  -7   2   68.49    2.90
  -2   7  -2   58.89    3.40
   2  -7   2   58.29    3.60
   2  -7   2   58.29    2.60
   2  -7   2   55.39    3.00
   2  -7   2   56.59    2.70
  -3   7  -2  315.87   11.20
   3  -7   2  322.17   10.50
   3  -7   2  333.07   10.60
   3  -7   2  345.07   10.50
   3  -7   2  327.57   11.00
   4  -7   2    2.00    1.40
   4  -7   2    1.30    1.10
   4  -7   2    3.20    1.00
   5  -7   2    3.80    1.50
   5  -7   2    3.70    1.10
   6  -7   2   43.90    2.30
   7  -7   2   21.60    2.30
   6   6  -2   15.30    1.30
  -6  -6   2   15.20    1.60
  -6  -6   2   14.30    1.30
   5   6  -2  128.39    4.80
  -5  -6   2  142.79    5.00
  -5  -6   2  143.39    4.90
   4   6  -2    1.50    0.70
  -4  -6   2    1.40    1.10
  -4  -6   2    2.50    1.20
   3   6  -2  559.04   16.80
  -3  -6   2  562.34   17.00
  -3  -6   2  517.05   16.80
  -3  -6   2  540.45   17.40
   2   6  -2   71.79    2.80
   2   6  -2   62.99    3.60
  -2  -6   2   63.79    3.20
  -2  -6   2   59.99    3.90
  -2  -6   2   61.89    4.20
  -2  -6   2   64.89    3.20
  -2  -6   2   66.09    3.10
   1   6  -2   18.10    1.50
   1   6  -2   18.70    2.70
  -1  -6   2   18.40    1.70
  -1  -6   2   16.00    2.60
  -1  -6   2   13.00    2.20
   0   6  -2    7.00    1.20
   0   6  -2    8.60    2.10
   0  -6   2    6.00    1.30
   0  -6   2    6.00    1.20
  -1   6  -2   71.69    2.90
   1  -6   2   73.99    3.00
   1  -6   2   69.19    2.80
  -2   6  -2   85.29    3.50
   2  -6   2   87.79    3.50
   2  -6   2   89.89    4.90
   2  -6   2   89.59    3.30
  -3   6  -2  759.82   23.50
   3  -6   2  785.62   23.70
   3  -6   2  707.73   23.20
   3  -6   2  775.02   23.20
   3  -6   2  796.42   23.30
  -4   6  -2   70.49    3.90
   4  -6   2   78.89    4.10
   4  -6   2   76.79    3.20
   4  -6   2   71.49    3.20
   5  -6   2  438.36   13.40
   5  -6   2  407.36   13.70
   6  -6   2   12.50    2.80
   6  -6   2    5.70    1.50
   7  -6   2   41.70    2.20
   7   5  -2    0.40    0.70
  -7  -5   2   -0.20    0.50
   6   5  -2   50.19    2.30
  -6  -5   2   54.69    2.70
  -6  -5   2   55.29    3.00
   5   5  -2  104.19    3.80
  -5  -5   2   97.79    3.80
  -5  -5   2   97.39    4.00
   4   5  -2    0.80    0.80
  -4  -5   2    0.50    1.20
   3   5  -2  372.16   11.40
   3   5  -2  368.76   11.50
  -3  -5   2  354.96   12.20
  -3  -5   2  357.26   11.60
   2   5  -2   10.50    1.80
   2   5  -2    8.60    1.20
   2   5  -2    8.40    1.00
  -2  -5   2   10.00    2.10
   1   5  -2  828.02   25.00
   1   5  -2  864.71   25.40
  -1  -5   2  813.92   25.10
   0   5  -2  432.46   12.70
   0   5  -2  416.66   12.30
   0  -5   2  381.26   12.40
   0  -5   2  384.36   12.40
  -1   5  -2  666.23   19.90
   1  -5   2  653.43   20.00
   1  -5   2  658.73   19.90
  -2   5  -2    3.90    0.80
   2  -5   2    2.90    1.10
   2  -5   2    1.40    0.90
  -3   5  -2  618.44   19.00
   3  -5   2  632.14   19.00
   3  -5   2  613.44   18.90
  -4   5  -2  231.48    7.80
   4  -5   2  227.88    7.60
   4  -5   2  223.18    8.40
   4  -5   2  238.38    7.70
   5  -5   2    1.50    1.00
   5  -5   2   12.80    3.20
   5  -5   2    3.50    1.70
   6  -5   2  148.09    5.20
   6  -5   2  137.69    5.20
   6  -5   2  139.99    5.90
   7  -5   2   -0.60    1.10
   7  -5   2   -0.80    1.00
   8  -5   2   12.10    1.60
   7   4  -2  161.38    5.50
  -7  -4   2  167.98    5.40
   6   4  -2   66.39    2.90
  -6  -4   2   77.09    2.90
  -6  -4   2   67.79    3.50
   5   4  -2   80.29    4.50
   5   4  -2   89.39    3.40
  -5  -4   2   85.19    3.90
   4   4  -2   13.30    1.40
   4   4  -2   14.00    2.10
  -4  -4   2   16.40    2.40
   3   4  -2  476.45   14.60
   3   4  -2  478.05   14.60
   2   4  -2 1605.04   47.60
   2   4  -2 1542.65   47.40
   2   4  -2 1606.34   47.30
   2   4  -2 1630.54   47.50
   1   4  -2  307.17    9.70
   1   4  -2  311.97    9.50
   1   4  -2  316.47    9.80
   0   4  -2 1578.64   48.00
   0   4  -2 1664.13   48.10
   0   4  -2 1600.04   47.70
  -1   4  -2  129.29    4.10
  -1   4  -2  123.59    4.40
  -2   4  -2  109.39    3.60
  -2   4  -2  106.59    3.90
  -3   4  -2  558.74   17.10
   3  -4   2  564.54   17.20
  -4   4  -2   -0.10    1.20
   4  -4   2    6.00    1.70
   5  -4   2    0.20    1.30
   5  -4   2    1.10    1.00
   5  -4   2   -2.10    2.30
   6  -4   2  208.88    7.10
   6  -4   2  202.98    6.90
   7  -4   2   10.90    1.60
   7  -4   2    9.10    1.60
   8  -4   2   39.70    2.20
   8  -4   2   44.70    2.00
   8   3  -2    8.80    1.20
  -8  -3   2    9.50    0.90
   7   3  -2    0.30    0.80
  -7  -3   2   -0.30    0.70
   6   3  -2  336.47   10.70
   6   3  -2  331.67   10.70
   5   3  -2  101.69    4.80
   5   3  -2  108.89    3.90
   5   3  -2  103.09    4.40
  -5  -3   2  106.99    4.90
   4   3  -2  294.07    9.30
   4   3  -2  293.57    9.30
   3   3  -2 1594.74   48.20
   3   3  -2 1607.94   48.20
   3   3  -2 1669.03   48.10
   2   3  -2  408.86   12.30
   2   3  -2  399.56   12.20
   2   3  -2  401.66   12.20
   1   3  -2  269.97    7.80
   1   3  -2  246.88    8.00
   1   3  -2  263.77    8.00
  -1  -3   2  251.27    7.90
   0   3  -2  513.95   16.30
   0   3  -2  552.04   16.10
   0   3  -2  570.94   16.40
   0  -3   2  532.85   16.20
  -1   3  -2  244.48    7.80
  -1   3  -2  271.27    7.80
  -1   3  -2  257.07    8.00
  -2   3  -2 1359.46   40.40
  -3   3  -2 1578.74   47.00
   4  -3   2  768.52   23.30
   5  -3   2  656.43   19.70
   5  -3   2  654.43   19.80
   5  -3   2  630.24   19.70
   6  -3   2  116.29    4.80
   6  -3   2  132.39    4.70
   6  -3   2  119.19    4.50
   7  -3   2    1.80    0.90
   7  -3   2   -0.10    1.10
   8  -3   2    1.70    1.00
   8  -3   2    0.30    0.70
   8   2  -2   77.89    3.10
  -8  -2   2   83.39    2.80
   7   2  -2    6.40    1.20
   7   2  -2    6.40    1.20
  -7  -2   2    7.90    1.30
   6   2  -2   11.50    2.00
   6   2  -2   13.90    1.50
   5   2  -2   66.49    4.10
   5   2  -2   67.99    2.70
   5   2  -2   66.39    3.20
   5   2  -2   62.09    3.20
   4   2  -2  240.68    7.60
   4   2  -2  235.28    7.60
   3   2  -2  631.04   18.90
   3   2  -2  627.34   18.90
   2   2  -2  127.69    4.10
  -2  -2   2  128.09    4.10
  -2  -2   2  126.99    4.10
   1   2  -2 3978.80  122.09
   1   2  -2 4219.58  121.49
  -1  -2   2 4124.39  121.39
  -1  -2   2 4128.39  122.09
   0   2  -2  816.32   23.00
   0   2  -2  736.33   23.10
  -1   2  -2 3509.55  102.99
  -1   2  -2 3433.26  103.29
  -1   2  -2 3490.45  103.19
  -2   2  -2  776.82   22.40
  -2   2  -2  762.52   22.40
   2  -2   2  712.43   22.30
  -3   2  -2  165.78    5.30
  -3   2  -2  171.58    5.20
   3  -2   2  161.58    5.30
   4  -2   2    3.00    0.70
   4  -2   2    4.10    0.90
   5  -2   2  484.25   14.90
   5  -2   2  488.15   14.90
   5  -2   2  473.05   15.20
   5  -2   2  481.35   14.90
   6  -2   2   71.29    3.10
   6  -2   2   64.89    3.20
   6  -2   2   67.49    3.00
   7  -2   2  120.49    4.60
   7  -2   2  130.99    4.50
   8  -2   2    1.60    1.00
   8  -2   2    2.60    0.70
   8   1  -2    5.30    1.20
  -8  -1   2    7.90    1.10
   7   1  -2  170.08    5.60
   7   1  -2  148.59    5.50
   6   1  -2    0.30    1.10
   6   1  -2   -0.20    0.70
   6   1  -2    0.30    1.70
   5   1  -2  152.38    5.50
   5   1  -2  143.69    6.10
   5   1  -2  169.38    5.40
   5   1  -2  158.38    5.60
   4   1  -2    0.20    0.70
   4   1  -2   -0.50    0.40
   3   1  -2  312.07    9.60
   3   1  -2  312.87    9.60
  -3  -1   2  317.97    9.60
   2   1  -2  870.31   27.00
   2   1  -2  976.80   26.90
  -2  -1   2  890.21   27.00
  -2  -1   2  899.41   27.00
   1   1  -2  688.63   19.30
   1   1  -2  626.74   19.40
  -1  -1   2  647.64   19.40
  -1  -1   2  648.04   19.30
   0   1  -2  897.11   27.00
   0   1  -2  909.71   26.80
   0  -1   2  909.21   26.80
   0  -1   2  907.31   27.00
  -1   1  -2 7949.40  241.78
  -1   1  -2 8432.46  241.78
  -2   1  -2   53.89    1.70
  -2   1  -2   54.39    1.70
   2  -1   2   48.90    1.80
   3  -1   2  861.21   25.70
   4  -1   2  321.77   10.10
   5  -1   2   17.10    1.90
   5  -1   2   17.20    1.60
   5  -1   2   16.80    1.90
   5  -1   2   16.50    2.00
   6  -1   2   17.90    1.90
   6  -1   2   17.00    1.80
   6  -1   2   17.80    1.80
   7  -1   2   22.90    1.90
   7  -1   2   23.80    1.70
   8  -1   2   26.20    2.00
   8  -1   2   28.00    1.50
   8   0  -2   12.80    1.40
  -8   0   2   13.80    1.50
   7   0  -2  113.19    4.80
   7   0  -2  103.59    4.10
   7   0  -2  115.19    4.20
   6   0  -2  334.17   10.70
   6   0  -2  334.27   10.70
   5   0  -2  364.46   11.40
   5   0  -2  352.96   11.70
   5   0  -2  366.76   11.40
   4   0  -2  310.17    9.60
   4   0  -2  323.07    9.60
   4   0  -2  299.57    9.50
  -4   0   2  291.07    9.60
   3   0  -2  116.69    3.90
   3   0  -2  115.59    3.80
  -3   0   2  116.89    3.90
   2   0  -2 1052.69   31.80
  -2   0   2 1091.89   31.80
   1   0  -2 4296.57  133.69
  -1   0   2 4676.33  133.09
  -1   0   2 4528.45  133.59
   0   0  -2  708.83   21.10
   0   0  -2  678.93   21.20
   0   0   2  719.63   21.10
   0   0   2  741.03   21.20
  -1   0  -2  500.05   16.10
  -1   0  -2  556.54   16.10
   1   0   2  542.35   16.00
   1   0   2  553.94   16.00
   2   0   2   32.70    1.30
   3   0   2  132.59    4.40
   4   0   2  709.43   21.50
   4   0   2  713.53   21.60
   5   0   2   10.40    2.10
   5   0   2   12.30    1.80
   5   0   2    8.20    1.80
   5   0   2   10.00    1.50
   6   0   2  191.38    6.40
   6   0   2  183.28    6.20
   6   0   2  177.38    6.20
   7   0   2    6.60    1.30
   7   0   2    7.00    1.40
   8   0   2    9.60    1.10
   8   0   2   13.50    1.80
   8  -1  -2   54.99    2.50
   7  -1  -2   11.60    1.70
   7  -1  -2   11.90    2.70
   7  -1  -2   13.50    1.50
  -7   1   2   16.10    2.30
   6  -1  -2   69.69    3.30
   6  -1  -2   70.99    3.00
   5  -1  -2  209.98    7.00
   5  -1  -2  213.28    6.90
   5  -1  -2  203.68    7.30
   4  -1  -2  806.92   24.30
   4  -1  -2  824.32   24.20
  -4   1   2  781.32   24.40
   3  -1  -2  130.89    4.40
  -3   1   2  132.19    4.50
   2  -1  -2  289.97    9.40
  -2   1   2  312.47    9.40
  -2   1   2  309.77    9.30
   1  -1  -2   10.20    0.60
   1  -1  -2    9.70    0.60
  -1   1   2   12.10    0.60
   0  -1  -2  911.71   27.50
   0  -1  -2  858.41   27.50
   0   1   2  961.60   27.50
   0   1   2  970.80   27.40
  -1  -1  -2  338.67   10.30
   1   1   2  360.46   10.30
   1   1   2  331.57   10.40
   2   1   2    9.00    0.70
   3   1   2    1.60    0.80
   4   1   2   21.70    1.60
   4   1   2   20.20    2.00
   4   1   2   20.40    2.30
   4   1   2   22.00    1.60
   5   1   2  102.39    4.10
   5   1   2  104.29    4.00
   5   1   2  107.69    4.00
  -6  -1  -2   13.80    2.80
   6   1   2   16.60    1.90
   6   1   2   16.80    1.80
   6   1   2   18.00    1.80
   7   1   2   67.99    2.90
   7   1   2   69.89    2.80
   8   1   2   18.10    1.40
   8  -2  -2   39.10    3.10
   8  -2  -2   44.50    2.20
   7  -2  -2  150.48    5.50
   7  -2  -2  146.59    5.20
   7  -2  -2  136.89    5.20
   6  -2  -2   41.90    2.30
   6  -2  -2   42.30    2.60
   6  -2  -2   44.80    3.00
   5  -2  -2   44.90    2.20
   5  -2  -2   40.90    3.20
   5  -2  -2   40.20    2.80
  -5   2   2   42.70    2.60
   4  -2  -2  157.78    5.30
   4  -2  -2  147.89    5.60
   4  -2  -2  155.58    5.60
  -4   2   2  160.78    5.30
   3  -2  -2  293.27    9.30
  -3   2   2  288.17    9.40
  -3   2   2  300.37    9.20
   2  -2  -2   11.20    0.90
  -2   2   2    9.50    1.00
  -2   2   2    9.90    0.70
   1  -2  -2 1442.06   44.30
  -1   2   2 1477.25   44.20
  -1   2   2 1562.24   44.40
   0  -2  -2  186.58    6.00
   0   2   2  197.28    6.10
   0   2   2  192.78    6.00
  -1  -2  -2 2212.18   64.59
   1   2   2 2155.58   64.79
   2   2   2  226.68    7.20
   3   2   2   21.00    1.50
   4   2   2   -0.30    1.40
   4   2   2    0.60    0.80
   4   2   2   -0.30    0.90
   4   2   2   -0.60    1.10
   5   2   2   33.70    2.40
   5   2   2   29.60    2.00
   5   2   2   31.40    2.30
  -6  -2  -2   17.40    2.30
   6   2   2   19.40    2.10
   6   2   2   12.70    1.60
   7   2   2   46.80    2.30
   7   2   2   50.39    2.30
   8  -3  -2  115.49    4.50
   8  -3  -2  118.19    4.20
   7  -3  -2  127.69    4.90
   7  -3  -2  121.19    4.60
   7  -3  -2  128.19    4.60
   6  -3  -2  112.69    4.50
   6  -3  -2  115.49    4.80
   6  -3  -2  118.19    4.40
   5  -3  -2  620.44   19.10
   5  -3  -2  626.84   18.90
   5  -3  -2  592.34   18.80
  -5   3   2  618.14   19.20
   4  -3  -2   70.99    2.90
   4  -3  -2   71.39    3.20
   4  -3  -2   69.39    3.80
  -4   3   2   70.39    3.00
   3  -3  -2   -0.20    0.60
   3  -3  -2    0.60    1.10
   3  -3  -2    1.00    0.80
  -3   3   2    1.50    0.40
   2  -3  -2  158.78    5.40
  -2   3   2  160.28    5.20
   1  -3  -2   21.30    1.30
  -1   3   2   20.40    1.40
  -1   3   2   21.10    1.10
   0  -3  -2    2.70    0.80
   0   3   2    1.50    0.50
   0   3   2    1.70    0.50
  -1  -3  -2  945.71   28.40
   1   3   2  966.20   28.50
   1   3   2  938.41   28.50
   2   3   2  816.32   24.50
   2   3   2  803.82   24.40
   3   3   2  548.65   18.00
   3   3   2  602.74   18.10
   3   3   2  603.74   18.00
   4   3   2  542.85   17.20
   4   3   2  550.14   17.00
   4   3   2  562.44   17.00
  -5  -3  -2    3.50    1.20
   5   3   2    4.60    1.60
   5   3   2    3.70    1.00
   5   3   2    3.80    1.10
  -6  -3  -2   40.70    2.40
   6   3   2   40.90    2.80
   6   3   2   39.20    2.10
   7   3   2    2.30    1.00
   8  -4  -2    1.70    1.10
   8  -4  -2    1.60    0.80
   7  -4  -2    0.10    0.90
   7  -4  -2    1.10    1.20
   6  -4  -2    2.50    0.90
   6  -4  -2    2.00    1.20
   5  -4  -2   80.39    3.90
   5  -4  -2   79.29    3.30
   5  -4  -2   75.09    3.50
   4  -4  -2  346.17   11.40
   4  -4  -2  350.06   11.00
  -4   4   2  344.17   11.20
   3  -4  -2  727.23   21.90
   3  -4  -2  743.43   21.90
   3  -4  -2  685.43   22.40
  -3   4   2  728.83   22.00
   2  -4  -2  812.12   24.70
   2  -4  -2  821.32   24.70
   2  -4  -2  816.02   25.10
  -2   4   2  821.12   24.70
   1  -4  -2  248.68    8.00
   1  -4  -2  240.28    7.70
   1  -4  -2  239.08    7.70
  -1   4   2  231.48    7.70
   0  -4  -2 1384.46   42.30
   0  -4  -2 1441.46   42.60
   0  -4  -2 1446.66   42.40
   0   4   2 1412.76   42.40
   1   4   2   32.90    1.80
   2   4   2   25.60    1.70
   2   4   2   30.40    1.90
   3   4   2  662.23   20.40
   3   4   2  668.53   20.00
   3   4   2  631.54   20.00
  -4  -4  -2  646.04   20.70
   4   4   2  695.33   20.60
  -5  -4  -2   71.59    3.20
   5   4   2   67.39    2.90
  -6  -4  -2  403.56   12.30
   6   4   2  390.06   12.30
   8  -5  -2    0.70    0.70
   8  -5  -2    0.20    0.80
   7  -5  -2    0.20    0.70
   7  -5  -2    2.30    1.10
   6  -5  -2   16.60    2.60
   6  -5  -2   14.40    2.30
   5  -5  -2   14.80    2.30
   5  -5  -2   14.00    2.00
   5  -5  -2   13.30    1.60
   4  -5  -2    3.20    0.90
   4  -5  -2    8.90    2.30
   4  -5  -2    1.80    1.00
  -4   5   2    1.90    1.30
   3  -5  -2   68.39    4.50
   3  -5  -2   65.49    3.80
   3  -5  -2   70.79    3.00
   3  -5  -2   66.19    3.00
  -3   5   2   69.59    3.20
   2  -5  -2  166.68    5.60
   2  -5  -2  161.98    5.60
  -2   5   2  156.78    5.70
   1  -5  -2  435.36   13.50
   1  -5  -2  407.46   14.10
   1  -5  -2  437.66   13.40
   1  -5  -2  468.85   14.40
  -1   5   2  417.56   13.60
   0  -5  -2 1027.70   31.90
   0  -5  -2 1078.19   31.40
   0  -5  -2 1005.30   31.30
   0   5   2 1062.79   31.60
  -1  -5  -2    5.90    1.30
  -1  -5  -2    4.10    1.60
  -2  -5  -2 2432.96   72.39
  -2  -5  -2 2433.06   72.09
   2   5   2 2378.56   72.59
   2   5   2 2478.15   72.19
  -3  -5  -2  119.29    4.80
  -3  -5  -2  125.29    4.90
   3   5   2  127.69    4.60
  -4  -5  -2  423.86   13.50
   4   5   2  429.56   13.40
  -5  -5  -2   83.89    3.30
   5   5   2   85.69    3.30
  -6  -5  -2   25.20    1.50
  -6  -5  -2   23.90    1.40
   6   5   2   22.20    1.60
   8  -6  -2   48.00    2.30
   8  -6  -2   42.60    2.00
   7  -6  -2   -0.60    0.70
   7  -6  -2    1.10    0.90
   6  -6  -2   52.19    2.50
   6  -6  -2   60.29    3.10
   6  -6  -2   53.09    2.90
   5  -6  -2    6.40    1.80
   5  -6  -2    9.30    1.50
   5  -6  -2    4.80    1.40
   4  -6  -2  280.67    9.60
   4  -6  -2  279.37    9.30
   4  -6  -2  283.97    9.20
   3  -6  -2   97.69    3.90
   3  -6  -2  104.79    3.90
   3  -6  -2   90.69    4.40
   3  -6  -2   97.49    4.20
   2  -6  -2  271.37    8.80
   2  -6  -2  269.17    8.70
   2  -6  -2  260.57    9.30
   2  -6  -2  266.37    8.70
  -2   6   2  260.87    9.10
   1  -6  -2    1.70    2.00
   1  -6  -2    3.70    1.10
   1  -6  -2    2.10    0.90
   1  -6  -2    1.60    1.20
  -1   6   2    2.10    1.10
   0  -6  -2  143.79    5.10
   0  -6  -2  139.89    5.60
   0  -6  -2  141.79    5.10
   0   6   2  143.39    5.70
  -1  -6  -2  108.09    4.50
  -1  -6  -2  118.19    4.90
   1   6   2  119.89    4.30
  -2  -6  -2   82.19    3.90
  -2  -6  -2   82.19    3.50
   2   6   2   84.79    3.40
  -3  -6  -2    2.00    1.20
  -3  -6  -2   -0.50    1.00
   3   6   2    1.60    0.90
  -4  -6  -2   25.80    2.00
   4   6   2   24.10    1.70
  -5  -6  -2    0.50    0.70
   5   6   2    1.90    0.90
   7  -7  -2   19.00    1.40
   7  -7  -2   20.50    1.60
   6  -7  -2    4.00    1.00
   6  -7  -2    3.30    0.90
   6  -7  -2    4.30    1.30
   5  -7  -2   61.59    3.10
   5  -7  -2   59.59    2.80
   5  -7  -2   57.39    2.70
   4  -7  -2  142.59    5.50
   4  -7  -2  132.79    5.10
   4  -7  -2  138.79    5.00
   3  -7  -2   37.10    2.50
   3  -7  -2   35.10    2.20
   3  -7  -2   37.00    2.20
   3  -7  -2   33.40    2.90
   2  -7  -2  178.08    6.10
   2  -7  -2  184.28    6.30
   2  -7  -2  178.88    6.10
   2  -7  -2  165.48    6.70
   1  -7  -2   71.59    3.20
   1  -7  -2   74.39    3.20
   1  -7  -2   69.09    4.40
   0  -7  -2  224.38    7.70
   0  -7  -2  232.68    7.90
   0  -7  -2  235.58    7.80
  -1  -7  -2   63.39    2.90
  -1  -7  -2   60.19    3.10
   1   7   2   64.69    2.80
  -2  -7  -2    3.60    1.10
  -2  -7  -2    3.70    1.00
   2   7   2    3.20    0.90
  -3  -7  -2  117.09    4.20
   3   7   2  112.89    4.10
  -4  -7  -2   26.90    1.60
   4   7   2   26.50    1.70
   6  -8  -2   86.09    3.50
   6  -8  -2   96.39    3.60
   6  -8  -2   91.39    3.40
   5  -8  -2  140.19    5.00
   5  -8  -2  149.09    5.30
   5  -8  -2  145.69    5.00
   4  -8  -2  110.19    4.30
   4  -8  -2  122.49    4.70
   4  -8  -2  113.49    4.20
   3  -8  -2  370.26   11.70
   3  -8  -2  339.47   11.30
   3  -8  -2  371.16   11.10
   3  -8  -2  334.57   11.20
   2  -8  -2   19.30    2.70
   2  -8  -2   18.20    1.80
   2  -8  -2   22.00    1.80
   1  -8  -2  230.38    7.80
   1  -8  -2  236.78    7.70
   1  -8  -2  231.88    8.40
   0  -8  -2   20.10    2.50
   0  -8  -2   12.40    2.20
   0   8   2   13.90    1.50
  -1  -8  -2    4.40    1.00
   1   8   2    4.50    1.20
  -2  -8  -2  150.88    5.10
  -2  -8  -2  155.68    5.20
   2   8   2  152.78    5.20
  -3  -8  -2   35.20    1.70
   3   8   2   35.50    1.90
   5  -9  -2   29.50    1.80
   5  -9  -2   30.10    1.60
   5  -9  -2   29.70    1.70
   4  -9  -2    2.80    1.00
   4  -9  -2    7.10    1.20
   3  -9  -2    0.90    0.80
   3  -9  -2   -0.60    0.80
   3  -9  -2    0.60    1.00
   2  -9  -2    1.40    0.90
   2  -9  -2    1.20    0.80
   2  -9  -2    0.00    1.20
   1  -9  -2   46.50    2.40
   1  -9  -2   44.30    2.10
  -1   9   2   45.10    2.20
   0  -9  -2   67.49    2.60
   0   9   2   68.39    2.80
  -1  -9  -2   39.50    2.10
  -1  -9  -2   41.10    1.80
  -2  -9  -2   66.89    2.40
  -2  -9  -2   65.49    2.50
   2   9   2   68.19    2.60
   4 -10  -2    1.10    0.90
   4 -10  -2    0.80    0.80
   3 -10  -2    1.80    1.00
   3 -10  -2    0.40    0.70
   3 -10  -2   -0.80    0.70
  -3  10   2    0.80    0.80
   2 -10  -2    5.80    0.90
   2 -10  -2    6.60    1.50
  -2  10   2    7.00    1.20
   1 -10  -2   10.50    0.90
  -1  10   2    9.40    1.20
   0 -10  -2    8.10    0.90
   0  10   2    6.40    1.60
  -2 -11   3    2.30    0.60
   1  11  -3   37.10    1.90
  -1 -11   3   35.40    1.60
   0  11  -3    2.10    0.80
   0 -11   3    2.00    0.90
   0 -11   3    4.10    0.90
   0 -11   3    2.50    1.10
   1 -11   3    1.00    0.70
   1 -11   3    1.60    0.90
  -2  11  -3    9.60    1.50
   2 -11   3    9.00    1.50
   2 -11   3    9.90    1.30
   2 -11   3   10.20    1.10
   3 -11   3   22.20    1.80
   3 -11   3   24.00    1.40
   3 -11   3   22.30    1.50
   4 -11   3    5.40    1.30
   4 -11   3    2.50    0.90
   3  10  -3   78.09    2.90
  -3 -10   3   77.59    2.80
   2  10  -3   20.90    1.50
  -2 -10   3   24.10    1.60
  -2 -10   3   24.00    1.50
   1  10  -3   53.89    2.50
  -1 -10   3   61.09    3.10
  -1 -10   3   60.79    2.40
  -1 -10   3   57.19    2.80
  -1 -10   3   60.49    2.70
   0  10  -3   48.80    2.40
   0 -10   3   44.90    2.40
   0 -10   3   51.89    2.30
   0 -10   3   49.90    3.00
   0 -10   3   46.30    2.40
   1 -10   3   62.59    2.80
   1 -10   3   63.19    3.40
   1 -10   3   69.69    2.80
   1 -10   3   62.29    3.10
   2 -10   3   45.40    2.40
   2 -10   3   48.50    3.10
   2 -10   3   54.59    2.30
   3 -10   3    2.50    1.40
   3 -10   3    3.00    0.90
   3 -10   3    1.90    0.90
   4 -10   3    2.60    0.90
   4 -10   3    2.40    1.00
   5 -10   3    3.80    1.20
   5 -10   3    5.70    1.70
   4   9  -3   32.40    1.70
  -4  -9   3   30.20    1.60
   3   9  -3    0.00    0.70
  -3  -9   3    0.30    1.10
  -3  -9   3   -0.60    0.80
   2   9  -3   14.50    1.50
  -2  -9   3   18.00    2.40
  -2  -9   3   13.90    1.80
  -2  -9   3   18.30    1.60
   1   9  -3  175.08    6.40
  -1  -9   3  197.18    6.30
  -1  -9   3  188.58    6.60
  -1  -9   3  188.28    6.40
  -1  -9   3  191.88    7.00
   0  -9   3   23.70    2.60
   0  -9   3   21.30    1.80
   0  -9   3   18.40    2.20
   0  -9   3   22.00    1.80
   1  -9   3  280.07    8.90
   1  -9   3  272.97    9.00
   1  -9   3  268.17    8.80
   1  -9   3  271.07    9.50
   2  -9   3  357.96   11.30
   2  -9   3  365.16   11.50
   2  -9   3  360.36   12.00
   2  -9   3  352.36   11.50
   3  -9   3  159.38    5.20
   3  -9   3  140.89    5.30
   3  -9   3  144.39    5.30
   3  -9   3  148.39    5.90
   4  -9   3   65.69    3.10
   4  -9   3   77.29    3.80
   4  -9   3   73.09    3.10
   4  -9   3   71.99    3.20
   5  -9   3    1.90    1.20
   5  -9   3    2.40    1.00
   5  -9   3    3.30    1.10
   6  -9   3    7.80    2.00
   6  -9   3    7.50    1.80
   5   8  -3   45.10    2.00
  -5  -8   3   40.20    2.20
  -5  -8   3   43.20    1.90
   4   8  -3   66.89    2.70
  -4  -8   3   66.79    2.90
  -4  -8   3   65.89    2.80
   3   8  -3  172.58    6.00
  -3  -8   3  182.68    6.20
  -3  -8   3  172.48    5.90
   2   8  -3  293.77    9.30
  -2  -8   3  288.57    9.20
  -2  -8   3  287.77    9.30
  -2  -8   3  280.47    9.40
  -2  -8   3  284.97    9.80
   1   8  -3    1.10    0.90
  -1  -8   3    0.60    1.30
  -1  -8   3    0.10    1.00
  -1  -8   3    0.30    1.10
  -1  -8   3    1.40    1.00
   0  -8   3  339.37   11.30
   0  -8   3  337.17   10.60
   0  -8   3  318.77   11.00
   1  -8   3    3.50    1.20
   1  -8   3    2.60    2.10
   1  -8   3    3.70    0.90
   1  -8   3    5.20    1.60
   2  -8   3    9.00    1.40
   2  -8   3    8.90    2.40
   2  -8   3    7.70    1.60
   2  -8   3    8.30    1.70
   3  -8   3   78.39    3.40
   3  -8   3   80.09    3.40
   3  -8   3   80.09    3.50
   3  -8   3   84.19    4.20
   4  -8   3  237.58    8.10
   4  -8   3  240.38    8.60
   4  -8   3  238.18    7.90
   5  -8   3   14.60    2.10
   5  -8   3   14.30    1.80
   5  -8   3   15.20    2.60
   6  -8   3   73.29    3.10
   6  -8   3   75.39    3.80
   6   7  -3    0.80    0.80
  -6  -7   3    1.40    0.90
  -6  -7   3    1.40    0.70
   5   7  -3   43.30    2.10
  -5  -7   3   41.10    2.10
  -5  -7   3   41.80    2.20
   4   7  -3    1.80    0.80
  -4  -7   3    3.00    1.10
  -4  -7   3    0.40    1.00
   3   7  -3  117.39    4.20
  -3  -7   3  111.69    4.40
  -3  -7   3  104.59    4.20
  -3  -7   3  108.79    4.40
   2   7  -3  394.36   12.30
  -2  -7   3  396.26   12.20
  -2  -7   3  391.26   12.20
  -2  -7   3  381.96   12.80
  -2  -7   3  382.16   12.40
  -2  -7   3  391.16   12.50
  -1  -7   3   10.60    2.70
  -1  -7   3   14.60    2.10
  -1  -7   3   15.10    1.70
  -1  -7   3   15.90    1.90
   0  -7   3  355.36   11.00
   0  -7   3  354.26   11.70
   0  -7   3  343.27   11.20
   0  -7   3  344.37   11.00
  -1   7  -3  227.18    7.70
   1  -7   3  235.18    7.40
   1  -7   3  229.38    7.50
   1  -7   3  225.98    7.40
   1  -7   3  220.38    8.10
   1  -7   3  219.98    7.80
  -2   7  -3  260.57    8.90
   2  -7   3  267.67    8.60
   2  -7   3  262.37    9.20
   2  -7   3  265.77    8.50
   2  -7   3  259.97    8.50
  -3   7  -3   11.70    3.50
   3  -7   3   12.30    1.50
   3  -7   3   13.80    1.70
   3  -7   3    9.90    2.20
   3  -7   3   12.00    1.80
   4  -7   3   88.29    3.70
   4  -7   3   85.69    3.60
   4  -7   3   87.29    4.40
   5  -7   3    2.30    1.70
   6  -7   3   26.70    2.00
   6  -7   3   22.30    3.10
  -7  -6   3  119.19    3.80
   6   6  -3    4.80    1.20
  -6  -6   3    5.90    1.10
  -6  -6   3    8.70    1.60
   5   6  -3  183.18    6.50
  -5  -6   3  205.58    6.50
  -5  -6   3  196.88    6.60
   4   6  -3   16.20    1.50
  -4  -6   3   17.80    2.20
  -4  -6   3   15.40    1.90
   3   6  -3   68.39    2.80
  -3  -6   3   66.39    3.30
  -3  -6   3   64.09    3.20
  -3  -6   3   69.99    4.10
   2   6  -3  159.18    5.20
  -2  -6   3  148.99    5.50
  -2  -6   3  147.99    5.50
  -2  -6   3  153.98    6.10
  -2  -6   3  143.89    5.70
  -2  -6   3  152.88    5.30
   1   6  -3   52.89    3.30
   1   6  -3   51.39    2.30
  -1  -6   3   49.70    2.40
  -1  -6   3   49.00    3.10
   0   6  -3   19.60    1.40
   0   6  -3   19.10    2.10
   0  -6   3   20.50    1.50
   0  -6   3   18.50    1.60
  -1   6  -3  262.17    8.90
  -1   6  -3  262.07    8.30
   1  -6   3  267.07    8.40
   1  -6   3  258.67    8.40
  -2   6  -3  386.16   12.20
   2  -6   3  391.46   12.00
   2  -6   3  384.16   12.10
  -3   6  -3  165.38    5.80
   3  -6   3  169.78    5.60
   3  -6   3  161.78    6.30
   3  -6   3  148.69    5.90
  -4   6  -3    5.80    1.60
   4  -6   3    5.50    1.30
   4  -6   3    5.90    1.70
   4  -6   3    6.20    1.70
   5  -6   3   51.79    2.80
   5  -6   3   52.09    3.70
   6  -6   3   11.80    1.80
   7  -6   3   17.80    1.90
   7   5  -3   65.89    2.70
  -7  -5   3   71.89    2.50
   6   5  -3    4.50    1.20
  -6  -5   3    4.90    1.40
  -6  -5   3    5.50    1.20
   5   5  -3  179.18    6.70
   5   5  -3  185.88    6.20
  -5  -5   3  185.08    6.40
  -5  -5   3  178.98    6.10
   4   5  -3   65.19    2.80
  -4  -5   3   64.99    3.30
  -4  -5   3   69.29    3.00
   3   5  -3  263.07    8.30
   3   5  -3  265.07    8.20
  -3  -5   3  244.38    8.30
  -3  -5   3  252.27    9.00
  -3  -5   3  251.67    8.50
   2   5  -3   78.79    3.30
   2   5  -3   75.29    3.00
   2   5  -3   80.79    2.80
  -2  -5   3   73.99    3.20
   1   5  -3  115.89    3.80
   1   5  -3  120.79    4.30
  -1  -5   3  115.09    4.10
   0   5  -3  182.18    5.80
   0   5  -3  189.08    6.20
   0  -5   3  178.78    6.00
  -1   5  -3 1004.40   30.30
  -1   5  -3  999.10   29.90
   1  -5   3 1007.40   30.00
  -2   5  -3   64.09    2.50
  -2   5  -3   66.79    2.90
   2  -5   3   66.49    2.70
   2  -5   3   63.19    3.00
  -3   5  -3  115.59    4.60
  -3   5  -3  113.39    4.20
   3  -5   3  118.69    4.20
   3  -5   3  112.69    4.40
  -4   5  -3  878.41   26.30
   4  -5   3  819.62   26.40
   4  -5   3  878.51   26.10
   5  -5   3   46.00    2.70
   6  -5   3  176.68    6.10
   7  -5   3    2.70    1.10
   7  -5   3    5.70    1.30
   7   4  -3   13.80    1.30
  -7  -4   3   13.70    1.10
   6   4  -3   20.80    1.60
  -6  -4   3   22.50    1.60
   5   4  -3   66.19    2.80
   5   4  -3   63.19    3.70
  -5  -4   3   56.19    5.30
   4   4  -3    7.30    1.30
   4   4  -3    6.50    1.20
  -4  -4   3    7.50    1.70
   3   4  -3  166.38    5.40
   3   4  -3  165.58    5.50
   3   4  -3  165.88    5.70
   2   4  -3 1153.68   34.70
   2   4  -3 1178.18   34.40
   2   4  -3 1141.79   34.80
   1   4  -3 1258.67   38.50
   1   4  -3 1305.87   38.70
   1   4  -3 1389.96   38.20
  -1  -4   3 1214.38   38.30
   0   4  -3  770.52   23.50
   0   4  -3  738.23   23.40
   0   4  -3  820.42   23.10
  -1   4  -3   50.49    2.10
  -1   4  -3   47.40    1.80
  -1   4  -3   48.50    2.20
  -2   4  -3  123.29    4.40
  -2   4  -3  115.49    4.40
  -2   4  -3  119.99    4.00
  -3   4  -3  566.44   17.10
   3  -4   3  549.65   17.10
   4  -4   3  187.88    6.50
   5  -4   3  126.39    4.70
   5  -4   3  127.99    4.90
   6  -4   3  300.67    9.70
   6  -4   3  307.67   10.00
   7  -4   3   25.00    2.10
   7  -4   3   21.40    2.10
   8  -4   3   59.79    2.40
   8  -4   3   68.79    4.10
   8   3  -3   32.20    1.80
  -8  -3   3   32.60    1.40
  -8  -3   3   31.40    1.80
   7   3  -3   51.39    2.40
   6   3  -3    6.00    1.40
   6   3  -3    8.30    1.40
   6   3  -3    6.40    1.70
  -6  -3   3   10.50    1.40
   5   3  -3    7.90    1.30
   5   3  -3    8.00    1.60
   5   3  -3   13.10    2.80
   4   3  -3    7.10    1.30
   4   3  -3    9.60    1.30
   3   3  -3  234.68    7.50
   3   3  -3  240.68    7.30
   3   3  -3  228.98    7.40
   2   3  -3    7.40    0.70
  -2  -3   3    4.70    1.10
   1   3  -3  145.89    4.20
   1   3  -3  133.59    4.50
  -1  -3   3  138.09    4.30
   0   3  -3 2928.71   84.39
   0   3  -3 2912.71   84.29
   0   3  -3 2731.43   84.49
  -1   3  -3    2.30    0.50
  -1   3  -3    1.40    0.50
  -1   3  -3    1.00    0.20
  -1   3  -3    1.10    0.30
  -2   3  -3 1163.98   35.40
  -2   3  -3 1212.68   35.40
  -3   3  -3  259.27    7.90
  -3   3  -3  245.58    8.00
   4  -3   3  687.23   20.90
   6  -3   3   75.59    3.40
   6  -3   3   74.69    3.10
   6  -3   3   73.79    3.40
   7  -3   3    1.00    1.10
   7  -3   3    0.60    0.80
   7  -3   3    2.20    1.20
   8  -3   3    2.40    1.40
   8  -3   3    6.40    1.00
   8   2  -3    7.80    2.20
  -8  -2   3    5.80    1.10
   7   2  -3   92.49    5.00
   7   2  -3   98.09    3.80
  -7  -2   3  106.69    3.70
   6   2  -3  271.07    9.00
   6   2  -3  272.47    8.80
   6   2  -3  263.57    8.80
   5   2  -3   85.49    3.30
   5   2  -3   83.79    3.80
   5   2  -3   78.79    4.00
   5   2  -3   82.19    3.60
   4   2  -3  404.36   12.40
   4   2  -3  397.26   12.30
   3   2  -3  312.97    9.50
   3   2  -3  308.37    9.30
  -3  -2   3  295.67    9.50
   2   2  -3  909.11   25.20
   2   2  -3  817.72   25.40
  -2  -2   3  857.41   25.30
  -2  -2   3  821.72   25.40
   1   2  -3   34.10    1.00
   1   2  -3   31.10    1.30
  -1  -2   3   31.40    1.40
  -1  -2   3   31.90    1.00
   0   2  -3    2.00    0.40
   0  -2   3    2.40    0.50
  -1   2  -3  519.75   15.80
  -1   2  -3  522.45   15.70
   1  -2   3  535.85   15.60
  -2   2  -3  264.07    8.00
  -2   2  -3  271.57    8.10
   2  -2   3  248.88    8.00
  -3   2  -3    2.00    0.70
  -3   2  -3    1.50    0.40
   3  -2   3    2.40    0.60
   4  -2   3   45.30    2.40
   4  -2   3   42.70    2.10
   5  -2   3   46.20    2.50
   5  -2   3   46.00    2.70
   5  -2   3   43.40    3.00
   6  -2   3   10.90    1.60
   6  -2   3    7.60    1.80
   6  -2   3   10.40    1.90
   7  -2   3    3.60    1.20
   7  -2   3    3.80    0.90
   7  -2   3    4.30    1.20
   8  -2   3    2.70    2.30
   8   1  -3   -0.10    0.80
  -8  -1   3    0.20    0.80
   7   1  -3    1.80    1.50
   7   1  -3   -0.10    1.00
   7   1  -3    1.20    0.80
  -7  -1   3    1.10    1.00
   6   1  -3   31.70    2.00
   6   1  -3   32.10    2.40
   6   1  -3   33.00    2.70
   5   1  -3  152.28    5.80
   5   1  -3  154.88    5.60
   5   1  -3  167.88    5.50
   4   1  -3   52.79    2.50
   4   1  -3   54.79    2.40
   4   1  -3   54.79    2.20
   3   1  -3  306.07    9.00
   3   1  -3  288.77    9.20
  -3  -1   3  289.47    9.20
   2   1  -3  849.12   25.90
  -2  -1   3  888.41   26.00
  -2  -1   3  866.51   25.80
   1   1  -3 4409.46  135.09
  -1  -1   3 4576.34  134.09
  -1  -1   3 4632.84  134.19
  -1  -1   3 4563.04  135.09
   0   1  -3  566.84   16.70
   0   1  -3  557.74   16.90
   0  -1   3  582.34   16.70
   0  -1   3  554.24   16.90
  -1   1  -3   44.00    1.50
  -1   1  -3   38.80    1.50
   1  -1   3   38.70    1.40
   1  -1   3   40.10    1.50
   3  -1   3  527.05   16.00
   4  -1   3  226.28    7.30
   4  -1   3  219.88    7.20
   4  -1   3  218.18    7.20
   4  -1   3  217.88    7.20
   5  -1   3   11.70    1.80
   5  -1   3    7.70    1.60
   5  -1   3   11.30    1.70
   6  -1   3  127.69    4.60
   6  -1   3  131.19    4.80
   6  -1   3  123.69    4.60
   7  -1   3    3.30    1.20
   7  -1   3    2.50    0.80
   8  -1   3    6.80    1.00
   8   0  -3   75.49    3.00
  -8   0   3   78.19    4.00
   7   0  -3  152.48    5.60
   7   0  -3  140.09    5.30
   7   0  -3  155.68    5.30
  -7   0   3  147.89    5.20
   6   0  -3   37.50    2.20
   6   0  -3   35.20    2.70
   6   0  -3   36.20    2.50
   5   0  -3   50.49    2.90
   5   0  -3   52.79    3.20
   5   0  -3   55.19    2.40
   4   0  -3    1.40    0.70
  -4   0   3    2.20    1.10
   3   0  -3  578.14   17.10
  -3   0   3  543.15   17.10
   2   0  -3   73.09    2.50
  -2   0   3   68.99    2.40
  -2   0   3   71.09    2.60
  -1   0   3 1280.77   36.80
  -1   0   3 1208.28   37.00
   0   0  -3 1599.04   48.40
   0   0  -3 1614.64   47.80
   0   0   3 1615.24   47.90
   0   0   3 1649.54   48.10
  -1   0  -3  394.56   12.00
   1   0   3  389.06   12.00
   1   0   3  410.46   11.90
   2   0   3  669.83   20.10
   3   0   3  432.86   14.10
   3   0   3  489.05   14.60
   4   0   3  127.99    4.60
   4   0   3  119.69    4.60
   4   0   3  130.29    4.60
   4   0   3  132.09    4.60
   4   0   3  126.09    5.00
   5   0   3   61.89    2.80
   5   0   3   53.29    3.20
   5   0   3   60.69    2.90
   6   0   3    2.00    0.90
   6   0   3    1.20    0.90
   7   0   3    2.80    1.20
   7   0   3    5.70    1.20
   8   0   3   25.40    1.40
   8  -1  -3   27.30    2.40
   8  -1  -3   32.40    1.80
   7  -1  -3   16.10    1.90
   7  -1  -3   14.50    1.70
   7  -1  -3   17.50    2.20
   6  -1  -3  663.93   20.80
   6  -1  -3  693.93   20.90
   6  -1  -3  686.63   21.00
   5  -1  -3  216.68    7.40
   5  -1  -3  225.68    7.30
   5  -1  -3  224.08    7.60
  -5   1   3  222.48    7.60
   4  -1  -3  842.82   25.60
   4  -1  -3  811.52   25.40
   4  -1  -3  825.32   25.30
  -4   1   3  887.81   25.40
   3  -1  -3  292.47    9.20
  -3   1   3  279.67    9.20
  -3   1   3  295.27    9.00
   2  -1  -3  731.73   22.60
  -2   1   3  782.12   22.60
  -2   1   3  737.93   22.40
   1  -1  -3   63.29    2.30
  -1   1   3   64.19    2.20
  -1   1   3   65.79    2.40
   0  -1  -3    4.90    0.50
   0   1   3    4.60    0.70
   0   1   3    5.20    0.50
  -1  -1  -3  156.18    4.90
   1   1   3  157.58    4.90
   1   1   3  150.38    4.90
   2   1   3 1357.56   40.40
   3   1   3   41.50    2.30
   3   1   3   42.10    2.00
   4   1   3   30.90    2.00
   4   1   3   31.30    2.20
   4   1   3   29.70    2.30
   4   1   3   38.70    2.40
   4   1   3   35.50    2.70
   5   1   3   47.00    2.50
   5   1   3   50.49    2.60
   5   1   3   45.30    2.60
  -6  -1  -3    2.80    1.40
   6   1   3    1.90    1.00
   6   1   3    1.30    0.90
   6   1   3    0.10    0.90
   7   1   3    1.80    0.70
   7   1   3    3.40    1.30
   8  -2  -3   14.00    2.00
   8  -2  -3   13.10    1.40
   7  -2  -3    3.10    1.00
   7  -2  -3    1.90    1.20
   6  -2  -3    2.30    1.20
   6  -2  -3    1.50    1.00
   6  -2  -3    0.60    1.20
   5  -2  -3   36.50    2.10
   5  -2  -3   31.20    2.70
   5  -2  -3   34.30    2.90
   5  -2  -3   29.30    2.70
  -5   2   3   32.40    2.60
   4  -2  -3  287.57    9.70
   4  -2  -3  294.97    9.30
   4  -2  -3  293.07    9.30
   3  -2  -3  129.49    4.60
   3  -2  -3  130.49    4.70
  -3   2   3  131.19    4.40
  -2   2   3   80.09    2.80
  -2   2   3   77.79    3.20
   1  -2  -3  336.77   10.60
  -1   2   3  357.36   10.70
  -1   2   3  328.17   10.40
   0  -2  -3    7.00    0.80
   0   2   3    8.00    0.70
   0   2   3    9.40    1.10
  -1  -2  -3    1.40    0.40
   1   2   3    1.30    0.40
   2   2   3   87.59    3.20
   2   2   3   84.29    3.40
   3   2   3  416.86   13.00
   3   2   3  393.96   13.00
   3   2   3  428.26   12.90
   3   2   3  417.56   13.00
   4   2   3  154.38    5.40
   4   2   3  144.69    5.50
   4   2   3  149.88    5.20
   5   2   3  194.18    6.60
   5   2   3  196.38    6.60
   5   2   3  190.58    6.60
   6   2   3    7.40    1.50
   7   2   3  127.59    4.60
   8  -3  -3   61.29    2.80
   8  -3  -3   59.99    2.60
   7  -3  -3   12.10    1.60
   7  -3  -3    9.00    2.00
   6  -3  -3   81.19    3.80
   6  -3  -3   84.69    3.50
   5  -3  -3   67.19    3.50
   5  -3  -3   69.99    3.40
   5  -3  -3   66.09    3.00
  -5   3   3   67.19    3.70
   4  -3  -3   32.90    2.80
   4  -3  -3   34.90    2.00
   4  -3  -3   39.30    2.30
  -4   3   3   35.30    2.10
   3  -3  -3 1278.17   37.50
   3  -3  -3 1249.07   38.00
   3  -3  -3 1268.07   37.50
  -3   3   3 1225.48   37.60
   2  -3  -3  345.57   11.00
   2  -3  -3  350.06   11.30
  -2   3   3  363.76   11.00
   1  -3  -3 1828.22   54.29
  -1   3   3 1810.22   53.99
   0  -3  -3    3.80    1.40
   0   3   3    3.00    0.70
  -1  -3  -3 1773.02   51.39
   1   3   3 1676.53   51.29
   2   3   3   16.00    1.70
   2   3   3   17.40    1.40
   3   3   3   76.39    3.90
   3   3   3   84.09    3.30
   3   3   3   86.59    3.80
   4   3   3  200.98    6.80
   4   3   3  201.08    6.90
  -5  -3  -3    0.50    1.10
   5   3   3    2.20    1.00
   5   3   3    1.10    1.00
   5   3   3    3.20    1.60
  -6  -3  -3  214.98    6.70
   6   3   3  189.48    6.60
  -7  -3  -3    5.90    0.80
   8  -4  -3    0.70    0.90
   8  -4  -3    0.00    0.70
  -8   4   3    2.00    1.10
   7  -4  -3  133.49    4.90
   7  -4  -3  145.59    5.20
   6  -4  -3   27.30    1.90
   6  -4  -3   25.80    2.30
   6  -4  -3   24.70    2.70
   5  -4  -3  464.35   14.80
   5  -4  -3  470.25   14.60
   5  -4  -3  464.15   14.60
   4  -4  -3   26.30    2.10
   4  -4  -3   25.90    2.40
   4  -4  -3   28.90    1.90
  -4   4   3   23.00    2.40
   3  -4  -3  515.15   16.80
   3  -4  -3  549.05   16.60
   3  -4  -3  546.55   16.50
  -3   4   3  539.65   16.70
   2  -4  -3   74.89    3.10
   2  -4  -3   71.59    3.10
   2  -4  -3   72.79    3.80
  -2   4   3   77.09    3.00
   1  -4  -3    6.80    1.60
   1  -4  -3    8.00    2.10
   1  -4  -3    7.80    1.70
  -1   4   3    8.70    1.30
   0  -4  -3    6.10    2.00
   0  -4  -3    6.90    1.30
   0   4   3    4.10    1.10
  -1  -4  -3  206.58    7.00
   1   4   3  211.18    6.90
   1   4   3  208.88    7.00
  -2  -4  -3  107.49    4.40
   2   4   3  117.39    4.20
   2   4   3  116.39    4.60
  -3  -4  -3  205.48    7.20
   3   4   3  225.38    7.10
   3   4   3  207.58    7.30
  -4  -4  -3  104.69    4.20
   4   4   3  100.99    3.90
  -5  -4  -3   43.60    2.30
   5   4   3   44.20    2.40
  -6  -4  -3   55.19    2.30
   6   4   3   54.49    2.60
   8  -5  -3   20.60    1.70
   8  -5  -3   20.10    1.50
   7  -5  -3    2.10    0.90
   7  -5  -3    0.30    0.90
   6  -5  -3   43.40    2.70
   6  -5  -3   45.30    2.70
   6  -5  -3   44.50    2.30
   5  -5  -3   21.30    2.10
   5  -5  -3   17.30    1.70
   5  -5  -3   18.30    2.20
   4  -5  -3  317.57   10.30
   4  -5  -3  320.07   10.30
   4  -5  -3  319.47   10.60
   3  -5  -3  359.86   11.90
   3  -5  -3  363.46   11.60
   3  -5  -3  366.56   11.50
   3  -5  -3  359.76   11.50
  -3   5   3  364.36   11.90
   2  -5  -3  122.19    4.50
   2  -5  -3  127.29    4.40
   2  -5  -3  112.79    4.50
   2  -5  -3  109.79    5.40
  -2   5   3  125.49    4.70
   1  -5  -3   23.00    1.80
   1  -5  -3   24.40    2.30
   1  -5  -3   20.70    1.90
  -1   5   3   21.30    2.00
   0  -5  -3   33.40    3.70
   0  -5  -3   31.20    2.30
   0   5   3   32.40    2.40
  -1  -5  -3   26.20    2.80
  -1  -5  -3   24.30    2.20
   1   5   3   27.10    2.60
   1   5   3   24.80    1.90
  -2  -5  -3  383.26   12.30
  -2  -5  -3  386.06   12.20
   2   5   3  382.16   12.10
  -3  -5  -3   56.19    3.20
  -3  -5  -3   66.09    3.20
   3   5   3   65.89    2.80
  -4  -5  -3  315.17   10.00
   4   5   3  299.37    9.80
  -5  -5  -3   38.70    1.90
  -5  -5  -3   36.60    1.90
   5   5   3   32.40    2.70
   7  -6  -3    1.00    0.70
   7  -6  -3    0.70    0.80
   6  -6  -3    4.50    1.30
   6  -6  -3    3.90    1.30
   6  -6  -3    3.80    1.10
   5  -6  -3    4.80    1.30
   5  -6  -3    3.00    1.30
   5  -6  -3    3.20    1.10
   4  -6  -3   48.50    2.50
   4  -6  -3   41.80    3.10
   4  -6  -3   45.20    2.50
   3  -6  -3   72.99    3.90
   3  -6  -3   68.99    3.40
   3  -6  -3   79.29    3.30
   3  -6  -3   75.09    3.20
   2  -6  -3 1302.97   38.20
   2  -6  -3 1216.18   38.30
   2  -6  -3 1257.87   38.50
   2  -6  -3 1299.27   38.20
   1  -6  -3   46.10    2.50
   1  -6  -3   51.39    2.80
   1  -6  -3   37.70    4.90
   0  -6  -3 1145.39   33.50
   0  -6  -3 1066.49   34.00
   0  -6  -3 1119.79   33.40
  -1  -6  -3  272.67    9.20
  -1  -6  -3  274.57    9.00
   1   6   3  278.77    9.00
  -2  -6  -3  201.98    6.80
  -2  -6  -3  197.58    6.90
   2   6   3  202.08    6.80
  -3  -6  -3   29.70    2.00
  -3  -6  -3   29.50    2.20
   3   6   3   29.50    1.90
  -4  -6  -3    7.20    1.20
   4   6   3    7.20    1.50
  -5  -6  -3    7.20    1.00
   7  -7  -3   14.40    1.40
   7  -7  -3   16.50    1.50
   6  -7  -3  162.08    5.50
   6  -7  -3  164.08    5.70
   5  -7  -3   36.40    2.10
   5  -7  -3   37.10    2.40
   5  -7  -3   36.50    2.00
   4  -7  -3  281.97    9.60
   4  -7  -3  291.07    9.50
   4  -7  -3  309.57    9.90
   3  -7  -3   81.09    3.50
   3  -7  -3   78.39    4.00
   3  -7  -3   80.99    3.40
   3  -7  -3   87.79    3.50
   2  -7  -3  111.69    4.20
   2  -7  -3  110.99    4.10
   2  -7  -3  105.19    4.10
   2  -7  -3  100.59    5.10
   1  -7  -3    0.90    1.00
   1  -7  -3    1.90    1.20
   0  -7  -3   -0.60    0.90
   0  -7  -3    0.90    1.50
   0  -7  -3    0.40    1.50
   0   7   3    2.00    1.00
  -1  -7  -3   70.49    2.90
  -1  -7  -3   70.59    3.20
   1   7   3   62.19    2.90
  -2  -7  -3   28.40    2.60
  -2  -7  -3   24.50    2.20
   2   7   3   21.60    1.70
  -3  -7  -3  193.08    6.40
  -3  -7  -3  190.88    6.30
   3   7   3  201.88    6.40
  -4  -7  -3    0.10    0.60
   6  -8  -3   16.60    1.40
   6  -8  -3   18.50    1.50
   6  -8  -3   16.30    2.00
   5  -8  -3   26.20    1.60
   5  -8  -3   25.40    2.00
   5  -8  -3   27.80    1.60
   4  -8  -3   38.00    2.00
   4  -8  -3   37.60    2.10
   4  -8  -3   38.10    2.50
   3  -8  -3  102.09    3.80
   3  -8  -3   95.89    3.60
   2  -8  -3    9.70    1.50
   2  -8  -3   12.30    1.50
   1  -8  -3   22.60    1.90
   1  -8  -3   22.40    1.60
   0  -8  -3    1.10    0.70
   0   8   3    2.20    0.90
  -1  -8  -3   15.30    1.40
  -1  -8  -3   13.60    1.70
   1   8   3   14.20    1.50
  -2  -8  -3    1.30    0.80
  -2  -8  -3    3.10    0.80
   2   8   3    1.20    0.90
  -3  -8  -3    9.40    1.00
   5  -9  -3    5.50    1.20
   5  -9  -3    3.70    0.90
   4  -9  -3    1.00    0.90
   4  -9  -3    1.30    0.70
   3  -9  -3    1.20    0.70
   3  -9  -3   -0.70    1.10
   3  -9  -3    1.00    0.80
   2  -9  -3  123.29    4.50
   2  -9  -3  135.69    4.30
  -2   9   3  125.39    4.60
   1  -9  -3    5.70    0.90
   1  -9  -3    2.60    1.30
   0  -9  -3  154.48    4.90
   0   9   3  150.68    5.10
  -1  -9  -3    5.20    0.90
   1   9   3    8.10    1.50
  -2 -11   4    0.40    0.80
  -2 -11   4    0.20    0.70
   1  11  -4   45.50    2.20
  -1 -11   4   45.10    2.00
  -1 -11   4   47.70    1.90
   0  11  -4    3.90    1.00
   0 -11   4    4.10    0.90
   0 -11   4    4.90    1.40
   0 -11   4    6.50    1.00
   0 -11   4    3.60    0.90
   1 -11   4   78.29    2.80
   1 -11   4   72.39    3.20
   1 -11   4   71.49    2.90
  -2  11  -4   40.80    2.30
   2 -11   4   42.20    2.00
   2 -11   4   43.60    1.90
   2 -11   4   44.40    2.40
   3 -11   4  134.59    4.70
   3 -11   4  145.79    4.50
   3 -11   4  135.19    5.00
   4 -11   4   14.20    1.40
   4 -11   4   16.80    1.50
   3  10  -4   59.49    2.50
  -3 -10   4   57.59    2.30
   2  10  -4   26.50    1.70
  -2 -10   4   25.40    1.60
  -2 -10   4   27.30    1.70
   1  10  -4  140.79    4.90
  -1 -10   4  144.89    4.80
  -1 -10   4  141.69    4.90
  -1 -10   4  140.79    5.00
  -1 -10   4  138.59    5.30
   0  10  -4    4.60    1.10
   0 -10   4    3.20    0.90
   0 -10   4    6.00    1.30
   0 -10   4    3.40    1.20
   0 -10   4    3.30    1.10
   1 -10   4  128.19    5.10
   1 -10   4  117.49    4.50
   1 -10   4  129.99    4.40
   2 -10   4    0.00    0.70
   2 -10   4    0.40    0.80
   2 -10   4    0.00    1.00
   3 -10   4    0.60    1.40
   3 -10   4    1.60    0.90
   3 -10   4    1.20    0.80
   4 -10   4    2.00    0.90
   4 -10   4    3.00    1.10
   5 -10   4    1.90    1.10
   4   9  -4    9.10    1.30
  -4  -9   4    9.00    1.10
   3   9  -4    3.10    0.90
  -3  -9   4    3.70    1.10
  -3  -9   4    3.30    0.90
   2   9  -4   62.69    2.80
  -2  -9   4   66.49    3.20
  -2  -9   4   67.39    3.40
  -2  -9   4   63.69    3.00
  -2  -9   4   68.99    2.80
  -1  -9   4    3.50    0.90
  -1  -9   4    2.80    1.40
  -1  -9   4    2.00    1.00
  -1  -9   4    1.10    1.20
   0   9  -4  190.38    6.40
   0  -9   4  191.18    6.40
   0  -9   4  186.28    7.00
   0  -9   4  184.38    6.60
   0  -9   4  184.18    6.30
   1  -9   4   28.70    2.00
   1  -9   4   32.90    2.60
   1  -9   4   29.60    2.00
   1  -9   4   28.10    2.80
   2  -9   4   24.70    1.80
   2  -9   4   23.90    4.50
   2  -9   4   28.30    2.70
   2  -9   4   23.10    1.90
   3  -9   4   77.39    3.50
   3  -9   4   87.59    3.40
   3  -9   4   83.89    4.10
   3  -9   4   81.39    3.40
   4  -9   4   -0.10    1.20
   4  -9   4   -0.50    1.20
   4  -9   4   -1.30    1.30
   4  -9   4   -1.50    1.00
   5  -9   4   -1.20    1.20
   5  -9   4   -0.10    1.30
   5   8  -4   19.00    1.50
  -5  -8   4   17.10    1.30
  -5  -8   4   17.50    1.50
   4   8  -4  101.59    3.80
  -4  -8   4  110.59    4.70
  -4  -8   4   99.69    3.80
   3   8  -4   93.59    3.70
  -3  -8   4   89.99    3.70
  -3  -8   4  101.09    3.90
  -3  -8   4   98.39    3.90
   2   8  -4   20.60    1.70
  -2  -8   4   18.50    2.00
  -2  -8   4   21.40    2.10
  -2  -8   4   19.60    2.50
  -2  -8   4   20.40    1.80
   1   8  -4  143.99    5.20
  -1  -8   4  146.49    5.80
  -1  -8   4  139.09    5.00
  -1  -8   4  148.19    5.10
  -1  -8   4  146.19    5.30
   0  -8   4   91.69    3.60
   0  -8   4   87.09    4.50
   0  -8   4   88.89    3.50
   1  -8   4   55.79    3.10
   1  -8   4   54.29    2.50
   2  -8   4  231.38    7.70
   2  -8   4  230.78    7.60
   2  -8   4  228.48    8.20
   2  -8   4  233.08    7.70
   3  -8   4   11.80    2.00
   3  -8   4   10.70    1.90
   3  -8   4   11.10    2.50
   3  -8   4   12.10    1.50
   4  -8   4   96.99    4.50
   5  -8   4    4.70    1.70
   5  -8   4    3.50    1.30
   6  -8   4   16.90    2.20
   6   7  -4   50.39    2.20
  -6  -7   4   48.50    2.00
  -6  -7   4   47.60    2.20
   5   7  -4   12.20    1.40
   5   7  -4   18.40    2.40
  -5  -7   4   18.80    1.60
  -5  -7   4   15.10    1.40
   4   7  -4  740.03   23.40
  -4  -7   4  787.12   23.50
  -4  -7   4  787.72   23.40
   3   7  -4   74.69    3.00
  -3  -7   4   68.09    3.70
  -3  -7   4   65.99    3.30
  -3  -7   4   72.29    3.20
  -3  -7   4   65.59    3.30
   2   7  -4  791.92   23.60
  -2  -7   4  789.02   23.50
  -2  -7   4  784.52   24.10
  -2  -7   4  769.32   23.50
  -2  -7   4  739.83   23.60
  -2  -7   4  791.52   23.70
   1   7  -4   71.89    3.10
  -1  -7   4   73.29    3.00
  -1  -7   4   69.29    3.10
  -1  -7   4   76.49    3.50
  -1  -7   4   72.49    3.80
   0  -7   4    6.50    1.20
   0  -7   4    3.60    1.50
   0  -7   4    3.70    1.30
   0  -7   4    3.80    0.90
   1  -7   4   11.40    1.30
   1  -7   4   13.60    1.70
   1  -7   4   12.70    2.90
   1  -7   4    9.90    2.70
   1  -7   4   13.00    2.20
   2  -7   4    4.90    1.60
   2  -7   4    3.80    1.20
   2  -7   4    5.60    1.20
   2  -7   4    5.70    1.80
   2  -7   4    4.60    1.30
   3  -7   4  339.27   10.90
   3  -7   4  330.77   10.70
   3  -7   4  347.57   11.40
   3  -7   4  338.87   10.80
   4  -7   4   40.50    2.40
   4  -7   4   36.20    3.70
   4  -7   4   45.30    2.80
   5  -7   4   96.69    4.70
   5  -7   4   84.99    3.80
   6  -7   4    2.60    1.30
   7   6  -4    7.70    2.00
  -7  -6   4    6.10    0.90
   6   6  -4   16.20    1.40
  -6  -6   4   15.90    2.00
  -6  -6   4   17.80    1.30
   5   6  -4  133.19    5.00
   5   6  -4  121.19    4.60
  -5  -6   4  134.89    4.80
  -5  -6   4  133.59    4.60
   4   6  -4   11.00    1.50
  -4  -6   4   11.50    1.90
  -4  -6   4   10.60    1.80
   3   6  -4   61.59    2.70
  -3  -6   4   61.99    3.10
  -3  -6   4   60.49    3.00
  -3  -6   4   63.29    3.60
   2   6  -4  233.78    8.00
  -2  -6   4  243.58    7.50
  -2  -6   4  222.38    7.80
  -2  -6   4  235.28    7.80
  -2  -6   4  228.88    8.20
  -2  -6   4  227.58    7.60
   1   6  -4  668.23   20.10
  -1  -6   4  625.74   20.00
  -1  -6   4  657.83   19.50
  -1  -6   4  612.24   19.60
   0   6  -4    4.00    1.00
   0   6  -4    4.70    1.10
   0  -6   4    7.40    1.20
  -1   6  -4  572.64   18.00
  -1   6  -4  587.34   17.40
   1  -6   4  552.64   17.50
   1  -6   4  581.14   17.50
  -2   6  -4    2.30    0.90
   2  -6   4    4.70    1.20
   2  -6   4    5.20    2.40
   2  -6   4    4.60    1.30
  -3   6  -4   90.99    4.00
   3  -6   4   91.49    3.40
   3  -6   4   83.49    4.80
   3  -6   4   83.69    3.90
  -4   6  -4   40.20    4.00
   4  -6   4   37.00    2.60
   4  -6   4   35.00    2.60
   4  -6   4   36.40    4.00
   5  -6   4  209.08    7.20
   6  -6   4    1.80    1.30
   7  -6   4  136.29    5.00
   7   5  -4   47.30    2.10
  -7  -5   4   49.00    2.00
   6   5  -4   76.09    3.20
   6   5  -4   81.09    3.70
  -6  -5   4   86.99    3.10
   5   5  -4  109.69    4.60
   5   5  -4  108.89    4.10
  -5  -5   4  107.99    4.50
  -5  -5   4  110.99    4.10
   4   5  -4   42.50    2.20
  -4  -5   4   41.50    2.40
  -4  -5   4   46.60    2.80
   3   5  -4   56.29    2.60
  -3  -5   4   59.09    2.90
  -3  -5   4   63.99    3.70
  -3  -5   4   58.49    3.00
  -3  -5   4   56.09    3.20
   2   5  -4   78.49    3.40
   2   5  -4   81.39    2.80
   2   5  -4   73.29    3.00
  -2  -5   4   74.09    3.00
   1   5  -4 1064.89   31.20
   1   5  -4 1069.29   31.80
  -1  -5   4 1027.40   31.50
   0   5  -4    5.40    1.20
   0   5  -4    5.80    0.70
   0  -5   4    3.90    0.80
  -1   5  -4  679.63   20.30
  -1   5  -4  697.13   20.80
   1  -5   4  654.93   20.40
  -2   5  -4  399.66   12.20
  -2   5  -4  375.26   11.80
   2  -5   4  367.86   12.00
   2  -5   4  383.96   11.80
  -3   5  -4  418.76   13.30
  -3   5  -4  400.46   12.90
   3  -5   4  415.76   12.80
   3  -5   4  413.36   12.90
  -4   5  -4  291.97    9.80
   4  -5   4  294.37    9.50
   4  -5   4  287.57    9.50
   5  -5   4  187.28    6.80
   5  -5   4  197.98    6.60
   6  -5   4   68.29    3.00
   6  -5   4   63.89    3.20
   7  -5   4    1.50    0.90
  -8  -4   4   11.70    0.90
   7   4  -4   17.30    1.40
  -7  -4   4   15.80    1.30
   6   4  -4   29.20    2.30
   6   4  -4   22.20    1.80
  -6  -4   4   24.70    1.70
   5   4  -4   78.49    3.80
   5   4  -4   77.09    3.10
  -5  -4   4   77.29    3.10
   4   4  -4  378.16   11.40
  -4  -4   4  353.06   11.70
  -4  -4   4  361.56   11.40
   3   4  -4   70.49    2.80
   3   4  -4   74.29    2.60
   3   4  -4   70.39    3.10
  -3  -4   4   64.19    3.10
   2   4  -4  965.60   30.10
   2   4  -4 1036.70   29.70
   1   4  -4  280.27    9.00
   1   4  -4  292.17    8.50
   0   4  -4   26.20    1.00
   0   4  -4   27.80    1.00
  -1   4  -4    0.90    0.30
  -1   4  -4    0.50    0.70
  -1   4  -4    1.60    0.50
  -2   4  -4   18.10    1.40
   3  -4   4    4.90    1.40
   4  -4   4  214.08    6.90
   4  -4   4  206.38    7.10
   4  -4   4  202.08    6.90
   5  -4   4   48.70    3.00
   5  -4   4   51.19    2.70
   5  -4   4   51.59    3.60
   6  -4   4   67.59    3.40
   6  -4   4   74.69    3.30
   6  -4   4   74.89    3.10
   7  -4   4    2.20    0.80
   7  -4   4    3.10    1.80
   7  -4   4    3.10    1.40
   8  -4   4    0.40    0.70
   8   3  -4   35.20    1.90
  -8  -3   4   34.10    1.50
  -8  -3   4   34.80    1.70
   7   3  -4   12.40    2.20
   7   3  -4    7.90    1.30
   6   3  -4   23.40    2.50
   6   3  -4   26.80    1.90
  -6  -3   4   25.20    1.80
   5   3  -4   94.09    4.10
   5   3  -4   97.29    3.60
   5   3  -4   94.19    4.00
  -5  -3   4   88.79    3.60
   4   3  -4  102.59    3.70
   4   3  -4  100.49    3.70
  -4  -3   4   92.19    3.70
   3   3  -4   -0.20    0.40
   3   3  -4    1.70    1.00
   3   3  -4    0.30    0.60
   2   3  -4  509.05   15.80
   2   3  -4  570.74   15.40
  -2  -3   4  505.15   15.50
  -2  -3   4  483.25   15.90
   1   3  -4  143.09    4.80
  -1  -3   4  145.69    4.90
   0   3  -4   91.29    3.20
  -1   3  -4  124.99    4.10
  -1   3  -4  121.39    3.90
  -2   3  -4   31.40    1.50
  -2   3  -4   30.30    1.80
  -3   3  -4  194.78    6.20
   3  -3   4  181.98    6.10
   4  -3   4    1.30    1.40
   4  -3   4    1.90    1.20
   4  -3   4    2.60    1.20
   5  -3   4   26.90    2.20
   5  -3   4   24.00    2.50
   6  -3   4  147.29    5.20
   6  -3   4  154.58    5.30
   7  -3   4   21.00    2.50
   7  -3   4   27.20    1.80
   7  -3   4   25.80    1.60
   8  -3   4   11.30    1.00
   8   2  -4   30.20    1.80
  -8  -2   4   35.70    1.60
   7   2  -4   37.00    2.10
   7   2  -4   42.50    2.60
  -7  -2   4   37.60    2.00
   6   2  -4  184.28    6.50
  -6  -2   4  183.28    6.20
   5   2  -4   85.69    3.80
   5   2  -4   82.89    3.30
   5   2  -4   77.69    3.60
  -5  -2   4   81.39    3.40
   4   2  -4    3.90    0.90
   4   2  -4    0.30    1.20
   3   2  -4  184.98    5.90
  -3  -2   4  166.18    6.00
   2   2  -4  539.15   16.20
  -2  -2   4  514.75   16.20
  -2  -2   4  545.75   15.90
   1   2  -4 1395.76   41.80
  -1  -2   4 1416.16   41.80
   0   2  -4 2079.69   62.29
   0  -2   4 2133.59   62.39
  -1   2  -4  108.59    3.60
  -1   2  -4  112.49    3.70
   1  -2   4  117.59    3.50
  -2   2  -4  749.23   21.80
  -2   2  -4  739.93   21.70
   2  -2   4  683.83   21.60
  -3   2  -4    2.10    0.50
   3  -2   4    4.10    0.80
   4  -2   4   64.49    3.00
   4  -2   4   63.49    2.90
   4  -2   4   67.79    3.30
   4  -2   4   67.89    3.10
   5  -2   4   67.99    4.10
   5  -2   4   73.99    3.40
   6  -2   4    3.80    1.70
   6  -2   4    6.50    1.60
   6  -2   4    1.10    0.80
   7  -2   4   15.60    2.40
   7  -2   4   15.20    1.40
   7  -2   4   18.20    1.40
   8  -2   4   19.30    1.20
   8   1  -4   22.00    2.40
   8   1  -4   18.90    1.60
  -8  -1   4   18.80    1.60
   7   1  -4   59.79    2.80
   7   1  -4   65.39    3.10
  -7  -1   4   61.39    2.70
   6   1  -4  181.18    6.10
   6   1  -4  175.88    6.20
   6   1  -4  179.58    6.30
  -6  -1   4  171.98    6.00
   5   1  -4  375.26   11.70
   5   1  -4  370.36   11.80
   5   1  -4  378.76   11.70
  -5  -1   4  358.06   11.60
   4   1  -4   90.99    3.50
   4   1  -4   94.09    3.80
   3   1  -4  421.46   12.60
  -3  -1   4  387.16   12.60
   2   1  -4  258.37    8.40
  -2  -1   4  262.47    8.40
  -2  -1   4  288.87    8.10
  -2  -1   4  256.67    8.10
   1   1  -4   98.09    3.40
  -1  -1   4  104.69    3.20
  -1  -1   4  109.19    3.20
  -1  -1   4  100.99    3.50
   0   1  -4  373.46   11.00
   0   1  -4  353.76   11.20
   0  -1   4  381.16   11.00
   0  -1   4  366.06   11.20
  -1   1  -4  544.75   16.20
  -1   1  -4  521.45   16.10
   1  -1   4  546.55   16.20
   1  -1   4  538.45   16.10
  -2   1  -4   40.00    1.60
   2  -1   4   41.60    1.60
   3  -1   4  111.79    3.90
   4  -1   4    6.10    1.20
   4  -1   4    5.90    1.30
   4  -1   4    6.60    1.20
   4  -1   4    5.20    1.00
   4  -1   4    6.70    1.60
   5  -1   4  321.27   10.20
   5  -1   4  318.97   10.40
   5  -1   4  327.67   10.30
   6  -1   4    1.20    1.30
   6  -1   4    0.60    0.90
   6  -1   4    0.10    0.90
   7  -1   4   58.19    2.40
   7  -1   4   58.39    2.40
   7  -1   4   61.89    3.80
   8   0  -4    4.10    1.10
   8   0  -4    2.00    0.90
   7   0  -4   56.89    2.80
   7   0  -4   58.79    3.00
  -7   0   4   63.69    3.00
   6   0  -4   37.00    2.50
   6   0  -4   34.50    2.40
   6   0  -4   40.60    2.30
  -6   0   4   36.10    2.90
   5   0  -4  334.97   10.60
   5   0  -4  357.66   10.60
   5   0  -4  340.27   10.70
  -5   0   4  296.17   10.60
  -5   0   4  334.67   10.80
   4   0  -4   14.70    1.60
   4   0  -4   11.50    1.80
   4   0  -4    9.30    1.50
  -4   0   4    9.50    1.20
   3   0  -4 1615.44   48.40
  -3   0   4 1633.34   48.20
   2   0  -4  271.07    8.70
  -2   0   4  270.97    8.70
  -2   0   4  282.37    8.40
   1   0  -4  540.05   17.60
  -1   0   4  584.94   17.60
  -1   0   4  619.94   17.30
   0   0  -4  180.08    5.70
   0   0  -4  182.08    5.80
   0   0   4  180.38    5.80
   0   0   4  186.98    5.80
  -1   0  -4    6.50    0.70
   1   0   4    6.50    0.60
   1   0   4    6.60    0.80
  -2   0  -4  705.23   20.40
   2   0   4  666.83   20.60
   3   0   4   20.10    2.00
   3   0   4   21.90    2.20
   4   0   4  146.99    5.20
   4   0   4  147.59    5.40
   4   0   4  148.99    5.40
   4   0   4  145.59    5.30
   4   0   4  139.69    5.10
   5   0   4  140.49    5.20
   5   0   4  145.89    5.10
   6   0   4  252.07    7.90
   6   0   4  246.78    7.80
   6   0   4  222.38    7.90
   7   0   4   30.80    1.70
   8  -1  -4   30.20    1.90
   8  -1  -4   36.00    2.20
   7  -1  -4  193.28    6.50
   7  -1  -4  175.88    6.30
   6  -1  -4  359.56   11.20
   6  -1  -4  339.67   11.20
   5  -1  -4  306.77    9.90
   5  -1  -4  294.77   10.00
   5  -1  -4  306.07    9.80
   5  -1  -4  313.47    9.70
  -5   1   4  294.47   10.00
   4  -1  -4   47.60    3.00
   4  -1  -4   48.90    2.50
   4  -1  -4   48.20    2.50
  -4   1   4   50.19    2.30
   3  -1  -4   25.40    1.70
   3  -1  -4   25.30    1.80
  -3   1   4   25.60    1.40
   2  -1  -4  300.97    9.80
  -2   1   4  316.67    9.50
   1  -1  -4  730.83   22.10
  -1   1   4  709.63   21.90
  -1   1   4  757.32   22.20
   0  -1  -4 2934.61   88.29
   0   1   4 2909.11   88.39
   0   1   4 3119.59   88.39
  -1  -1  -4 1453.35   43.30
   1   1   4 1516.15   43.30
   1   1   4 1398.06   43.20
   2   1   4 1246.28   37.20
   3   1   4  513.05   15.70
   3   1   4  509.75   15.60
   3   1   4  512.85   15.70
   3   1   4  489.05   15.60
   4   1   4   13.30    2.00
   4   1   4   17.30    2.00
   4   1   4   16.30    2.00
   4   1   4   16.30    2.10
   5   1   4  291.87    9.60
   5   1   4  300.27    9.60
   5   1   4  294.07    9.50
   6   1   4   57.89    3.00
   6   1   4   62.39    2.70
   6   1   4   64.19    2.70
   7   1   4    1.30    0.80
   8  -2  -4   11.40    1.50
   8  -2  -4   12.40    1.60
   7  -2  -4   12.20    1.60
   7  -2  -4   14.10    2.00
   6  -2  -4  209.58    7.30
   6  -2  -4  211.38    7.10
   5  -2  -4   14.20    2.20
   5  -2  -4   13.70    2.20
   5  -2  -4   12.00    1.70
  -5   2   4   15.70    2.60
   4  -2  -4  593.44   19.20
   4  -2  -4  641.44   19.00
   4  -2  -4  638.34   19.00
  -4   2   4  620.04   19.20
   3  -2  -4  323.57   10.10
   3  -2  -4  323.47   10.50
   3  -2  -4  323.47   10.20
  -3   2   4  322.97   10.10
   2  -2  -4   17.60    1.30
   2  -2  -4   15.90    1.60
  -2   2   4   18.80    1.10
   1  -2  -4 2168.28   64.39
  -1   2   4 2159.18   64.09
   0  -2  -4    4.40    1.00
   0   2   4    2.20    0.70
   0   2   4    1.10    0.80
  -1  -2  -4  146.39    4.90
   1   2   4  145.59    4.90
   2   2   4  546.15   16.40
   2   2   4  519.45   16.30
   3   2   4   60.79    3.00
   3   2   4   60.79    2.90
   3   2   4   56.49    3.60
   3   2   4   60.49    3.00
   3   2   4   57.99    3.10
   4   2   4  249.38    8.00
   4   2   4  233.68    8.20
   4   2   4  241.58    8.00
   5   2   4  265.27    8.80
   5   2   4  282.07    8.80
   5   2   4  266.47    8.70
  -6  -2  -4   27.40    1.90
   6   2   4   26.10    2.00
   6   2   4   22.40    2.20
   8  -3  -4    5.40    1.50
   8  -3  -4    6.10    1.30
  -8   3   4    7.50    1.20
   7  -3  -4    7.90    1.70
   7  -3  -4    3.00    0.90
   6  -3  -4   27.40    2.30
   6  -3  -4   25.40    2.00
   6  -3  -4   22.50    2.80
   5  -3  -4   14.40    1.70
   5  -3  -4   13.80    2.10
   5  -3  -4   18.30    2.20
   4  -3  -4   52.99    3.00
   4  -3  -4   58.29    2.70
   4  -3  -4   58.19    2.60
  -4   3   4   57.19    3.00
   3  -3  -4  150.78    5.30
   3  -3  -4  156.58    5.30
  -3   3   4  154.18    5.40
   2  -3  -4  153.28    5.20
   2  -3  -4  152.18    5.60
   2  -3  -4  145.49    5.20
  -2   3   4  151.88    5.10
   1  -3  -4  192.98    6.50
   1  -3  -4  179.18    6.30
   1  -3  -4  180.88    6.20
  -1   3   4  189.38    6.20
   0  -3  -4   57.69    3.00
   0  -3  -4   59.09    3.00
   0   3   4   57.79    2.50
  -1  -3  -4  231.78    9.00
   1   3   4  221.58    7.50
   1   3   4  230.28    7.50
  -2  -3  -4   41.20    3.00
   2   3   4   41.50    3.70
   2   3   4   49.10    2.60
   2   3   4   46.90    2.60
  -3  -3  -4   13.90    2.80
   3   3   4   12.90    2.60
   3   3   4   12.80    1.80
   4   3   4   76.09    3.40
   4   3   4   83.29    3.50
  -5  -3  -4    1.20    1.00
   5   3   4    0.90    1.20
   5   3   4    1.90    1.00
  -6  -3  -4    1.40    0.80
   8  -4  -4    3.40    0.90
   8  -4  -4    2.10    0.80
   7  -4  -4    1.00    0.90
   7  -4  -4    2.70    0.90
  -7   4   4    3.30    1.10
   6  -4  -4   35.20    2.60
   6  -4  -4   35.90    2.40
   6  -4  -4   33.20    2.10
  -6   4   4   33.20    2.50
   5  -4  -4    0.20    1.20
   5  -4  -4   -0.80    0.90
   5  -4  -4    0.90    1.10
   4  -4  -4    2.00    1.00
   4  -4  -4    0.40    0.90
   4  -4  -4    1.20    1.30
   3  -4  -4  185.18    7.10
   3  -4  -4  211.18    6.80
   3  -4  -4  200.98    7.20
   3  -4  -4  209.88    6.80
  -3   4   4  199.88    7.10
   2  -4  -4   16.20    2.90
   2  -4  -4   19.30    1.90
   2  -4  -4   18.50    2.50
  -2   4   4   16.70    1.70
   1  -4  -4   24.50    2.20
   1  -4  -4   21.90    2.00
   1  -4  -4   22.60    1.90
  -1   4   4   23.00    1.80
   0  -4  -4  109.79    5.70
   0  -4  -4  121.09    4.50
   0  -4  -4  113.89    4.40
   0   4   4  120.99    4.50
  -1  -4  -4    4.80    1.20
   1   4   4    5.80    1.20
   1   4   4    8.10    1.50
  -2  -4  -4  101.59    4.10
   2   4   4  102.39    3.90
  -3  -4  -4   74.79    3.40
   3   4   4   76.39    3.20
   3   4   4   66.49    3.60
  -4  -4  -4   54.29    2.70
   4   4   4   45.90    2.50
  -5  -4  -4   -0.10    0.80
  -6  -4  -4   11.20    1.30
  -6  -4  -4   14.60    1.20
   7  -5  -4  123.99    4.50
   7  -5  -4  129.09    4.60
   6  -5  -4   90.39    3.60
   6  -5  -4   88.99    3.70
   6  -5  -4   94.29    3.90
   5  -5  -4  145.09    5.50
   5  -5  -4  141.99    5.20
   5  -5  -4  142.29    5.20
   4  -5  -4  248.98    8.70
   4  -5  -4  254.57    8.40
   4  -5  -4  257.07    8.40
   3  -5  -4    6.00    1.70
   3  -5  -4    7.30    1.50
   3  -5  -4    7.00    1.60
   3  -5  -4    7.70    1.60
   2  -5  -4   20.10    1.90
   2  -5  -4   20.60    2.00
   2  -5  -4   19.40    1.80
   2  -5  -4   21.10    3.60
  -2   5   4   22.00    2.60
   1  -5  -4  205.78    6.90
   1  -5  -4  205.98    6.90
  -1   5   4  196.68    7.30
   0  -5  -4   12.50    2.20
   0  -5  -4   12.60    3.20
   0  -5  -4   11.70    1.80
  -1  -5  -4   -0.30    1.30
  -1  -5  -4    0.00    1.00
   1   5   4    0.40    1.00
  -2  -5  -4    1.30    1.10
  -2  -5  -4    1.30    1.10
   2   5   4    1.60    1.10
  -3  -5  -4   22.50    2.20
  -3  -5  -4   16.30    2.00
   3   5   4   16.70    1.80
  -4  -5  -4    1.40    0.80
   4   5   4    2.00    1.10
  -5  -5  -4   27.50    1.50
   7  -6  -4   12.90    1.30
   7  -6  -4   14.90    1.50
   6  -6  -4    9.30    1.60
   6  -6  -4   10.50    1.70
   6  -6  -4    8.10    1.40
   5  -6  -4   31.60    2.40
   5  -6  -4   30.30    2.00
   5  -6  -4   30.60    2.00
   4  -6  -4  237.68    8.00
   4  -6  -4  233.78    8.20
   4  -6  -4  245.18    8.00
   3  -6  -4   21.70    2.80
   3  -6  -4   20.20    1.80
   3  -6  -4   21.50    1.90
   3  -6  -4   26.50    2.20
   2  -6  -4  101.89    5.20
   2  -6  -4  110.99    4.30
   2  -6  -4  116.19    4.40
   2  -6  -4  121.29    4.40
   1  -6  -4   99.79    4.00
   1  -6  -4   97.19    3.80
   0  -6  -4   58.99    3.40
   0  -6  -4   56.99    3.10
   0  -6  -4   56.49    2.70
   0   6   4   62.29    2.80
  -1  -6  -4   66.39    3.20
  -1  -6  -4   60.79    2.80
  -2  -6  -4   58.69    2.70
  -2  -6  -4   59.09    2.90
   2   6   4   57.79    2.70
  -3  -6  -4    6.10    1.40
  -3  -6  -4    8.70    1.60
   3   6   4    7.00    1.70
  -4  -6  -4   75.09    2.80
   6  -7  -4    0.90    0.90
   6  -7  -4   -0.40    0.70
   6  -7  -4    1.10    0.90
   5  -7  -4   17.80    1.60
   5  -7  -4   19.00    1.60
   5  -7  -4   17.90    1.80
   4  -7  -4  114.19    4.50
   4  -7  -4  132.29    4.80
   4  -7  -4  122.69    4.50
   3  -7  -4    0.00    1.40
   3  -7  -4    0.60    0.90
   3  -7  -4    1.20    1.00
   3  -7  -4    0.20    0.90
   2  -7  -4  375.96   12.40
   2  -7  -4  365.06   12.00
   2  -7  -4  393.06   11.90
   1  -7  -4   26.70    2.10
   1  -7  -4   28.00    1.90
   0  -7  -4   43.00    2.20
   0   7   4   37.30    2.20
  -1  -7  -4   73.99    2.90
  -1  -7  -4   70.19    3.10
   1   7   4   71.09    3.00
  -2  -7  -4   43.60    2.00
  -2  -7  -4   44.30    2.10
   2   7   4   44.60    2.20
  -3  -7  -4   48.70    2.00
   5  -8  -4   12.40    1.30
   5  -8  -4   11.30    1.60
   4  -8  -4   20.20    2.00
   3  -8  -4   17.10    1.40
   3  -8  -4   21.20    2.30
   3  -8  -4   16.80    1.50
   2  -8  -4    1.20    0.90
   2  -8  -4    1.40    0.80
   1  -8  -4   56.19    2.80
   1  -8  -4   58.59    2.40
  -1   8   4   58.09    2.60
   0  -8  -4   14.10    1.20
   0   8   4   13.50    1.50
  -1  -8  -4   98.79    3.20
  -1  -8  -4   77.99    3.50
   1   8   4   90.99    3.40
  -2  -8  -4    1.90    0.80
  -2  -8  -4   -0.10    0.90
   4  -9  -4    3.60    0.80
   3  -9  -4    4.50    0.80
   3  -9  -4    6.20    1.30
   2  -9  -4   32.10    2.00
   2  -9  -4   25.90    1.40
  -2   9   4   28.30    2.00
   1  -9  -4    4.40    0.80
   0  -9  -4   12.90    1.00
   1 -12   5    0.90    0.70
   1 -12   5    1.20    0.50
   2 -12   5    0.50    0.60
   2 -12   5    0.00    0.50
  -2 -11   5   24.30    1.40
  -2 -11   5   27.10    1.40
   1  11  -5    8.30    1.80
  -1 -11   5    2.70    1.30
  -1 -11   5    6.90    1.00
  -1 -11   5    7.50    1.40
  -1 -11   5    6.80    1.20
   0  11  -5   25.20    2.00
   0 -11   5   25.70    1.40
   0 -11   5   27.10    1.70
   0 -11   5   23.80    1.60
   0 -11   5   26.40    1.90
  -1  11  -5   45.80    2.50
   1 -11   5   46.80    2.10
   1 -11   5   42.90    2.50
   1 -11   5   48.70    2.00
   1 -11   5   42.70    2.30
  -2  11  -5   49.20    2.80
   2 -11   5   47.10    2.10
   2 -11   5   45.20    2.50
   2 -11   5   49.20    2.00
   3 -11   5    5.90    1.10
   3 -11   5    8.00    1.50
   3 -11   5    7.00    1.10
   4 -11   5   -2.10    1.00
  -4 -10   5   16.60    1.00
   3  10  -5   -0.70    1.10
  -3 -10   5    1.00    0.60
   2  10  -5    1.50    0.90
  -2 -10   5   -0.80    0.80
  -2 -10   5    1.80    0.80
   1  10  -5    6.20    1.50
  -1 -10   5    9.30    1.40
  -1 -10   5    9.70    2.50
   0  10  -5    7.00    1.60
   0 -10   5    5.10    1.20
   0 -10   5    7.90    1.60
   0 -10   5    6.80    1.30
   0 -10   5    7.30    1.20
  -1  10  -5  115.89    4.50
   1 -10   5  118.79    4.50
   1 -10   5  127.89    4.30
   1 -10   5  112.59    4.30
   1 -10   5  124.29    4.90
   2 -10   5   30.80    1.80
   2 -10   5   32.10    2.50
   2 -10   5   28.80    1.80
   3 -10   5  191.18    6.80
   3 -10   5  185.68    6.30
   3 -10   5  187.48    6.10
   4 -10   5    0.50    0.80
   4 -10   5    0.50    1.00
   5 -10   5   19.50    2.10
  -5  -9   5   88.09    3.00
   4   9  -5   18.90    1.70
   4   9  -5   16.20    1.90
  -4  -9   5   21.10    1.90
  -4  -9   5   16.60    1.30
   3   9  -5  256.97    8.30
  -3  -9   5  258.37    8.20
   2   9  -5   23.00    1.90
  -2  -9   5   28.80    2.00
  -2  -9   5   23.60    2.00
  -2  -9   5   26.30    2.30
  -2  -9   5   23.90    1.80
  -1  -9   5  175.28    6.10
  -1  -9   5  173.88    6.50
  -1  -9   5  174.98    5.80
   0   9  -5   83.19    3.50
   0  -9   5   89.19    3.40
   0  -9   5   84.09    3.30
   0  -9   5   80.69    4.00
   1  -9   5  170.78    5.90
   1  -9   5  177.88    6.10
   1  -9   5  177.28    6.70
   1  -9   5  176.38    6.20
   2  -9   5    4.10    1.40
   2  -9   5    1.30    0.80
   2  -9   5    2.90    1.30
   2  -9   5    7.50    1.50
   3  -9   5    7.40    1.40
   3  -9   5   11.10    2.50
   3  -9   5   10.20    1.70
   3  -9   5    7.60    1.50
   4  -9   5    1.80    1.50
   4  -9   5   -0.40    1.40
   4  -9   5   -0.50    1.20
   4  -9   5    0.80    1.00
   5  -9   5   19.10    2.60
   5   8  -5    0.20    0.90
   5   8  -5    0.80    1.20
  -5  -8   5    0.40    0.80
  -5  -8   5    0.90    0.80
   4   8  -5    9.60    1.50
  -4  -8   5    9.70    1.60
  -4  -8   5   13.60    1.60
   3   8  -5   22.60    1.70
  -3  -8   5   20.60    2.20
  -3  -8   5   27.20    2.30
  -3  -8   5   24.00    2.00
   2   8  -5   90.49    3.50
  -2  -8   5   84.59    3.40
  -2  -8   5   85.19    3.90
  -2  -8   5   84.09    4.00
  -2  -8   5   89.89    3.50
  -2  -8   5   84.59    3.60
   1   8  -5   72.79    3.20
  -1  -8   5   73.99    3.30
  -1  -8   5   77.49    3.10
  -1  -8   5   71.89    3.80
  -1  -8   5   72.49    3.10
   0  -8   5    0.60    1.20
   0  -8   5    2.00    0.80
   0  -8   5    2.40    0.90
   0  -8   5    2.10    1.20
   1  -8   5   34.40    2.10
   1  -8   5   35.80    2.00
   1  -8   5   34.70    3.00
   2  -8   5   45.70    2.70
   2  -8   5   45.40    2.30
   2  -8   5   48.70    2.40
   2  -8   5   47.70    3.30
   2  -8   5   42.60    3.10
   3  -8   5   24.80    2.30
   3  -8   5   27.40    2.20
   3  -8   5   21.00    2.80
   3  -8   5   27.60    1.90
   4  -8   5   16.00    2.80
   4  -8   5   20.40    2.50
   4  -8   5   16.20    1.80
   5  -8   5    2.10    1.90
   6   7  -5  113.09    4.10
  -6  -7   5  115.49    3.80
   5   7  -5   21.90    2.10
   5   7  -5   23.40    1.70
  -5  -7   5   24.60    1.80
  -5  -7   5   25.80    1.80
   4   7  -5  184.08    6.40
  -4  -7   5  193.38    6.50
  -4  -7   5  196.88    6.40
   3   7  -5   28.00    1.90
  -3  -7   5   29.40    2.30
  -3  -7   5   27.40    2.20
  -3  -7   5   23.90    2.60
  -3  -7   5   29.20    2.20
   2   7  -5   36.90    2.10
  -2  -7   5   28.40    2.50
  -2  -7   5   31.40    2.30
  -2  -7   5   32.20    2.00
  -2  -7   5   33.50    2.30
  -2  -7   5   33.90    2.80
   1   7  -5  192.28    6.50
  -1  -7   5  193.68    6.40
  -1  -7   5  196.78    7.10
  -1  -7   5  199.28    6.50
  -1  -7   5  195.98    6.70
  -1  -7   5  187.08    6.90
   0  -7   5  230.98    7.50
   0  -7   5  230.88    7.70
   0  -7   5  226.88    7.40
   0  -7   5  227.78    8.10
   1  -7   5  269.77    8.40
   1  -7   5  247.38    8.60
   1  -7   5  264.57    9.10
   1  -7   5  256.97    8.50
   1  -7   5  252.37    8.30
   2  -7   5  413.76   13.30
   2  -7   5  408.56   12.60
   2  -7   5  404.86   12.80
   2  -7   5  393.46   12.80
   2  -7   5  408.16   12.70
   3  -7   5  294.17   10.10
   3  -7   5  289.07    9.50
   3  -7   5  302.87    9.40
   3  -7   5  282.37    9.30
   4  -7   5  238.48    8.70
   4  -7   5  236.58    7.80
   4  -7   5  236.08    8.00
   5  -7   5   38.50    2.90
  -7  -6   5    0.30    0.50
   6   6  -5  154.08    5.30
   6   6  -5  151.18    5.20
  -6  -6   5  155.08    5.10
   5   6  -5   58.09    2.70
   5   6  -5   58.19    3.00
  -5  -6   5   61.99    3.00
  -5  -6   5   63.59    2.70
   4   6  -5  315.97   10.00
  -4  -6   5  317.57   10.10
  -4  -6   5  304.27    9.90
   3   6  -5  598.84   18.30
  -3  -6   5  587.04   18.40
  -3  -6   5  604.94   18.30
  -3  -6   5  600.74   18.30
  -3  -6   5  601.84   18.80
   2   6  -5  186.58    6.00
  -2  -6   5  170.08    6.00
  -2  -6   5  178.18    6.60
  -2  -6   5  175.58    6.30
  -2  -6   5  171.98    6.10
  -2  -6   5  175.48    6.10
   1   6  -5   73.59    3.30
  -1  -6   5   73.09    3.30
  -1  -6   5   76.99    3.50
  -1  -6   5   81.99    3.10
  -1  -6   5   85.09    4.00
   0  -6   5   10.50    1.30
   1  -6   5   41.00    2.40
   1  -6   5   44.10    2.10
   2  -6   5    2.60    1.70
   2  -6   5    2.50    1.20
   2  -6   5    1.00    0.90
   2  -6   5    3.40    2.20
   3  -6   5  186.08    7.60
   3  -6   5  191.38    6.30
   3  -6   5  184.28    6.80
   3  -6   5  187.58    6.40
   4  -6   5   12.40    1.90
   5  -6   5  360.36   11.40
   5  -6   5  358.76   12.00
   6  -6   5   14.70    2.00
   7  -6   5   29.90    2.20
   7   5  -5   89.29    3.40
  -7  -5   5   96.69    3.20
   6   5  -5   11.90    1.50
  -6  -5   5   13.50    1.40
   5   5  -5    4.80    1.30
   5   5  -5    4.90    1.10
  -5  -5   5    4.90    1.00
  -5  -5   5    5.40    1.60
   4   5  -5    8.90    1.60
  -4  -5   5   12.90    1.70
  -4  -5   5    9.50    1.60
   3   5  -5  443.96   13.30
  -3  -5   5  425.16   13.60
  -3  -5   5  423.36   13.40
  -3  -5   5  432.96   13.30
   2   5  -5   15.00    1.90
   2   5  -5    9.00    1.90
  -2  -5   5   10.30    1.30
   1   5  -5 2151.88   63.69
  -1  -5   5 2120.69   63.29
   0   5  -5   96.59    3.80
   0  -5   5   94.89    3.50
  -1   5  -5  842.32   24.40
  -1   5  -5  836.62   25.00
   1  -5   5  782.12   24.60
  -2   5  -5   60.39    3.20
  -2   5  -5   62.99    2.60
   2  -5   5   61.79    2.70
  -3   5  -5   97.49    4.10
  -3   5  -5  100.69    5.00
   3  -5   5   99.49    4.00
   3  -5   5   96.69    4.50
   3  -5   5  116.29    4.70
   4  -5   5    7.00    1.40
   4  -5   5    3.00    1.30
   5  -5   5  133.99    5.50
   5  -5   5  141.39    5.00
   5  -5   5  140.09    5.10
   6  -5   5   35.00    2.10
   7  -5   5   31.40    1.70
  -8  -4   5    1.50    0.50
   7   4  -5  102.09    3.90
   7   4  -5  101.59    3.80
  -7  -4   5  107.29    3.70
  -7  -4   5  105.79    3.60
   6   4  -5   -0.20    1.00
   6   4  -5   -0.60    1.10
   5   4  -5   71.89    3.40
   5   4  -5   71.09    3.00
  -5  -4   5   67.59    3.00
   4   4  -5  124.59    4.40
  -4  -4   5  113.79    5.30
  -4  -4   5  124.79    4.40
   3   4  -5  216.88    7.60
   3   4  -5  213.18    7.10
  -3  -4   5  219.28    7.30
  -3  -4   5  225.08    7.10
   2   4  -5    0.70    0.60
  -2  -4   5    1.40    0.70
   1   4  -5    0.70    0.40
  -1  -4   5   -0.10    0.70
   0   4  -5  487.85   14.70
   0  -4   5  463.15   14.60
  -1   4  -5  831.62   24.70
  -1   4  -5  821.12   25.10
   1  -4   5  840.92   25.10
  -2   4  -5  751.72   22.20
   2  -4   5  707.13   22.00
   4  -4   5  542.75   16.80
   4  -4   5  536.95   17.10
   4  -4   5  571.94   16.90
   5  -4   5  214.18    6.90
   5  -4   5  206.18    6.80
   5  -4   5  192.78    8.60
   6  -4   5    1.50    1.00
   6  -4   5    1.90    1.00
   7  -4   5    5.80    1.20
   7  -4   5    5.30    1.00
   8   3  -5   14.40    1.90
  -8  -3   5   15.40    1.30
  -8  -3   5   14.70    1.10
   7   3  -5    1.20    0.90
   7   3  -5    0.40    1.00
  -7  -3   5    0.80    0.80
   6   3  -5  298.87    9.70
   6   3  -5  297.17    9.60
  -6  -3   5  299.07    9.50
   5   3  -5   35.10    2.50
   5   3  -5   35.30    2.20
  -5  -3   5   33.20    2.20
   4   3  -5  272.47    8.90
   4   3  -5  270.87    8.60
  -4  -3   5  265.87    8.60
   3   3  -5    1.40    0.70
   2   3  -5  326.17   10.30
   1   3  -5 1226.88   36.70
   0   3  -5    7.10    0.80
   0  -3   5    8.30    1.10
  -1   3  -5  197.78    6.30
  -1   3  -5  190.48    6.00
  -2   3  -5    4.60    1.00
  -2   3  -5    6.20    1.10
   2  -3   5    5.50    0.80
   3  -3   5   66.39    2.70
   4  -3   5   71.19    3.60
   4  -3   5   72.49    3.60
   4  -3   5   70.89    3.10
   4  -3   5   72.19    3.10
   5  -3   5  213.28    7.00
   5  -3   5  213.08    7.00
   5  -3   5  202.98    7.60
   6  -3   5   39.80    2.10
   6  -3   5   38.00    2.20
   7  -3   5   15.70    1.40
   7  -3   5   17.20    1.30
   8   2  -5   17.20    1.60
   8   2  -5   11.20    2.80
  -8  -2   5   14.00    1.40
  -8  -2   5   13.60    1.10
   7   2  -5   33.80    2.10
   7   2  -5   38.50    2.30
  -7  -2   5   36.80    2.10
   6   2  -5   36.50    2.20
   6   2  -5   34.80    2.40
  -6  -2   5   33.80    2.10
   5   2  -5   37.60    2.60
   5   2  -5   36.00    2.10
  -5  -2   5   33.00    2.30
   4   2  -5  244.28    8.40
   4   2  -5  244.68    8.70
   4   2  -5  254.07    8.10
   4   2  -5  255.27    8.10
   3   2  -5 1112.59   33.10
  -3  -2   5 1078.89   32.50
   2   2  -5  235.58    7.60
   1   2  -5 2341.97   68.89
  -1  -2   5 2307.77   68.99
   0   2  -5 1363.16   41.20
   0   2  -5 1438.26   40.90
   0  -2   5 1349.77   41.20
  -1   2  -5  141.29    4.70
  -1   2  -5  151.68    4.80
   1  -2   5  143.19    4.90
   2  -2   5    2.40    0.50
   3  -2   5   19.30    1.50
   4  -2   5   11.50    1.80
   4  -2   5   15.80    2.40
   4  -2   5   11.30    2.10
   4  -2   5    9.00    1.70
   5  -2   5   84.69    3.80
   5  -2   5   86.59    3.50
   5  -2   5   91.69    3.50
   6  -2   5    4.00    0.90
   6  -2   5    1.60    0.90
   7  -2   5   22.60    1.40
   7  -2   5   23.60    1.40
   8   1  -5  139.29    5.00
   8   1  -5  151.18    5.00
   7   1  -5  514.75   15.40
   7   1  -5  475.65   15.40
  -7  -1   5  498.65   15.20
   6   1  -5  154.18    5.60
   6   1  -5  157.48    5.50
  -6  -1   5  151.88    5.40
   5   1  -5  559.94   16.60
   5   1  -5  552.64   16.70
  -5  -1   5  502.15   16.50
   4   1  -5  211.08    7.50
   4   1  -5  221.48    7.70
   4   1  -5  229.08    7.20
   4   1  -5  222.38    7.20
  -4  -1   5  209.88    7.00
   3   1  -5  278.17    9.10
   3   1  -5  276.37    8.80
  -3  -1   5  282.47    8.60
   2   1  -5  503.15   15.70
  -2  -1   5  546.35   15.20
  -2  -1   5  478.45   15.20
   1   1  -5   27.00    1.40
  -1  -1   5   26.30    1.60
  -1  -1   5   30.70    1.10
   0   1  -5   15.70    1.00
   0   1  -5   13.20    1.00
   0  -1   5   14.70    0.80
   0  -1   5   14.10    1.20
  -1   1  -5  609.44   18.30
   1  -1   5  609.44   18.40
   1  -1   5  593.84   18.10
  -2   1  -5    7.20    1.20
   2  -1   5    7.70    0.90
   3  -1   5  156.98    5.30
   3  -1   5  148.79    5.30
   3  -1   5  148.09    5.30
   4  -1   5  474.85   14.30
   4  -1   5  441.36   14.70
   4  -1   5  472.45   14.30
   4  -1   5  465.05   14.40
   5  -1   5    1.60    0.90
   5  -1   5    3.30    1.30
   5  -1   5    1.00    1.00
   6  -1   5   35.40    2.00
   6  -1   5   36.90    2.00
   7  -1   5  141.29    4.70
   7  -1   5  142.19    4.70
   8   0  -5   38.40    2.10
   7   0  -5    1.70    1.00
   7   0  -5    0.20    1.00
   6   0  -5   12.00    1.90
   6   0  -5    8.90    1.80
   5   0  -5  510.45   15.60
   5   0  -5  512.95   15.80
   5   0  -5  494.45   15.60
   4   0  -5   83.99    3.50
   4   0  -5   77.89    3.60
   4   0  -5   83.39    3.30
   4   0  -5   75.49    3.90
  -4   0   5   81.69    3.20
   3   0  -5  180.08    6.20
   3   0  -5  179.48    5.90
  -3   0   5  179.68    5.80
   2   0  -5   16.80    1.30
  -2   0   5   16.10    0.90
   1   0  -5   75.59    2.90
  -1   0   5   70.69    3.00
  -1   0   5   79.39    2.60
   0   0  -5   17.50    1.20
   0   0   5   20.20    1.00
   0   0   5   19.40    1.60
  -1   0  -5  936.41   27.60
   1   0   5  883.21   27.50
   1   0   5  947.21   27.70
   2   0   5    6.70    1.00
   3   0   5 1410.66   42.30
   3   0   5 1397.66   42.30
   3   0   5 1411.66   42.40
   3   0   5 1455.45   42.60
   4   0   5   72.29    3.20
   4   0   5   74.29    3.40
   4   0   5   76.19    3.30
   5   0   5  134.79    4.90
   5   0   5  138.69    4.90
   6   0   5  145.19    5.20
   6   0   5  148.89    5.10
   7   0   5    0.90    0.70
   8  -1  -5    3.00    1.40
   8  -1  -5    3.20    0.90
   7  -1  -5   10.80    1.70
   7  -1  -5   11.50    1.70
   6  -1  -5   10.50    1.80
   6  -1  -5    9.30    1.90
   5  -1  -5   26.50    2.20
   5  -1  -5   27.90    2.20
   5  -1  -5   24.70    2.10
  -5   1   5   27.10    3.20
   4  -1  -5   98.69    3.70
   4  -1  -5   93.59    4.00
   4  -1  -5   97.29    3.90
  -4   1   5   94.99    3.80
   3  -1  -5  218.48    7.40
   3  -1  -5  213.58    7.00
  -3   1   5  218.18    7.00
   2  -1  -5   33.40    1.80
   2  -1  -5   32.90    1.80
  -2   1   5   31.90    1.50
   1  -1  -5  132.89    4.70
  -1   1   5  137.69    4.50
   0   1   5  866.01   26.00
  -1  -1  -5  575.74   17.50
   1   1   5  571.84   17.50
   2   1   5   61.09    3.60
   2   1   5   52.89    2.50
   3   1   5   -1.10    1.20
   3   1   5    2.50    1.20
   3   1   5   -0.70    1.00
   3   1   5    0.60    1.20
   4   1   5   20.30    2.10
   4   1   5   27.20    2.20
   4   1   5   24.30    2.10
   5   1   5   19.60    1.80
   5   1   5   18.70    1.90
  -6  -1  -5   50.89    2.50
   6   1   5   52.29    2.30
   6   1   5   51.29    2.30
   7   1   5    7.60    1.50
   8  -2  -5   61.89    2.70
   8  -2  -5   66.69    2.70
  -8   2   5   65.09    2.40
   7  -2  -5    6.30    1.70
   7  -2  -5    3.00    1.10
   6  -2  -5   90.59    3.70
   6  -2  -5   90.39    4.30
   6  -2  -5   86.19    3.80
   5  -2  -5   44.30    2.70
   5  -2  -5   45.20    2.60
   5  -2  -5   44.30    2.60
   4  -2  -5  183.98    6.20
   4  -2  -5  188.28    6.10
   4  -2  -5  170.78    6.30
  -4   2   5  182.28    6.50
   3  -2  -5  206.58    6.60
   3  -2  -5  196.68    6.80
  -3   2   5  203.08    6.90
   2  -2  -5  492.45   15.00
  -2   2   5  486.85   15.00
   1  -2  -5  137.89    4.90
   1  -2  -5  130.79    4.60
  -1   2   5  131.49    4.60
   0  -2  -5  348.47   11.20
   0  -2  -5  338.47   11.00
   0   2   5  367.36   11.00
  -1  -2  -5   95.59    4.30
   1   2   5   93.39    3.60
   2   2   5  372.76   12.40
   2   2   5  400.76   12.50
   2   2   5  411.06   12.30
   2   2   5  377.96   12.40
  -3  -2  -5    5.90    1.80
   3   2   5    9.60    1.70
   3   2   5    8.50    2.00
   3   2   5    8.30    1.80
   3   2   5    7.80    1.40
   4   2   5   -1.20    1.30
   4   2   5    3.10    1.40
   4   2   5    2.00    1.20
   5   2   5    0.30    0.90
   5   2   5    2.20    1.30
  -6  -2  -5    0.40    0.80
   6   2   5   -0.30    1.20
   8  -3  -5   66.59    2.80
   8  -3  -5   63.19    2.60
  -8   3   5   62.59    2.40
   7  -3  -5   73.19    3.10
  -7   3   5   75.69    2.90
   6  -3  -5   87.79    3.90
   6  -3  -5   87.69    3.80
  -6   3   5   93.99    3.60
   5  -3  -5  695.63   20.60
   5  -3  -5  649.34   20.70
   5  -3  -5  690.83   20.60
  -5   3   5  653.13   20.40
   4  -3  -5  223.48    7.10
   4  -3  -5  218.18    7.40
   4  -3  -5  220.88    7.20
  -4   3   5  205.08    7.30
  -4   3   5  198.98    7.70
   3  -3  -5  308.47    9.90
   3  -3  -5  302.67   10.30
   3  -3  -5  319.57    9.90
  -3   3   5  312.97   10.10
   2  -3  -5   29.10    1.80
   2  -3  -5   23.70    2.40
  -2   3   5   26.60    1.80
   1  -3  -5   19.00    1.80
   1  -3  -5   16.90    2.50
   1  -3  -5   16.90    2.00
   1  -3  -5   18.50    2.50
  -1   3   5   17.50    1.60
   0  -3  -5    2.50    1.30
   0  -3  -5    0.70    1.20
   0  -3  -5    2.70    1.50
   0   3   5    0.50    0.80
  -1  -3  -5  273.47    8.80
   1   3   5  275.47    9.20
  -2  -3  -5   18.10    2.30
   2   3   5   17.60    2.30
  -3  -3  -5  450.25   13.90
   3   3   5  444.36   13.90
   3   3   5  445.36   14.00
   4   3   5    0.00    1.90
   4   3   5   -0.30    1.10
  -5  -3  -5   11.20    1.50
  -6  -3  -5   29.10    1.50
   8  -4  -5    5.00    1.20
   7  -4  -5    1.30    0.90
   7  -4  -5    0.80    0.80
  -7   4   5   -0.40    1.30
   6  -4  -5    3.10    1.00
   6  -4  -5    5.10    1.30
   6  -4  -5    8.30    1.70
  -6   4   5    6.60    1.40
   5  -4  -5  139.99    5.00
   5  -4  -5  134.79    5.20
   5  -4  -5  129.19    4.90
   4  -4  -5    6.70    1.70
   4  -4  -5    3.80    1.40
   4  -4  -5    7.70    1.60
   3  -4  -5  655.63   19.50
   3  -4  -5  625.74   19.40
   3  -4  -5  668.53   19.50
   3  -4  -5  622.34   19.70
  -3   4   5  597.44   20.80
   2  -4  -5    0.80    2.30
   2  -4  -5    0.20    1.30
   2  -4  -5    2.10    0.90
   2  -4  -5    1.90    1.20
  -2   4   5    1.00    1.10
   1  -4  -5  169.58    5.80
   1  -4  -5  170.88    5.90
  -1   4   5  168.88    6.20
   0  -4  -5  269.77    8.40
   0  -4  -5  250.07    8.40
   0   4   5  252.47    8.90
  -1  -4  -5   67.99    3.10
   1   4   5   68.39    3.20
  -2  -4  -5  155.08    5.50
   2   4   5  160.98    5.60
  -3  -4  -5   73.59    3.30
   3   4   5   74.39    3.30
  -5  -4  -5   92.99    3.30
   7  -5  -5   49.70    2.50
   7  -5  -5   53.89    2.40
   6  -5  -5   84.69    3.50
   6  -5  -5   90.29    3.50
   5  -5  -5   23.90    2.20
   5  -5  -5   23.60    2.00
   5  -5  -5   24.30    1.80
   4  -5  -5    0.40    1.00
   4  -5  -5   -0.40    1.20
   4  -5  -5    1.60    1.10
   3  -5  -5   19.20    2.10
   3  -5  -5   17.60    2.10
   3  -5  -5   17.40    3.00
   3  -5  -5   18.20    1.80
   2  -5  -5   31.60    2.30
   2  -5  -5   39.10    2.30
   2  -5  -5   35.20    2.40
   1  -5  -5  337.87   10.70
   1  -5  -5  327.37   10.60
   0  -5  -5   38.70    2.30
   0  -5  -5   36.00    3.40
   0  -5  -5   40.30    2.80
   0   5   5   39.60    2.50
  -1  -5  -5  150.58    5.20
  -1  -5  -5  144.89    5.40
   1   5   5  145.29    5.30
  -2  -5  -5  227.68    7.50
  -2  -5  -5  226.08    7.20
   2   5   5  207.18    7.20
  -3  -5  -5    3.40    1.20
  -3  -5  -5    2.90    1.10
  -4  -5  -5   14.90    1.30
   7  -6  -5   70.49    2.70
   6  -6  -5   39.60    2.40
   6  -6  -5   41.90    2.20
   5  -6  -5   15.90    1.50
   5  -6  -5   18.70    1.90
   4  -6  -5  103.79    4.10
   4  -6  -5  115.69    4.50
   4  -6  -5  106.89    4.10
   3  -6  -5   14.80    2.30
   3  -6  -5   13.40    2.70
   3  -6  -5   17.00    1.90
   3  -6  -5   14.60    1.90
   2  -6  -5   29.40    2.10
   2  -6  -5   29.70    2.00
   1  -6  -5    2.00    1.20
   1  -6  -5    7.80    1.40
   0  -6  -5    6.30    2.40
   0  -6  -5    4.10    1.00
   0   6   5    4.20    1.20
  -1  -6  -5    7.90    1.40
  -1  -6  -5    8.00    1.30
   1   6   5    8.70    1.90
  -2  -6  -5   27.10    1.70
  -2  -6  -5   28.10    1.80
  -3  -6  -5   36.40    2.20
  -3  -6  -5   37.90    1.80
  -4  -6  -5   53.79    2.00
   6  -7  -5   12.00    1.50
   6  -7  -5    9.30    1.50
   5  -7  -5   12.10    1.80
   5  -7  -5    9.60    1.60
   5  -7  -5   11.80    1.30
   4  -7  -5   13.10    1.40
   4  -7  -5   11.20    2.10
   3  -7  -5   73.09    2.80
   3  -7  -5   68.79    4.00
   3  -7  -5   73.99    3.00
   2  -7  -5   13.00    1.60
   2  -7  -5   12.90    1.40
   1  -7  -5   13.80    1.90
   1  -7  -5   12.50    1.40
  -1   7   5   12.80    1.80
   0  -7  -5   12.90    1.30
   0   7   5   12.90    1.80
  -1  -7  -5   12.20    1.20
  -1  -7  -5   12.30    1.80
  -2  -7  -5   43.30    2.00
  -2  -7  -5   41.00    1.80
   5  -8  -5    1.30    1.00
   5  -8  -5   -0.10    0.80
   4  -8  -5    6.90    1.10
   3  -8  -5   20.30    1.60
   3  -8  -5   22.90    1.50
  -3   8   5   24.20    2.20
   2  -8  -5    0.10    0.60
   2  -8  -5   -1.00    1.00
  -2   8   5    0.20    1.40
   1  -8  -5  224.68    7.10
   0  -8  -5    0.20    0.50
   0 -12   6   12.50    0.90
   1 -12   6   10.40    1.30
   1 -12   6    8.70    0.80
   2 -12   6   22.10    1.50
   2 -12   6   24.50    2.10
  -2 -11   6    6.20    1.10
  -2 -11   6    5.10    1.00
  -1 -11   6   55.49    2.10
  -1 -11   6   53.49    2.50
  -1 -11   6   51.69    2.20
  -1 -11   6   53.79    2.50
   0 -11   6   13.30    1.40
   0 -11   6   10.50    1.50
   0 -11   6   10.40    1.20
   0 -11   6   11.10    1.10
   1 -11   6   19.60    1.40
   1 -11   6   18.50    1.60
   1 -11   6   18.40    1.30
   1 -11   6   19.60    1.70
   2 -11   6   -0.50    0.60
   2 -11   6    0.50    0.90
   2 -11   6    0.50    0.70
   3 -11   6    2.90    0.90
   3 -11   6    2.60    0.80
   3 -11   6    3.90    0.70
   4 -11   6    1.20    1.00
  -4 -10   6   22.40    1.20
  -3 -10   6   16.30    1.20
  -2 -10   6   72.39    3.90
  -2 -10   6   71.89    2.70
  -2 -10   6   71.59    2.90
   1  10  -6  126.99    4.90
  -1 -10   6  153.98    6.20
  -1 -10   6  134.19    4.70
   0  10  -6    3.70    1.40
   0 -10   6    2.90    1.10
   0 -10   6    3.70    0.90
   0 -10   6    2.80    0.80
   0 -10   6    2.60    0.80
   1 -10   6  300.97    9.30
   1 -10   6  302.17   10.00
   1 -10   6  319.37    9.60
   1 -10   6  263.67    9.40
   2 -10   6    4.10    1.20
   2 -10   6    8.20    2.00
   2 -10   6    8.20    1.10
   2 -10   6    7.80    1.30
   3 -10   6    5.80    1.20
   3 -10   6    8.50    1.30
   3 -10   6    4.40    1.20
   4 -10   6    9.10    2.00
   4 -10   6    7.90    1.60
  -5  -9   6  158.18    5.00
   4   9  -6    1.80    0.90
   4   9  -6   -0.40    1.40
  -4  -9   6    0.30    0.60
  -4  -9   6   -0.80    0.90
   3   9  -6  163.28    5.60
  -3  -9   6  164.18    5.50
  -3  -9   6  162.08    5.40
   2   9  -6   88.59    3.70
  -2  -9   6   92.49    4.00
  -2  -9   6   91.49    3.60
  -2  -9   6   90.89    3.80
  -2  -9   6   91.99    3.50
  -2  -9   6  101.29    3.70
   1   9  -6    4.30    1.30
  -1  -9   6    6.00    1.10
  -1  -9   6    2.90    1.10
  -1  -9   6    6.10    1.40
  -1  -9   6    5.80    1.30
   0   9  -6   54.79    3.00
   0  -9   6   56.89    2.50
   0  -9   6   54.09    2.70
   0  -9   6   53.59    3.20
   1  -9   6   68.49    3.60
   1  -9   6   74.39    3.20
   1  -9   6   68.89    2.90
   1  -9   6   71.59    3.00
   2  -9   6  303.17   10.40
   2  -9   6  312.97    9.70
   2  -9   6  305.87    9.90
   3  -9   6  103.69    4.40
   3  -9   6   95.79    3.60
   3  -9   6   89.89    3.70
   4  -9   6  248.18    7.70
   4  -9   6  230.38    7.80
   4  -9   6  245.98    8.30
   5   8  -6    7.30    2.10
   5   8  -6   10.40    1.60
  -5  -8   6   11.00    1.20
  -5  -8   6   10.90    1.20
   4   8  -6   19.40    1.90
  -4  -8   6   19.90    2.40
  -4  -8   6   20.60    2.00
   3   8  -6  403.76   12.90
  -3  -8   6  405.96   12.80
  -3  -8   6  422.56   13.00
  -3  -8   6  424.96   13.00
  -3  -8   6  417.56   13.00
   2   8  -6  124.69    4.70
  -2  -8   6  123.59    4.70
  -2  -8   6  122.29    5.00
  -2  -8   6  122.79    4.60
  -2  -8   6  126.29    4.50
  -2  -8   6  133.09    4.50
   1   8  -6  195.78    6.60
  -1  -8   6  191.98    6.40
  -1  -8   6  196.48    6.70
  -1  -8   6  200.88    6.50
  -1  -8   6  183.78    6.70
  -1  -8   6  197.18    7.10
   0   8  -6  508.05   15.70
   0  -8   6  501.95   16.10
   0  -8   6  487.65   15.40
   0  -8   6  496.35   15.60
   0  -8   6  516.75   15.60
   1  -8   6   24.50    1.70
   1  -8   6   24.10    1.80
   1  -8   6   25.90    2.20
   1  -8   6   23.90    2.70
   2  -8   6  135.89    4.80
   2  -8   6  131.39    5.60
   2  -8   6  132.79    4.80
   2  -8   6  136.29    5.00
   3  -8   6   24.70    2.70
   3  -8   6   26.60    1.90
   3  -8   6   16.70    2.90
   3  -8   6   24.80    2.00
   4  -8   6   15.00    2.40
   4  -8   6   11.30    3.30
   4  -8   6   12.80    1.90
   6   7  -6   15.60    2.60
  -6  -7   6   14.40    1.10
   5   7  -6    6.30    1.70
   5   7  -6    6.20    1.60
  -5  -7   6    4.50    1.00
  -5  -7   6    4.90    1.10
   4   7  -6   90.29    3.70
  -4  -7   6   99.49    3.70
  -4  -7   6   97.89    3.80
   3   7  -6   34.40    2.30
  -3  -7   6   33.30    2.70
  -3  -7   6   36.20    2.40
  -3  -7   6   35.80    2.30
  -3  -7   6   32.40    2.20
   2   7  -6    9.10    2.10
  -2  -7   6    7.40    2.30
  -2  -7   6    7.20    1.40
  -2  -7   6   11.60    1.90
  -2  -7   6   10.20    2.30
  -1  -7   6   47.50    2.80
  -1  -7   6   48.10    3.20
  -1  -7   6   49.30    2.50
  -1  -7   6   47.70    2.70
  -1  -7   6   49.00    2.30
   0  -7   6   42.40    3.10
   0  -7   6   38.30    2.20
   0  -7   6   43.60    2.10
   0  -7   6   45.70    2.50
   0  -7   6   38.50    2.90
   1  -7   6  128.39    5.40
   1  -7   6  124.19    5.00
   1  -7   6  123.59    4.40
   1  -7   6  118.69    4.40
   1  -7   6  121.19    4.70
   2  -7   6  201.68    6.60
   2  -7   6  189.98    6.80
   2  -7   6  195.88    7.50
   2  -7   6  195.48    6.50
   3  -7   6  110.99    4.00
   3  -7   6  109.39    5.40
   3  -7   6  101.49    4.00
   3  -7   6  100.29    4.40
  -7  -6   6   11.90    0.90
   6   6  -6   13.70    1.70
   6   6  -6   15.80    1.70
  -6  -6   6   14.10    1.20
   5   6  -6    0.90    1.00
   5   6  -6    3.20    1.10
  -5  -6   6    3.90    1.40
  -5  -6   6    3.00    0.80
   4   6  -6    2.30    1.20
  -4  -6   6    2.80    0.90
  -4  -6   6    0.80    1.20
   3   6  -6   12.20    2.00
  -3  -6   6    8.20    1.70
  -3  -6   6   13.20    2.10
  -3  -6   6   10.70    1.70
  -2  -6   6   20.80    2.20
  -2  -6   6   24.30    1.60
  -2  -6   6   20.90    2.30
  -2  -6   6   22.80    2.60
  -2  -6   6   23.90    2.10
  -1  -6   6   10.90    2.30
  -1  -6   6   13.20    2.80
  -1  -6   6   10.60    1.20
  -1  -6   6    8.20    2.00
  -1  -6   6   11.20    2.00
   0  -6   6  351.56   11.40
   0  -6   6  386.76   12.10
   0  -6   6  359.16   12.00
   0  -6   6  347.57   11.30
   0  -6   6  366.56   12.10
   1  -6   6    0.00    1.00
   1  -6   6    1.70    1.50
   1  -6   6    1.00    0.90
   1  -6   6    1.60    1.20
   1  -6   6   -2.10    2.00
   2  -6   6   18.50    1.90
   2  -6   6   20.40    1.60
   2  -6   6   16.80    2.50
   2  -6   6   14.90    2.70
   2  -6   6   14.80    2.30
   3  -6   6  286.57    8.90
   3  -6   6  274.77    8.80
   3  -6   6  266.57    8.90
   3  -6   6  270.77    9.00
   4  -6   6   30.80    2.40
   4  -6   6   28.90    2.70
   4  -6   6   37.50    3.30
   5  -6   6  100.99    3.90
   5  -6   6   98.89    5.00
   6  -6   6    1.00    1.00
   7  -6   6   44.40    3.20
   7   5  -6   27.90    2.30
   7   5  -6   28.80    1.90
  -7  -5   6   28.90    1.40
   6   5  -6   84.89    3.30
  -6  -5   6   86.89    3.10
  -6  -5   6   74.59    3.50
   5   5  -6  165.48    5.60
   5   5  -6  159.78    5.80
  -5  -5   6  157.68    5.80
  -5  -5   6  153.98    5.50
   4   5  -6    3.10    1.20
  -4  -5   6    4.00    1.00
  -4  -5   6    0.30    1.40
   3   5  -6  552.24   17.20
  -3  -5   6  561.54   17.20
  -3  -5   6  581.84   17.20
  -3  -5   6  558.74   17.40
  -2  -5   6   47.40    2.90
  -2  -5   6   53.69    2.30
  -2  -5   6   45.00    2.70
  -2  -5   6   53.39    3.40
   1   5  -6  109.89    4.50
  -1  -5   6  114.49    4.00
   0   5  -6   90.39    3.80
   0  -5   6   86.09    3.30
  -1   5  -6   42.70    2.60
   1  -5   6   42.30    2.00
  -2   5  -6   17.30    2.70
   2  -5   6   14.80    1.60
   2  -5   6   15.20    2.50
   2  -5   6   18.00    2.20
   3  -5   6   16.70    2.20
   3  -5   6   15.00    2.50
   3  -5   6   14.80    2.50
   3  -5   6   18.30    2.60
   4  -5   6   36.00    3.10
   4  -5   6   33.10    2.60
   4  -5   6   30.00    3.50
   5  -5   6   16.60    1.80
   5  -5   6   14.60    2.00
   6  -5   6    5.50    1.10
   6  -5   6    5.80    1.40
   7  -5   6    2.10    0.70
   7   4  -6    1.50    0.80
  -7  -4   6    1.90    0.70
  -7  -4   6    2.20    0.90
   6   4  -6   25.60    2.00
   6   4  -6   26.90    2.10
  -6  -4   6   27.70    2.10
  -6  -4   6   26.40    1.80
   5   4  -6  243.18    7.90
   5   4  -6  237.98    8.10
  -5  -4   6  239.78    7.80
   4   4  -6    9.10    1.90
  -4  -4   6    7.90    1.60
  -3  -4   6  390.66   11.80
  -3  -4   6  366.16   11.80
   2   4  -6  754.42   22.90
  -2  -4   6  734.63   22.40
   1   4  -6 1019.40   30.20
  -1  -4   6  978.70   29.90
   0   4  -6 1196.78   35.80
   0  -4   6 1181.78   35.50
  -1   4  -6   56.69    2.70
   1  -4   6   58.39    2.50
  -2   4  -6  303.37    9.90
   2  -4   6  303.57    9.60
   3  -4   6  134.69    4.90
   3  -4   6  140.69    4.90
   3  -4   6  132.19    4.80
   3  -4   6  124.09    5.10
   4  -4   6   21.40    2.10
   4  -4   6   26.00    1.90
   4  -4   6   22.70    2.40
   5  -4   6    3.20    1.00
   5  -4   6    0.90    0.90
   5  -4   6    2.80    1.50
   6  -4   6   46.00    2.20
   7  -4   6    8.60    1.40
   7  -4   6    7.20    1.10
   8   3  -6  182.78    6.00
  -8  -3   6  186.38    5.70
  -8  -3   6  180.68    5.70
   7   3  -6  150.78    5.40
   7   3  -6  156.38    5.40
  -7  -3   6  157.98    5.20
  -7  -3   6  159.98    5.20
   6   3  -6  495.05   15.80
  -6  -3   6  517.75   15.60
   5   3  -6  111.09    4.40
   5   3  -6  107.29    4.20
  -5  -3   6  114.59    4.20
   4   3  -6  467.85   14.50
  -4  -3   6  471.75   14.50
   3   3  -6  123.89    5.10
   2   3  -6   12.90    1.60
  -2  -3   6   12.00    1.30
   1   3  -6 1664.83   48.80
  -1  -3   6 1601.34   48.50
   0   3  -6 2718.83   79.79
   0  -3   6 2664.63   79.59
  -1   3  -6 1600.74   47.20
   1  -3   6 1558.94   47.00
  -2   3  -6  755.12   22.70
   2  -3   6  740.53   22.40
   3  -3   6    3.40    1.10
   3  -3   6    4.60    1.10
   3  -3   6    6.20    1.40
   3  -3   6    4.30    1.10
   4  -3   6   59.79    2.80
   4  -3   6   61.59    3.10
   4  -3   6   62.69    2.80
   5  -3   6    1.10    1.30
   5  -3   6    2.10    0.90
   5  -3   6    0.90    0.90
   6  -3   6    2.40    0.80
   6  -3   6    2.20    0.80
   7  -3   6    1.80    0.70
   7  -3   6    1.00    0.60
   8   2  -6    1.80    1.70
   8   2  -6    0.30    0.80
  -8  -2   6    2.10    0.60
   7   2  -6   56.79    2.80
  -7  -2   6   58.69    2.50
   6   2  -6  171.58    6.20
   6   2  -6  178.58    6.30
  -6  -2   6  187.58    6.10
   5   2  -6  378.16   11.80
   5   2  -6  383.36   12.10
  -5  -2   6  358.76   11.70
   4   2  -6  607.64   18.20
   4   2  -6  594.84   19.00
   4   2  -6  603.64   18.50
  -4  -2   6  583.34   18.20
   3   2  -6  370.16   12.10
   2   2  -6 2661.33   79.09
   1   2  -6   34.30    1.80
  -1  -2   6   32.20    1.70
   0   2  -6  763.52   23.00
   0   2  -6  793.72   23.60
  -1   2  -6   34.00    1.80
   1  -2   6   32.40    1.40
  -2   2  -6  350.86   10.90
   2  -2   6  342.07   10.70
   3  -2   6  206.98    6.90
   3  -2   6  207.88    6.90
   3  -2   6  213.68    7.00
   3  -2   6  204.68    7.00
   4  -2   6   26.60    2.20
   4  -2   6   30.40    2.40
   4  -2   6   27.50    2.10
   5  -2   6  312.77   10.00
   5  -2   6  308.97    9.90
   5  -2   6  311.67    9.90
   6  -2   6    8.30    1.40
   6  -2   6    8.40    1.20
   7  -2   6   24.40    1.40
   7  -2   6   21.70    1.30
   8   1  -6   90.89    3.30
   8   1  -6   87.69    3.80
  -8  -1   6   91.19    3.10
   7   1  -6   50.79    2.50
   7   1  -6   49.70    2.60
  -7  -1   6   49.50    2.70
   6   1  -6  225.48    7.40
   6   1  -6  219.98    7.40
  -6  -1   6  209.58    7.20
   5   1  -6  392.86   12.40
   5   1  -6  402.86   12.60
   5   1  -6  408.36   12.40
  -5  -1   6  376.56   12.40
   4   1  -6    5.30    1.40
   4   1  -6    4.00    1.10
   3   1  -6   21.90    2.10
   3   1  -6   21.10    1.60
  -3  -1   6   19.10    1.80
   2   1  -6  110.29    4.30
  -2  -1   6  117.19    3.70
   1   1  -6  320.97   10.40
  -1  -1   6  327.07    9.80
   0   1  -6  202.68    6.70
   0  -1   6  202.68    6.30
  -1   1  -6  205.18    7.40
   1  -1   6  222.38    7.50
   1  -1   6  224.98    6.80
   2  -1   6  104.19    3.80
   3  -1   6    1.40    1.20
   3  -1   6    2.50    1.10
   3  -1   6    3.10    1.10
   3  -1   6    2.90    1.00
   4  -1   6   42.90    2.30
   4  -1   6   39.90    2.30
   4  -1   6   44.70    2.60
   5  -1   6    7.70    1.90
   5  -1   6    6.80    1.50
   5  -1   6    8.00    1.50
   6  -1   6    2.20    0.70
   6  -1   6    2.00    0.80
   7  -1   6   52.49    2.00
   8   0  -6   12.30    2.30
   8   0  -6   14.20    1.40
  -8   0   6   12.40    1.10
   7   0  -6  203.38    6.60
   7   0  -6  182.58    6.50
   6   0  -6    7.70    2.10
   6   0  -6   13.60    1.80
   5   0  -6   57.19    3.00
   5   0  -6   60.19    2.80
   4   0  -6   45.70    2.30
   4   0  -6   43.40    2.70
   3   0  -6   82.09    3.80
   3   0  -6   84.79    3.20
  -3   0   6   84.39    3.10
   2   0  -6   56.69    2.40
   2   0  -6   59.09    2.70
  -2   0   6   59.59    2.20
   1   0  -6  159.98    5.40
   1   0  -6  165.78    5.60
  -1   0   6  159.18    5.20
   0   0  -6  499.35   15.90
   0   0  -6  531.85   16.20
   0   0   6  539.25   15.90
  -1   0  -6  969.40   29.00
   1   0   6  956.40   28.90
   2   0   6  143.59    5.10
   2   0   6  144.09    5.00
   2   0   6  143.99    5.10
   2   0   6  138.39    5.70
   2   0   6  140.49    5.10
   3   0   6  115.39    4.30
   3   0   6  113.09    4.80
   3   0   6  111.69    4.30
   3   0   6  110.09    4.20
   4   0   6  116.99    4.40
   4   0   6  120.79    4.50
   4   0   6  115.79    4.40
   5   0   6    0.70    0.90
   5   0   6   -0.10    0.90
   6   0   6   23.90    1.50
   6   0   6   22.60    1.60
   7   0   6    1.30    0.70
   8  -1  -6    1.20    1.40
   8  -1  -6    1.50    0.70
  -8   1   6    2.00    0.60
   7  -1  -6   78.49    3.50
   7  -1  -6   89.29    3.50
  -7   1   6   90.39    3.30
   6  -1  -6  189.88    6.30
   6  -1  -6  177.28    6.30
   6  -1  -6  172.28    6.40
   5  -1  -6  231.58    7.50
   5  -1  -6  216.78    7.30
   5  -1  -6  217.98    7.50
   4  -1  -6  158.88    5.80
   4  -1  -6  157.98    5.80
   4  -1  -6  168.98    5.50
  -4   1   6  158.38    5.90
   3  -1  -6   13.60    1.40
  -3   1   6   13.10    1.60
   2  -1  -6  384.16   12.60
   2  -1  -6  400.96   12.10
  -2   1   6  390.76   12.10
   1  -1  -6  155.58    5.50
   1  -1  -6  144.59    5.10
  -1   1   6  151.88    5.00
   0  -1  -6  189.48    6.40
   0  -1  -6  178.88    6.10
   0   1   6  183.98    6.10
   1   1   6   56.39    2.60
   2   1   6  133.39    5.10
   2   1   6  126.19    4.90
   2   1   6  139.79    4.80
   2   1   6  123.79    5.00
   3   1   6   25.80    2.30
   3   1   6   28.10    2.40
   4   1   6   25.00    2.10
   4   1   6   31.10    2.10
   5   1   6    4.80    1.10
   5   1   6    7.60    1.40
  -6  -1  -6   11.80    1.40
   6   1   6   11.30    1.20
   6   1   6   13.40    1.40
   8  -2  -6   29.30    1.70
  -8   2   6   29.60    1.40
   7  -2  -6    0.00    1.40
   7  -2  -6   -0.10    1.10
  -7   2   6   -1.10    0.80
   6  -2  -6   10.10    1.80
   6  -2  -6    8.50    2.20
   6  -2  -6    8.50    1.90
  -6   2   6    9.60    1.70
   5  -2  -6   -1.20    1.00
   5  -2  -6    0.40    1.10
   5  -2  -6    0.40    1.40
  -5   2   6   -0.40    1.10
   4  -2  -6  349.67   10.60
   4  -2  -6  343.67   10.80
   4  -2  -6  332.47   10.70
  -4   2   6  311.57   11.10
  -4   2   6  338.37   10.60
   3  -2  -6   88.29    3.30
   3  -2  -6   77.59    4.10
  -3   2   6   81.29    3.60
  -3   2   6   81.89    3.90
   2  -2  -6  509.15   15.60
  -2   2   6  510.25   15.80
   1  -2  -6   23.10    2.80
   1  -2  -6   20.40    1.60
  -1   2   6   19.90    1.60
   0  -2  -6  172.58    5.80
   0  -2  -6  165.98    6.50
   0   2   6  173.78    5.90
   1   2   6   43.10    3.50
   1   2   6   48.60    2.70
   1   2   6   46.10    2.80
  -2  -2  -6   56.89    2.90
   2   2   6   62.19    3.00
   2   2   6   66.09    3.40
   2   2   6   54.19    3.30
  -3  -2  -6    6.70    1.50
   3   2   6    1.60    1.20
   3   2   6    3.30    1.50
   4   2   6  112.59    4.50
   4   2   6  129.59    4.50
   5   2   6    6.20    1.30
  -6  -2  -6    9.90    1.20
   8  -3  -6   23.90    1.50
  -8   3   6   22.70    1.70
   7  -3  -6   13.10    1.50
   7  -3  -6    9.40    1.80
  -7   3   6    9.30    1.40
   6  -3  -6   10.90    1.80
   6  -3  -6   12.20    2.00
   6  -3  -6   12.60    2.00
  -6   3   6   15.40    1.80
   5  -3  -6   39.80    2.60
   5  -3  -6   43.60    2.40
   5  -3  -6   39.00    2.70
  -5   3   6   40.30    2.50
   4  -3  -6   -0.90    1.30
   4  -3  -6   -1.80    1.30
   4  -3  -6   -0.90    0.90
  -4   3   6   -1.50    1.50
   3  -3  -6    1.20    1.60
   3  -3  -6    0.40    0.90
   3  -3  -6    0.80    1.60
   3  -3  -6    1.70    1.70
  -3   3   6    0.10    1.40
   2  -3  -6  353.36   10.80
   2  -3  -6  336.17   10.80
  -2   3   6  335.17   11.20
   1  -3  -6   14.10    1.70
   1  -3  -6   13.40    1.80
  -1   3   6   14.10    2.20
   0  -3  -6  203.48    6.80
   0   3   6  195.28    7.10
  -1  -3  -6  363.66   11.40
  -2  -3  -6   44.20    2.50
  -3  -3  -6   34.80    2.30
   3   3   6   33.90    2.60
   4   3   6    2.70    1.10
  -5  -3  -6    2.90    0.70
   7  -4  -6   77.29    3.50
   7  -4  -6   87.29    3.30
   6  -4  -6   54.99    2.80
   6  -4  -6   56.89    2.70
   6  -4  -6   59.59    2.80
   5  -4  -6  305.67    9.70
   5  -4  -6  296.27    9.50
   5  -4  -6  281.87    9.50
   4  -4  -6  174.28    6.00
   4  -4  -6  168.98    5.90
   4  -4  -6  164.28    6.10
   3  -4  -6  204.28    7.00
   3  -4  -6  195.98    7.40
   3  -4  -6  206.88    6.90
   3  -4  -6  205.78    6.90
   2  -4  -6    2.30    1.00
   2  -4  -6    4.00    1.60
   2  -4  -6    0.70    1.40
   1  -4  -6    7.80    1.30
   1  -4  -6   11.20    1.60
   0  -4  -6  119.49    4.40
   0  -4  -6  119.49    4.70
  -1  -4  -6   76.49    3.20
  -2  -4  -6   37.10    2.20
  -3  -4  -6   44.00    2.40
  -3  -4  -6   47.50    2.50
  -4  -4  -6   54.99    2.40
  -5  -4  -6    0.60    0.50
   7  -5  -6    0.70    0.70
   6  -5  -6    3.40    1.00
   6  -5  -6    2.30    1.00
   6  -5  -6   -0.10    1.80
   5  -5  -6    7.30    2.10
   5  -5  -6    8.10    1.40
   5  -5  -6    8.60    2.00
   4  -5  -6   17.90    2.30
   4  -5  -6   16.80    1.70
   4  -5  -6   25.80    2.60
   3  -5  -6  235.28    7.80
   3  -5  -6  250.17    8.00
   3  -5  -6  228.68    8.40
   3  -5  -6  241.48    8.00
   2  -5  -6   60.99    2.70
   2  -5  -6   59.79    2.80
   1  -5  -6   97.89    3.70
   1  -5  -6   92.59    3.80
   0  -5  -6  178.88    6.10
   0  -5  -6  180.88    6.60
  -1  -5  -6   14.60    2.10
  -1  -5  -6   16.10    1.50
  -3  -5  -6   46.30    2.70
  -3  -5  -6   49.50    2.20
  -4  -5  -6   51.09    2.00
   6  -6  -6    0.10    0.70
   6  -6  -6    0.40    0.90
   5  -6  -6    2.60    1.50
   5  -6  -6    5.60    1.30
   5  -6  -6    3.50    1.00
   4  -6  -6    8.30    1.40
   4  -6  -6    8.20    2.10
   3  -6  -6    4.80    1.00
   3  -6  -6    5.20    1.30
   2  -6  -6    6.10    1.50
   2  -6  -6    8.20    1.40
   1  -6  -6   38.00    2.40
   1  -6  -6   44.40    2.10
   0  -6  -6   73.89    2.90
  -1  -6  -6   48.60    2.40
  -1  -6  -6   52.59    2.20
  -2  -6  -6  100.59    3.60
  -2  -6  -6  103.59    3.50
  -3  -6  -6  104.59    3.50
   5  -7  -6    7.20    2.00
   5  -7  -6    9.50    1.20
   4  -7  -6   12.10    1.30
   3  -7  -6   18.50    1.50
   3  -7  -6   19.10    1.50
   2  -7  -6    2.00    1.00
   2  -7  -6    1.90    0.70
   1  -7  -6   12.20    1.10
   0  -7  -6   54.99    2.20
  -1  -7  -6   30.10    1.40
   3  -8  -6   24.70    1.90
   3  -8  -6   21.80    2.30
   2  -8  -6   -0.90    0.60
   1  -8  -6    5.20    0.90
   1 -12   7    5.00    1.30
   1 -12   7    3.40    0.80
   1 -12   7    3.90    1.10
  -2 -11   7   43.90    1.90
  -2 -11   7   47.10    1.90
  -1 -11   7   40.60    1.90
  -1 -11   7   40.20    1.70
  -1 -11   7   37.20    2.00
   0 -11   7    1.70    0.60
   0 -11   7    4.20    1.10
   0 -11   7    0.80    0.80
   0 -11   7    1.70    0.80
   1 -11   7    0.30    0.80
   1 -11   7    0.90    0.90
   1 -11   7   -0.20    0.60
   1 -11   7    0.60    0.60
   2 -11   7  103.19    3.70
   2 -11   7  100.69    3.90
   2 -11   7  101.99    3.50
   3 -11   7   -0.20    0.80
   3 -11   7    1.30    0.70
   3 -11   7    2.40    1.00
   4  10  -7   58.09    2.30
  -4 -10   7   56.29    2.10
  -3 -10   7   21.80    1.30
  -2 -10   7  145.99    5.00
  -2 -10   7  144.09    4.80
  -2 -10   7  151.18    5.00
  -1 -10   7   73.49    3.10
  -1 -10   7   72.19    2.70
  -1 -10   7   71.99    2.90
  -1 -10   7   73.59    4.20
   0 -10   7   60.99    2.70
   0 -10   7   69.69    3.20
   0 -10   7   67.09    2.60
   0 -10   7   67.59    3.00
   1 -10   7   13.00    2.00
   1 -10   7   15.00    1.30
   1 -10   7   13.60    1.30
   2 -10   7   42.90    2.00
   2 -10   7   47.20    2.40
   2 -10   7   42.00    2.60
   2 -10   7   43.90    2.10
   3 -10   7   18.00    1.40
   3 -10   7   17.40    2.10
   3 -10   7   14.80    1.40
   4 -10   7   31.20    2.30
   5   9  -7   28.00    1.90
  -5  -9   7   27.30    1.70
  -5  -9   7   28.80    1.50
   4   9  -7    8.10    1.40
  -4  -9   7    7.40    1.30
  -4  -9   7   10.40    1.10
  -3  -9   7   45.40    2.30
  -3  -9   7   44.70    2.30
  -3  -9   7   47.20    2.20
  -2  -9   7    3.80    0.90
  -2  -9   7    4.50    0.90
  -2  -9   7    6.20    1.40
  -2  -9   7    3.50    1.10
  -2  -9   7    2.30    1.20
  -1  -9   7   80.79    3.20
  -1  -9   7   80.49    3.70
  -1  -9   7   80.29    3.40
  -1  -9   7   82.59    3.50
  -1  -9   7   82.49    3.20
   0  -9   7    2.80    1.00
   0  -9   7    2.00    1.20
   0  -9   7    2.80    0.90
   1  -9   7   11.40    1.40
   1  -9   7   11.20    1.80
   1  -9   7   10.80    2.20
   2  -9   7   22.50    2.50
   2  -9   7   20.20    1.60
   2  -9   7   22.20    2.20
   2  -9   7   19.40    1.50
   3  -9   7    2.10    0.90
   3  -9   7    0.50    0.90
   3  -9   7    0.90    1.50
   4  -9   7   83.69    3.40
   4  -9   7   86.89    3.40
   5   8  -7  121.29    4.20
  -5  -8   7  118.29    4.10
  -5  -8   7  122.19    4.00
  -4  -8   7   92.59    3.50
  -4  -8   7   97.49    3.50
  -3  -8   7  111.69    4.20
  -3  -8   7  114.19    4.20
  -3  -8   7  113.69    4.20
  -3  -8   7  118.49    4.20
  -2  -8   7    7.70    1.40
  -2  -8   7    9.10    2.00
  -2  -8   7   10.70    1.90
  -2  -8   7    7.00    1.70
  -2  -8   7    7.90    1.50
  -1  -8   7  203.48    6.90
  -1  -8   7  200.08    6.70
  -1  -8   7  211.68    7.40
   0  -8   7  468.15   14.30
   0  -8   7  463.95   14.40
   0  -8   7  469.45   14.90
   0  -8   7  437.56   14.20
   0  -8   7  456.95   14.20
   1  -8   7  117.89    5.00
   1  -8   7  114.19    4.20
   1  -8   7  119.19    4.30
   1  -8   7  116.49    4.50
   1  -8   7  117.59    4.50
   2  -8   7  892.81   26.90
   2  -8   7  872.41   26.70
   2  -8   7  910.41   27.40
   2  -8   7  875.31   26.90
   3  -8   7   69.19    3.30
   3  -8   7   68.49    2.90
   3  -8   7   67.79    4.30
   6   7  -7    0.40    0.80
  -6  -7   7    0.10    0.50
   5   7  -7   84.29    3.30
  -5  -7   7   85.19    3.10
  -5  -7   7   82.39    3.30
  -4  -7   7  356.86   11.40
  -4  -7   7  369.26   11.40
  -3  -7   7  125.09    4.70
  -3  -7   7  129.49    4.60
  -3  -7   7  128.39    4.80
  -3  -7   7  128.29    4.70
  -2  -7   7 1443.66   43.10
  -2  -7   7 1480.55   43.20
  -2  -7   7 1469.85   43.30
  -2  -7   7 1413.66   43.20
  -2  -7   7 1415.96   43.60
  -1  -7   7    1.30    1.20
  -1  -7   7    1.50    0.70
  -1  -7   7   -0.60    1.20
  -1  -7   7   -0.20    0.90
  -1  -7   7    0.40    1.10
   0  -7   7  583.14   17.90
   0  -7   7  584.64   17.90
   0  -7   7  581.24   18.00
   0  -7   7  585.84   18.00
   0  -7   7  592.94   18.50
   1  -7   7   38.60    2.00
   1  -7   7   37.40    2.50
   1  -7   7   35.40    2.10
   1  -7   7   33.80    3.30
   1  -7   7   31.30    2.50
   2  -7   7  176.78    7.20
   2  -7   7  179.48    6.30
   2  -7   7  179.48    6.00
   2  -7   7  181.38    6.00
   2  -7   7  170.68    6.30
   3  -7   7   52.79    2.60
   3  -7   7   50.49    2.90
   3  -7   7   49.50    2.90
   3  -7   7   56.49    2.70
   4  -7   7   32.60    2.70
   6   6  -7  192.48    6.20
  -6  -6   7  179.58    6.00
   5   6  -7   37.20    2.30
  -5  -6   7   38.80    2.60
  -5  -6   7   38.60    2.00
  -4  -6   7  273.67    8.90
  -4  -6   7  278.17    9.00
  -3  -6   7  142.49    5.10
  -3  -6   7  144.09    5.00
  -2  -6   7   26.80    2.20
  -2  -6   7   29.60    2.80
  -2  -6   7   30.80    1.80
  -2  -6   7   28.00    2.20
  -1  -6   7  169.08    5.80
  -1  -6   7  171.68    5.60
  -1  -6   7  164.68    5.70
  -1  -6   7  161.58    6.30
  -1  -6   7  159.58    5.70
   0  -6   7  107.19    5.10
   0  -6   7  110.19    4.10
   0  -6   7  111.59    4.00
   0  -6   7  107.79    4.20
   0  -6   7  108.79    4.20
   1  -6   7  220.58    7.20
   1  -6   7  212.68    7.00
   1  -6   7  207.38    7.10
   1  -6   7  222.78    7.00
   1  -6   7  208.18    8.10
   2  -6   7    5.10    1.30
   2  -6   7    5.50    1.00
   2  -6   7    8.40    2.00
   2  -6   7    2.90    0.90
   3  -6   7   80.29    3.50
   3  -6   7   85.39    3.70
   3  -6   7   89.59    3.70
   3  -6   7   76.89    4.00
   3  -6   7   80.69    3.90
   4  -6   7   14.40    2.10
   4  -6   7   14.30    2.30
   4  -6   7   12.20    2.00
   5  -6   7   10.00    1.80
   5  -6   7   12.10    1.90
   6  -6   7   11.20    1.50
   7   5  -7   94.19    3.40
  -7  -5   7   96.59    3.20
   6   5  -7   30.20    2.10
  -6  -5   7   28.30    2.20
   5   5  -7  185.48    6.50
  -5  -5   7  190.68    6.40
  -5  -5   7  186.38    6.20
  -4  -5   7  132.49    4.60
  -4  -5   7  126.49    5.00
  -4  -5   7  128.09    4.90
  -3  -5   7  375.26   11.60
  -3  -5   7  374.66   11.60
  -3  -5   7  359.36   11.80
  -3  -5   7  370.86   11.70
  -2  -5   7    1.40    0.70
  -2  -5   7    1.00    1.40
  -2  -5   7    3.40    1.20
  -2  -5   7    2.00    1.20
  -2  -5   7    2.60    1.50
  -1  -5   7  146.89    5.30
  -1  -5   7  156.48    5.10
  -1  -5   7  147.59    5.20
  -1  -5   7  151.28    5.40
  -1  -5   7  154.48    6.20
   0  -5   7    0.00    1.10
   0  -5   7    0.00    1.00
   0  -5   7    0.90    1.10
   0  -5   7   -0.20    0.60
   1  -5   7  475.95   14.80
   1  -5   7  485.05   14.70
   1  -5   7  477.35   14.80
   2  -5   7   23.50    2.50
   2  -5   7   17.80    2.00
   2  -5   7   17.90    2.00
   2  -5   7   19.20    1.80
   2  -5   7   16.50    2.20
   3  -5   7  575.34   17.90
   3  -5   7  590.24   18.10
   3  -5   7  590.44   18.00
   3  -5   7  601.04   18.00
   4  -5   7    0.30    1.00
   4  -5   7    0.70    1.10
   4  -5   7    0.60    1.10
   5  -5   7  218.08    7.00
   5  -5   7  215.48    6.90
   5  -5   7  204.38    7.10
   6  -5   7   -0.20    0.70
   6  -5   7   -0.40    0.90
   7  -5   7   -0.20    0.70
   7   4  -7  104.29    3.70
  -7  -4   7  104.39    3.60
  -7  -4   7  102.19    3.50
   6   4  -7   70.49    3.10
  -6  -4   7   70.69    2.90
  -6  -4   7   70.79    3.00
   5   4  -7  632.74   19.50
  -5  -4   7  627.94   19.20
  -5  -4   7  627.14   19.20
   4   4  -7    0.80    1.00
  -4  -4   7    3.00    0.90
  -4  -4   7    5.30    1.30
  -3  -4   7  901.91   27.00
  -3  -4   7  862.51   27.20
  -3  -4   7  930.81   27.10
  -2  -4   7  319.07   10.00
   1   4  -7  775.22   24.00
  -1  -4   7  781.22   23.40
   0   4  -7    7.50    1.80
   0  -4   7    5.80    1.10
  -1   4  -7   98.19    4.20
   1  -4   7   97.29    3.60
  -2   4  -7   44.90    5.20
   2  -4   7   47.30    2.80
   2  -4   7   44.70    2.70
   2  -4   7   47.00    2.50
   2  -4   7   48.30    2.70
   2  -4   7   47.70    2.60
   3  -4   7   67.69    3.00
   3  -4   7   67.49    3.30
   3  -4   7   70.19    3.10
   3  -4   7   65.49    3.10
   4  -4   7   24.90    1.90
   4  -4   7   21.30    2.20
   4  -4   7   24.00    1.90
   5  -4   7    6.50    1.30
   5  -4   7    5.10    1.00
   5  -4   7    6.90    1.50
   6  -4   7   34.80    1.80
   6  -4   7   35.80    1.80
   7  -4   7    0.20    0.60
   7  -4   7    0.50    0.80
   8   3  -7   30.10    1.70
  -8  -3   7   33.30    1.40
   7   3  -7  183.18    6.00
  -7  -3   7  181.18    5.80
  -7  -3   7  176.48    5.80
   6   3  -7   71.39    3.10
  -6  -3   7   67.59    3.00
  -6  -3   7   73.29    3.00
   5   3  -7   18.70    2.00
   5   3  -7   17.40    2.70
  -5  -3   7   15.50    1.80
  -5  -3   7   17.40    1.90
   4   3  -7   18.50    1.80
   4   3  -7   15.00    2.20
  -4  -3   7   13.00    1.90
  -4  -3   7   15.90    1.90
  -3  -3   7    6.60    1.20
  -3  -3   7    7.40    1.40
   2   3  -7  827.02   25.40
   1   3  -7    2.60    0.80
  -1  -3   7    4.40    1.10
   0   3  -7  674.13   20.40
   0  -3   7  647.24   20.00
  -1   3  -7    7.70    2.00
   1  -3   7    7.60    1.20
   2  -3   7    9.20    2.00
   2  -3   7    5.10    1.20
   2  -3   7    7.60    1.30
   2  -3   7    5.50    1.20
   3  -3   7    7.90    1.20
   3  -3   7    5.40    1.70
   3  -3   7    4.80    1.00
   3  -3   7    6.20    1.10
   4  -3   7    0.40    1.10
   4  -3   7   -0.70    0.80
   4  -3   7    1.50    0.90
   5  -3   7   -0.20    0.80
   5  -3   7    0.30    1.10
   5  -3   7    1.10    0.80
   6  -3   7   73.69    2.80
   6  -3   7   71.09    2.80
   7  -3   7    1.30    0.60
   7  -3   7    0.40    0.60
   8   2  -7   20.80    1.50
  -8  -2   7   22.80    1.20
   7   2  -7   48.40    2.30
  -7  -2   7   50.69    2.20
  -7  -2   7   47.40    2.40
   6   2  -7  233.98    7.80
  -6  -2   7  232.28    7.50
  -6  -2   7  229.68    7.50
   5   2  -7   25.70    2.40
   5   2  -7   26.70    2.20
  -5  -2   7   27.40    2.30
   4   2  -7   67.29    3.20
   4   2  -7   66.49    2.90
  -4  -2   7   65.29    3.00
  -4  -2   7   67.39    3.20
   3   2  -7  322.67   10.50
  -3  -2   7  318.77   10.10
   2   2  -7    4.10    1.00
   1   2  -7   36.60    2.30
   0   2  -7  457.55   14.40
  -1   2  -7  336.47   10.90
   2  -2   7  170.68    6.00
   2  -2   7  173.08    5.90
   2  -2   7  170.98    5.90
   2  -2   7  178.98    6.00
   3  -2   7  265.77    8.70
   3  -2   7  267.87    8.60
   3  -2   7  269.97    8.60
   3  -2   7  264.37    8.70
   4  -2   7  111.19    4.00
   4  -2   7  109.59    4.10
   4  -2   7  105.49    4.20
   5  -2   7  170.48    5.80
   5  -2   7  176.08    5.90
   5  -2   7  173.28    5.90
   6  -2   7   18.50    1.30
   6  -2   7   18.20    1.30
   7  -2   7    9.20    0.90
   8   1  -7    5.80    1.20
  -8  -1   7    4.40    0.80
   7   1  -7   13.20    1.60
  -7  -1   7   14.20    1.80
   6   1  -7  114.89    4.30
  -6  -1   7  110.49    4.10
   5   1  -7   34.00    2.30
   5   1  -7   34.50    2.30
  -5  -1   7   34.50    3.40
   4   1  -7  699.53   20.70
   4   1  -7  690.13   20.90
  -4  -1   7  683.43   20.70
  -4  -1   7  649.83   20.80
   3   1  -7  117.69    5.00
   3   1  -7  121.69    4.40
  -3  -1   7  118.99    4.40
   2   1  -7  131.39    5.30
   2   1  -7  137.99    4.70
   1   1  -7  457.95   14.30
   1   1  -7  472.85   14.80
   0   1  -7   11.30    1.50
   0   1  -7    9.00    1.90
   0  -1   7    9.00    1.20
  -1   1  -7    7.70    2.30
  -1   1  -7    8.80    1.60
   1  -1   7   11.40    2.50
   1  -1   7    8.80    1.40
   1  -1   7   11.10    2.50
   1  -1   7    9.40    1.80
   2  -1   7   74.99    3.20
   2  -1   7   72.69    3.20
   2  -1   7   66.39    3.20
   2  -1   7   70.89    3.20
   2  -1   7   73.29    3.40
   3  -1   7    8.10    1.80
   3  -1   7    8.50    1.60
   3  -1   7    8.00    1.70
   4  -1   7    2.10    0.90
   4  -1   7   -0.20    1.00
   4  -1   7    1.50    1.00
   5  -1   7   43.90    2.20
   5  -1   7   42.80    2.30
   5  -1   7   43.20    2.20
   6  -1   7    0.70    0.60
   6  -1   7   -0.40    0.60
   8   0  -7   10.90    1.20
  -8   0   7    8.30    0.90
   7   0  -7    9.00    1.50
  -7   0   7    6.00    1.40
   6   0  -7   24.30    2.00
   6   0  -7   27.80    2.60
  -6   0   7   25.30    1.90
   5   0  -7    2.50    1.10
   5   0  -7    3.10    1.10
  -5   0   7    1.10    1.00
   4   0  -7   23.40    2.30
   4   0  -7   24.90    1.70
  -4   0   7   25.50    2.00
   3   0  -7   78.89    4.00
   3   0  -7   89.39    3.30
  -3   0   7   85.09    3.40
   2   0  -7   48.60    2.20
   1   0  -7  303.97   10.20
   1   0  -7  326.47    9.70
  -1   0   7  297.67    9.60
   0   0  -7  229.38    8.00
   0   0  -7  229.98    7.50
   0   0   7  240.28    7.60
   0   0   7  227.48    7.50
   1   0   7  291.37    9.50
   1   0   7  306.57    9.40
   1   0   7  308.17    9.50
   1   0   7  254.27   10.00
   1   0   7  313.27    9.40
   2   0   7    1.50    1.00
   2   0   7    2.80    1.00
   2   0   7   -1.10    1.40
   2   0   7   -0.20    1.20
   3   0   7    2.70    1.00
   3   0   7    0.10    1.00
   3   0   7    1.00    1.00
   4   0   7    4.60    1.00
   4   0   7    4.80    1.10
   4   0   7    4.20    1.00
   5   0   7   14.20    2.10
  -6   0  -7    8.70    1.40
   6   0   7   10.70    1.20
   6   0   7   11.50    1.10
   8  -1  -7    4.70    1.10
  -8   1   7    6.20    0.90
   7  -1  -7   49.50    2.40
  -7   1   7   49.40    2.10
   6  -1  -7   18.50    1.90
   6  -1  -7   15.00    2.30
  -6   1   7   17.80    1.60
   5  -1  -7   29.80    2.00
   5  -1  -7   27.40    2.20
  -5   1   7   28.60    2.00
   4  -1  -7    4.50    1.30
   4  -1  -7    5.70    1.30
  -4   1   7    4.80    1.10
   3  -1  -7  197.58    7.40
   3  -1  -7  219.88    7.00
  -3   1   7  216.48    7.10
   2  -1  -7   12.80    1.40
  -2   1   7   10.40    2.30
  -2   1   7   10.00    1.80
   1  -1  -7   83.89    3.20
  -1   1   7   81.89    3.40
  -1   1   7   73.29    3.60
   0  -1  -7  241.28    7.80
   0   1   7  241.58    8.00
   0   1   7  244.68    8.00
   0   1   7  236.18    8.00
   1   1   7   34.00    2.70
   1   1   7   34.00    3.20
   1   1   7   33.80    2.60
   1   1   7   40.80    2.50
   2   1   7  188.98    6.40
   2   1   7  183.38    6.30
   2   1   7  177.78    6.30
  -3  -1  -7    9.00    2.00
   3   1   7    4.10    1.00
   3   1   7    9.40    1.80
   3   1   7    6.70    1.30
   4   1   7   92.29    3.60
   4   1   7   92.49    3.60
   5   1   7   10.70    1.50
   5   1   7    9.00    1.40
  -6  -1  -7   26.20    1.50
   8  -2  -7   13.10    1.20
  -8   2   7   13.80    1.20
   7  -2  -7   23.20    1.70
  -7   2   7   23.20    1.50
   6  -2  -7  178.98    6.30
   6  -2  -7  186.38    6.40
  -6   2   7  190.68    6.10
   5  -2  -7    6.60    1.60
   5  -2  -7    7.50    1.80
  -5   2   7    8.00    1.70
   4  -2  -7  771.62   23.70
   4  -2  -7  778.12   23.80
  -4   2   7  787.72   23.60
   3  -2  -7    0.90    1.70
   3  -2  -7    4.80    1.80
   3  -2  -7    2.70    0.90
  -3   2   7    3.70    1.50
   2  -2  -7  193.68    6.20
  -2   2   7  175.58    6.70
  -2   2   7  183.68    6.50
   1  -2  -7  155.78    5.20
  -1   2   7  144.19    5.70
  -1   2   7  149.19    5.70
   0  -2  -7    6.40    1.40
   0   2   7    4.50    1.40
   0   2   7    5.50    1.70
   0   2   7    5.80    1.40
   1   2   7    3.60    1.50
   1   2   7    3.10    1.10
  -2  -2  -7  125.79    4.60
   2   2   7  125.69    4.80
   2   2   7  127.29    5.00
   2   2   7  129.49    4.70
  -3  -2  -7    0.90    1.20
   3   2   7    1.30    1.30
   3   2   7    0.30    1.20
   4   2   7   19.60    1.80
   4   2   7   22.00    2.10
  -5  -2  -7   19.30    1.40
   7  -3  -7   40.10    2.00
  -7   3   7   40.40    2.00
   6  -3  -7    8.40    1.80
   6  -3  -7    4.90    1.10
  -6   3   7    5.80    1.10
   5  -3  -7   49.80    2.60
   5  -3  -7   57.19    2.90
  -5   3   7   53.99    2.80
   4  -3  -7  441.86   13.40
   4  -3  -7  429.86   13.60
  -4   3   7  411.66   13.30
   3  -3  -7    6.40    1.50
   3  -3  -7    5.20    2.50
   3  -3  -7    4.90    1.00
   2  -3  -7  422.36   13.20
   1  -3  -7  162.18    5.50
   1  -3  -7  147.89    5.30
   0  -3  -7    2.40    1.50
   0  -3  -7    1.20    0.90
  -1  -3  -7  256.17    8.30
  -2  -3  -7    1.20    1.00
  -4  -3  -7   51.39    2.30
  -5  -3  -7    0.80    0.70
   7  -4  -7   32.50    1.80
   6  -4  -7  113.29    4.20
   6  -4  -7  121.09    4.30
   5  -4  -7  176.38    6.00
   5  -4  -7  161.08    5.80
   4  -4  -7   31.70    2.70
   4  -4  -7   29.70    2.00
   3  -4  -7   10.30    1.90
   3  -4  -7    5.90    1.40
   2  -4  -7  156.68    5.40
   2  -4  -7  148.09    5.30
   1  -4  -7   13.50    2.00
   1  -4  -7   12.70    1.60
   0  -4  -7   93.29    3.60
  -1  -4  -7   14.30    1.60
  -2  -4  -7    2.00    1.00
  -2  -4  -7    0.80    0.90
  -3  -4  -7    6.20    1.10
  -3  -4  -7    7.10    1.20
  -4  -4  -7    6.00    1.00
   6  -5  -7   26.80    1.80
   6  -5  -7   25.80    1.70
   5  -5  -7    2.30    1.10
   5  -5  -7    2.80    0.90
   4  -5  -7    0.70    1.40
   4  -5  -7    2.10    0.90
   3  -5  -7    5.40    1.10
   3  -5  -7    6.00    1.30
   2  -5  -7    1.90    1.00
   2  -5  -7    1.20    0.90
   1  -5  -7   50.49    2.30
   1  -5  -7   42.70    2.60
   0  -5  -7    4.00    0.90
  -1  -5  -7   15.30    1.40
  -1  -5  -7   16.50    1.90
  -2  -5  -7   34.00    1.80
  -2  -5  -7   37.30    2.00
  -3  -5  -7   43.80    1.80
   6  -6  -7   44.70    2.40
   5  -6  -7   42.00    2.80
   5  -6  -7   41.00    1.90
   4  -6  -7  112.29    4.00
   3  -6  -7   21.80    1.60
   3  -6  -7   24.10    1.60
   2  -6  -7  129.89    4.40
   2  -6  -7  128.99    4.60
   1  -6  -7    4.10    2.50
   0  -6  -7    9.20    1.10
  -1  -6  -7   17.80    1.20
  -2  -6  -7   -0.50    1.00
  -2  -6  -7    1.80    0.70
   4  -7  -7    1.70    0.80
   3  -7  -7   -0.10    0.90
   3  -7  -7   -0.30    0.80
   2  -7  -7   87.49    2.90
   2  -7  -7   82.69    3.40
   1  -7  -7   47.60    1.90
   0  -7  -7   99.59    3.30
  -2 -11   8    1.00    0.80
  -2 -11   8    1.20    0.50
  -1 -11   8    2.40    0.60
  -1 -11   8    5.80    1.30
  -1 -11   8    4.00    0.80
   0 -11   8   25.20    1.70
   0 -11   8   25.10    1.50
   0 -11   8   24.70    1.30
   1 -11   8    0.80    0.80
   1 -11   8   -0.20    0.80
   1 -11   8    1.10    0.70
   1 -11   8    0.40    0.50
   2 -11   8   68.99    2.50
   2 -11   8   65.99    2.70
   2 -11   8   70.29    2.70
   2 -11   8   66.59    2.90
   3 -11   8    0.10    1.30
   3 -11   8    0.00    1.00
   3 -11   8    0.70    0.70
  -3 -10   8    9.10    1.00
  -2 -10   8    2.10    0.60
  -2 -10   8    1.90    0.70
  -2 -10   8    2.60    1.00
  -1 -10   8   25.40    1.60
  -1 -10   8   24.30    1.90
  -1 -10   8   24.70    1.40
  -1 -10   8   24.00    1.60
   0 -10   8   -0.40    0.80
   0 -10   8   -0.20    0.90
   0 -10   8    0.30    0.70
   0 -10   8   -0.30    0.80
   1 -10   8    6.60    1.30
   1 -10   8    6.70    1.70
   1 -10   8    7.30    1.10
   1 -10   8    9.90    1.50
   2 -10   8   11.70    2.00
   2 -10   8   10.70    1.20
   2 -10   8    9.40    1.60
   2 -10   8   11.60    1.10
   3 -10   8  163.08    5.30
   3 -10   8  135.79    5.40
   3 -10   8  148.29    5.20
   5   9  -8   18.00    1.40
  -5  -9   8   17.60    1.20
   4   9  -8   30.00    1.70
  -4  -9   8   30.30    1.60
  -4  -9   8   29.00    1.60
  -3  -9   8  171.38    5.70
  -3  -9   8  168.58    5.60
  -2  -9   8   65.49    2.80
  -2  -9   8   71.39    2.90
  -2  -9   8   70.89    2.70
  -1  -9   8   54.19    2.60
  -1  -9   8   52.79    2.50
  -1  -9   8   58.39    2.40
  -1  -9   8   56.99    3.00
  -1  -9   8   54.29    2.70
   0  -9   8    2.50    1.30
   0  -9   8    2.00    1.00
   0  -9   8    3.20    0.80
   0  -9   8    2.60    1.20
   0  -9   8    3.00    0.80
   1  -9   8  191.78    6.80
   1  -9   8  198.38    6.40
   1  -9   8  182.98    6.10
   1  -9   8  173.58    6.30
   2  -9   8   97.39    3.80
   2  -9   8  109.99    4.00
   2  -9   8  105.49    4.60
   2  -9   8  105.79    3.70
   3  -9   8   23.40    2.00
   3  -9   8   21.40    1.60
   3  -9   8   18.90    1.60
   5   8  -8   48.20    2.10
  -5  -8   8   46.60    1.90
  -5  -8   8   43.50    3.00
   4   8  -8   -0.40    0.80
  -4  -8   8    0.40    0.80
  -4  -8   8    0.70    0.70
  -3  -8   8   20.30    2.00
  -3  -8   8   19.60    1.70
  -3  -8   8   20.40    1.70
  -2  -8   8    2.10    1.10
  -2  -8   8    1.80    1.00
  -2  -8   8    2.30    0.90
  -1  -8   8   13.10    1.50
  -1  -8   8   12.60    2.20
  -1  -8   8   12.50    1.90
  -1  -8   8   11.90    1.40
  -1  -8   8   14.00    1.70
   0  -8   8  130.39    4.70
   0  -8   8  134.49    5.40
   0  -8   8  127.29    4.80
   0  -8   8  130.79    4.60
   1  -8   8    1.80    1.60
   1  -8   8    1.80    1.10
   1  -8   8    1.70    1.00
   1  -8   8    1.00    0.80
   1  -8   8    1.10    0.70
   2  -8   8   30.70    3.40
   2  -8   8   29.10    2.40
   2  -8   8   30.10    1.80
   2  -8   8   29.70    2.20
   2  -8   8   31.10    1.90
   3  -8   8   52.29    2.70
   3  -8   8   48.40    2.40
   3  -8   8   47.50    2.40
   4  -8   8   17.50    1.90
   4  -8   8   20.10    2.00
   6   7  -8   11.90    1.20
  -6  -7   8   11.70    0.90
   5   7  -8    6.50    1.30
  -5  -7   8    6.80    1.40
  -5  -7   8    8.60    1.20
  -4  -7   8    1.10    0.90
  -4  -7   8   -0.10    1.00
  -3  -7   8  100.69    3.80
  -3  -7   8   94.29    3.80
  -3  -7   8   97.89    3.70
  -2  -7   8  526.95   16.50
  -2  -7   8  524.15   16.40
  -2  -7   8  543.65   16.40
  -2  -7   8  537.25   16.30
  -1  -7   8  112.89    4.20
  -1  -7   8  113.59    4.30
  -1  -7   8  109.99    4.80
  -1  -7   8  116.69    4.10
  -1  -7   8  113.49    4.20
   0  -7   8  494.25   15.60
   0  -7   8  508.45   15.60
   0  -7   8  476.35   17.60
   0  -7   8  515.05   15.60
   0  -7   8  512.25   15.40
   1  -7   8   -0.10    1.00
   1  -7   8    0.30    0.70
   1  -7   8   -0.90    1.00
   1  -7   8    0.30    0.90
   1  -7   8   -0.90    2.00
   2  -7   8  130.29    4.50
   2  -7   8  130.29    4.60
   2  -7   8  128.99    4.80
   2  -7   8  124.59    4.60
   3  -7   8   40.30    2.50
   3  -7   8   44.90    2.40
   3  -7   8   39.80    2.30
   3  -7   8   35.50    2.50
   4  -7   8   88.29    3.50
   4  -7   8   87.89    3.60
   6   6  -8  320.57   10.10
  -6  -6   8  325.87   10.00
   5   6  -8    3.20    1.00
  -5  -6   8    5.80    1.30
  -4  -6   8 1278.47   38.10
  -4  -6   8 1266.87   38.10
  -3  -6   8  379.06   11.80
  -3  -6   8  390.76   11.90
  -3  -6   8  359.56   11.70
  -2  -6   8 1249.77   37.20
  -2  -6   8 1219.58   37.10
  -2  -6   8 1300.07   37.20
  -2  -6   8 1194.98   37.30
  -1  -6   8  202.48    6.80
  -1  -6   8  199.58    6.80
  -1  -6   8  202.48    6.80
  -1  -6   8  204.38    6.70
  -1  -6   8  212.88    7.50
   0  -6   8   18.90    2.10
   0  -6   8   21.30    1.90
   0  -6   8   19.30    1.70
   0  -6   8   17.60    3.40
   0  -6   8   17.20    1.40
   1  -6   8  196.78    6.40
   1  -6   8  188.58    6.30
   1  -6   8  194.08    6.50
   1  -6   8  190.48    6.40
   2  -6   8  108.19    4.40
   2  -6   8  107.79    4.20
   2  -6   8  112.59    4.30
   2  -6   8  101.49    5.10
   2  -6   8  115.19    4.10
   3  -6   8    1.40    1.00
   3  -6   8    3.30    1.00
   3  -6   8    1.00    1.00
   3  -6   8    3.40    1.30
   4  -6   8  168.68    5.70
   4  -6   8  165.48    5.60
   4  -6   8  166.08    5.80
   5  -6   8   20.00    1.60
   5  -6   8   21.60    1.70
   6  -6   8    6.00    1.10
   6  -6   8    8.80    1.30
   7   5  -8   30.50    1.60
  -7  -5   8   29.10    1.40
   6   5  -8   93.09    3.50
  -6  -5   8   96.49    3.40
  -6  -5   8   94.49    3.50
   5   5  -8  226.88    7.70
  -5  -5   8  233.98    7.40
  -5  -5   8  225.28    7.50
   4   5  -8   37.10    2.40
  -4  -5   8   39.20    2.20
  -4  -5   8   35.10    2.50
  -4  -5   8   39.00    3.10
  -3  -5   8   50.99    3.00
  -3  -5   8   51.19    3.20
  -2  -5   8  317.57   10.20
  -2  -5   8  314.67   10.00
  -2  -5   8  304.67   10.20
  -2  -5   8  319.27   10.00
  -2  -5   8  328.07   10.10
  -1  -5   8  298.57    9.50
  -1  -5   8  310.87    9.50
  -1  -5   8  292.17    9.40
  -1  -5   8  299.07    9.60
  -1  -5   8  287.97    9.70
   0  -5   8  655.63   21.20
   0  -5   8  711.23   21.20
   0  -5   8  704.23   21.30
   0  -5   8  702.43   21.10
   0  -5   8  722.03   21.20
   1  -5   8  458.45   14.70
   1  -5   8  484.45   14.60
   1  -5   8  474.25   14.60
   1  -5   8  479.15   14.70
   1  -5   8  477.05   14.60
   2  -5   8    2.00    1.20
   2  -5   8    4.60    1.10
   2  -5   8    2.60    1.20
   2  -5   8    1.50    1.10
   2  -5   8    3.50    1.00
   3  -5   8  221.98    7.30
   3  -5   8  218.78    7.20
   3  -5   8  223.78    7.30
   3  -5   8  213.58    7.20
   4  -5   8   13.00    1.50
   4  -5   8   13.40    1.80
   4  -5   8   11.90    1.80
   5  -5   8   33.80    2.20
   6  -5   8    0.40    0.70
   6  -5   8    1.00    0.70
   7   4  -8  133.89    4.60
  -7  -4   8  137.19    4.50
  -7  -4   8  138.69    4.40
   6   4  -8  147.29    5.20
  -6  -4   8  146.89    5.00
   5   4  -8  343.87   11.20
  -5  -4   8  355.76   10.90
  -5  -4   8  344.77   10.90
   4   4  -8  121.89    4.80
   4   4  -8  122.59    4.60
  -4  -4   8  120.79    4.50
  -4  -4   8  121.69    4.40
  -3  -4   8  357.26   12.10
  -3  -4   8  403.56   12.00
  -3  -4   8  383.86   11.90
  -2  -4   8  158.78    5.60
  -2  -4   8  158.48    5.70
  -2  -4   8  163.08    5.90
  -1  -4   8   46.80    2.90
  -1  -4   8   51.39    2.20
  -1  -4   8   46.90    2.90
  -1  -4   8   46.80    2.50
  -1  -4   8   49.10    2.50
   0  -4   8   37.10    2.20
   0  -4   8   38.90    2.50
   0  -4   8   38.70    2.20
   0  -4   8   36.70    2.60
   1  -4   8  160.28    5.50
   1  -4   8  163.58    5.70
   1  -4   8  159.18    5.50
   1  -4   8  157.88    5.60
   1  -4   8  160.38    6.40
   2  -4   8  115.69    4.30
   2  -4   8  116.69    4.30
   2  -4   8  116.89    4.30
   2  -4   8  117.29    4.40
   3  -4   8  127.69    4.80
   3  -4   8  129.19    4.60
   3  -4   8  130.49    4.70
   3  -4   8  129.69    4.80
   4  -4   8  137.79    4.80
   4  -4   8  138.69    5.00
   4  -4   8  135.49    4.80
   5  -4   8    5.90    1.60
   5  -4   8    3.80    0.90
   5  -4   8    5.00    0.90
   6  -4   8   64.19    2.50
   6  -4   8   65.49    2.50
   7   3  -8    0.20    0.70
  -7  -3   8    0.70    0.90
  -7  -3   8    1.40    0.70
   6   3  -8   76.39    3.20
  -6  -3   8   76.19    3.10
  -6  -3   8   78.89    3.20
   5   3  -8   41.20    2.50
   5   3  -8   38.30    2.40
  -5  -3   8   40.50    2.20
  -5  -3   8   42.30    2.40
   4   3  -8   76.69    3.20
  -4  -3   8   70.79    3.30
   3   3  -8   14.00    2.50
  -3  -3   8   15.70    2.00
  -3  -3   8   12.60    1.80
   2   3  -8   48.00    3.50
  -2  -3   8   45.00    2.60
  -2  -3   8   47.70    2.90
  -2  -3   8   46.60    2.70
  -1  -3   8  608.34   18.70
  -1  -3   8  626.64   18.80
  -1  -3   8  609.64   18.70
   0  -3   8    8.50    2.00
   0  -3   8   10.80    1.50
   0  -3   8    8.30    1.90
   0  -3   8    6.90    1.70
   1  -3   8   54.69    2.60
   1  -3   8   53.19    2.70
   1  -3   8   55.19    2.80
   1  -3   8   55.39    2.70
   2  -3   8   16.20    1.80
   2  -3   8   12.70    1.80
   2  -3   8   11.70    2.00
   2  -3   8   13.50    1.70
   3  -3   8  113.29    4.20
   3  -3   8  108.39    4.20
   3  -3   8  110.09    4.20
   3  -3   8  111.19    4.10
   4  -3   8   11.60    1.50
   4  -3   8   11.80    1.50
   4  -3   8    8.80    1.80
   5  -3   8   29.20    1.80
   5  -3   8   29.70    1.80
   6  -3   8   11.80    1.10
   6  -3   8   13.20    1.10
   8   2  -8   80.69    2.90
  -8  -2   8   79.59    2.70
   7   2  -8   35.30    1.90
  -7  -2   8   36.20    1.70
   6   2  -8    8.20    1.50
  -6  -2   8    8.80    1.40
  -6  -2   8   10.30    2.00
   5   2  -8    1.80    1.00
   5   2  -8    1.70    1.20
  -5  -2   8    3.70    1.30
  -5  -2   8    2.90    0.90
   4   2  -8  493.15   14.90
   4   2  -8  467.65   15.10
  -4  -2   8  464.05   14.90
  -4  -2   8  502.35   15.20
   3   2  -8    9.50    2.50
   3   2  -8    8.80    1.40
  -3  -2   8    9.30    1.70
  -3  -2   8   10.60    1.50
  -2  -2   8  177.18    6.30
  -2  -2   8  189.18    6.40
  -2  -2   8  189.38    6.30
  -1  -2   8  162.78    6.00
  -1  -2   8  164.48    6.00
  -1  -2   8  202.08    6.70
   0  -2   8   51.69    2.60
   0  -2   8   45.50    2.60
   0  -2   8   50.59    2.90
   0  -2   8   48.50    2.60
   1  -2   8    6.90    1.20
   1  -2   8    9.60    1.90
   1  -2   8    7.00    1.30
   1  -2   8    4.20    1.10
   2  -2   8   17.60    1.90
   2  -2   8   16.40    1.80
   2  -2   8   18.80    1.80
   2  -2   8   19.20    1.80
   3  -2   8   36.60    2.20
   3  -2   8   39.80    2.50
   3  -2   8   31.90    2.20
   3  -2   8   37.70    2.20
   4  -2   8   25.70    1.80
   4  -2   8   26.30    1.80
   4  -2   8   26.30    2.00
   5  -2   8    2.30    1.10
   5  -2   8    2.00    0.90
   5  -2   8    1.70    1.00
   6  -2   8   58.19    2.20
   6  -2   8   54.89    2.20
  -8  -1   8   84.49    2.80
   7   1  -8   63.99    2.70
  -7  -1   8   60.19    2.40
   6   1  -8  390.36   12.90
   6   1  -8  424.06   13.10
  -6  -1   8  431.96   12.90
   5   1  -8  113.99    4.40
   5   1  -8  117.99    4.30
  -5  -1   8  113.59    4.20
   4   1  -8    0.50    0.90
   4   1  -8    3.20    1.20
  -4  -1   8    2.00    1.30
   3   1  -8    1.20    1.50
   3   1  -8    1.30    0.80
  -3  -1   8    1.40    1.00
   2   1  -8  206.58    6.70
  -2  -1   8  206.58    6.80
  -2  -1   8  200.38    6.80
   1   1  -8  354.66   12.70
  -1  -1   8  393.46   11.80
  -1  -1   8  388.36   11.90
   0   1  -8  300.67    9.40
   0  -1   8  298.97    9.50
   0  -1   8  287.37    9.50
   0  -1   8  290.47    9.50
   0  -1   8  302.57    9.40
  -1   1  -8  533.95   16.80
   1  -1   8  564.84   16.80
   1  -1   8  549.95   16.80
   1  -1   8  554.64   16.80
   1  -1   8  535.25   16.80
   2  -1   8  427.56   13.20
   2  -1   8  418.36   13.20
   2  -1   8  418.46   13.10
   2  -1   8  434.96   13.30
   3  -1   8  101.09    3.90
   3  -1   8  100.39    3.90
   3  -1   8  105.49    4.00
   4  -1   8    9.30    1.60
   4  -1   8   11.70    1.70
   4  -1   8    8.20    1.50
   5  -1   8   26.80    1.60
   5  -1   8   24.10    1.50
  -6   1  -8    0.70    0.90
   6  -1   8    0.90    0.60
   6  -1   8   -0.30    0.60
   8   0  -8    5.40    1.50
   7   0  -8   15.90    1.50
  -7   0   8   15.90    1.20
   6   0  -8  114.39    4.50
   6   0  -8  128.39    4.60
  -6   0   8  121.49    4.30
   5   0  -8  472.25   14.30
   5   0  -8  447.86   14.40
  -5   0   8  457.65   14.20
   4   0  -8  194.98    6.50
  -4   0   8  188.28    6.40
   3   0  -8  499.65   16.30
   3   0  -8  546.45   16.10
  -3   0   8  523.65   16.10
   2   0  -8   23.00    1.60
  -2   0   8   20.70    2.20
  -2   0   8   24.00    2.20
   1   0  -8  461.25   14.20
  -1   0   8  458.95   14.20
  -1   0   8  459.75   14.10
   0   0  -8    8.00    1.70
   0   0   8   11.20    1.50
   0   0   8    9.90    1.70
   0   0   8    9.90    1.40
   0   0   8   11.30    2.30
   1   0   8   11.40    1.50
   1   0   8   10.60    1.90
   1   0   8   11.30    1.80
   2   0   8    3.70    1.10
   2   0   8    6.70    1.70
   2   0   8    5.00    1.20
   3   0   8  195.58    6.60
   3   0   8  195.48    6.50
   3   0   8  193.48    6.60
   4   0   8   23.80    1.80
   4   0   8   22.60    1.80
   4   0   8   24.90    1.80
   5   0   8   22.50    1.40
   5   0   8   22.70    1.50
   8  -1  -8    3.60    0.90
  -8   1   8    4.50    0.90
   7  -1  -8   67.89    2.70
  -7   1   8   63.79    2.50
   6  -1  -8    5.70    1.60
   6  -1  -8    2.90    1.30
  -6   1   8    5.30    1.30
   5  -1  -8   16.00    1.90
   5  -1  -8   14.50    2.00
  -5   1   8   15.40    1.70
   4  -1  -8   83.59    3.80
   4  -1  -8   87.89    3.40
  -4   1   8   82.09    3.40
   3  -1  -8  660.83   19.50
   3  -1  -8  611.04   19.70
  -3   1   8  643.54   19.40
   2  -1  -8  130.29    4.70
  -2   1   8  135.99    4.90
   1  -1  -8  508.55   15.90
  -1   1   8  525.25   15.90
   0  -1  -8  430.76   13.20
   0   1   8  423.26   13.20
   0   1   8  417.56   13.20
   1   1   8  182.58    6.40
   1   1   8  179.58    6.20
   2   1   8  151.28    5.40
   2   1   8  156.08    5.50
   2   1   8  153.68    5.40
  -3  -1  -8   88.39    3.60
   3   1   8   91.39    3.50
   3   1   8   90.69    3.60
   3   1   8   91.69    3.60
   4   1   8    4.40    1.00
   4   1   8    7.30    1.40
   5   1   8   69.79    2.40
   5   1   8   59.49    2.60
   7  -2  -8   23.80    1.60
  -7   2   8   24.70    1.50
   6  -2  -8  313.17   10.10
   6  -2  -8  324.27   10.50
  -6   2   8  314.57    9.90
   5  -2  -8   47.90    2.70
   5  -2  -8   49.00    2.50
  -5   2   8   54.09    2.60
   4  -2  -8  303.87   10.00
   4  -2  -8  304.57    9.80
  -4   2   8  310.17    9.70
   3  -2  -8    7.80    1.40
   3  -2  -8    6.70    1.40
  -3   2   8    6.50    1.50
   2  -2  -8   88.29    3.50
   2  -2  -8   90.19    3.40
  -2   2   8   80.09    4.90
   1  -2  -8   74.59    3.10
  -1   2   8   69.39    3.50
   0  -2  -8   15.40    2.30
   0   2   8   14.60    2.40
   0   2   8   14.60    2.40
  -1  -2  -8  102.29    3.80
   1   2   8  101.29    4.00
   1   2   8  104.09    4.30
  -2  -2  -8  392.86   12.20
   2   2   8  391.96   12.30
  -3  -2  -8   23.40    1.90
   3   2   8   25.50    2.00
   3   2   8   21.20    2.20
   4   2   8   50.89    2.30
  -5  -2  -8    6.60    1.00
   7  -3  -8   10.70    1.30
   6  -3  -8   20.80    1.80
   6  -3  -8   17.40    1.70
  -6   3   8   18.70    2.00
   5  -3  -8    5.30    1.40
   5  -3  -8    3.90    1.20
  -5   3   8    2.40    1.40
   4  -3  -8  124.69    4.90
   4  -3  -8  121.99    4.60
  -4   3   8  129.99    4.70
   3  -3  -8   98.49    3.90
   3  -3  -8   98.49    3.80
   2  -3  -8   19.80    1.80
   2  -3  -8   20.50    1.90
   1  -3  -8   23.40    2.00
   1  -3  -8   21.60    1.80
   0  -3  -8   20.30    1.70
  -1  -3  -8    0.90    0.90
  -2  -3  -8   -0.60    0.80
  -3  -3  -8   43.80    2.10
  -4  -3  -8    5.70    1.00
   6  -4  -8    1.40    0.90
   6  -4  -8    1.20    1.00
   5  -4  -8   94.49    3.60
   5  -4  -8   97.69    4.00
   4  -4  -8    7.60    1.40
   4  -4  -8    9.10    1.90
   3  -4  -8  337.87   10.90
   3  -4  -8  346.47   10.70
   2  -4  -8    5.30    1.10
   2  -4  -8    4.70    1.10
   1  -4  -8  115.69    4.00
   1  -4  -8  103.69    4.20
   0  -4  -8   36.40    2.00
  -1  -4  -8   90.39    3.60
  -2  -4  -8   30.20    1.80
  -2  -4  -8   29.30    1.60
  -3  -4  -8   -0.30    0.60
   6  -5  -8   24.60    2.10
   5  -5  -8   13.50    1.40
   5  -5  -8   14.30    2.30
   4  -5  -8  102.79    3.70
   3  -5  -8    7.20    1.30
   3  -5  -8    7.30    1.50
   2  -5  -8   24.20    1.50
   2  -5  -8   21.20    1.80
   1  -5  -8   36.00    2.50
   1  -5  -8   38.70    1.80
   0  -5  -8    2.70    0.70
  -1  -5  -8   16.10    1.10
  -2  -5  -8   93.39    3.20
  -2  -5  -8   86.39    3.00
   4  -6  -8   56.69    2.30
   3  -6  -8    1.40    0.90
   2  -6  -8   24.60    2.10
   2  -6  -8   25.80    1.30
   1  -6  -8   29.50    1.40
   0  -6  -8    2.10    0.50
  -1  -6  -8   74.39    2.50
  -2 -11   9   79.69    3.10
  -1 -11   9    0.30    0.50
  -1 -11   9    0.70    0.80
  -1 -11   9    1.30    0.60
   0 -11   9  181.68    5.90
   0 -11   9  178.58    5.70
   0 -11   9  182.08    5.80
   1 -11   9    2.00    0.70
   1 -11   9    1.00    0.70
   1 -11   9    2.20    0.50
   2 -11   9    8.90    1.40
   2 -11   9    9.40    1.00
   2 -11   9    8.70    1.30
   3 -11   9    0.80    0.80
   3  10  -9    0.50    0.60
  -3 -10   9    1.70    1.00
  -3 -10   9    0.00    0.50
  -2 -10   9    1.00    1.00
  -2 -10   9    1.20    0.60
  -2 -10   9    1.80    0.70
  -1 -10   9   10.70    1.00
  -1 -10   9    9.40    2.10
  -1 -10   9   10.10    1.10
  -1 -10   9   10.30    1.20
   0 -10   9   43.70    2.00
   0 -10   9   44.30    2.40
   0 -10   9   46.70    2.10
   0 -10   9   46.40    1.90
   1 -10   9   41.60    1.80
   1 -10   9   38.70    1.90
   1 -10   9   43.10    2.00
   1 -10   9   37.70    2.40
   2 -10   9  107.69    3.80
   2 -10   9   99.19    4.10
   2 -10   9  106.89    3.80
   2 -10   9  108.99    3.60
   3 -10   9   10.70    1.20
   3 -10   9   10.20    1.70
   3 -10   9   10.00    1.90
   4   9  -9   46.50    2.00
  -4  -9   9   46.00    1.90
  -4  -9   9   43.00    1.90
  -3  -9   9   13.40    1.30
  -3  -9   9   12.00    1.30
  -2  -9   9   94.49    3.40
  -2  -9   9   97.09    3.50
  -2  -9   9   90.89    3.50
  -1  -9   9   15.10    1.60
  -1  -9   9   11.30    1.30
  -1  -9   9   13.90    1.90
  -1  -9   9   10.50    1.30
   0  -9   9    1.40    0.80
   0  -9   9    3.10    1.10
   0  -9   9    1.60    0.70
   0  -9   9    0.90    0.80
   0  -9   9    2.20    1.20
   1  -9   9  133.09    4.90
   1  -9   9  144.49    5.00
   1  -9   9  142.09    4.80
   1  -9   9  141.59    5.40
   2  -9   9   42.00    1.90
   2  -9   9   39.60    3.20
   2  -9   9   39.60    2.00
   3  -9   9  236.98    7.50
   3  -9   9  230.08    7.60
   3  -9   9  237.08    7.40
   5   8  -9   44.90    2.00
  -5  -8   9   49.80    1.90
   4   8  -9   73.99    3.10
  -4  -8   9   78.99    2.90
  -4  -8   9   77.59    3.00
  -3  -8   9  215.48    6.80
  -3  -8   9  200.28    6.80
  -3  -8   9  215.18    6.90
  -2  -8   9  122.89    4.70
  -2  -8   9  142.79    4.80
  -2  -8   9  142.29    4.70
  -2  -8   9  132.49    4.80
  -1  -8   9  211.58    7.50
  -1  -8   9  214.58    6.90
  -1  -8   9  215.28    7.00
  -1  -8   9  208.28    7.10
   0  -8   9  397.56   12.50
   0  -8   9  398.16   12.40
   0  -8   9  398.76   12.60
   0  -8   9  405.26   13.00
   0  -8   9  396.56   12.40
   1  -8   9   26.10    2.00
   1  -8   9   29.30    2.10
   1  -8   9   32.40    3.10
   1  -8   9   25.70    1.70
   2  -8   9  152.38    5.40
   2  -8   9  162.28    5.40
   2  -8   9  158.18    5.40
   2  -8   9  165.08    5.60
   3  -8   9   39.90    2.60
   3  -8   9   40.70    2.30
   3  -8   9   44.20    2.70
   3  -8   9   50.09    3.00
   4  -8   9   22.40    1.80
   6   7  -9   73.09    2.60
  -6  -7   9   70.29    2.50
   5   7  -9    2.20    0.70
  -5  -7   9    3.20    0.70
   4   7  -9   54.39    2.60
   4   7  -9   51.99    2.80
  -4  -7   9   55.89    2.40
  -3  -7   9   14.80    1.50
  -3  -7   9   14.90    1.80
  -3  -7   9   11.10    2.00
  -2  -7   9    4.10    1.00
  -2  -7   9    4.00    1.00
  -2  -7   9    4.50    1.00
  -2  -7   9    8.60    1.60
  -1  -7   9  446.36   13.90
  -1  -7   9  436.16   14.10
  -1  -7   9  454.85   14.00
  -1  -7   9  472.45   14.10
   0  -7   9   78.89    4.20
   0  -7   9   84.59    3.30
   0  -7   9   77.39    3.30
   0  -7   9   79.39    3.20
   0  -7   9   78.29    3.30
   1  -7   9  103.49    3.90
   1  -7   9  101.69    4.00
   1  -7   9  105.79    3.80
   1  -7   9  103.89    3.90
   2  -7   9  388.16   12.10
   2  -7   9  378.66   12.00
   2  -7   9  389.36   12.20
   2  -7   9  396.26   12.20
   3  -7   9    0.50    0.90
   3  -7   9    4.20    1.00
   3  -7   9    1.10    0.90
   4  -7   9   57.29    2.60
   4  -7   9   58.79    2.50
   4  -7   9   59.19    3.20
   5  -7   9   -0.10    1.00
   6   6  -9   43.00    1.90
  -6  -6   9   44.60    1.80
   4   6  -9  248.28    8.20
  -4  -6   9  227.68    8.50
  -4  -6   9  250.57    7.90
  -4  -6   9  246.28    8.00
  -3  -6   9   10.40    1.40
  -3  -6   9   11.00    1.40
  -3  -6   9    9.60    1.80
  -3  -6   9   12.00    2.00
  -2  -6   9  337.67   10.40
  -2  -6   9  328.57   10.50
  -2  -6   9  323.57   10.30
  -2  -6   9  329.67   10.40
  -2  -6   9  317.47   10.60
  -1  -6   9    0.30    0.90
  -1  -6   9   -0.70    1.70
  -1  -6   9    1.10    0.90
  -1  -6   9    0.40    0.90
  -1  -6   9    0.90    0.80
   0  -6   9    0.70    0.80
   0  -6   9    0.70    0.90
   0  -6   9    0.60    0.80
   0  -6   9    1.90    1.00
   0  -6   9   -1.00    1.60
   1  -6   9   19.10    1.70
   1  -6   9   15.50    2.40
   1  -6   9   21.30    1.90
   1  -6   9   19.60    1.70
   1  -6   9   17.40    1.60
   2  -6   9   18.50    1.70
   2  -6   9   23.00    2.00
   2  -6   9   22.20    1.90
   2  -6   9   15.70    2.20
   2  -6   9   16.00    1.60
   3  -6   9    7.50    1.70
   3  -6   9    6.40    1.50
   3  -6   9    6.20    1.30
   3  -6   9    6.40    1.60
   4  -6   9   76.69    3.00
   4  -6   9   80.19    3.20
   4  -6   9   75.89    3.30
   5  -6   9    1.10    1.00
   5  -6   9    2.10    0.80
   5  -6   9    0.90    0.80
   6  -6   9   10.80    1.60
   7   5  -9   -1.20    0.80
  -7  -5   9   -0.30    0.60
   6   5  -9   78.49    3.00
  -6  -5   9   75.09    3.00
  -6  -5   9   80.99    2.90
   5   5  -9   -0.40    0.80
  -5  -5   9    0.30    1.10
  -5  -5   9   -0.60    0.80
   4   5  -9   44.70    2.60
   4   5  -9   42.40    2.40
  -4  -5   9   42.10    2.20
  -4  -5   9   42.90    2.70
  -3  -5   9   56.99    3.10
  -3  -5   9   59.79    3.20
  -3  -5   9   57.59    2.60
  -3  -5   9   60.19    3.10
  -2  -5   9  105.29    4.00
  -2  -5   9  105.49    4.20
  -2  -5   9  103.79    4.20
  -1  -5   9   90.09    3.50
  -1  -5   9   86.99    3.40
  -1  -5   9   87.09    3.40
  -1  -5   9   84.49    3.50
  -1  -5   9   85.29    3.70
   0  -5   9    2.90    1.30
   0  -5   9    5.00    1.30
   0  -5   9    5.70    1.10
   0  -5   9    3.80    1.00
   0  -5   9    4.80    1.00
   1  -5   9    1.80    1.10
   1  -5   9    1.40    1.00
   1  -5   9    3.20    1.10
   1  -5   9    4.00    1.30
   1  -5   9    0.30    0.90
   2  -5   9    6.90    1.80
   2  -5   9    6.50    1.20
   2  -5   9    4.10    1.10
   2  -5   9    3.90    1.00
   3  -5   9   22.10    2.10
   3  -5   9   24.60    1.80
   3  -5   9   24.80    2.00
   3  -5   9   21.00    1.80
   4  -5   9   43.80    2.10
   4  -5   9   45.00    2.30
   4  -5   9   41.60    2.30
   5  -5   9   42.60    2.00
   5  -5   9   43.00    2.20
   5  -5   9   42.40    2.00
   6  -5   9   -0.30    0.60
   6  -5   9    0.50    0.80
   7   4  -9   99.69    3.30
  -7  -4   9   91.09    3.80
  -7  -4   9   94.29    3.30
   6   4  -9   21.40    1.60
  -6  -4   9   21.20    1.50
  -6  -4   9   19.80    1.50
   5   4  -9   17.70    1.90
   5   4  -9   22.90    1.90
  -5  -4   9   18.70    1.70
  -5  -4   9   18.30    1.70
   4   4  -9    0.30    1.00
   4   4  -9   -0.80    1.00
  -4  -4   9    0.40    1.00
  -4  -4   9    0.50    0.90
   3   4  -9   31.70    4.20
  -3  -4   9   30.20    2.30
  -3  -4   9   32.60    2.00
  -3  -4   9   34.80    3.00
  -2  -4   9    8.70    1.60
  -2  -4   9    7.90    1.60
  -2  -4   9    6.90    1.40
  -2  -4   9    7.70    1.30
  -1  -4   9  992.20   29.70
  -1  -4   9  984.70   29.80
  -1  -4   9  987.80   29.80
  -1  -4   9  997.20   29.70
   0  -4   9   33.00    2.00
   0  -4   9   35.10    2.00
   0  -4   9   33.50    2.40
   0  -4   9   33.20    2.30
   1  -4   9  164.78    5.50
   1  -4   9  153.68    5.40
   1  -4   9  160.28    5.60
   1  -4   9  159.48    5.50
   2  -4   9  194.98    6.50
   2  -4   9  194.38    6.60
   2  -4   9  190.28    6.50
   2  -4   9  197.08    6.60
   3  -4   9   34.10    2.00
   3  -4   9   32.80    2.10
   3  -4   9   33.70    2.20
   3  -4   9   33.70    2.10
   4  -4   9    1.40    0.80
   4  -4   9    0.40    0.80
   4  -4   9    0.80    0.80
   5  -4   9   17.20    1.30
   5  -4   9   18.80    1.30
   5  -4   9   18.20    1.60
   6  -4   9   34.60    1.50
   6  -4   9   35.80    1.60
   7   3  -9  125.69    4.30
  -7  -3   9  125.69    4.10
  -7  -3   9  125.79    4.50
   6   3  -9    6.70    1.80
  -6  -3   9    5.20    1.00
   5   3  -9  166.48    5.80
   5   3  -9  166.28    5.90
  -5  -3   9  168.48    5.70
  -5  -3   9  172.28    5.70
   4   3  -9   79.19    3.20
   4   3  -9   73.09    3.40
  -4  -3   9   74.29    3.20
  -4  -3   9   72.69    3.10
   3   3  -9   75.59    3.10
   3   3  -9   65.79    3.50
  -3  -3   9   72.89    3.10
  -3  -3   9   74.19    3.60
   2   3  -9  325.87   11.20
  -2  -3   9  330.97   11.00
  -2  -3   9  350.56   10.80
  -2  -3   9  342.87   10.70
  -2  -3   9  359.36   10.90
  -1  -3   9   -0.90    1.10
  -1  -3   9    2.10    1.30
  -1  -3   9    0.80    1.10
  -1  -3   9    3.00    1.10
   0  -3   9    9.70    1.80
   0  -3   9   11.30    1.90
   0  -3   9   10.70    1.60
   0  -3   9   16.30    2.00
   1  -3   9  372.26   11.40
   1  -3   9  351.76   11.40
   1  -3   9  361.56   11.50
   1  -3   9  370.36   11.40
   2  -3   9  444.46   13.60
   2  -3   9  435.06   13.60
   2  -3   9  429.26   13.50
   2  -3   9  432.56   13.50
   3  -3   9    1.90    1.10
   3  -3   9    2.00    0.80
   3  -3   9    3.10    0.90
   3  -3   9    1.90    0.90
   4  -3   9  532.45   16.50
   4  -3   9  536.45   16.50
   4  -3   9  550.04   16.50
   5  -3   9    5.60    1.10
   5  -3   9    5.20    1.30
   6  -3   9   83.09    2.80
   6  -3   9   82.19    2.90
   7   2  -9    9.60    1.20
  -7  -2   9    9.50    1.00
   6   2  -9   94.49    3.70
  -6  -2   9   94.89    3.50
   5   2  -9   44.50    2.50
   5   2  -9   47.90    2.60
  -5  -2   9   46.00    2.30
  -5  -2   9   47.10    2.60
   4   2  -9   47.80    2.80
   4   2  -9   50.59    2.40
  -4  -2   9   52.99    2.40
  -4  -2   9   48.80    2.80
   3   2  -9  126.79    5.10
   3   2  -9  143.19    4.80
  -3  -2   9  130.49    4.80
  -3  -2   9  128.89    5.10
  -3  -2   9  125.79    4.90
   2   2  -9  328.87   10.20
  -2  -2   9  311.67   10.10
  -2  -2   9  315.07   10.10
  -2  -2   9  319.87   10.10
   1   2  -9    2.10    0.90
  -1  -2   9    2.70    1.00
  -1  -2   9    2.30    1.00
  -1  -2   9    0.60    1.20
  -1  -2   9   -1.80    1.30
   0   2  -9  509.45   15.90
   0  -2   9  511.45   15.90
   0  -2   9  515.15   15.80
   0  -2   9  528.55   15.90
   0  -2   9  516.45   15.90
  -1   2  -9  117.59    4.50
   1  -2   9  118.59    4.40
   1  -2   9  119.99    4.40
   1  -2   9  126.39    4.50
   1  -2   9  120.69    4.30
   2  -2   9   37.60    2.20
   2  -2   9   41.10    2.30
   2  -2   9   40.40    2.20
   2  -2   9   38.00    2.20
   3  -2   9   59.19    2.70
   3  -2   9   60.19    2.70
   4  -2   9   33.80    2.00
   4  -2   9   34.30    1.90
   4  -2   9   30.10    2.00
   5  -2   9   13.30    1.10
   5  -2   9   10.80    1.10
   7   1  -9   -0.30    0.60
  -7  -1   9    0.70    0.50
   6   1  -9    8.80    1.50
   6   1  -9    4.70    1.40
  -6  -1   9    8.10    1.20
   5   1  -9   44.60    2.50
   5   1  -9   41.80    2.30
  -5  -1   9   43.70    2.20
   4   1  -9    2.30    1.00
   4   1  -9    2.50    1.20
  -4  -1   9    2.40    0.90
   3   1  -9   34.60    1.90
   3   1  -9   31.80    3.00
  -3  -1   9   34.50    2.20
   2   1  -9   30.00    1.80
  -2  -1   9   29.00    2.80
  -2  -1   9   29.10    2.10
  -2  -1   9   29.60    2.10
   1   1  -9  353.86   10.90
  -1  -1   9  326.77   11.00
  -1  -1   9  354.06   10.90
  -1  -1   9  337.07   10.90
  -1  -1   9  351.76   10.80
   0   1  -9    5.40    1.50
   0  -1   9    8.20    1.30
   0  -1   9    7.60    1.70
   0  -1   9    7.10    1.10
   0  -1   9   13.60    2.00
   1  -1   9  214.48    7.10
   1  -1   9  215.28    7.20
   1  -1   9  213.28    7.00
   2  -1   9   79.09    3.30
   2  -1   9   77.89    3.30
   2  -1   9   83.09    3.30
   3  -1   9   31.70    2.00
   3  -1   9   32.30    1.90
   3  -1   9   32.90    2.00
   5  -1   9    1.40    0.60
   5  -1   9    2.50    0.70
   7   0  -9  180.08    5.90
  -7   0   9  176.58    5.70
   6   0  -9    1.10    1.20
   5   0  -9  153.38    5.30
   5   0  -9  133.59    5.00
  -5   0   9  145.99    5.00
   4   0  -9  217.68    7.40
   4   0  -9  220.08    7.20
  -4   0   9  212.38    7.10
   3   0  -9   12.70    1.50
  -3   0   9   13.10    1.80
   2   0  -9  987.90   27.40
  -2   0   9  820.22   28.20
   1   0  -9    2.20    1.00
  -1   0   9    3.20    1.70
  -1   0   9   -0.70    1.00
   0   0  -9  399.96   12.20
   0   0   9  387.76   13.20
   0   0   9  378.36   12.20
   1   0   9  256.37    8.50
   1   0   9  252.07    8.30
   1   0   9  252.47    8.30
   2   0   9   36.80    2.20
   2   0   9   38.20    2.30
   2   0   9   39.10    2.20
  -3   0  -9   73.39    3.00
   3   0   9   66.39    2.90
   3   0   9   69.59    3.00
   3   0   9   72.09    3.00
   4   0   9   22.50    1.50
   4   0   9   21.40    1.50
   5   0   9   16.90    1.20
   5   0   9   16.90    1.20
   7  -1  -9   11.80    1.30
  -7   1   9   11.30    1.00
   6  -1  -9  113.09    4.30
   6  -1  -9  121.79    4.40
  -6   1   9  120.99    4.10
   5  -1  -9  394.26   13.10
   5  -1  -9  433.36   13.30
  -5   1   9  435.76   13.00
   4  -1  -9  159.38    5.50
   4  -1  -9  151.38    5.70
  -4   1   9  154.28    5.30
   3  -1  -9  774.42   23.20
   3  -1  -9  742.93   23.00
  -3   1   9  763.02   23.00
   2  -1  -9    3.10    0.90
  -2   1   9    3.60    1.10
   1  -1  -9  204.28    6.80
  -1   1   9  202.58    6.80
   0  -1  -9   44.80    2.80
   0   1   9   50.49    2.60
   0   1   9   51.49    2.80
   1   1   9    4.90    1.10
   1   1   9    3.80    1.00
  -2  -1  -9    0.40    0.90
   2   1   9    1.50    1.20
   2   1   9    0.70    0.90
   2   1   9    0.10    1.00
  -3  -1  -9   14.80    1.60
   3   1   9   17.00    1.70
   3   1   9   17.00    1.60
   4   1   9    0.80    0.90
   4   1   9    2.50    0.80
   7  -2  -9   32.20    1.70
  -7   2   9   30.20    1.60
   6  -2  -9    2.10    1.10
   6  -2  -9    2.60    0.90
  -6   2   9    2.10    0.90
   5  -2  -9   17.60    2.10
   5  -2  -9   18.70    1.70
  -5   2   9   16.90    1.70
   4  -2  -9   14.20    2.70
   4  -2  -9   13.10    1.50
  -4   2   9   10.90    1.80
   3  -2  -9   55.49    2.80
   3  -2  -9   56.79    2.70
  -3   2   9   52.19    2.80
   2  -2  -9    6.30    1.50
   2  -2  -9    5.40    1.50
  -2   2   9    6.90    1.40
   1  -2  -9    5.20    1.20
   1  -2  -9    7.50    1.40
  -1   2   9    6.60    1.30
   0  -2  -9   95.89    3.60
   0   2   9   94.29    3.90
  -1  -2  -9   63.09    2.70
   1   2   9   61.59    3.00
   2   2   9    6.50    1.40
  -3  -2  -9   48.10    2.20
  -4  -2  -9   24.10    1.30
   6  -3  -9   46.80    2.30
   6  -3  -9   47.10    2.30
   5  -3  -9    9.80    1.40
   5  -3  -9   10.30    2.10
   4  -3  -9   10.40    1.40
   3  -3  -9    0.60    0.90
   3  -3  -9    0.00    1.10
   2  -3  -9  112.69    4.00
   2  -3  -9  106.59    4.10
   1  -3  -9   90.99    3.40
   1  -3  -9   88.19    3.70
   0  -3  -9  150.08    5.10
  -1  -3  -9    4.00    1.10
  -2  -3  -9   40.70    1.90
  -2  -3  -9   42.30    2.10
  -3  -3  -9   33.50    1.60
   5  -4  -9   12.30    1.30
   4  -4  -9   45.10    2.20
   3  -4  -9   30.50    1.90
   3  -4  -9   32.50    1.90
   2  -4  -9   10.60    1.50
   2  -4  -9    9.10    1.30
   1  -4  -9   10.60    2.40
   1  -4  -9   13.20    1.30
   0  -4  -9   27.30    1.50
  -1  -4  -9    3.40    1.80
  -2  -4  -9   13.10    1.40
   5  -5  -9   32.20    1.70
   4  -5  -9    3.20    0.80
   3  -5  -9   90.39    3.30
   3  -5  -9   88.29    3.30
   2  -5  -9    2.60    1.10
   2  -5  -9    0.80    0.70
   1  -5  -9   53.39    2.10
   0  -5  -9   40.90    1.70
  -1  -5  -9    0.60    0.50
  -1 -11  10    1.20    0.50
  -1 -11  10    1.50    0.50
   0 -11  10    2.70    0.50
   0 -11  10    3.80    1.00
   0 -11  10    2.20    0.60
   1 -11  10   14.50    1.20
   1 -11  10   15.60    1.00
   1 -11  10   14.00    1.20
   2 -11  10   16.80    1.00
   3  10 -10    0.10    0.60
  -3 -10  10    1.40    0.80
  -3 -10  10    0.40    0.80
  -2 -10  10   96.29    3.30
  -2 -10  10   93.29    3.20
  -1 -10  10    5.80    1.00
  -1 -10  10    4.00    1.00
  -1 -10  10    4.80    0.90
  -1 -10  10    4.80    1.00
   0 -10  10    0.30    0.60
   0 -10  10    0.60    0.70
   0 -10  10    1.20    1.40
   0 -10  10    1.40    0.50
   1 -10  10    1.30    0.60
   1 -10  10    1.10    0.80
   1 -10  10    0.60    0.70
   2 -10  10    1.80    0.80
   2 -10  10    1.40    0.90
   2 -10  10    1.90    0.60
   3 -10  10   24.90    1.50
   3 -10  10   28.50    1.80
   4   9 -10    6.00    1.00
  -4  -9  10    6.90    0.90
  -4  -9  10    4.60    0.80
   3   9 -10   16.80    1.40
  -3  -9  10   16.60    1.30
  -3  -9  10   16.90    1.30
  -2  -9  10   90.99    3.20
  -2  -9  10   92.59    3.40
  -2  -9  10   90.89    3.30
  -1  -9  10  250.47    8.30
  -1  -9  10  265.87    8.20
  -1  -9  10  258.47    8.10
   0  -9  10   29.00    1.70
   0  -9  10   31.10    2.10
   0  -9  10   30.40    1.80
   0  -9  10   29.00    1.90
   1  -9  10  297.87    9.60
   1  -9  10  292.37    9.30
   1  -9  10  293.37    9.20
   2  -9  10    0.80    0.70
   2  -9  10    0.80    0.90
   2  -9  10    0.30    1.00
   2  -9  10    0.60    0.50
   3  -9  10   45.30    2.00
   3  -9  10   45.10    2.10
   5   8 -10  137.79    4.50
  -5  -8  10  137.49    4.40
   4   8 -10    0.40    0.60
  -4  -8  10    1.30    0.60
  -4  -8  10   -0.60    0.90
  -3  -8  10  283.57    8.80
  -3  -8  10  270.17    8.70
  -3  -8  10  279.57    8.70
  -2  -8  10   87.99    3.40
  -2  -8  10   92.69    3.40
  -2  -8  10   87.89    3.40
  -1  -8  10    5.30    1.20
  -1  -8  10    9.00    1.30
  -1  -8  10   11.20    1.50
  -1  -8  10    8.00    1.40
   0  -8  10  135.99    4.70
   0  -8  10  126.79    4.70
   0  -8  10  134.39    4.70
   0  -8  10  135.09    4.60
   1  -8  10   71.09    2.80
   1  -8  10   71.99    3.00
   1  -8  10   71.59    2.90
   1  -8  10   67.19    2.90
   2  -8  10    6.20    1.50
   2  -8  10    7.60    1.40
   2  -8  10    7.00    1.20
   3  -8  10   66.29    2.60
   3  -8  10   64.39    2.70
   3  -8  10   68.99    2.70
   4  -8  10    3.00    0.90
   4  -8  10    3.10    1.60
   5   7 -10   24.20    1.50
  -5  -7  10   27.40    1.30
   4   7 -10    3.70    0.90
   4   7 -10    4.20    1.20
  -4  -7  10    4.40    1.00
  -4  -7  10    1.50    1.20
  -3  -7  10  426.66   13.10
  -3  -7  10  409.26   13.00
  -3  -7  10  439.36   13.20
  -2  -7  10  132.49    4.80
  -2  -7  10  137.99    4.70
  -2  -7  10  128.29    4.70
  -1  -7  10  404.86   12.90
  -1  -7  10  410.56   12.70
  -1  -7  10  408.36   12.80
  -1  -7  10  423.36   12.90
   0  -7  10   61.99    2.90
   0  -7  10   62.09    2.70
   0  -7  10   62.69    2.70
   0  -7  10   62.59    2.70
   1  -7  10    0.00    0.80
   1  -7  10    0.60    0.80
   1  -7  10    0.40    0.80
   2  -7  10   25.00    2.40
   2  -7  10   27.00    1.70
   2  -7  10   26.90    1.90
   2  -7  10   24.50    1.80
   3  -7  10    5.60    1.10
   3  -7  10    7.40    1.90
   3  -7  10    5.40    1.20
   4  -7  10    5.00    1.30
   4  -7  10    5.00    1.20
   4  -7  10    3.50    1.10
   5  -7  10   21.30    1.60
   6   6 -10   17.50    1.20
  -6  -6  10   17.70    1.10
   5   6 -10    0.80    0.70
  -5  -6  10    0.00    0.60
   4   6 -10  134.49    4.80
   4   6 -10  151.48    5.00
  -4  -6  10  137.99    4.70
  -4  -6  10  120.09    5.10
   3   6 -10    2.70    1.10
  -3  -6  10    0.00    1.30
  -3  -6  10    2.00    1.30
  -3  -6  10    2.20    0.80
  -3  -6  10    2.40    1.10
  -2  -6  10   13.20    1.90
  -2  -6  10   14.10    2.30
  -2  -6  10   11.30    1.50
  -2  -6  10   13.40    1.70
  -1  -6  10   11.10    1.80
  -1  -6  10   10.50    1.50
  -1  -6  10   10.70    2.30
  -1  -6  10   11.10    1.40
   0  -6  10  138.79    4.80
   0  -6  10  139.69    4.90
   0  -6  10  136.19    4.90
   0  -6  10  139.69    4.90
   0  -6  10  140.89    5.10
   1  -6  10    8.20    2.00
   1  -6  10    1.90    0.80
   1  -6  10    3.80    0.90
   1  -6  10    6.80    1.50
   2  -6  10   32.20    2.00
   2  -6  10   32.80    1.90
   2  -6  10   29.10    2.20
   2  -6  10   30.00    1.80
   3  -6  10   -0.90    0.90
   3  -6  10    0.40    0.80
   3  -6  10    1.30    0.80
   3  -6  10    0.60    0.90
   4  -6  10    4.90    1.20
   4  -6  10    6.50    1.30
   4  -6  10    6.90    1.20
   5  -6  10    0.80    0.70
   5  -6  10   -0.10    0.70
   5  -6  10    0.60    1.00
   6   5 -10  145.29    4.70
  -6  -5  10  138.39    4.60
  -6  -5  10  133.89    4.50
   5   5 -10    0.90    1.20
  -5  -5  10   -0.50    1.00
  -5  -5  10   -0.10    0.70
   4   5 -10  109.29    4.10
   4   5 -10   98.49    3.90
  -4  -5  10  101.99    3.90
  -4  -5  10  104.19    3.80
   3   5 -10   15.10    2.10
  -3  -5  10   12.40    2.40
  -3  -5  10   16.70    1.60
  -3  -5  10   13.40    2.30
  -3  -5  10   15.50    2.00
   2   5 -10    6.00    1.50
  -2  -5  10    6.50    1.00
  -2  -5  10    7.90    1.40
  -2  -5  10   10.20    1.80
  -2  -5  10    9.60    1.90
  -1  -5  10   62.89    2.70
  -1  -5  10   58.89    2.90
  -1  -5  10   57.79    2.80
  -1  -5  10   63.79    2.70
   0  -5  10   94.09    3.50
   0  -5  10   86.09    3.70
   0  -5  10   92.69    3.50
   0  -5  10   90.69    3.70
   1  -5  10    7.90    1.40
   1  -5  10    7.70    1.70
   1  -5  10    8.80    1.40
   1  -5  10    4.60    1.00
   2  -5  10   39.70    2.10
   2  -5  10   38.20    2.20
   2  -5  10   41.20    2.20
   2  -5  10   39.10    2.20
   3  -5  10    8.10    1.50
   3  -5  10    9.80    1.40
   3  -5  10    9.90    1.50
   3  -5  10    9.00    1.60
   4  -5  10   25.90    1.60
   4  -5  10   27.60    1.70
   4  -5  10   26.40    1.50
   5  -5  10   50.29    2.00
   5  -5  10   51.19    2.20
   5  -5  10   51.39    2.10
   7   4 -10   -0.40    0.70
  -7  -4  10    2.20    0.70
   6   4 -10    7.80    1.10
  -6  -4  10    7.50    1.20
  -6  -4  10    8.10    1.20
   5   4 -10   62.59    3.00
   5   4 -10   72.29    3.00
  -5  -4  10   74.39    2.80
  -5  -4  10   70.39    2.90
   4   4 -10   23.10    2.10
   4   4 -10   21.10    1.80
  -4  -4  10   23.50    1.80
  -4  -4  10   18.60    1.70
   3   4 -10  337.87   11.30
   3   4 -10  362.36   11.30
  -3  -4  10  342.57   11.10
  -3  -4  10  363.26   11.10
  -3  -4  10  355.06   11.00
   2   4 -10   -0.40    1.70
  -2  -4  10    4.60    1.20
  -2  -4  10    0.20    1.20
  -2  -4  10    1.20    1.00
  -2  -4  10    0.40    0.90
  -1  -4  10  216.18    7.20
  -1  -4  10  221.18    7.30
  -1  -4  10  215.68    7.20
  -1  -4  10  221.88    7.20
   0  -4  10   30.80    1.90
   0  -4  10   32.50    2.10
   0  -4  10   30.80    2.20
   0  -4  10   32.30    2.20
   1  -4  10   43.90    2.30
   1  -4  10   42.60    2.30
   1  -4  10   43.70    2.40
   1  -4  10   41.90    2.30
   2  -4  10    1.70    0.90
   2  -4  10    0.90    0.80
   2  -4  10    0.40    0.80
   2  -4  10    0.10    0.80
   3  -4  10    1.00    0.80
   3  -4  10    0.20    0.80
   3  -4  10   -0.30    0.80
   3  -4  10   -1.00    1.00
   4  -4  10   19.20    1.40
   4  -4  10   20.60    1.40
   4  -4  10   20.10    1.50
   5  -4  10    3.30    0.60
   5  -4  10    4.90    1.20
   5  -4  10    5.10    0.90
   7   3 -10  149.79    4.90
  -7  -3  10  154.68    4.80
   6   3 -10   16.10    1.40
  -6  -3  10   16.70    1.30
  -6  -3  10   18.10    1.70
   5   3 -10    1.00    1.00
   5   3 -10    2.00    1.00
  -5  -3  10    1.80    0.80
  -5  -3  10    3.20    1.00
   4   3 -10   13.30    1.60
   4   3 -10   15.80    2.80
  -4  -3  10   14.70    1.60
  -4  -3  10   10.80    1.70
   3   3 -10  148.69    5.10
   3   3 -10  133.69    5.30
  -3  -3  10  143.79    5.10
  -3  -3  10  142.99    5.00
  -3  -3  10  144.59    5.00
   2   3 -10   99.69    3.90
  -2  -3  10  104.49    3.90
  -2  -3  10   99.69    3.90
  -2  -3  10   99.89    3.80
   1   3 -10   83.79    3.40
  -1  -3  10   82.19    3.40
  -1  -3  10   85.19    3.40
  -1  -3  10   83.09    3.40
   0   3 -10  247.98    8.10
   0  -3  10  246.98    8.00
   0  -3  10  246.48    8.00
   0  -3  10  246.18    8.10
   0  -3  10  248.08    8.10
  -1   3 -10   31.60    2.50
   1  -3  10   37.90    2.10
   1  -3  10   34.20    2.00
   1  -3  10   33.20    2.00
   1  -3  10   36.80    2.10
   2  -3  10   27.70    1.90
   2  -3  10   28.30    1.90
   2  -3  10   26.00    1.90
   2  -3  10   29.20    1.90
   3  -3  10   61.09    2.70
   3  -3  10   57.99    2.60
   3  -3  10   60.79    2.60
   4  -3  10   71.69    2.80
   4  -3  10   74.49    2.90
   4  -3  10   73.09    2.80
   5  -3  10    1.20    0.60
   5  -3  10    2.40    0.60
   7   2 -10   16.30    1.30
  -7  -2  10   15.90    1.10
   6   2 -10  215.68    7.00
  -6  -2  10  209.98    6.80
   5   2 -10   98.49    3.80
   5   2 -10   93.59    3.70
  -5  -2  10   98.19    3.60
   4   2 -10  194.98    6.50
   4   2 -10  196.38    6.60
  -4  -2  10  191.28    6.40
  -4  -2  10  177.08    6.40
   3   2 -10  110.19    4.70
   3   2 -10  113.89    4.20
  -3  -2  10  114.89    4.20
  -3  -2  10  109.29    4.20
  -3  -2  10  113.19    4.30
   2   2 -10    4.90    1.10
  -2  -2  10    2.10    1.10
  -2  -2  10    1.80    0.90
  -2  -2  10    2.30    1.20
   1   2 -10  368.46   11.20
  -1  -2  10  352.06   11.10
  -1  -2  10  344.07   11.10
  -1  -2  10  350.16   11.10
   0   2 -10 1309.57   38.60
   0  -2  10 1297.77   38.60
   0  -2  10 1265.87   38.50
   0  -2  10 1308.37   38.50
   0  -2  10 1264.87   38.60
   1  -2  10  134.69    4.80
   1  -2  10  141.29    4.90
   1  -2  10  136.69    4.90
   1  -2  10  138.69    4.80
   2  -2  10 1145.59   34.50
   2  -2  10 1167.58   34.50
   2  -2  10 1155.18   34.60
   2  -2  10 1141.49   34.60
   3  -2  10   -0.50    0.80
   3  -2  10   -0.10    0.70
   3  -2  10   -0.50    0.70
   4  -2  10  217.28    7.10
   4  -2  10  221.88    7.10
   4  -2  10  224.78    7.10
   5  -2  10   29.40    1.40
   5  -2  10   28.50    1.40
   7   1 -10   11.40    1.20
  -7  -1  10   10.90    1.00
   6   1 -10   78.79    3.10
   6   1 -10   77.29    3.30
  -6  -1  10   79.69    2.90
   5   1 -10   90.29    3.70
   5   1 -10  105.79    3.90
  -5  -1  10   99.89    3.70
   4   1 -10  926.81   28.10
  -4  -1  10  931.91   28.00
   3   1 -10    0.30    0.90
  -3  -1  10    2.40    1.00
   2   1 -10 1645.14   48.90
  -2  -1  10 1631.04   48.80
   1   1 -10  495.55   14.80
  -1  -1  10  482.15   14.70
  -1  -1  10  478.85   14.60
  -1  -1  10  461.15   14.60
  -1  -1  10  459.75   14.70
   0   1 -10  950.10   27.90
   0  -1  10  937.41   27.90
   0  -1  10  925.51   27.80
   0  -1  10  928.61   27.90
   0  -1  10  882.11   27.80
   1  -1  10  166.28    5.70
   1  -1  10  164.18    5.70
   1  -1  10  168.78    5.70
   2  -1  10    9.60    1.50
   2  -1  10   10.10    1.50
   2  -1  10    9.50    1.60
   3  -1  10   35.50    2.50
   3  -1  10   34.30    1.90
   4  -1  10   33.20    1.60
   4  -1  10   30.50    1.60
   7   0 -10    5.80    1.20
  -7   0  10    4.90    0.90
   6   0 -10  332.27   10.40
  -6   0  10  330.57   10.20
   5   0 -10    2.50    1.00
  -5   0  10    3.30    0.90
   4   0 -10  104.39    4.40
   4   0 -10   99.29    3.90
  -4   0  10  107.59    3.90
   3   0 -10   12.50    1.40
  -3   0  10   14.60    1.60
   2   0 -10   -0.90    0.80
  -2   0  10    1.50    0.90
   1   0 -10   -0.70    0.90
  -1   0  10    0.30    1.00
   0   0 -10   28.80    2.30
   0   0  10   31.10    2.00
   0   0  10   26.10    2.10
   0   0  10   22.80    3.80
   1   0  10   36.90    2.40
   1   0  10   32.70    2.00
   1   0  10   35.20    2.10
   2   0  10   53.49    2.50
   2   0  10   55.09    2.50
   2   0  10   52.79    2.60
  -3   0 -10   22.30    1.60
   3   0  10   19.60    1.60
   3   0  10   21.40    1.60
   4   0  10    4.40    0.70
   4   0  10    4.00    0.80
   7  -1 -10   17.30    1.40
  -7   1  10   20.60    1.20
   6  -1 -10   81.69    3.30
   6  -1 -10   88.19    3.30
  -6   1  10   83.19    3.00
   5  -1 -10   78.39    3.40
   5  -1 -10   78.79    3.10
  -5   1  10   75.59    2.90
   4  -1 -10    7.50    1.30
  -4   1  10    7.40    1.50
   3  -1 -10    5.20    1.30
   3  -1 -10    7.60    1.30
  -3   1  10    2.50    1.00
  -2   1  10    6.10    1.20
   1  -1 -10   -0.60    1.70
  -1   1  10   -1.50    1.00
   0   1  10  109.59    4.30
   0   1  10  113.69    4.20
  -1  -1 -10    2.70    0.80
   1   1  10    1.20    1.00
   1   1  10    0.10    0.90
  -2  -1 -10   28.00    1.60
   2   1  10   25.80    1.80
  -3  -1 -10   10.60    1.40
   3   1  10    9.70    1.60
  -4  -1 -10    0.90    0.60
   6  -2 -10    3.90    1.10
   6  -2 -10    2.90    1.10
  -6   2  10    4.00    0.90
   5  -2 -10   94.39    3.50
   5  -2 -10   88.29    3.90
  -5   2  10   93.99    3.30
   4  -2 -10  146.99    5.10
  -4   2  10  149.29    5.00
   3  -2 -10    5.40    1.60
   3  -2 -10    5.00    1.40
   2  -2 -10   83.89    3.30
   2  -2 -10   83.99    3.40
  -2   2  10   85.89    3.40
   1  -2 -10  142.39    5.10
   1  -2 -10  159.68    5.00
  -1   2  10  134.79    5.50
   0  -2 -10    8.10    1.20
   0   2  10    9.90    2.00
  -1  -2 -10    5.20    1.10
  -2  -2 -10   11.60    1.20
  -3  -2 -10    0.20    0.80
   5  -3 -10   14.80    1.40
   4  -3 -10   45.80    2.20
   3  -3 -10    9.60    1.50
   3  -3 -10   10.70    1.40
   2  -3 -10  292.07    9.10
   2  -3 -10  286.97    9.20
   1  -3 -10   43.80    3.90
   1  -3 -10   36.20    1.80
   0  -3 -10   62.39    2.40
  -1  -3 -10  120.09    3.90
  -1  -3 -10  112.29    4.70
  -2  -3 -10   -0.20    0.80
  -2  -3 -10    0.20    0.60
   5  -4 -10   39.50    1.90
   4  -4 -10   14.20    1.40
   3  -4 -10   99.49    3.60
   2  -4 -10   38.90    2.50
   2  -4 -10   41.60    1.80
   1  -4 -10    2.80    0.60
   0  -4 -10   36.70    1.50
  -1  -4 -10   70.79    2.40
   2  -5 -10    1.60    0.60
   2  10 -11    7.30    1.10
  -2 -10  11    5.10    0.80
  -2 -10  11    4.80    1.20
  -2 -10  11    7.80    1.20
  -1 -10  11   52.79    2.00
  -1 -10  11   53.29    1.90
  -1 -10  11   43.20    2.30
   0 -10  11   18.10    1.20
   0 -10  11   16.70    1.60
   0 -10  11   15.50    1.00
   1 -10  11   26.40    1.30
   1 -10  11   27.10    1.40
   2 -10  11   59.89    2.20
   4   9 -11   86.29    3.00
  -4  -9  11   84.59    2.80
   3   9 -11   30.30    2.00
   3   9 -11   29.30    1.60
  -3  -9  11   29.50    1.50
  -3  -9  11   32.00    1.40
   2   9 -11  182.28    6.00
  -2  -9  11  180.98    5.80
  -2  -9  11  182.28    5.80
  -2  -9  11  180.08    5.80
  -1  -9  11   38.00    1.80
  -1  -9  11   39.30    1.80
  -1  -9  11   40.70    1.80
   0  -9  11   88.49    3.20
   0  -9  11   85.49    3.10
   0  -9  11   90.19    3.20
   1  -9  11   94.29    3.40
   1  -9  11   94.49    3.30
   1  -9  11   94.89    3.40
   2  -9  11   55.59    2.10
   2  -9  11   55.99    2.20
   2  -9  11   52.49    2.30
   3  -9  11   26.00    1.70
   4   8 -11    4.40    1.10
  -4  -8  11    3.90    0.90
   3   8 -11   -0.40    0.70
  -3  -8  11    2.30    0.60
  -3  -8  11    1.30    0.80
   2   8 -11    4.30    1.10
  -2  -8  11    5.80    1.10
  -2  -8  11    4.10    0.90
  -2  -8  11    6.50    1.30
  -1  -8  11   51.79    2.40
  -1  -8  11   49.10    2.20
  -1  -8  11   45.00    2.20
   0  -8  11   39.20    2.10
   0  -8  11   43.50    2.20
   0  -8  11   41.50    2.00
   1  -8  11   15.90    1.40
   2  -8  11    9.10    1.20
   2  -8  11    7.80    1.10
   2  -8  11    7.30    1.10
   3  -8  11   81.79    3.00
   3  -8  11   86.09    3.00
   3  -8  11   83.59    3.00
   4  -8  11    8.50    1.90
   4  -8  11    7.20    1.40
   5   7 -11   86.19    3.00
  -5  -7  11   83.79    2.90
   4   7 -11   81.69    3.10
  -4  -7  11   79.09    2.90
   3   7 -11  138.79    4.90
  -3  -7  11  134.19    4.60
  -3  -7  11  132.49    4.70
   2   7 -11    0.60    1.10
  -2  -7  11    1.20    0.90
  -2  -7  11    0.10    0.70
  -2  -7  11    0.50    0.80
  -1  -7  11   26.00    1.70
  -1  -7  11   27.90    1.80
  -1  -7  11   24.40    1.70
   0  -7  11   66.99    2.80
   0  -7  11   65.39    2.70
   0  -7  11   62.99    2.60
   0  -7  11   64.89    3.40
   1  -7  11    1.30    0.80
   1  -7  11    1.90    0.80
   1  -7  11    2.70    0.80
   2  -7  11   44.70    2.50
   2  -7  11   47.80    2.30
   3  -7  11    1.90    0.70
   3  -7  11    0.10    0.70
   3  -7  11    0.50    0.60
   3  -7  11    0.80    1.00
   4  -7  11   85.79    3.00
   4  -7  11   83.69    3.00
   6   6 -11    5.30    0.90
  -6  -6  11    6.80    0.90
   5   6 -11   57.49    2.30
  -5  -6  11   52.49    2.10
   4   6 -11   59.59    2.60
   4   6 -11   58.69    2.70
  -4  -6  11   62.19    2.60
  -4  -6  11   59.09    2.40
   3   6 -11    0.60    1.10
   3   6 -11    0.90    0.90
  -3  -6  11    3.50    1.20
  -3  -6  11    1.00    0.80
  -3  -6  11   -2.20    1.60
  -3  -6  11    0.60    1.10
   2   6 -11  258.57    8.60
  -2  -6  11  259.07    8.30
  -2  -6  11  255.67    8.20
  -2  -6  11  260.77    8.40
  -2  -6  11  252.57    8.20
  -1  -6  11    2.80    0.80
  -1  -6  11    0.20    0.90
  -1  -6  11    0.90    1.20
  -1  -6  11   -0.30    0.80
   0  -6  11   96.09    3.90
   0  -6  11  102.99    3.80
   0  -6  11  101.39    3.80
   0  -6  11  101.79    3.70
   1  -6  11   64.59    2.80
   1  -6  11   64.09    2.70
   1  -6  11   60.49    2.70
   1  -6  11   60.59    2.70
   2  -6  11   35.30    1.90
   2  -6  11   35.60    2.00
   2  -6  11   35.70    2.00
   2  -6  11   38.20    2.10
   3  -6  11   24.50    1.50
   3  -6  11   23.00    1.60
   3  -6  11   26.20    1.60
   3  -6  11   23.60    1.50
   4  -6  11   12.20    1.30
   4  -6  11   10.90    1.20
   4  -6  11   11.90    1.10
   6   5 -11  141.29    4.50
  -6  -5  11  135.19    4.40
  -6  -5  11  130.19    4.40
   5   5 -11   26.50    1.70
   5   5 -11   27.40    2.70
  -5  -5  11   26.00    1.60
  -5  -5  11   27.00    1.50
   4   5 -11   14.20    1.50
   4   5 -11   14.70    1.70
  -4  -5  11   18.30    1.40
   3   5 -11    5.60    1.30
   3   5 -11    5.50    1.30
  -3  -5  11    5.40    1.30
  -3  -5  11    8.00    1.50
  -3  -5  11    7.70    1.80
  -3  -5  11    7.50    1.60
   2   5 -11   32.90    2.90
  -2  -5  11   33.40    1.90
  -2  -5  11   29.30    2.00
  -2  -5  11   34.20    2.30
  -2  -5  11   31.80    2.10
  -1  -5  11    7.90    1.70
  -1  -5  11    6.70    1.40
  -1  -5  11    9.80    1.60
  -1  -5  11    7.30    1.70
   0  -5  11  138.79    4.70
   0  -5  11  128.89    4.70
   0  -5  11  133.49    4.80
   0  -5  11  132.59    4.70
   1  -5  11    0.20    0.90
   1  -5  11    0.60    0.80
   1  -5  11    0.70    0.80
   1  -5  11    2.30    1.00
   2  -5  11    8.40    1.30
   2  -5  11    7.70    1.40
   2  -5  11    5.30    1.30
   2  -5  11    7.30    1.30
   3  -5  11   49.60    2.20
   3  -5  11   50.89    2.20
   3  -5  11   49.60    2.20
   3  -5  11   49.20    2.20
   4  -5  11    0.70    0.60
   4  -5  11   -0.20    0.60
   4  -5  11    0.60    0.60
   6   4 -11   50.49    2.10
  -6  -4  11   48.30    2.10
  -6  -4  11   53.59    2.00
   5   4 -11   21.20    1.70
   5   4 -11   20.60    1.60
  -5  -4  11   20.20    1.50
  -5  -4  11   23.40    1.50
   4   4 -11    6.40    1.30
   4   4 -11    7.60    1.70
  -4  -4  11    9.20    1.50
  -4  -4  11    5.40    1.00
   3   4 -11   38.30    2.10
   3   4 -11   37.30    2.70
  -3  -4  11   41.10    2.00
  -3  -4  11   39.40    2.10
  -3  -4  11   38.90    2.40
   2   4 -11    4.50    1.10
  -2  -4  11    6.60    1.40
  -2  -4  11    4.40    0.90
  -2  -4  11    5.70    1.30
  -2  -4  11    4.10    1.00
   1   4 -11    1.20    0.90
  -1  -4  11    3.30    0.90
  -1  -4  11    3.70    1.10
  -1  -4  11    3.40    0.80
  -1  -4  11    1.50    1.00
   0   4 -11    4.10    1.20
   0  -4  11    2.50    0.90
   0  -4  11    3.10    0.90
   0  -4  11    1.90    0.90
   0  -4  11    2.40    0.90
  -1   4 -11   81.29    3.80
   1  -4  11   88.79    3.40
   1  -4  11   90.79    3.50
   1  -4  11   88.99    3.50
   1  -4  11   90.39    3.40
   2  -4  11   16.20    1.50
   2  -4  11   15.50    1.50
   2  -4  11   14.30    1.50
   2  -4  11   15.30    1.50
   3  -4  11  181.98    6.00
   3  -4  11  178.08    6.00
   3  -4  11  182.38    6.00
   4  -4  11   68.49    2.60
   4  -4  11   71.69    2.60
   4  -4  11   70.19    2.60
   6   3 -11   -1.10    0.60
  -6  -3  11    0.40    0.60
   5   3 -11  297.77    9.30
   5   3 -11  291.27    9.30
  -5  -3  11  291.07    9.20
  -5  -3  11  292.77    9.10
   4   3 -11    2.20    1.10
   4   3 -11    3.20    0.90
  -4  -3  11    4.40    1.00
  -4  -3  11    6.10    1.30
   3   3 -11  202.08    7.40
   3   3 -11  210.78    7.40
  -3  -3  11  211.18    7.00
  -3  -3  11  221.18    7.00
  -3  -3  11  221.48    7.00
   2   3 -11  105.69    3.90
  -2  -3  11  103.49    3.80
  -2  -3  11   94.79    4.20
  -2  -3  11   96.39    3.70
  -2  -3  11   99.49    3.80
   1   3 -11  156.68    5.40
  -1  -3  11  155.18    5.50
  -1  -3  11  154.38    5.30
  -1  -3  11  150.48    5.40
  -1  -3  11  156.88    5.30
   0   3 -11  201.98    6.60
   0  -3  11  199.98    6.50
   0  -3  11  187.98    6.40
   0  -3  11  189.98    6.50
   0  -3  11  194.58    6.50
   1  -3  11    9.70    1.50
   1  -3  11   10.70    1.50
   1  -3  11    9.10    1.40
   1  -3  11   11.70    1.40
   2  -3  11  422.66   12.90
   2  -3  11  404.66   13.00
   2  -3  11  416.86   13.00
   2  -3  11  427.16   12.90
   3  -3  11   21.50    1.40
   3  -3  11   20.00    1.40
   3  -3  11   20.00    1.40
   4  -3  11  121.99    4.10
   4  -3  11  124.19    4.10
   4  -3  11  122.49    4.10
   6   2 -11   86.69    3.20
   6   2 -11   79.99    3.50
  -6  -2  11   88.39    3.00
   5   2 -11    1.30    0.90
   5   2 -11    0.20    0.80
  -5  -2  11    0.40    0.70
   4   2 -11   32.70    2.50
   4   2 -11   31.30    1.80
  -4  -2  11   34.40    1.90
   3   2 -11   41.60    2.20
  -3  -2  11   46.60    2.20
  -3  -2  11   45.90    2.60
   2   2 -11    7.70    1.30
  -2  -2  11    7.50    1.20
  -2  -2  11    7.40    1.20
  -2  -2  11    8.00    1.40
   1   2 -11   16.10    1.60
  -1  -2  11   17.40    1.60
  -1  -2  11   15.00    1.60
  -1  -2  11   15.20    1.90
  -1  -2  11   14.10    2.20
   0   2 -11    1.20    1.60
   0  -2  11    2.80    1.00
   0  -2  11    2.30    0.80
   0  -2  11    1.80    0.90
   0  -2  11    1.10    0.90
   1  -2  11  137.49    4.80
   1  -2  11  133.69    4.70
   1  -2  11  136.59    4.80
   2  -2  11    0.50    0.70
   2  -2  11    4.90    1.30
   2  -2  11    1.20    0.80
   3  -2  11    0.40    0.70
   3  -2  11    0.80    0.60
   3  -2  11    1.10    0.60
   4  -2  11    7.70    0.90
   4  -2  11    6.20    0.90
   6   1 -11   74.69    3.20
   6   1 -11   76.69    2.90
  -6  -1  11   78.69    2.70
   5   1 -11    2.80    1.00
   5   1 -11    2.80    0.90
  -5  -1  11    2.50    0.80
   4   1 -11    2.70    1.50
   4   1 -11   -0.10    0.80
  -4  -1  11    1.30    0.80
   3   1 -11   51.49    2.50
  -3  -1  11   56.89    2.40
   2   1 -11   32.70    2.10
  -2  -1  11   33.30    2.00
   1   1 -11   37.70    2.60
  -1  -1  11   40.00    2.60
  -1  -1  11   40.10    2.10
  -1  -1  11   43.90    2.70
   0  -1  11   23.50    2.00
   0  -1  11   20.50    1.70
   0  -1  11   21.80    2.00
   1  -1  11    0.80    0.70
   1  -1  11    0.10    0.80
   1  -1  11    0.90    1.00
   2  -1  11   23.00    1.50
   2  -1  11   22.30    1.60
   2  -1  11   24.40    1.60
  -3   1 -11    2.50    0.90
   3  -1  11    2.60    0.70
   3  -1  11    1.90    0.80
   3  -1  11    1.80    0.60
   4  -1  11    8.20    1.00
   4  -1  11    5.30    1.00
   6   0 -11   67.89    2.80
   6   0 -11   58.59    3.30
  -6   0  11   65.39    2.30
   5   0 -11   27.40    2.40
   5   0 -11   28.80    1.70
  -5   0  11   27.50    1.50
   4   0 -11  340.07   10.70
   3   0 -11   53.19    3.20
   3   0 -11   47.00    2.30
  -3   0  11   50.19    2.30
   2   0 -11   48.70    2.40
  -2   0  11   56.29    2.50
   1   0 -11   30.10    2.00
  -1   0  11   32.20    1.90
   0   0  11   11.40    1.50
   0   0  11   15.80    1.90
   1   0  11    1.30    0.70
   1   0  11    0.70    0.80
  -2   0 -11   93.89    3.40
   2   0  11   99.49    3.40
   2   0  11   96.09    3.60
  -3   0 -11   22.40    1.60
   3   0  11   20.60    1.40
   3   0  11   22.70    1.70
  -6   1  11    1.90    0.70
   5  -1 -11    3.00    1.00
  -5   1  11    4.30    1.10
   4  -1 -11    7.50    1.30
  -4   1  11    6.50    1.30
   3  -1 -11   46.60    2.20
   3  -1 -11   42.70    2.30
  -3   1  11   45.90    2.20
   2  -1 -11   27.50    1.90
  -2   1  11   29.80    2.00
   1  -1 -11   59.59    2.40
   1  -1 -11   55.99    2.90
  -1   1  11   61.19    2.50
   0  -1 -11    7.00    1.10
   0   1  11    6.00    1.40
  -1  -1 -11  122.79    4.20
   1   1  11  128.19    4.30
  -2  -1 -11   61.89    2.30
   2   1  11   60.59    2.60
  -3  -1 -11    0.20    0.60
   5  -2 -11   77.19    2.90
   4  -2 -11   -0.90    0.80
   3  -2 -11    0.80    0.90
   3  -2 -11   -1.20    1.00
  -3   2  11   -1.50    1.20
   2  -2 -11    3.30    1.00
   2  -2 -11    2.40    0.80
   1  -2 -11   43.80    1.90
   0  -2 -11   27.80    1.40
  -1  -2 -11   30.30    2.40
  -1  -2 -11   31.80    1.50
  -2  -2 -11    5.10    1.00
  -2  -2 -11    3.10    0.60
   4  -3 -11   70.29    2.70
   3  -3 -11    1.40    0.90
   3  -3 -11    1.50    1.00
   2  -3 -11    7.00    1.00
   2  -3 -11   10.90    2.00
   1  -3 -11    5.00    0.90
   0  -3 -11    0.30    0.50
  -1 -10  12    1.50    0.70
  -1 -10  12    1.40    0.60
  -1 -10  12    1.40    0.70
   0 -10  12    9.30    0.90
   0 -10  12   10.40    0.90
   0 -10  12   10.50    1.40
   1 -10  12    0.80    0.60
   3   9 -12   30.40    1.50
  -3  -9  12   28.30    1.50
  -3  -9  12   24.50    1.30
  -2  -9  12   32.50    1.50
  -2  -9  12   32.20    1.50
   1   9 -12   33.40    2.80
  -1  -9  12   38.50    1.60
  -1  -9  12   35.30    1.60
  -1  -9  12   36.10    1.60
   0  -9  12    4.20    0.80
   0  -9  12    4.20    1.00
   0  -9  12    2.60    0.60
   1  -9  12   34.00    1.50
   1  -9  12   32.40    1.60
   1  -9  12   31.10    1.50
   2  -9  12    0.10    0.50
   2  -9  12    0.50    0.50
   2  -9  12    1.20    0.80
   4   8 -12    2.30    0.60
  -4  -8  12    1.80    0.50
   3   8 -12   68.99    2.70
   3   8 -12   69.09    2.70
  -3  -8  12   67.39    2.40
  -3  -8  12   64.49    2.60
   2   8 -12   53.19    2.60
  -2  -8  12   56.49    2.20
  -2  -8  12   53.79    2.20
  -2  -8  12   55.29    2.20
  -1  -8  12   49.80    2.10
  -1  -8  12   48.80    2.10
  -1  -8  12   50.49    2.10
   0  -8  12    5.60    1.00
   0  -8  12    6.50    1.10
   0  -8  12    6.60    1.00
   1  -8  12   23.90    1.30
   1  -8  12   21.10    1.30
   1  -8  12   23.20    1.40
   2  -8  12   40.00    1.70
   2  -8  12   35.90    1.70
   2  -8  12   39.60    1.70
   3  -8  12    2.70    0.70
   3  -8  12    4.40    1.00
   3  -8  12    4.50    1.10
   5   7 -12   12.90    1.00
   4   7 -12   34.40    1.90
   4   7 -12   36.70    1.80
  -4  -7  12   34.60    1.50
   3   7 -12    8.10    1.30
   3   7 -12    6.90    1.50
  -3  -7  12    6.80    1.50
  -3  -7  12    7.30    0.90
   2   7 -12    0.10    1.20
  -2  -7  12    1.00    0.80
  -2  -7  12    1.30    0.60
  -2  -7  12    1.90    0.80
  -1  -7  12  106.19    4.00
  -1  -7  12  107.89    3.90
  -1  -7  12  104.09    4.00
   0  -7  12    1.30    1.20
   0  -7  12    1.30    1.10
   1  -7  12  105.19    3.90
   1  -7  12  105.09    3.70
   1  -7  12  104.39    3.70
   1  -7  12  108.69    3.70
   2  -7  12   10.60    1.60
   2  -7  12    9.80    1.00
   2  -7  12    9.50    1.10
   2  -7  12    9.90    1.10
   3  -7  12   32.80    1.60
   3  -7  12   32.90    1.50
   3  -7  12   32.50    1.50
   3  -7  12   34.10    2.00
   5   6 -12  114.79    3.90
  -5  -6  12  114.69    3.70
   4   6 -12   15.90    1.50
   4   6 -12   12.90    1.40
  -4  -6  12   12.90    1.60
  -4  -6  12   13.90    1.10
   3   6 -12   74.69    3.10
   3   6 -12   76.09    3.00
  -3  -6  12   70.19    3.10
  -3  -6  12   68.69    2.90
  -3  -6  12   70.49    2.90
  -3  -6  12   72.09    2.70
   2   6 -12    4.20    0.90
  -2  -6  12    3.20    1.00
  -2  -6  12    3.50    1.10
  -2  -6  12    3.10    0.70
  -1  -6  12   22.40    2.20
  -1  -6  12   17.30    1.40
  -1  -6  12   18.10    1.50
  -1  -6  12   17.90    1.60
   0  -6  12   46.40    2.10
   0  -6  12   42.60    2.10
   0  -6  12   42.40    2.10
  -1   6 -12    3.80    1.20
   1  -6  12    5.00    1.10
   1  -6  12    4.90    1.20
   1  -6  12    4.00    1.00
   2  -6  12   54.69    2.30
   2  -6  12   58.09    2.30
   2  -6  12   55.19    2.30
   2  -6  12   58.29    2.40
   3  -6  12   38.10    1.70
   3  -6  12   37.30    1.70
   3  -6  12   37.10    1.70
   3  -6  12   37.20    1.80
   4  -6  12   27.30    1.50
   4  -6  12   29.60    1.30
   4  -6  12   27.30    1.40
   5   5 -12    5.70    1.20
   5   5 -12    7.30    1.80
  -5  -5  12    3.30    0.70
  -5  -5  12    6.30    1.00
   4   5 -12   69.19    2.90
   4   5 -12   68.09    2.70
  -4  -5  12   66.59    2.60
  -4  -5  12   70.59    2.60
   3   5 -12   47.80    2.80
   3   5 -12   47.40    2.30
  -3  -5  12   48.40    2.30
  -3  -5  12   46.60    2.20
   2   5 -12  323.77   11.00
  -2  -5  12  356.46   10.90
  -2  -5  12  356.46   10.80
  -2  -5  12  350.16   10.80
  -2  -5  12  347.37   10.90
   1   5 -12   85.69    3.50
  -1  -5  12   92.59    3.50
  -1  -5  12   89.29    3.40
  -1  -5  12   93.59    3.50
  -1  -5  12   91.49    3.40
   0   5 -12   80.49    3.40
   0  -5  12   85.39    3.30
   0  -5  12   89.99    3.20
   0  -5  12   85.39    3.30
   0  -5  12   89.59    3.30
  -1   5 -12   79.19    3.60
   1  -5  12   94.49    3.40
   1  -5  12   89.69    3.30
   1  -5  12   91.09    3.40
   1  -5  12   92.29    3.30
   2  -5  12   98.29    3.50
   2  -5  12   96.79    3.40
   2  -5  12   96.19    3.40
   2  -5  12   95.19    3.50
   3  -5  12   -0.10    0.50
   3  -5  12   -0.60    0.60
   3  -5  12    0.50    0.50
   4  -5  12   52.49    2.20
   4  -5  12   49.00    1.90
   4  -5  12   52.69    1.90
   6   4 -12   41.20    1.80
  -6  -4  12   39.50    1.60
   5   4 -12   13.40    1.40
   5   4 -12   13.90    1.50
  -5  -4  12   11.90    1.40
  -5  -4  12   11.90    1.00
   4   4 -12   12.30    1.80
   4   4 -12   14.10    1.40
  -4  -4  12   13.20    1.40
  -4  -4  12   14.40    1.20
   3   4 -12   41.80    2.10
  -3  -4  12   44.20    2.20
  -3  -4  12   44.00    2.10
  -3  -4  12   41.80    2.20
   2   4 -12   65.79    2.90
  -2  -4  12   73.49    2.90
  -2  -4  12   72.29    2.80
  -2  -4  12   70.39    3.20
  -2  -4  12   71.69    2.90
   1   4 -12   76.69    3.20
  -1  -4  12   80.09    3.10
  -1  -4  12   78.19    3.00
  -1  -4  12   76.99    3.10
  -1  -4  12   78.59    3.20
   0   4 -12  179.18    6.30
   0  -4  12  192.88    6.20
   0  -4  12  187.78    6.30
   0  -4  12  189.18    6.30
   0  -4  12  193.08    6.20
   1  -4  12  370.36   11.60
   1  -4  12  365.76   11.50
   1  -4  12  373.96   11.50
   1  -4  12  375.06   11.60
   2  -4  12    0.80    0.60
   2  -4  12    2.30    0.70
   2  -4  12    2.00    0.60
   2  -4  12    0.00    0.60
   3  -4  12  155.08    5.00
   3  -4  12  152.38    5.00
   3  -4  12  154.28    5.00
   4  -4  12   11.80    1.10
   4  -4  12   15.50    1.00
   4  -4  12   16.20    1.00
   6   3 -12    1.30    0.70
  -6  -3  12    0.30    0.50
   5   3 -12  109.29    4.00
   5   3 -12  111.79    4.00
  -5  -3  12  116.89    3.80
   4   3 -12   14.00    2.20
   4   3 -12   12.10    1.30
  -4  -3  12   13.50    1.20
  -4  -3  12   12.80    1.70
   3   3 -12  123.19    4.50
  -3  -3  12  120.89    4.60
  -3  -3  12  135.99    4.40
   2   3 -12   11.10    1.30
  -2  -3  12    9.50    1.60
  -2  -3  12   13.30    1.40
  -2  -3  12   11.80    1.40
   1   3 -12   77.89    3.20
  -1  -3  12   84.79    3.20
  -1  -3  12   81.99    3.30
  -1  -3  12   83.39    3.10
   0   3 -12   73.19    3.20
   0  -3  12   82.29    3.10
   0  -3  12   80.69    3.20
   0  -3  12   79.49    3.10
   0  -3  12   79.99    3.00
   1  -3  12   93.29    3.70
   1  -3  12   95.59    3.40
   1  -3  12   92.79    3.40
   2  -3  12   37.70    1.80
   2  -3  12   38.60    1.80
   2  -3  12   37.80    1.80
   3  -3  12   59.19    2.30
   3  -3  12   60.09    2.30
   3  -3  12   63.09    2.30
   6   2 -12    0.70    0.90
  -6  -2  12   -0.60    0.40
   5   2 -12   23.80    2.00
   5   2 -12   21.40    2.10
  -5  -2  12   27.50    1.30
   4   2 -12    0.70    0.80
  -4  -2  12    0.10    0.60
   3   2 -12   40.90    2.00
  -3  -2  12   41.90    2.00
   2   2 -12   39.90    2.10
  -2  -2  12   45.30    2.10
   1   2 -12  110.19    4.20
  -1  -2  12  115.89    4.10
  -1  -2  12  122.19    4.20
   0   2 -12   88.89    3.70
   0  -2  12   95.69    3.40
   1  -2  12   48.70    2.20
   1  -2  12   49.00    2.10
   1  -2  12   47.30    2.20
   2  -2  12    2.40    0.60
   2  -2  12   -0.10    0.60
   2  -2  12    1.40    0.70
  -3   2 -12    1.00    0.80
   3  -2  12    1.50    0.60
   3  -2  12   -0.30    0.50
   3  -2  12    0.50    0.60
  -6  -1  12   25.90    1.20
   5   1 -12    6.00    1.30
   4   1 -12   13.80    1.30
  -4  -1  12   13.60    1.20
   3   1 -12    4.10    1.10
   3   1 -12    4.90    1.20
  -3  -1  12    5.00    1.10
   2   1 -12    5.00    1.20
  -2  -1  12    8.70    1.20
   1   1 -12    2.10    1.10
  -1  -1  12    3.20    0.80
   0  -1  12   30.40    1.70
   0  -1  12   26.00    1.90
   0  -1  12   28.60    3.50
   1  -1  12   16.40    1.70
   1  -1  12   12.40    1.30
   1  -1  12   15.30    1.20
  -2   1 -12    1.70    0.60
   2  -1  12    1.30    0.60
   2  -1  12    2.00    0.60
   2  -1  12    0.30    0.90
   3  -1  12   11.70    1.00
   5   0 -12   81.09    3.10
  -5   0  12   81.69    2.80
   4   0 -12   44.10    2.10
  -4   0  12   46.90    1.90
   3   0 -12   48.70    2.30
   3   0 -12   48.30    2.30
  -3   0  12   47.90    2.10
   2   0 -12    8.10    1.50
   2   0 -12    7.70    1.20
  -2   0  12    7.60    1.20
   1   0 -12    4.80    1.10
   1   0 -12    8.10    1.90
  -1   0  12    7.40    1.20
   0   0 -12   35.70    1.70
   0   0  12   38.60    1.80
  -1   0 -12   88.69    3.10
   1   0  12   86.79    3.10
  -2   0 -12   13.40    1.20
   2   0  12   14.70    1.20
   5  -1 -12   12.60    1.50
   4  -1 -12   45.20    2.10
   3  -1 -12   69.09    2.90
  -3   1  12   70.59    2.60
   2  -1 -12    6.00    1.10
   2  -1 -12    4.40    1.30
  -2   1  12    7.20    1.30
   1  -1 -12   82.09    2.90
  -1   1  12   79.59    3.00
   0  -1 -12  125.59    4.10
   0   1  12  119.09    4.30
  -1  -1 -12    7.10    0.80
   4  -2 -12    1.50    0.90
   3  -2 -12   28.30    1.90
   2  -2 -12    0.20    0.70
   1  -2 -12   73.79    2.60
   0  -2 -12   81.69    2.80
   2   9 -13    1.40    1.20
  -2  -9  13    0.30    0.50
  -2  -9  13    0.80    0.60
   1   9 -13    2.80    0.80
  -1  -9  13    4.00    0.80
   0   9 -13   22.70    1.60
   0  -9  13   19.80    1.20
   0  -9  13   22.70    1.10
   0  -9  13   22.40    1.10
   1  -9  13   11.00    0.90
   1  -9  13   12.50    1.10
   1  -9  13   10.10    1.10
   3   8 -13  122.39    4.20
  -3  -8  13  125.69    4.00
   2   8 -13   45.70    2.00
  -2  -8  13   44.20    1.70
  -2  -8  13   40.50    1.80
   1   8 -13    3.80    0.90
  -1  -8  13    5.00    0.90
  -1  -8  13    4.60    0.90
  -1  -8  13    5.70    0.90
   0   8 -13    0.00    0.90
   0  -8  13   -1.00    0.50
   0  -8  13   -0.40    0.50
   0  -8  13   -0.20    0.50
  -1   8 -13    3.00    1.40
   1  -8  13    1.70    0.50
   1  -8  13    1.10    0.50
   1  -8  13    1.70    0.50
   2  -8  13    4.00    0.90
   2  -8  13    4.20    0.70
   2  -8  13    5.90    1.00
   4   7 -13    7.00    1.70
  -4  -7  13    5.50    0.80
   3   7 -13   44.80    2.00
  -3  -7  13   45.10    1.80
   2   7 -13   26.70    1.60
  -2  -7  13   24.80    1.50
  -2  -7  13   24.40    1.40
  -2  -7  13   25.70    1.30
   1   7 -13   55.89    2.40
  -1  -7  13   56.49    2.20
  -1  -7  13   57.49    2.20
  -1  -7  13   55.89    2.20
  -1  -7  13   56.39    2.50
   0   7 -13   55.59    2.40
   0  -7  13   53.79    2.20
   0  -7  13   53.49    2.10
   0  -7  13   54.09    2.40
   0  -7  13   54.69    2.10
  -1   7 -13   10.30    2.10
   1  -7  13    9.90    1.00
   1  -7  13   10.40    1.20
   1  -7  13   11.60    1.00
   2  -7  13   24.20    1.20
   2  -7  13   25.00    1.20
   2  -7  13   22.90    1.20
   2  -7  13   23.40    1.80
   4   6 -13   47.70    2.10
   4   6 -13   46.90    2.40
  -4  -6  13   47.10    2.00
  -4  -6  13   46.50    1.80
   3   6 -13   18.40    1.40
  -3  -6  13   19.40    1.40
  -3  -6  13   17.60    1.10
   2   6 -13   12.60    1.30
  -2  -6  13   13.20    1.40
  -2  -6  13   13.30    1.10
  -2  -6  13   12.80    1.50
  -2  -6  13   13.50    1.20
   1   6 -13  135.09    4.70
  -1  -6  13  136.09    4.50
  -1  -6  13  132.99    4.50
  -1  -6  13  134.09    4.50
  -1  -6  13  136.19    4.60
   0   6 -13   93.59    3.40
   0  -6  13   91.09    3.20
   0  -6  13   91.39    3.20
   0  -6  13   90.69    3.30
   0  -6  13   90.19    3.30
   1  -6  13    9.10    1.00
   1  -6  13    7.80    1.20
   1  -6  13   10.20    1.00
   1  -6  13    9.30    1.00
   2  -6  13   29.30    1.40
   2  -6  13   31.50    1.50
   2  -6  13   31.90    1.40
   2  -6  13   29.50    1.40
   3  -6  13   15.20    1.20
   3  -6  13   14.90    0.90
   3  -6  13   13.90    0.90
  -5  -5  13   25.20    1.30
   4   5 -13   80.99    3.00
  -4  -5  13   79.29    2.80
  -4  -5  13   79.79    2.80
   3   5 -13   16.50    1.30
  -3  -5  13   16.50    1.20
  -3  -5  13   14.60    1.20
   2   5 -13  122.69    4.20
  -2  -5  13  117.69    4.20
  -2  -5  13  117.49    4.00
  -2  -5  13  117.39    4.10
  -2  -5  13  120.09    4.00
   1   5 -13   39.30    2.00
  -1  -5  13   40.30    1.90
  -1  -5  13   42.70    1.90
  -1  -5  13   42.20    1.90
  -1  -5  13   42.80    2.00
   0   5 -13   14.30    1.60
   0  -5  13   16.10    1.30
   0  -5  13   12.90    1.20
   0  -5  13   13.60    1.10
   0  -5  13   13.50    1.10
   1  -5  13   33.30    1.60
   1  -5  13   36.40    1.70
   1  -5  13   34.90    1.60
   1  -5  13   35.50    1.60
   2  -5  13   37.60    1.70
   2  -5  13   39.00    1.60
   2  -5  13   37.00    1.60
   3  -5  13   15.50    1.40
   3  -5  13   18.50    1.50
   3  -5  13   18.90    1.10
   4   4 -13  128.69    4.60
  -4  -4  13  130.29    4.30
  -4  -4  13  132.79    4.70
   3   4 -13    1.00    0.80
  -3  -4  13    0.40    0.60
  -3  -4  13    0.80    0.70
   2   4 -13  124.69    4.30
  -2  -4  13  120.59    4.10
  -2  -4  13  123.59    4.20
  -2  -4  13  125.59    4.20
   1   4 -13   49.70    2.30
  -1  -4  13   50.49    2.10
  -1  -4  13   52.39    2.30
  -1  -4  13   53.49    2.20
  -1  -4  13   52.79    2.20
   0   4 -13   28.00    2.00
   0  -4  13   30.00    1.70
   0  -4  13   31.20    1.60
   0  -4  13   30.40    1.50
   0  -4  13   29.60    1.60
   1  -4  13    0.10    0.50
   1  -4  13    0.30    0.50
   1  -4  13    0.80    0.60
   2  -4  13    3.90    0.90
   2  -4  13    5.10    0.90
   2  -4  13    5.20    0.90
   3  -4  13    6.20    0.80
   3  -4  13    6.70    0.80
   5   3 -13   19.00    1.60
  -5  -3  13   16.40    1.00
  -4  -3  13    0.70    0.50
   3   3 -13    3.90    0.80
  -3  -3  13    1.90    0.60
   2   3 -13    0.70    0.70
  -2  -3  13    0.40    0.60
  -2  -3  13    0.70    0.80
   1   3 -13  120.39    4.20
  -1  -3  13  122.29    4.20
  -1  -3  13  118.39    4.00
  -1  -3  13  118.19    4.10
   0  -3  13   23.60    1.40
   0  -3  13   25.70    1.50
   0  -3  13   24.40    1.60
   1  -3  13   41.30    1.80
   1  -3  13   38.60    1.80
   1  -3  13   39.80    1.80
   2  -3  13    6.00    0.90
   2  -3  13    6.90    0.90
   2  -3  13    5.20    1.00
   5   2 -13   91.19    3.30
  -5  -2  13   88.69    3.00
   4   2 -13   33.40    1.70
  -4  -2  13   36.50    1.60
   3   2 -13    6.80    1.10
   3   2 -13    7.10    1.10
  -3  -2  13    6.80    1.00
   2   2 -13  178.58    5.80
  -2  -2  13  171.28    5.60
   1   2 -13   18.80    1.80
  -1  -2  13   18.80    1.20
   0  -2  13   -0.20    0.80
   0  -2  13    1.50    0.50
   0  -2  13   -0.50    1.00
   1  -2  13   36.40    1.70
   1  -2  13   34.40    1.60
   1  -2  13   36.00    1.90
  -2   2 -13   31.20    1.40
   2  -2  13   30.40    1.40
   2  -2  13   28.00    1.60
   4   1 -13   51.39    2.20
  -4  -1  13   51.39    2.00
   3   1 -13   81.39    3.60
   3   1 -13   89.29    3.80
  -3  -1  13   92.59    3.10
   2   1 -13   87.09    2.90
   2   1 -13   73.49    3.70
  -2  -1  13   85.79    2.90
   1   1 -13    4.50    0.90
   1   1 -13    4.40    1.50
  -1  -1  13    3.20    0.70
   0   1 -13   36.80    1.60
   0  -1  13   37.80    1.60
  -1   1 -13   34.10    1.50
   1  -1  13   37.20    1.50
   4   0 -13    1.30    0.90
  -4   0  13    1.10    0.60
   3   0 -13   26.30    1.70
  -3   0  13   25.50    1.40
   2   0 -13   10.70    1.90
   2   0 -13   14.30    1.10
  -2   0  13   11.80    1.10
   1   0 -13    1.60    0.60
  -1   0  13    1.20    0.60
   0   0 -13    3.90    0.80
   0   0  13    4.30    1.10
   2  -1 -13   77.39    2.70
   1  -1 -13   19.70    1.10
  -1  -8  14    7.30    0.90
  -1  -8  14    6.20    0.80
  -1  -8  14    5.90    0.70
   0  -8  14    9.10    0.70
   0  -8  14    9.80    0.80
   0  -8  14   11.20    0.80
   2   7 -14    0.00    0.60
  -2  -7  14    0.50    0.40
   1   7 -14    8.00    1.30
  -1  -7  14    7.20    1.00
  -1  -7  14    8.50    0.80
  -1  -7  14    8.20    0.80
   0  -7  14   21.20    1.10
   0  -7  14   21.70    1.10
   0  -7  14   22.60    1.10
   1  -7  14   -0.30    0.40
   1  -7  14    0.90    0.50
   1  -7  14    0.10    0.40
   3   6 -14   10.60    1.20
  -3  -6  14   11.20    0.90
  -3  -6  14   12.60    1.20
   2   6 -14   49.10    2.00
  -2  -6  14   39.80    2.00
  -2  -6  14   46.70    1.80
   1   6 -14   51.99    2.20
  -1  -6  14   53.79    2.10
  -1  -6  14   51.99    2.00
  -1  -6  14   54.49    2.00
   0  -6  14   10.20    0.80
   0  -6  14    9.70    0.90
   0  -6  14   10.40    1.20
   0  -6  14    9.90    1.00
   1  -6  14   16.90    1.20
   1  -6  14   16.80    1.00
   1  -6  14   16.20    1.00
   3   5 -14   20.40    1.30
  -3  -5  14   19.10    1.20
  -3  -5  14   18.10    1.10
   2   5 -14    0.80    0.80
  -2  -5  14    2.10    0.60
  -2  -5  14    1.30    0.60
   1   5 -14    9.50    1.40
  -1  -5  14    8.80    1.00
  -1  -5  14    9.40    0.90
   0  -5  14    1.40    0.50
   0  -5  14    2.00    0.60
   0  -5  14    1.70    0.60
   1  -5  14    0.30    0.50
   1  -5  14    0.60    0.50
   1  -5  14   -0.20    0.50
  -4  -4  14   51.89    1.90
   3   4 -14   73.49    2.70
  -3  -4  14   73.89    2.60
   2   4 -14    0.70    0.80
  -2  -4  14    0.10    0.50
   1   4 -14   28.00    1.80
  -1  -4  14   27.90    1.40
  -1  -4  14   28.90    1.40
   0  -4  14   19.00    1.20
   0  -4  14   18.40    1.10
   1  -4  14   13.50    0.90
   1  -4  14   12.80    1.00
   1  -4  14   11.90    1.00
   4   3 -14   81.29    3.10
  -4  -3  14   79.39    2.70
   3   3 -14   29.80    1.60
  -3  -3  14   27.90    1.30
   2   3 -14    3.50    0.90
  -2  -3  14    2.50    0.60
   1   3 -14   52.59    2.70
  -1  -3  14   56.29    2.10
   0  -3  14    3.30    0.90
   0  -3  14    4.20    0.70
   0  -3  14    3.70    0.90
   1  -3  14    5.30    0.80
   3   2 -14   34.70    1.80
  -3  -2  14   33.00    1.40
   2   2 -14    5.70    1.00
   2   2 -14    7.20    1.70
  -2  -2  14    6.50    0.80
   1   2 -14   22.60    1.20
  -1  -2  14   21.00    1.10
   0   2 -14    5.90    0.70
   2   1 -14    8.20    1.10
  -2  -1  14   10.20    0.90
   1   1 -14    1.70    0.50
  -1  -1  14    1.40    0.60
_computing_structure_solution     'SHELXT 2014/4 (Sheldrick, 2014)'
;
_shelx_hkl_checksum              12584
_shelx_res_file
;
    SKM180_0m_a.res created by SHELXL-2014/7
TITL SKM180_0m_a.res in P-1
CELL  1.54178   7.2571   9.7909  12.0060  112.984   98.163   96.909
ZERR    1.000   0.0002   0.0002   0.0002    0.001    0.001    0.001
LATT 1
SFAC C  H  N  O  S
UNIT 24  36  6  4  4
REM Old TITL SKM180_0m in P-1
REM SHELXT solution in P-1
REM R1 0.162,  Rweak 0.012,  Alpha 0.042,  Orientation as input
REM Formula found by SHELXT:  C12 N2 O3 S2
L.S. 32
ACTA 134
OMIT 0 0 1
OMIT 0 1 0
BOND $H
FMAP 2
PLAN 5
CONF
EQIV $1 -x, -y, -z
HTAB N2 S1_$1
HTAB N3 O2
EQIV $2 -x+1, -y+1, -z
HTAB N3 O2_$2
EQIV $3 -x+1, -y+1, -z+1
HTAB C7 O2_$3
EADP C11 C11a
EADP C12 C12a
EADP O2 O2a
SADI 0.004 S2 O2 S2 O2a
SADI 0.004 S2 C11 S2 C11a
SADI 0.004 S2 C12 S2 C12a
SIZE 0.092 0.153 0.241
ISOR 0.007 C11 C12 C11a C12a
TEMP -123
WGHT    0.090500    0.766000
EXTI    0.006146
FVAR       1.01552   0.83057
S1    5    0.180215    0.042860   -0.121069    11.00000    0.04550    0.03297 =
         0.02801    0.00985    0.01101   -0.00134
O1    4    0.173481    0.249744    0.511840    11.00000    0.05145    0.03082 =
         0.02569    0.01345    0.01134    0.00104
N1    3    0.222843    0.335798    0.221354    11.00000    0.03201    0.03138 =
         0.02608    0.01170    0.00515    0.00123
N2    3    0.172723    0.207120    0.111331    11.00000    0.04007    0.02961 =
         0.02738    0.01182    0.00809   -0.00341
AFIX   3
H2A   2    0.087484    0.124827    0.101110    11.00000   -1.20000
AFIX   0
N3    3    0.346639    0.328146    0.020940    11.00000    0.04606    0.03392 =
         0.03391    0.01109    0.01590   -0.00237
AFIX   3
H3A   2    0.376920    0.410200    0.094972    11.00000   -1.20000
H3B   2    0.370791    0.327322   -0.051635    11.00000   -1.20000
AFIX   0
C1    1    0.217938    0.400157    0.540311    11.00000    0.02801    0.03193 =
         0.02967    0.01259    0.00652    0.00469
C2    1    0.256165    0.513655    0.659427    11.00000    0.03781    0.03980 =
         0.02957    0.01099    0.00678    0.00599
AFIX  43
H2    2    0.249009    0.488819    0.727884    11.00000   -1.20000
AFIX   0
C3    1    0.304760    0.663195    0.677881    11.00000    0.03860    0.03573 =
         0.03533    0.00248    0.00109    0.00837
AFIX  43
H3    2    0.330339    0.740816    0.759336    11.00000   -1.20000
AFIX   0
C4    1    0.316491    0.700867    0.578986    11.00000    0.04751    0.02746 =
         0.04575    0.01011   -0.00117    0.00688
AFIX  43
H4    2    0.349970    0.803803    0.592623    11.00000   -1.20000
AFIX   0
C5    1    0.279224    0.587893    0.459962    11.00000    0.04051    0.03221 =
         0.03999    0.01758    0.00015    0.00508
AFIX  43
H5    2    0.288897    0.613918    0.392337    11.00000   -1.20000
AFIX   0
C6    1    0.227854    0.436943    0.438530    11.00000    0.02655    0.02989 =
         0.02883    0.01272    0.00457    0.00561
C7    1    0.135555    0.204298    0.608003    11.00000    0.04477    0.04383 =
         0.02415    0.01842    0.00494    0.00049
AFIX  23
H7A   2    0.027203    0.245780    0.641031    11.00000   -1.20000
H7B   2    0.247983    0.241814    0.676628    11.00000   -1.20000
AFIX   0
C8    1    0.089382    0.033586    0.550722    11.00000    0.04644    0.04164 =
         0.03012    0.02234    0.00184    0.00152
AFIX  23
H8A   2    0.073838   -0.001485    0.616413    11.00000   -1.20000
H8B   2    0.197784   -0.005071    0.515712    11.00000   -1.20000
AFIX   0
C9    1    0.184048    0.314978    0.314448    11.00000    0.03057    0.02931 =
         0.02925    0.01342    0.00521    0.00251
AFIX  43
H9    2    0.124779    0.217049    0.302749    11.00000   -1.20000
AFIX   0
C10   1    0.238494    0.204173    0.011480    11.00000    0.03061    0.03289 =
         0.02929    0.01587    0.00708    0.00397
S2    5    0.290913    0.733362    0.183879    11.00000    0.05056    0.05736 =
         0.08817    0.04329    0.03880    0.02017
PART 1
O2    4    0.452516    0.650974    0.164443    21.00000    0.02793    0.02727 =
         0.03122    0.01706    0.00993    0.00588
C11   1    0.368902    0.910160    0.285535    21.00000    0.10854    0.07655 =
         0.13964    0.01438    0.05500    0.02268
AFIX  33
H11A  2    0.262091    0.963099    0.297604    21.00000   -1.50000
H11B  2    0.429672    0.911723    0.364431    21.00000   -1.50000
H11C  2    0.461247    0.960627    0.254925    21.00000   -1.50000
AFIX   0
C12   1    0.262451    0.793360    0.055713    21.00000    0.08534    0.14364 =
         0.12704    0.09823    0.03596    0.05383
AFIX  33
H12A  2    0.158216    0.849109    0.060705    21.00000   -1.50000
H12B  2    0.380181    0.858762    0.061665    21.00000   -1.50000
H12C  2    0.233831    0.704096   -0.023345    21.00000   -1.50000
AFIX   0
PART 2
O2A   4    0.095560    0.637157    0.124513   -21.00000    0.02793    0.02727 =
         0.03122    0.01706    0.00993    0.00588
C11A  1    0.206779    0.759652    0.309928   -21.00000    0.10854    0.07655 =
         0.13964    0.01438    0.05500    0.02268
AFIX  33
H11D  2    0.303885    0.826894    0.382915   -21.00000   -1.50000
H11E  2    0.094285    0.805500    0.307532   -21.00000   -1.50000
H11F  2    0.172223    0.662169    0.314165   -21.00000   -1.50000
AFIX   0
C12A  1    0.333532    0.906910    0.158201   -21.00000    0.08534    0.14364 =
         0.12704    0.09823    0.03596    0.05383
AFIX  33
H12D  2    0.463132    0.962355    0.199706   -21.00000   -1.50000
H12E  2    0.317143    0.880255    0.069301   -21.00000   -1.50000
H12F  2    0.243014    0.970524    0.191923   -21.00000   -1.50000
AFIX   0
HKLF 4
REM  SKM180_0m_a.res in P-1
REM R1 =  0.0560 for    2679 Fo > 4sig(Fo)  and  0.0596 for all    2932 data
REM    183 parameters refined using     27 restraints
END
WGHT      0.0905      0.7655
REM Highest difference peak  0.884,  deepest hole -0.678,  1-sigma level  0.078
Q1    1   0.1724  0.6524  0.0072  11.00000  0.05    0.47
Q2    1   0.2162  0.3814  0.3790  11.00000  0.05    0.28
Q3    1   0.2525  0.7637  0.1403  11.00000  0.05    0.26
Q4    1   0.0000  0.0000  0.5000  10.50000  0.05    0.25
Q5    1   0.2266  0.4176  0.4978  11.00000  0.05    0.24
;
_shelx_res_checksum              77641
loop_
_space_group_symop_operation_xyz
'x, y, z'
'-x, -y, -z'
loop_
_atom_site_type_symbol
_atom_site_label
_atom_site_fract_x
_atom_site_fract_y
_atom_site_fract_z
_atom_site_U_iso_or_equiv
_atom_site_adp_type
_atom_site_calc_flag
_atom_site_occupancy
_atom_site_disorder_assembly
_atom_site_disorder_group
S S1 0.18022(10) 0.04286(7) -0.12107(6) 0.0368(2) Uani d 1 . .
O O1 0.1735(3) 0.2497(2) 0.51184(15) 0.0357(4) Uani d 1 . .
N N1 0.2228(3) 0.3358(2) 0.22135(18) 0.0304(5) Uani d 1 . .
N N2 0.1727(3) 0.2071(2) 0.11133(19) 0.0332(5) Uani d 1 . .
H H2A 0.0875 0.1248 0.1011 0.040 Uiso d 1 . .
N N3 0.3466(3) 0.3281(3) 0.0209(2) 0.0390(5) Uani d 1 . .
H H3A 0.3769 0.4102 0.0950 0.047 Uiso d 1 . .
H H3B 0.3708 0.3273 -0.0516 0.047 Uiso d 1 . .
C C1 0.2179(3) 0.4002(3) 0.5403(2) 0.0300(5) Uani d 1 . .
C C2 0.2562(4) 0.5137(3) 0.6594(2) 0.0370(6) Uani d 1 . .
H H2 0.2490 0.4888 0.7279 0.044 Uiso calc 1 . .
C C3 0.3048(4) 0.6632(3) 0.6779(3) 0.0411(7) Uani d 1 . .
H H3 0.3303 0.7408 0.7593 0.049 Uiso calc 1 . .
C C4 0.3165(4) 0.7009(3) 0.5790(3) 0.0431(7) Uani d 1 . .
H H4 0.3500 0.8038 0.5926 0.052 Uiso calc 1 . .
C C5 0.2792(4) 0.5879(3) 0.4600(3) 0.0378(6) Uani d 1 . .
H H5 0.2889 0.6139 0.3923 0.045 Uiso calc 1 . .
C C6 0.2279(3) 0.4369(3) 0.4385(2) 0.0284(5) Uani d 1 . .
C C7 0.1356(4) 0.2043(3) 0.6080(2) 0.0372(6) Uani d 1 . .
H H7A 0.0272 0.2458 0.6410 0.045 Uiso calc 1 . .
H H7B 0.2480 0.2418 0.6766 0.045 Uiso calc 1 . .
C C8 0.0894(4) 0.0336(3) 0.5507(2) 0.0383(6) Uani d 1 . .
H H8A 0.0738 -0.0015 0.6164 0.046 Uiso calc 1 . .
H H8B 0.1978 -0.0051 0.5157 0.046 Uiso calc 1 . .
C C9 0.1840(3) 0.3150(3) 0.3144(2) 0.0297(5) Uani d 1 . .
H H9 0.1248 0.2170 0.3027 0.036 Uiso calc 1 . .
C C10 0.2385(4) 0.2042(3) 0.0115(2) 0.0301(5) Uani d 1 . .
S S2 0.29091(12) 0.73336(10) 0.18388(10) 0.0576(3) Uani d 1 . .
O O2 0.4525(3) 0.6510(2) 0.16444(18) 0.0268(5) Uani d 0.831(3) A 1
C C11 0.3689(11) 0.9102(8) 0.2855(8) 0.114(2) Uani d 0.831(3) A 1
H H11A 0.2621 0.9631 0.2976 0.172 Uiso calc 0.831(3) A 1
H H11B 0.4297 0.9117 0.3644 0.172 Uiso calc 0.831(3) A 1
H H11C 0.4612 0.9606 0.2549 0.172 Uiso calc 0.831(3) A 1
C C12 0.2625(10) 0.7934(10) 0.0557(7) 0.101(2) Uani d 0.831(3) A 1
H H12A 0.1582 0.8491 0.0607 0.151 Uiso calc 0.831(3) A 1
H H12B 0.3802 0.8588 0.0617 0.151 Uiso calc 0.831(3) A 1
H H12C 0.2338 0.7041 -0.0233 0.151 Uiso calc 0.831(3) A 1
O O2A 0.0956(8) 0.6372(9) 0.1245(8) 0.0268(5) Uani d 0.169(3) A 2
C C11A 0.207(5) 0.760(4) 0.310(2) 0.114(2) Uani d 0.169(3) A 2
H H11D 0.3039 0.8269 0.3829 0.172 Uiso calc 0.169(3) A 2
H H11E 0.0943 0.8055 0.3075 0.172 Uiso calc 0.169(3) A 2
H H11F 0.1722 0.6622 0.3142 0.172 Uiso calc 0.169(3) A 2
C C12A 0.334(5) 0.907(3) 0.158(4) 0.101(2) Uani d 0.169(3) A 2
H H12D 0.4631 0.9624 0.1997 0.151 Uiso calc 0.169(3) A 2
H H12E 0.3171 0.8803 0.0693 0.151 Uiso calc 0.169(3) A 2
H H12F 0.2430 0.9705 0.1919 0.151 Uiso calc 0.169(3) A 2
loop_
_atom_site_aniso_label
_atom_site_aniso_U_11
_atom_site_aniso_U_22
_atom_site_aniso_U_33
_atom_site_aniso_U_12
_atom_site_aniso_U_13
_atom_site_aniso_U_23
S1 0.0455(4) 0.0330(4) 0.0280(4) -0.0013(3) 0.0110(3) 0.0099(3)
O1 0.0514(11) 0.0308(9) 0.0257(8) 0.0010(8) 0.0113(8) 0.0135(7)
N1 0.0320(11) 0.0314(10) 0.0261(10) 0.0012(8) 0.0052(8) 0.0117(8)
N2 0.0401(12) 0.0296(10) 0.0274(10) -0.0034(9) 0.0081(9) 0.0118(9)
N3 0.0461(13) 0.0339(11) 0.0339(11) -0.0024(10) 0.0159(10) 0.0111(9)
C1 0.0280(12) 0.0319(12) 0.0297(12) 0.0047(10) 0.0065(9) 0.0126(10)
C2 0.0378(14) 0.0398(14) 0.0296(13) 0.0060(11) 0.0068(10) 0.0110(11)
C3 0.0386(14) 0.0357(14) 0.0353(14) 0.0084(11) 0.0011(11) 0.0025(11)
C4 0.0475(16) 0.0275(13) 0.0458(16) 0.0069(12) -0.0012(13) 0.0101(12)
C5 0.0405(15) 0.0322(13) 0.0400(14) 0.0051(11) 0.0002(11) 0.0176(11)
C6 0.0266(12) 0.0299(12) 0.0288(12) 0.0056(9) 0.0046(9) 0.0127(10)
C7 0.0448(15) 0.0438(15) 0.0241(12) 0.0005(12) 0.0049(10) 0.0184(11)
C8 0.0464(16) 0.0416(14) 0.0301(13) 0.0015(12) 0.0018(12) 0.0223(12)
C9 0.0306(12) 0.0293(12) 0.0292(12) 0.0025(10) 0.0052(9) 0.0134(10)
C10 0.0306(12) 0.0329(12) 0.0293(12) 0.0040(10) 0.0071(9) 0.0159(10)
S2 0.0506(5) 0.0574(5) 0.0882(7) 0.0202(4) 0.0388(4) 0.0433(5)
O2 0.0279(10) 0.0273(10) 0.0312(10) 0.0059(8) 0.0099(8) 0.0171(8)
C11 0.109(5) 0.077(4) 0.140(6) 0.023(3) 0.055(4) 0.014(4)
C12 0.085(4) 0.144(5) 0.127(5) 0.054(4) 0.036(4) 0.098(4)
O2A 0.0279(10) 0.0273(10) 0.0312(10) 0.0059(8) 0.0099(8) 0.0171(8)
C11A 0.109(5) 0.077(4) 0.140(6) 0.023(3) 0.055(4) 0.014(4)
C12A 0.085(4) 0.144(5) 0.127(5) 0.054(4) 0.036(4) 0.098(4)
loop_
_atom_type_symbol
_atom_type_description
_atom_type_scat_dispersion_real
_atom_type_scat_dispersion_imag
_atom_type_scat_source
C C 0.0181 0.0091 'International Tables Vol C Tables 4.2.6.8 and 6.1.1.4'
H H 0.0000 0.0000 'International Tables Vol C Tables 4.2.6.8 and 6.1.1.4'
N N 0.0311 0.0180 'International Tables Vol C Tables 4.2.6.8 and 6.1.1.4'
O O 0.0492 0.0322 'International Tables Vol C Tables 4.2.6.8 and 6.1.1.4'
S S 0.3331 0.5567 'International Tables Vol C Tables 4.2.6.8 and 6.1.1.4'
loop_
_geom_angle_atom_site_label_1
_geom_angle_atom_site_label_2
_geom_angle_atom_site_label_3
_geom_angle_site_symmetry_1
_geom_angle_site_symmetry_3
_geom_angle
C1 O1 C7 . . 118.3(2)
C9 N1 N2 . . 114.0(2)
C10 N2 N1 . . 120.4(2)
C10 N2 H2A . . 117.1
N1 N2 H2A . . 122.4
C10 N3 H3A . . 119.0
C10 N3 H3B . . 115.2
H3A N3 H3B . . 125.2
O1 C1 C2 . . 124.6(2)
O1 C1 C6 . . 115.2(2)
C2 C1 C6 . . 120.2(2)
C3 C2 C1 . . 119.7(3)
C3 C2 H2 . . 120.2
C1 C2 H2 . . 120.2
C4 C3 C2 . . 120.7(3)
C4 C3 H3 . . 119.6
C2 C3 H3 . . 119.6
C3 C4 C5 . . 119.8(3)
C3 C4 H4 . . 120.1
C5 C4 H4 . . 120.1
C4 C5 C6 . . 120.7(3)
C4 C5 H5 . . 119.6
C6 C5 H5 . . 119.6
C5 C6 C1 . . 118.9(2)
C5 C6 C9 . . 122.4(2)
C1 C6 C9 . . 118.8(2)
O1 C7 C8 . . 106.9(2)
O1 C7 H7A . . 110.3
C8 C7 H7A . . 110.3
O1 C7 H7B . . 110.3
C8 C7 H7B . . 110.3
H7A C7 H7B . . 108.6
C7 C8 C8 . 2_556 113.8(3)
C7 C8 H8A . . 108.8
C8 C8 H8A 2_556 . 108.8
C7 C8 H8B . . 108.8
C8 C8 H8B 2_556 . 108.8
H8A C8 H8B . . 107.7
N1 C9 C6 . . 122.0(2)
N1 C9 H9 . . 119.0
C6 C9 H9 . . 119.0
N3 C10 N2 . . 118.0(2)
N3 C10 S1 . . 122.66(19)
N2 C10 S1 . . 119.34(18)
O2 S2 C11 . . 110.1(3)
O2A S2 C11A . . 81.0(14)
O2A S2 C12A . . 114.8(11)
C11A S2 C12A . . 112.6(17)
O2 S2 C12 . . 103.4(2)
C11 S2 C12 . . 91.0(4)
S2 C11 H11A . . 109.5
S2 C11 H11B . . 109.5
H11A C11 H11B . . 109.5
S2 C11 H11C . . 109.5
H11A C11 H11C . . 109.5
H11B C11 H11C . . 109.5
S2 C12 H12A . . 109.5
S2 C12 H12B . . 109.5
H12A C12 H12B . . 109.5
S2 C12 H12C . . 109.5
H12A C12 H12C . . 109.5
H12B C12 H12C . . 109.5
S2 C11A H11D . . 109.5
S2 C11A H11E . . 109.5
H11D C11A H11E . . 109.5
S2 C11A H11F . . 109.5
H11D C11A H11F . . 109.5
H11E C11A H11F . . 109.5
S2 C12A H12D . . 109.5
S2 C12A H12E . . 109.5
H12D C12A H12E . . 109.5
S2 C12A H12F . . 109.5
H12D C12A H12F . . 109.5
H12E C12A H12F . . 109.5
loop_
_geom_bond_atom_site_label_1
_geom_bond_atom_site_label_2
_geom_bond_site_symmetry_2
_geom_bond_distance
S1 C10 . 1.700(3)
O1 C1 . 1.360(3)
O1 C7 . 1.438(3)
N1 C9 . 1.274(3)
N1 N2 . 1.385(3)
N2 C10 . 1.343(3)
N2 H2A . 0.9101
N3 C10 . 1.319(3)
N3 H3A . 0.9100
N3 H3B . 0.9101
C1 C2 . 1.389(4)
C1 C6 . 1.411(3)
C2 C3 . 1.385(4)
C2 H2 . 0.9500
C3 C4 . 1.384(4)
C3 H3 . 0.9500
C4 C5 . 1.387(4)
C4 H4 . 0.9500
C5 C6 . 1.390(4)
C5 H5 . 0.9500
C6 C9 . 1.460(3)
C7 C8 . 1.510(4)
C7 H7A . 0.9900
C7 H7B . 0.9900
C8 C8 2_556 1.523(5)
C8 H8A . 0.9900
C8 H8B . 0.9900
C9 H9 . 0.9500
S2 O2 . 1.496(2)
S2 O2A . 1.508(4)
S2 C11 . 1.651(7)
S2 C11A . 1.651(8)
S2 C12A . 1.841(7)
S2 C12 . 1.844(6)
C11 H11A . 0.9800
C11 H11B . 0.9800
C11 H11C . 0.9800
C12 H12A . 0.9800
C12 H12B . 0.9800
C12 H12C . 0.9800
C11A H11D . 0.9800
C11A H11E . 0.9800
C11A H11F . 0.9800
C12A H12D . 0.9800
C12A H12E . 0.9800
C12A H12F . 0.9800
loop_
_geom_hbond_atom_site_label_D
_geom_hbond_atom_site_label_H
_geom_hbond_atom_site_label_A
_geom_hbond_site_symmetry_A
_geom_hbond_distance_DH
_geom_hbond_distance_HA
_geom_hbond_distance_DA
_geom_hbond_angle_DHA
N2 H2A S1 2 0.91 2.49 3.371(2) 163
N3 H3A O2 . 0.91 2.14 2.887(3) 139
N3 H3B O2 2_665 0.91 2.04 2.885(3) 153
C7 H7B O2 2_666 0.99 2.49 3.471(3) 174
loop_
_geom_torsion_atom_site_label_1
_geom_torsion_atom_site_label_2
_geom_torsion_atom_site_label_3
_geom_torsion_atom_site_label_4
_geom_torsion_site_symmetry_4
_geom_torsion
C9 N1 N2 C10 . -166.5(2)
C7 O1 C1 C2 . 9.7(4)
C7 O1 C1 C6 . -171.7(2)
O1 C1 C2 C3 . 178.3(2)
C6 C1 C2 C3 . -0.2(4)
C1 C2 C3 C4 . -0.3(4)
C2 C3 C4 C5 . 0.0(5)
C3 C4 C5 C6 . 0.8(4)
C4 C5 C6 C1 . -1.3(4)
C4 C5 C6 C9 . 178.8(2)
O1 C1 C6 C5 . -177.7(2)
C2 C1 C6 C5 . 1.0(4)
O1 C1 C6 C9 . 2.2(3)
C2 C1 C6 C9 . -179.1(2)
C1 O1 C7 C8 . 179.6(2)
O1 C7 C8 C8 2_556 -63.5(4)
N2 N1 C9 C6 . 179.4(2)
C5 C6 C9 N1 . 13.0(4)
C1 C6 C9 N1 . -166.9(2)
N1 N2 C10 N3 . -1.9(4)
N1 N2 C10 S1 . 178.10(18)

_cod_database_fobs_code 1543476
